data_PCOD9247859
_publ_section_title
;
Structure prediction by ZEFSAII (Michael W. Deem and Ramdas Pophale) SiO2 
 PCOD9247859
Probable space group: P 21/C
;
_chemical_formula_sum "Si O2"
_cell_formula_units_Z 24
_cell_length_a 16.694993
_cell_length_b 5.105324
_cell_length_c 9.885962
_cell_angle_alpha 90.000000
_cell_angle_beta 79.934796
_cell_angle_gamma 90.000000
_cell_volume 829.645398
_symmetry_space_group_name_H-M "P 21/C"
_symmetry_group_IT_number 14
_symmetry_cell_setting 'monoclinic'
loop_
_space_group_symop_operation_xyz
x,y,z
-x,1/2+y,1/2-z
-x,-y,-z
x,1/2-y,1/2+z
loop_
_atom_site_type_symbol
_atom_site_label
_atom_site_fract_x
_atom_site_fract_y
_atom_site_fract_z
Si Si1 0.814346 0.305575 0.426841
Si Si2 0.845154 0.933982 0.184861
Si Si3 0.518014 0.759184 0.335532
Si Si4 0.681330 0.633297 0.204615
Si Si5 0.017096 0.471194 0.678413
Si Si6 0.357300 0.869719 0.965791
O O1 0.819131 0.338137 0.587010
O O2 0.887180 0.504234 0.371170
O O3 0.720706 0.350345 0.411974
O O4 0.839331 0.048655 0.338233
O O5 0.775733 0.714732 0.193732
O O6 0.941009 0.889866 0.121465
O O7 0.493645 0.539468 0.231076
O O8 0.612465 0.697205 0.339590
O O9 0.449559 0.716791 0.471026
O O10 0.663950 0.357424 0.139716
O O11 0.652318 0.853458 0.104156
O O12 0.991777 0.170024 0.690858
#
# Coordination Sequence:
#
# PCOD9247859 Si02
#       6
#     4   4   4   4   4   4
#     4  10  22  42  64  92 124 160 204 252 304 362
#     4  10  22  40  64  92 124 162 204 252 304 362
#     4   8  14  28  51  80 115 154 195 240 293 352
#     4   9  18  33  56  85 119 158 199 245 298 356
#     4  10  23  42  65  92 123 160 203 252 305 362
#     4   9  18  33  56  85 119 158 199 245 298 356
#
# _framework density 28.928021000000001
#
# number of rings (size 3 to 8) (size 9 to 14) (size 15 to 20)
#    0.000    2.667    0.000    0.500    0.000   10.667 
#    0.000   15.833    0.000    0.000    0.000   46.667 
#    0.000    0.000    0.000    0.000    0.000    0.000 
#
# Total GULP energy -133974.012827 kJ/mol
# GULP energy per Si atom -5582.250534 kJ/mol
# Density = 2.886218 g / cm^3
# Si number density = 28.928021 Si / 1000 Ang^3
#
#
#
# Elastic Constant Matrix: (Units=GPa)
#
#
# Indices 1 2 3 4 5 6 
#
# 1 245.3789 32.3217 53.5091 0.0000 -32.2730 0.0000
# 2 32.3217 127.3491 26.9338 0.0000 -1.6593 0.0000
# 3 53.5091 26.9338 70.5558 0.0000 -25.8929 0.0000
# 4 0.0000 0.0000 0.0000 11.5483 0.0000 -11.9310
# 5 -32.2730 -1.6593 -25.8929 0.0000 50.7878 0.0000
# 6 0.0000 0.0000 0.0000 -11.9310 0.0000 53.0259
#
#
#
# Elastic Compliance Matrix: (Units=1/GPa)
#
#
# Indices 1 2 3 4 5 6 
#
# 1 0.005022 -0.000627 -0.002959 0.000000 0.001662 0.000000
# 2 -0.000627 0.008742 -0.003571 0.000000 -0.001933 0.000000
# 3 -0.002959 -0.003571 0.020971 0.000000 0.008695 0.000000
# 4 0.000000 0.000000 0.000000 0.112819 0.000000 0.025385
# 5 0.001662 -0.001933 0.008695 0.000000 0.025115 0.000000
# 6 0.000000 0.000000 0.000000 0.025385 0.000000 0.024570
#
#
# Mechanical properties :
#
#
# Convention : Reuss Voigt Hill
#
# Bulk Modulus (GPa) = 48.97085 74.31255 61.64170
# Shear Modulus (GPa) = 22.89783 45.10701 34.00242
#
# Velocity S-wave (km/s) = 2.81649 3.95306 3.43215
# Velocity P-wave (km/s) = 5.24806 6.82496 6.08778
#
# Compressibility (1/GPa) = 0.02042031
#
# Stress axis : x y z
#
# Youngs Moduli (GPa) = 199.13087 114.39502 47.68380
#
# Poissons Ratio (x) = 0.07173 0.14111
# Poissons Ratio (y) = 0.12486 0.17028
# Poissons Ratio (z) = 0.58928 0.40851
#
# Static dielectric constant tensor:
#      x y z
#    x 2.372130 0.000000 -0.019270 
#    y 0.000000 2.217010 0.000000 
#    z -0.019270 0.000000 2.519310 
# 
# From -- ./inp_files/33348.got.cif
#   From: 2010.05.17/outbox.cif.g08.bks.cpg/sg14_17_cif.got.tgz:33348.got - 2010.06.03 17:49:19.
