data_PCOD9247522
_publ_section_title
;
Structure prediction by ZEFSAII (Michael W. Deem and Ramdas Pophale) SiO2 
 PCOD9247522
Probable space group: P 21/C
;
_chemical_formula_sum "Si O2"
_cell_formula_units_Z 20
_cell_length_a 11.918291
_cell_length_b 9.677299
_cell_length_c 17.769026
_cell_angle_alpha 90.000000
_cell_angle_beta 149.716283
_cell_angle_gamma 90.000000
_cell_volume 1033.487992
_symmetry_space_group_name_H-M "P 21/C"
_symmetry_group_IT_number 14
_symmetry_cell_setting 'monoclinic'
loop_
_space_group_symop_operation_xyz
x,y,z
-x,1/2+y,1/2-z
-x,-y,-z
x,1/2-y,1/2+z
loop_
_atom_site_type_symbol
_atom_site_label
_atom_site_fract_x
_atom_site_fract_y
_atom_site_fract_z
Si Si1 0.052637 0.271665 0.056889
Si Si2 0.680986 0.022205 0.350926
Si Si3 0.757082 0.612936 0.473467
Si Si4 0.597607 0.881306 0.457162
Si Si5 0.166200 0.050789 0.250862
O O1 0.198558 0.411236 0.133157
O O2 0.096501 0.189227 0.005453
O O3 0.129722 0.174421 0.169810
O O4 0.802329 0.329619 0.917211
O O5 0.426415 0.027991 0.178503
O O6 0.696418 0.970242 0.445391
O O7 0.622329 0.724267 0.444248
O O8 0.927760 0.522586 0.619845
O O9 0.738993 0.898374 0.614892
O O10 0.351424 0.941390 0.328951
#
# Coordination Sequence:
#
# PCOD9247522 Si02
#       5
#     4   4   4   4   4
#     4  10  22  38  65  90 119 156 207 245 295 368
#     4  10  22  40  63  91 122 157 202 250 294 361
#     4  11  22  39  65  90 116 163 202 252 298 364
#     4  10  24  41  58  93 126 155 203 254 301 361
#     4  11  23  40  64  88 124 163 198 250 310 361
#
# _framework density 19.351941
#
# number of rings (size 3 to 8) (size 9 to 14) (size 15 to 20)
#    0.000    1.600    2.000    1.800    8.400    0.000 
#    3.600    1.000    0.000    0.000    0.000    0.000 
#    0.000    0.000    0.000    0.000    0.000    0.000 
#
# Total GULP energy -111655.382606 kJ/mol
# GULP energy per Si atom -5582.769130 kJ/mol
# Density = 1.930790 g / cm^3
# Si number density = 19.351941 Si / 1000 Ang^3
#
#
#
# Elastic Constant Matrix: (Units=GPa)
#
#
# Indices 1 2 3 4 5 6 
#
# 1 51.1546 20.6596 25.4351 0.0000 -11.3859 0.0000
# 2 20.6596 67.3487 37.5237 0.0000 -13.2360 0.0000
# 3 25.4351 37.5237 118.4104 0.0000 -12.8974 0.0000
# 4 0.0000 0.0000 0.0000 28.8745 0.0000 1.8877
# 5 -11.3859 -13.2360 -12.8974 0.0000 22.2010 0.0000
# 6 0.0000 0.0000 0.0000 1.8877 0.0000 28.6168
#
#
#
# Elastic Compliance Matrix: (Units=1/GPa)
#
#
# Indices 1 2 3 4 5 6 
#
# 1 0.024623 -0.004217 -0.003044 0.000000 0.008345 0.000000
# 2 -0.004217 0.020165 -0.004708 0.000000 0.007124 0.000000
# 3 -0.003044 -0.004708 0.010799 0.000000 0.001905 0.000000
# 4 0.000000 0.000000 0.000000 0.034783 0.000000 -0.002294
# 5 0.008345 0.007124 0.001905 0.000000 0.054677 0.000000
# 6 0.000000 0.000000 0.000000 -0.002294 0.000000 0.035096
#
#
# Mechanical properties :
#
#
# Convention : Reuss Voigt Hill
#
# Bulk Modulus (GPa) = 31.59774 44.90559 38.25167
# Shear Modulus (GPa) = 23.29594 26.15816 24.72705
#
# Velocity S-wave (km/s) = 3.47335 3.68055 3.57845
# Velocity P-wave (km/s) = 5.69640 6.42783 6.07313
#
# Compressibility (1/GPa) = 0.03164783
#
# Stress axis : x y z
#
# Youngs Moduli (GPa) = 40.61300 49.59055 92.60467
#
# Poissons Ratio (x) = 0.20913 0.28186
# Poissons Ratio (y) = 0.17127 0.43602
# Poissons Ratio (z) = 0.12361 0.23349
#
# Static dielectric constant tensor:
#      x y z
#    x 1.666790 0.000000 0.033010 
#    y 0.000000 1.689410 0.000000 
#    z 0.033010 0.000000 1.645770 
# 
# From -- ./inp_files/23010.got.cif
#   From: 2010.05.17/outbox.cif.g08.bks.cpg/sg14_12_cif.got.tgz:23010.got - 2010.06.03 17:49:19.
