data_PCOD9247563
_publ_section_title
;
Structure prediction by ZEFSAII (Michael W. Deem and Ramdas Pophale) SiO2 
 PCOD9247563
Probable space group: P 21/C
;
_chemical_formula_sum "Si O2"
_cell_formula_units_Z 20
_cell_length_a 6.805463
_cell_length_b 17.115556
_cell_length_c 8.115637
_cell_angle_alpha 90.000000
_cell_angle_beta 58.999476
_cell_angle_gamma 90.000000
_cell_volume 810.278865
_symmetry_space_group_name_H-M "P 21/C"
_symmetry_group_IT_number 14
_symmetry_cell_setting 'monoclinic'
loop_
_space_group_symop_operation_xyz
x,y,z
-x,1/2+y,1/2-z
-x,-y,-z
x,1/2-y,1/2+z
loop_
_atom_site_type_symbol
_atom_site_label
_atom_site_fract_x
_atom_site_fract_y
_atom_site_fract_z
Si Si1 0.467876 0.686618 0.235606
Si Si2 0.957415 0.090034 0.966218
Si Si3 0.348296 0.844510 0.437598
Si Si4 0.811396 0.031804 0.706059
Si Si5 0.160130 0.134675 0.185807
O O1 0.353092 0.770848 0.313934
O O2 0.510872 0.668587 0.025159
O O3 0.678371 0.685495 0.270015
O O4 0.291239 0.620306 0.371420
O O5 0.941302 0.089319 0.776769
O O6 0.130302 0.142524 0.001440
O O7 0.000000 0.000000 0.000000
O O8 0.377736 0.922271 0.316340
O O9 0.095536 0.854033 0.629549
O O10 0.742146 0.953205 0.829174
O O11 0.000000 0.000000 0.500000
#
# Coordination Sequence:
#
# PCOD9247563 Si02
#       5
#     4   4   4   4   4
#     4  11  22  38  59  86 117 155 196 239 298 353
#     4   9  19  37  59  84 116 149 189 240 286 342
#     4  10  22  39  57  83 118 151 195 246 289 349
#     4   9  18  38  62  84 115 154 193 239 288 337
#     4   9  21  39  61  86 114 153 198 243 294 347
#
# _framework density 24.682860999999999
#
# number of rings (size 3 to 8) (size 9 to 14) (size 15 to 20)
#    0.000    2.400    0.000    2.400    0.000    7.200 
#    0.000   10.000    0.000    0.000    0.000    0.000 
#    0.000    0.000    0.000    0.000    0.000    0.000 
#
# Total GULP energy -111656.866038 kJ/mol
# GULP energy per Si atom -5582.843302 kJ/mol
# Density = 2.462668 g / cm^3
# Si number density = 24.682861 Si / 1000 Ang^3
#
#
#
# Elastic Constant Matrix: (Units=GPa)
#
#
# Indices 1 2 3 4 5 6 
#
# 1 103.0261 15.6002 37.5932 0.0000 33.1291 0.0000
# 2 15.6002 68.9983 16.9127 0.0000 16.2668 0.0000
# 3 37.5932 16.9127 99.6927 0.0000 51.6348 0.0000
# 4 0.0000 0.0000 0.0000 42.3264 0.0000 6.8335
# 5 33.1291 16.2668 51.6348 0.0000 50.2456 0.0000
# 6 0.0000 0.0000 0.0000 6.8335 0.0000 30.9577
#
#
#
# Elastic Compliance Matrix: (Units=1/GPa)
#
#
# Indices 1 2 3 4 5 6 
#
# 1 0.012416 -0.000947 -0.000941 0.000000 -0.006913 0.000000
# 2 -0.000947 0.015763 0.000006 0.000000 -0.004485 0.000000
# 3 -0.000941 0.000006 0.021517 0.000000 -0.021493 0.000000
# 4 0.000000 0.000000 0.000000 0.024499 0.000000 -0.005408
# 5 -0.006913 -0.004485 -0.021493 0.000000 0.048000 0.000000
# 6 0.000000 0.000000 0.000000 -0.005408 0.000000 0.033496
#
#
# Mechanical properties :
#
#
# Convention : Reuss Voigt Hill
#
# Bulk Modulus (GPa) = 21.77122 45.76989 33.77056
# Shear Modulus (GPa) = 28.60988 38.14667 33.37827
#
# Velocity S-wave (km/s) = 3.40825 3.93551 3.68133
# Velocity P-wave (km/s) = 4.93232 6.26374 5.63747
#
# Compressibility (1/GPa) = 0.04593219
#
# Stress axis : x y z
#
# Youngs Moduli (GPa) = 80.54208 63.43929 46.47524
#
# Poissons Ratio (x) = 0.06006 0.04372
# Poissons Ratio (y) = 0.07626 -0.00027
# Poissons Ratio (z) = 0.07577 -0.00036
#
# Static dielectric constant tensor:
#      x y z
#    x 2.016880 0.000000 0.030200 
#    y 0.000000 2.004220 0.000000 
#    z 0.030200 0.000000 1.987640 
# 
# From -- ./inp_files/5447.got.cif
#   From: 2010.05.17/outbox.cif.g08.bks.cpg/sg14_3_cif.got.tgz:5447.got - 2010.06.03 17:49:19.
