data_PCOD9247124
_publ_section_title
;
Structure prediction by ZEFSAII (Michael W. Deem and Ramdas Pophale) SiO2 
 PCOD9247124
Probable space group: P 21/C
;
_chemical_formula_sum "Si O2"
_cell_formula_units_Z 22
_cell_length_a 5.144352
_cell_length_b 13.560615
_cell_length_c 13.106301
_cell_angle_alpha 90.000000
_cell_angle_beta 86.007470
_cell_angle_gamma 90.000000
_cell_volume 912.084230
_symmetry_space_group_name_H-M "P 21/C"
_symmetry_group_IT_number 14
_symmetry_cell_setting 'monoclinic'
loop_
_space_group_symop_operation_xyz
x,y,z
-x,1/2+y,1/2-z
-x,-y,-z
x,1/2-y,1/2+z
loop_
_atom_site_type_symbol
_atom_site_label
_atom_site_fract_x
_atom_site_fract_y
_atom_site_fract_z
Si Si1 0.624354 0.539706 0.831321
Si Si2 0.886686 0.367548 0.696149
Si Si3 0.000000 0.500000 0.000000
Si Si4 0.590425 0.299576 0.311760
Si Si5 0.752489 0.069325 0.990209
Si Si6 0.770626 0.876565 0.643850
O O1 0.735535 0.462423 0.745353
O O2 0.545629 0.636043 0.771963
O O3 0.369917 0.481376 0.884331
O O4 0.830740 0.556775 0.914185
O O5 0.802343 0.269575 0.755173
O O6 0.798347 0.357767 0.583336
O O7 0.174269 0.383936 0.735767
O O8 0.975791 0.394505 0.931563
O O9 0.728730 0.371568 0.386968
O O10 0.387764 0.222603 0.369231
O O11 0.500000 0.000000 0.000000
O O12 0.000000 0.000000 0.000000
#
# Coordination Sequence:
#
# PCOD9247124 Si02
#       6
#     4   4   2   4   4   4
#     4  10  21  44  66  95 137 186 232 305 357 439
#     4  10  24  44  68 102 142 191 242 310 363 449
#     4  10  22  40  70  94 138 190 236 298 374 434
#     4  11  25  43  72 104 145 190 255 302 380 450
#     4  12  27  49  78 108 149 203 250 316 387 453
#     4  10  23  44  65 100 142 185 246 298 377 440
#
# _framework density 24.12058
#
# number of rings (size 3 to 8) (size 9 to 14) (size 15 to 20)
#    0.000    1.455    1.818    1.636    7.636    2.909 
#    9.818    0.000    0.000    0.000    0.000    0.000 
#    0.000    0.000    0.000    0.000    0.000    0.000 
#
# Total GULP energy -122521.393827 kJ/mol
# GULP energy per Si atom -5569.154265 kJ/mol
# Density = 2.406568 g / cm^3
# Si number density = 24.120580 Si / 1000 Ang^3
#
#
#
# Elastic Constant Matrix: (Units=GPa)
#
#
# Indices 1 2 3 4 5 6 
#
# 1 71.1542 35.8771 29.9927 0.0000 37.8553 0.0000
# 2 35.8771 121.0955 48.5337 0.0000 11.9040 0.0000
# 3 29.9927 48.5337 151.2098 0.0000 46.7742 0.0000
# 4 0.0000 0.0000 0.0000 46.5389 0.0000 16.5659
# 5 37.8553 11.9040 46.7742 0.0000 38.6198 0.0000
# 6 0.0000 0.0000 0.0000 16.5659 0.0000 21.2497
#
#
#
# Elastic Compliance Matrix: (Units=1/GPa)
#
#
# Indices 1 2 3 4 5 6 
#
# 1 0.043729 -0.012451 0.011824 0.000000 -0.053347 0.000000
# 2 -0.012451 0.013058 -0.006799 0.000000 0.016414 0.000000
# 3 0.011824 -0.006799 0.015011 0.000000 -0.027675 0.000000
# 4 0.000000 0.000000 0.000000 0.029740 0.000000 -0.023185
# 5 -0.053347 0.016414 -0.027675 0.000000 0.106644 0.000000
# 6 0.000000 0.000000 0.000000 -0.023185 0.000000 0.065134
#
#
# Mechanical properties :
#
#
# Convention : Reuss Voigt Hill
#
# Bulk Modulus (GPa) = 17.55988 63.58516 40.57252
# Shear Modulus (GPa) = 16.27873 36.55208 26.41541
#
# Velocity S-wave (km/s) = 2.60068 3.89702 3.31288
# Velocity P-wave (km/s) = 4.03905 6.83137 5.61167
#
# Compressibility (1/GPa) = 0.05694799
#
# Stress axis : x y z
#
# Youngs Moduli (GPa) = 22.86814 76.58065 66.61753
#
# Poissons Ratio (x) = 0.95348 -0.78772
# Poissons Ratio (y) = 0.28472 0.45293
# Poissons Ratio (z) = -0.27040 0.52067
#
# Static dielectric constant tensor:
#      x y z
#    x 1.381550 0.000000 -0.102220 
#    y 0.000000 1.813120 0.000000 
#    z -0.102220 0.000000 1.579310 
# 
# From -- ./inp_files/36930.got.cif
#   From: 2010.05.17/outbox.cif.g08.bks.cpg/sg14_19_cif.got.tgz:36930.got - 2010.06.03 17:49:19.
