data_PCOD9247446
_publ_section_title
;
Structure prediction by ZEFSAII (Michael W. Deem and Ramdas Pophale) SiO2 
 PCOD9247446
Probable space group: P 21/C
;
_chemical_formula_sum "Si O2"
_cell_formula_units_Z 20
_cell_length_a 23.820057
_cell_length_b 10.006462
_cell_length_c 16.364731
_cell_angle_alpha 90.000000
_cell_angle_beta 15.446878
_cell_angle_gamma 90.000000
_cell_volume 1038.906552
_symmetry_space_group_name_H-M "P 21/C"
_symmetry_group_IT_number 14
_symmetry_cell_setting 'monoclinic'
loop_
_space_group_symop_operation_xyz
x,y,z
-x,1/2+y,1/2-z
-x,-y,-z
x,1/2-y,1/2+z
loop_
_atom_site_type_symbol
_atom_site_label
_atom_site_fract_x
_atom_site_fract_y
_atom_site_fract_z
Si Si1 0.680831 0.476234 0.614438
Si Si2 0.307264 0.230637 0.370224
Si Si3 0.910497 0.112058 0.451320
Si Si4 0.507542 0.201041 0.919442
Si Si5 0.628124 0.466459 0.496490
O O1 0.585374 0.622324 0.768438
O O2 0.562469 0.352369 0.819715
O O3 0.683816 0.460356 0.512684
O O4 0.923767 0.494489 0.302119
O O5 0.345340 0.194096 0.222447
O O6 0.424790 0.124102 0.261197
O O7 0.066024 0.260131 0.731430
O O8 0.720375 0.132231 0.655479
O O9 0.809604 0.087665 0.681393
O O10 0.577519 0.883871 0.036957
#
# Coordination Sequence:
#
# PCOD9247446 Si02
#       5
#     4   4   4   4   4
#     4  10  22  38  59  88 120 149 190 246 287 334
#     4   9  21  37  60  84 118 151 192 236 286 341
#     4   9  22  36  61  82 118 150 197 227 289 343
#     4  11  22  37  65  84 116 155 198 232 289 345
#     4  11  21  40  61  88 116 154 191 240 292 344
#
# _framework density 19.251010000000001
#
# number of rings (size 3 to 8) (size 9 to 14) (size 15 to 20)
#    1.200    0.800    0.000    4.800    5.600    0.000 
#    0.000    0.000    0.000    4.800    0.000    0.000 
#    0.000    0.000    0.000    0.000    0.000    0.000 
#
# Total GULP energy -111505.024419 kJ/mol
# GULP energy per Si atom -5575.251221 kJ/mol
# Density = 1.920719 g / cm^3
# Si number density = 19.251010 Si / 1000 Ang^3
#
#
#
# Elastic Constant Matrix: (Units=GPa)
#
#
# Indices 1 2 3 4 5 6 
#
# 1 27.0498 0.3771 -19.0954 0.0000 8.8677 0.0000
# 2 0.3771 68.5673 -6.7457 0.0000 0.6625 0.0000
# 3 -19.0954 -6.7457 37.5293 0.0000 -14.4391 0.0000
# 4 0.0000 0.0000 0.0000 38.9842 0.0000 -1.9985
# 5 8.8677 0.6625 -14.4391 0.0000 11.5191 0.0000
# 6 0.0000 0.0000 0.0000 -1.9985 0.0000 27.6461
#
#
#
# Elastic Compliance Matrix: (Units=1/GPa)
#
#
# Indices 1 2 3 4 5 6 
#
# 1 0.059356 0.002279 0.025071 0.000000 -0.014398 0.000000
# 2 0.002279 0.015074 0.005525 0.000000 0.004304 0.000000
# 3 0.025071 0.005525 0.063445 0.000000 0.059910 0.000000
# 4 0.000000 0.000000 0.000000 0.025747 0.000000 0.001861
# 5 -0.014398 0.004304 0.059910 0.000000 0.172745 0.000000
# 6 0.000000 0.000000 0.000000 0.001861 0.000000 0.036306
#
#
# Mechanical properties :
#
#
# Convention : Reuss Voigt Hill
#
# Bulk Modulus (GPa) = 4.91096 9.13535 7.02316
# Shear Modulus (GPa) = 13.34054 26.20390 19.77222
#
# Velocity S-wave (km/s) = 2.63530 3.69341 3.20828
# Velocity P-wave (km/s) = 3.43749 4.78999 4.16895
#
# Compressibility (1/GPa) = 0.20362610
#
# Stress axis : x y z
#
# Youngs Moduli (GPa) = 16.84754 66.34090 15.76156
#
# Poissons Ratio (x) = -0.15121 -0.39516
# Poissons Ratio (y) = -0.03840 -0.08708
# Poissons Ratio (z) = -0.42239 -0.36654
#
# Static dielectric constant tensor:
#      x y z
#    x 1.645830 0.000000 -0.024320 
#    y 0.000000 1.702490 0.000000 
#    z -0.024320 0.000000 1.667480 
# 
# From -- ./inp_files/40551.got.cif
#   From: 2010.05.17/outbox.cif.g08.bks.cpg/sg14_21_cif.got.tgz:40551.got - 2010.06.03 17:49:19.
