data_PCOD9247204
_publ_section_title
;
Structure prediction by ZEFSAII (Michael W. Deem and Ramdas Pophale) SiO2 
 PCOD9247204
Probable space group: P 21/C
;
_chemical_formula_sum "Si O2"
_cell_formula_units_Z 22
_cell_length_a 15.918132
_cell_length_b 4.880021
_cell_length_c 25.547703
_cell_angle_alpha 90.000000
_cell_angle_beta 24.867984
_cell_angle_gamma 90.000000
_cell_volume 834.567569
_symmetry_space_group_name_H-M "P 21/C"
_symmetry_group_IT_number 14
_symmetry_cell_setting 'monoclinic'
loop_
_space_group_symop_operation_xyz
x,y,z
-x,1/2+y,1/2-z
-x,-y,-z
x,1/2-y,1/2+z
loop_
_atom_site_type_symbol
_atom_site_label
_atom_site_fract_x
_atom_site_fract_y
_atom_site_fract_z
Si Si1 0.966813 0.664336 0.424384
Si Si2 0.736656 0.516988 0.195131
Si Si3 0.148356 0.368868 0.663873
Si Si4 0.384581 0.214302 0.435146
Si Si5 0.000000 0.000000 0.000000
Si Si6 0.698455 0.659695 0.816896
O O1 0.809401 0.865151 0.488416
O O2 0.890005 0.417176 0.503658
O O3 0.117107 0.546362 0.296871
O O4 0.094598 0.777757 0.403669
O O5 0.525327 0.368911 0.314159
O O6 0.746159 0.589953 0.251612
O O7 0.795700 0.783103 0.131115
O O8 0.286844 0.409321 0.534852
O O9 0.292376 0.265456 0.629435
O O10 0.016817 0.632229 0.751725
O O11 0.507954 0.990818 0.398467
#
# Coordination Sequence:
#
# PCOD9247204 Si02
#       6
#     4   4   4   4   2   4
#     4  10  21  45  67  97 141 190 238 318 382 458
#     4  10  23  43  70  99 140 184 247 310 385 458
#     4  12  26  44  73 106 152 210 249 312 388 454
#     4  11  24  42  69 104 145 191 252 316 371 472
#     4  10  22  44  72  96 138 190 236 316 392 460
#     4  10  23  41  67 103 139 195 247 306 380 451
#
# _framework density 26.360956000000002
#
# number of rings (size 3 to 8) (size 9 to 14) (size 15 to 20)
#    0.000    1.455    1.818    2.182    5.091    3.636 
#    9.818    0.000    0.000    0.000    0.000    0.000 
#    0.000    0.000    0.000    0.000    0.000    0.000 
#
# Total GULP energy -122592.777240 kJ/mol
# GULP energy per Si atom -5572.398965 kJ/mol
# Density = 2.630096 g / cm^3
# Si number density = 26.360956 Si / 1000 Ang^3
#
#
#
# Elastic Constant Matrix: (Units=GPa)
#
#
# Indices 1 2 3 4 5 6 
#
# 1 94.7688 11.3583 30.2240 0.0000 -6.4310 0.0000
# 2 11.3583 122.2753 40.8885 0.0000 -7.0996 0.0000
# 3 30.2240 40.8885 123.1194 0.0000 5.7239 0.0000
# 4 0.0000 0.0000 0.0000 30.4752 0.0000 7.3866
# 5 -6.4310 -7.0996 5.7239 0.0000 43.0276 0.0000
# 6 0.0000 0.0000 0.0000 7.3866 0.0000 34.5518
#
#
#
# Elastic Compliance Matrix: (Units=1/GPa)
#
#
# Indices 1 2 3 4 5 6 
#
# 1 0.011640 0.000036 -0.002969 0.000000 0.002141 0.000000
# 2 0.000036 0.009363 -0.003210 0.000000 0.001977 0.000000
# 3 -0.002969 -0.003210 0.010024 0.000000 -0.002307 0.000000
# 4 0.000000 0.000000 0.000000 0.034607 0.000000 -0.007398
# 5 0.002141 0.001977 -0.002307 0.000000 0.024194 0.000000
# 6 0.000000 0.000000 0.000000 -0.007398 0.000000 0.030524
#
#
# Mechanical properties :
#
#
# Convention : Reuss Voigt Hill
#
# Bulk Modulus (GPa) = 53.35934 56.12280 54.74107
# Shear Modulus (GPa) = 36.00088 38.79043 37.39565
#
# Velocity S-wave (km/s) = 3.69953 3.84019 3.77052
# Velocity P-wave (km/s) = 6.20761 6.40305 6.30609
#
# Compressibility (1/GPa) = 0.01874086
#
# Stress axis : x y z
#
# Youngs Moduli (GPa) = 85.91221 106.80032 99.75653
#
# Poissons Ratio (x) = -0.00383 0.29616
# Poissons Ratio (y) = -0.00308 0.32025
# Poissons Ratio (z) = 0.25506 0.34286
#
# Static dielectric constant tensor:
#      x y z
#    x 2.095710 0.000000 -0.062220 
#    y 0.000000 2.106500 0.000000 
#    z -0.062220 0.000000 2.223190 
# 
# From -- ./inp_files/49525.got.cif
#   From: 2010.05.17/outbox.cif.g08.bks.cpg/sg14_25_cif.got.tgz:49525.got - 2010.06.03 17:49:19.
