data_PCOD9247415
_publ_section_title
;
Structure prediction by ZEFSAII (Michael W. Deem and Ramdas Pophale) SiO2 
 PCOD9247415
Probable space group: P 21/C
;
_chemical_formula_sum "Si O2"
_cell_formula_units_Z 32
_cell_length_a 11.962444
_cell_length_b 7.493174
_cell_length_c 14.922092
_cell_angle_alpha 90.000000
_cell_angle_beta 71.031930
_cell_angle_gamma 90.000000
_cell_volume 1264.936646
_symmetry_space_group_name_H-M "P 21/C"
_symmetry_group_IT_number 14
_symmetry_cell_setting 'monoclinic'
loop_
_space_group_symop_operation_xyz
x,y,z
-x,1/2+y,1/2-z
-x,-y,-z
x,1/2-y,1/2+z
loop_
_atom_site_type_symbol
_atom_site_label
_atom_site_fract_x
_atom_site_fract_y
_atom_site_fract_z
Si Si1 0.102775 0.262025 0.318013
Si Si2 0.144042 0.636458 0.406667
Si Si3 0.646219 0.701806 0.251192
Si Si4 0.023734 0.585297 0.803180
Si Si5 0.616718 0.196601 0.420185
Si Si6 0.653288 0.804396 0.457534
Si Si7 0.810575 0.021331 0.916338
Si Si8 0.388797 0.587434 0.283726
O O1 0.119742 0.442921 0.368204
O O2 0.221247 0.141734 0.302264
O O3 0.089080 0.335918 0.219596
O O4 0.003821 0.108709 0.351429
O O5 0.072250 0.776554 0.364216
O O6 0.121542 0.605970 0.516984
O O7 0.284737 0.683412 0.365075
O O8 0.643025 0.758730 0.355164
O O9 0.527412 0.597740 0.265761
O O10 0.634950 0.880189 0.197249
O O11 0.109556 0.547816 0.693785
O O12 0.477561 0.232888 0.469675
O O13 0.693020 0.365812 0.426596
O O14 0.634088 0.149874 0.311557
O O15 0.660941 0.019837 0.462460
O O16 0.759580 0.673670 0.459539
#
# Coordination Sequence:
#
# PCOD9247415 Si02
#       8
#     4   4   4   4   4   4   4   4
#     4  11  25  47  73  99 140 189 241 299 359 424
#     4  11  26  46  70 111 136 186 243 294 355 441
#     4  10  22  38  62 101 135 181 231 281 348 432
#     4  12  25  49  77  98 143 195 240 306 367 411
#     4  10  22  40  62 101 150 188 227 291 359 422
#     4  10  22  39  61  99 145 186 228 289 355 429
#     4  12  25  42  75 102 142 190 246 295 358 435
#     4  10  22  37  64  97 142 180 229 278 354 424
#
# _framework density 25.297709999999999
#
# number of rings (size 3 to 8) (size 9 to 14) (size 15 to 20)
#    0.000    1.250    3.750    1.125    7.000    1.500 
#    0.000    0.625    0.000    0.000    0.000    0.000 
#    0.000    0.000    0.000    0.000    0.000    0.000 
#
# Total GULP energy -178755.614988 kJ/mol
# GULP energy per Si atom -5586.112968 kJ/mol
# Density = 2.524013 g / cm^3
# Si number density = 25.297710 Si / 1000 Ang^3
#
#
#
# Elastic Constant Matrix: (Units=GPa)
#
#
# Indices 1 2 3 4 5 6 
#
# 1 101.8070 42.8340 21.3427 0.0000 -0.0962 0.0000
# 2 42.8340 113.6587 48.6930 0.0000 5.6733 0.0000
# 3 21.3427 48.6930 84.2725 0.0000 7.4244 0.0000
# 4 0.0000 0.0000 0.0000 24.0870 0.0000 6.2110
# 5 -0.0962 5.6733 7.4244 0.0000 40.8492 0.0000
# 6 0.0000 0.0000 0.0000 6.2110 0.0000 47.2127
#
#
#
# Elastic Compliance Matrix: (Units=1/GPa)
#
#
# Indices 1 2 3 4 5 6 
#
# 1 0.011714 -0.004189 -0.000609 0.000000 0.000720 0.000000
# 2 -0.004189 0.013197 -0.006506 0.000000 -0.000660 0.000000
# 3 -0.000609 -0.006506 0.015956 0.000000 -0.001998 0.000000
# 4 0.000000 0.000000 0.000000 0.042974 0.000000 -0.005653
# 5 0.000720 -0.000660 -0.001998 0.000000 0.024937 0.000000
# 6 0.000000 0.000000 0.000000 -0.005653 0.000000 0.021924
#
#
# Mechanical properties :
#
#
# Convention : Reuss Voigt Hill
#
# Bulk Modulus (GPa) = 54.77405 58.38642 56.58023
# Shear Modulus (GPa) = 31.36800 34.88767 33.12784
#
# Velocity S-wave (km/s) = 3.52512 3.71763 3.62265
# Velocity P-wave (km/s) = 6.18606 6.44651 6.31763
#
# Compressibility (1/GPa) = 0.01825682
#
# Stress axis : x y z
#
# Youngs Moduli (GPa) = 85.37129 75.77214 62.67216
#
# Poissons Ratio (x) = 0.31743 0.03819
# Poissons Ratio (y) = 0.35765 0.40777
# Poissons Ratio (z) = 0.05203 0.49300
#
# Static dielectric constant tensor:
#      x y z
#    x 2.083090 0.000000 -0.045960 
#    y 0.000000 2.039560 0.000000 
#    z -0.045960 0.000000 2.028160 
# 
# From -- ./inp_files/43737.got.cif
#   From: 2010.05.17/outbox.cif.g08.bks.cpg/sg14_22_cif.got.tgz:43737.got - 2010.06.03 17:49:19.
