data_PCOD9247615
_publ_section_title
;
Structure prediction by ZEFSAII (Michael W. Deem and Ramdas Pophale) SiO2 
 PCOD9247615
Probable space group: P 21/C
;
_chemical_formula_sum "Si O2"
_cell_formula_units_Z 24
_cell_length_a 8.312056
_cell_length_b 14.300386
_cell_length_c 8.046609
_cell_angle_alpha 90.000000
_cell_angle_beta 86.736220
_cell_angle_gamma 90.000000
_cell_volume 954.913701
_symmetry_space_group_name_H-M "P 21/C"
_symmetry_group_IT_number 14
_symmetry_cell_setting 'monoclinic'
loop_
_space_group_symop_operation_xyz
x,y,z
-x,1/2+y,1/2-z
-x,-y,-z
x,1/2-y,1/2+z
loop_
_atom_site_type_symbol
_atom_site_label
_atom_site_fract_x
_atom_site_fract_y
_atom_site_fract_z
Si Si1 0.085306 0.616624 0.634335
Si Si2 0.949356 0.765196 0.845417
Si Si3 0.581834 0.778270 0.429497
Si Si4 0.459914 0.891092 0.121168
Si Si5 0.935358 0.951035 0.667423
Si Si6 0.553514 0.945267 0.661824
O O1 0.272623 0.607882 0.582281
O O2 0.008526 0.517364 0.685400
O O3 0.070756 0.681733 0.799440
O O4 0.987383 0.673479 0.503926
O O5 0.771194 0.720786 0.870159
O O6 0.969602 0.843142 0.699194
O O7 0.484938 0.828698 0.287886
O O8 0.548987 0.669900 0.475408
O O9 0.539626 0.838353 0.598873
O O10 0.519256 0.994016 0.179926
O O11 0.743346 0.958726 0.674407
O O12 0.000000 0.000000 0.500000
O O13 0.500000 0.000000 0.500000
#
# Coordination Sequence:
#
# PCOD9247615 Si02
#       6
#     4   4   4   4   4   4
#     4  11  23  41  61  92 126 163 210 259 315 374
#     4  12  24  41  67  94 124 166 212 261 311 371
#     4  11  21  40  63  91 123 163 212 261 311 373
#     4  10  22  39  61  89 126 165 209 262 317 372
#     4  11  23  41  63  90 125 162 204 257 313 372
#     4   9  20  38  61  88 120 163 207 252 313 370
#
# _framework density 25.133161000000001
#
# number of rings (size 3 to 8) (size 9 to 14) (size 15 to 20)
#    0.000    1.333    0.000    6.500    0.000    4.000 
#    0.000   10.833    0.000    0.000    0.000    0.000 
#    0.000    0.000    0.000    0.000    0.000    0.000 
#
# Total GULP energy -134165.408771 kJ/mol
# GULP energy per Si atom -5590.225365 kJ/mol
# Density = 2.507596 g / cm^3
# Si number density = 25.133161 Si / 1000 Ang^3
#
#
#
# Elastic Constant Matrix: (Units=GPa)
#
#
# Indices 1 2 3 4 5 6 
#
# 1 47.6940 10.6297 -11.4433 0.0000 -9.7275 0.0000
# 2 10.6297 173.0237 23.5388 0.0000 -12.9311 0.0000
# 3 -11.4433 23.5388 73.6394 0.0000 -9.8114 0.0000
# 4 0.0000 0.0000 0.0000 58.7552 0.0000 -6.3742
# 5 -9.7275 -12.9311 -9.8114 0.0000 31.0106 0.0000
# 6 0.0000 0.0000 0.0000 -6.3742 0.0000 29.2790
#
#
#
# Elastic Compliance Matrix: (Units=1/GPa)
#
#
# Indices 1 2 3 4 5 6 
#
# 1 0.024412 -0.001591 0.005464 0.000000 0.008723 0.000000
# 2 -0.001591 0.006266 -0.002055 0.000000 0.001464 0.000000
# 3 0.005464 -0.002055 0.015869 0.000000 0.005878 0.000000
# 4 0.000000 0.000000 0.000000 0.017431 0.000000 0.003795
# 5 0.008723 0.001464 0.005878 0.000000 0.037453 0.000000
# 6 0.000000 0.000000 0.000000 0.003795 0.000000 0.034980
#
#
# Mechanical properties :
#
#
# Convention : Reuss Voigt Hill
#
# Bulk Modulus (GPa) = 19.92717 37.75638 28.84178
# Shear Modulus (GPa) = 33.44391 41.91775 37.68083
#
# Velocity S-wave (km/s) = 3.65179 4.08833 3.87621
# Velocity P-wave (km/s) = 5.07214 6.11074 5.61550
#
# Compressibility (1/GPa) = 0.05018273
#
# Stress axis : x y z
#
# Youngs Moduli (GPa) = 40.96383 159.58375 63.01614
#
# Poissons Ratio (x) = 0.25393 -0.34434
# Poissons Ratio (y) = 0.06518 0.12952
# Poissons Ratio (z) = -0.22384 0.32799
#
# Static dielectric constant tensor:
#      x y z
#    x 1.833720 0.000000 0.016610 
#    y 0.000000 1.988110 0.000000 
#    z 0.016610 0.000000 2.138110 
# 
# From -- ./inp_files/8539.got.cif
#   From: 2010.05.17/outbox.cif.g08.bks.cpg/sg14_5_cif.got.tgz:8539.got - 2010.06.03 17:49:19.
