data_PCOD9247382
_publ_section_title
;
Structure prediction by ZEFSAII (Michael W. Deem and Ramdas Pophale) SiO2 
 PCOD9247382
Probable space group: P 21/C
;
_chemical_formula_sum "Si O2"
_cell_formula_units_Z 20
_cell_length_a 24.884280
_cell_length_b 6.964953
_cell_length_c 14.832404
_cell_angle_alpha 90.000000
_cell_angle_beta 161.461754
_cell_angle_gamma 90.000000
_cell_volume 817.328645
_symmetry_space_group_name_H-M "P 21/C"
_symmetry_group_IT_number 14
_symmetry_cell_setting 'monoclinic'
loop_
_space_group_symop_operation_xyz
x,y,z
-x,1/2+y,1/2-z
-x,-y,-z
x,1/2-y,1/2+z
loop_
_atom_site_type_symbol
_atom_site_label
_atom_site_fract_x
_atom_site_fract_y
_atom_site_fract_z
Si Si1 0.050444 0.688326 0.641757
Si Si2 0.278078 0.264021 0.801486
Si Si3 0.782894 0.289180 0.260413
Si Si4 0.843176 0.640354 0.087868
Si Si5 0.492061 0.040349 0.880376
O O1 0.884033 0.808032 0.398484
O O2 0.882580 0.410578 0.160192
O O3 0.000000 0.500000 0.500000
O O4 0.193518 0.774063 0.806423
O O5 0.276637 0.489342 0.821149
O O6 0.222179 0.224373 0.609414
O O7 0.455833 0.153402 0.091025
O O8 0.974886 0.266410 0.603371
O O9 0.646098 0.171511 0.096330
O O10 0.688460 0.647318 0.914512
O O11 0.500000 0.000000 0.000000
#
# Coordination Sequence:
#
# PCOD9247382 Si02
#       5
#     4   4   4   4   4
#     4   8  18  39  58  83 122 156 194 246 299 355
#     4   9  19  36  63  84 118 157 202 249 298 351
#     4  10  22  41  62  85 131 161 190 252 313 347
#     4   9  19  36  60  86 120 152 200 249 288 354
#     4  10  22  37  59  95 119 146 214 253 279 372
#
# _framework density 24.469961999999999
#
# number of rings (size 3 to 8) (size 9 to 14) (size 15 to 20)
#    0.000    3.200    0.000    0.000   11.200    4.000 
#   10.800    4.000    0.000    0.000    0.000    0.000 
#    0.000    0.000    0.000    0.000    0.000    0.000 
#
# Total GULP energy -111357.531074 kJ/mol
# GULP energy per Si atom -5567.876554 kJ/mol
# Density = 2.441427 g / cm^3
# Si number density = 24.469962 Si / 1000 Ang^3
#
#
#
# Elastic Constant Matrix: (Units=GPa)
#
#
# Indices 1 2 3 4 5 6 
#
# 1 324.0555 270.9044 123.1577 0.0000 64.1490 0.0000
# 2 270.9044 355.6869 108.6859 0.0000 40.1080 0.0000
# 3 123.1577 108.6859 185.4763 0.0000 60.5398 0.0000
# 4 0.0000 0.0000 0.0000 32.1195 0.0000 19.6389
# 5 64.1490 40.1080 60.5398 0.0000 68.8335 0.0000
# 6 0.0000 0.0000 0.0000 19.6389 0.0000 40.2906
#
#
#
# Elastic Compliance Matrix: (Units=1/GPa)
#
#
# Indices 1 2 3 4 5 6 
#
# 1 0.010184 -0.006863 -0.001330 0.000000 -0.004323 0.000000
# 2 -0.006863 0.008055 -0.001008 0.000000 0.002589 0.000000
# 3 -0.001330 -0.001008 0.008793 0.000000 -0.005907 0.000000
# 4 0.000000 0.000000 0.000000 0.044352 0.000000 -0.021619
# 5 -0.004323 0.002589 -0.005907 0.000000 0.022243 0.000000
# 6 0.000000 0.000000 0.000000 -0.021619 0.000000 0.035357
#
#
# Mechanical properties :
#
#
# Convention : Reuss Voigt Hill
#
# Bulk Modulus (GPa) = 115.86705 207.85718 161.86211
# Shear Modulus (GPa) = 33.27501 52.41343 42.84422
#
# Velocity S-wave (km/s) = 3.69159 4.63314 4.18890
# Velocity P-wave (km/s) = 8.10086 10.66534 9.47031
#
# Compressibility (1/GPa) = 0.00863058
#
# Stress axis : x y z
#
# Youngs Moduli (GPa) = 98.18993 124.15339 113.72248
#
# Poissons Ratio (x) = 0.85206 0.15125
# Poissons Ratio (y) = 0.67387 0.11461
# Poissons Ratio (z) = 0.13060 0.12513
#
# Static dielectric constant tensor:
#      x y z
#    x 2.038630 0.000000 -0.068560 
#    y 0.000000 2.046680 0.000000 
#    z -0.068560 0.000000 2.103910 
# 
# From -- ./inp_files/51299.got.cif
#   From: 2010.05.17/outbox.cif.g08.bks.cpg/sg14_26_cif.got.tgz:51299.got - 2010.06.03 17:49:19.
