data_PCOD9247678
_publ_section_title
;
Structure prediction by ZEFSAII (Michael W. Deem and Ramdas Pophale) SiO2 
 PCOD9247678
Probable space group: P 21/C
;
_chemical_formula_sum "Si O2"
_cell_formula_units_Z 28
_cell_length_a 12.711168
_cell_length_b 5.412918
_cell_length_c 20.987398
_cell_angle_alpha 90.000000
_cell_angle_beta 60.728890
_cell_angle_gamma 90.000000
_cell_volume 1259.648298
_symmetry_space_group_name_H-M "P 21/C"
_symmetry_group_IT_number 14
_symmetry_cell_setting 'monoclinic'
loop_
_space_group_symop_operation_xyz
x,y,z
-x,1/2+y,1/2-z
-x,-y,-z
x,1/2-y,1/2+z
loop_
_atom_site_type_symbol
_atom_site_label
_atom_site_fract_x
_atom_site_fract_y
_atom_site_fract_z
Si Si1 0.098037 0.272766 0.801983
Si Si2 0.859780 0.570440 0.845482
Si Si3 0.595006 0.006475 0.413968
Si Si4 0.252676 0.438803 0.423401
Si Si5 0.028654 0.381032 0.577977
Si Si6 0.498939 0.499600 0.577572
Si Si7 0.805882 0.422818 0.125775
O O1 0.151316 0.144390 0.724646
O O2 0.185618 0.482287 0.803999
O O3 0.968849 0.379558 0.818786
O O4 0.064012 0.087168 0.869328
O O5 0.728062 0.482886 0.904181
O O6 0.900437 0.788862 0.880307
O O7 0.572633 0.254969 0.381567
O O8 0.500000 0.000000 0.500000
O O9 0.566486 0.754813 0.384808
O O10 0.128013 0.473187 0.499440
O O11 0.366685 0.471074 0.435867
O O12 0.262133 0.670356 0.371803
O O13 0.243222 0.158154 0.399225
O O14 0.947713 0.155497 0.575111
O O15 0.500000 0.500000 0.500000
#
# Coordination Sequence:
#
# PCOD9247678 Si02
#       7
#     4   4   4   4   4   4   4
#     4  11  24  41  64 102 136 183 222 268 339 420
#     4  11  24  40  68 100 144 178 223 283 345 406
#     4  10  22  39  64  96 132 166 216 276 338 389
#     4  12  24  40  69  94 140 173 217 291 336 400
#     4  11  23  39  64 100 137 175 226 269 345 409
#     4  10  22  40  61  98 127 165 219 272 344 384
#     4  11  25  42  62  98 136 181 224 266 340 417
#
# _framework density 22.228429999999999
#
# number of rings (size 3 to 8) (size 9 to 14) (size 15 to 20)
#    0.000    1.143    2.857    3.429   10.000    0.000 
#    0.000    0.000    0.000    3.429    0.000    0.000 
#    0.000    0.000    0.000    0.000    0.000    0.000 
#
# Total GULP energy -156314.257141 kJ/mol
# GULP energy per Si atom -5582.652041 kJ/mol
# Density = 2.217784 g / cm^3
# Si number density = 22.228430 Si / 1000 Ang^3
#
#
#
# Elastic Constant Matrix: (Units=GPa)
#
#
# Indices 1 2 3 4 5 6 
#
# 1 132.7456 41.9306 3.4826 0.0000 11.0551 0.0000
# 2 41.9306 160.3172 12.2138 0.0000 13.9253 0.0000
# 3 3.4826 12.2138 31.3472 0.0000 3.1222 0.0000
# 4 0.0000 0.0000 0.0000 19.4334 0.0000 9.5040
# 5 11.0551 13.9253 3.1222 0.0000 22.3497 0.0000
# 6 0.0000 0.0000 0.0000 9.5040 0.0000 39.5737
#
#
#
# Elastic Compliance Matrix: (Units=1/GPa)
#
#
# Indices 1 2 3 4 5 6 
#
# 1 0.008391 -0.001947 0.000121 0.000000 -0.002954 0.000000
# 2 -0.001947 0.007198 -0.002269 0.000000 -0.003205 0.000000
# 3 0.000121 -0.002269 0.033097 0.000000 -0.003270 0.000000
# 4 0.000000 0.000000 0.000000 0.058306 0.000000 -0.014003
# 5 -0.002954 -0.003205 -0.003270 0.000000 0.048658 0.000000
# 6 0.000000 0.000000 0.000000 -0.014003 0.000000 0.028632
#
#
# Mechanical properties :
#
#
# Convention : Reuss Voigt Hill
#
# Bulk Modulus (GPa) = 24.69433 48.85157 36.77295
# Shear Modulus (GPa) = 24.27512 34.05690 29.16601
#
# Velocity S-wave (km/s) = 3.30824 3.91849 3.62623
# Velocity P-wave (km/s) = 5.07209 6.51902 5.84053
#
# Compressibility (1/GPa) = 0.04049512
#
# Stress axis : x y z
#
# Youngs Moduli (GPa) = 119.17312 138.92409 30.21412
#
# Poissons Ratio (x) = 0.27052 -0.00365
# Poissons Ratio (y) = 0.23206 0.06856
# Poissons Ratio (z) = -0.01438 0.31523
#
# Static dielectric constant tensor:
#      x y z
#    x 1.846780 0.000000 0.043420 
#    y 0.000000 2.021060 0.000000 
#    z 0.043420 0.000000 1.813560 
# 
# From -- ./inp_files/66396.got.cif
#   From: 2010.05.17/outbox.cif.g08.bks.cpg/sg14_34_cif.got.tgz:66396.got - 2010.06.03 17:49:19.
