data_PCOD9247389
_publ_section_title
;
Structure prediction by ZEFSAII (Michael W. Deem and Ramdas Pophale) SiO2 
 PCOD9247389
Probable space group: P 21/C
;
_chemical_formula_sum "Si O2"
_cell_formula_units_Z 32
_cell_length_a 4.956502
_cell_length_b 24.893629
_cell_length_c 12.218848
_cell_angle_alpha 90.000000
_cell_angle_beta 72.720487
_cell_angle_gamma 90.000000
_cell_volume 1439.582892
_symmetry_space_group_name_H-M "P 21/C"
_symmetry_group_IT_number 14
_symmetry_cell_setting 'monoclinic'
loop_
_space_group_symop_operation_xyz
x,y,z
-x,1/2+y,1/2-z
-x,-y,-z
x,1/2-y,1/2+z
loop_
_atom_site_type_symbol
_atom_site_label
_atom_site_fract_x
_atom_site_fract_y
_atom_site_fract_z
Si Si1 0.037279 0.776697 0.976259
Si Si2 0.667210 0.614180 0.154557
Si Si3 0.273485 0.172682 0.804357
Si Si4 0.232734 0.548443 0.084343
Si Si5 0.172664 0.333320 0.073629
Si Si6 0.716944 0.392746 0.369833
Si Si7 0.581402 0.655320 0.407008
Si Si8 0.842873 0.054756 0.647598
O O1 0.015045 0.717974 0.930572
O O2 0.870162 0.820387 0.921021
O O3 0.352581 0.797547 0.949434
O O4 0.875199 0.779239 0.112522
O O5 0.473260 0.564076 0.140772
O O6 0.594492 0.638558 0.279898
O O7 0.988767 0.593597 0.122443
O O8 0.638477 0.654690 0.055505
O O9 0.319478 0.178992 0.670895
O O10 0.563194 0.156907 0.826889
O O11 0.042639 0.124191 0.849514
O O12 0.067940 0.493073 0.122811
O O13 0.330798 0.548955 0.944931
O O14 0.001535 0.388274 0.114487
O O15 0.543049 0.393548 0.503641
O O16 0.694445 0.440151 0.283492
#
# Coordination Sequence:
#
# PCOD9247389 Si02
#       8
#     4   4   4   4   4   4   4   4
#     4  10  22  38  58  84 114 157 193 236 287 349
#     4  11  23  40  59  89 120 157 193 243 299 358
#     4   9  19  35  54  80 112 147 191 232 275 342
#     4  10  22  38  62  88 120 152 198 253 306 337
#     4  10  22  37  61  87 116 153 197 237 295 349
#     4   9  18  36  59  79 112 153 190 234 288 338
#     4  10  22  41  58  83 124 157 192 242 294 350
#     4   9  20  39  61  89 117 154 201 254 293 354
#
# _framework density 22.228662
#
# number of rings (size 3 to 8) (size 9 to 14) (size 15 to 20)
#    0.000    2.250    0.000    1.500    1.750   10.500 
#    6.750    1.250    0.000    0.000    0.000    0.000 
#    0.000    0.000    0.000    0.000    0.000    0.000 
#
# Total GULP energy -178725.428361 kJ/mol
# GULP energy per Si atom -5585.169636 kJ/mol
# Density = 2.217807 g / cm^3
# Si number density = 22.228662 Si / 1000 Ang^3
#
#
#
# Elastic Constant Matrix: (Units=GPa)
#
#
# Indices 1 2 3 4 5 6 
#
# 1 66.3999 -1.2329 12.2008 0.0000 3.6513 0.0000
# 2 -1.2329 45.8589 29.2732 0.0000 5.9571 0.0000
# 3 12.2008 29.2732 168.7916 0.0000 19.0376 0.0000
# 4 0.0000 0.0000 0.0000 11.7948 0.0000 -1.7765
# 5 3.6513 5.9571 19.0376 0.0000 22.5061 0.0000
# 6 0.0000 0.0000 0.0000 -1.7765 0.0000 12.3685
#
#
#
# Elastic Compliance Matrix: (Units=1/GPa)
#
#
# Indices 1 2 3 4 5 6 
#
# 1 0.015400 0.001388 -0.001139 0.000000 -0.001902 0.000000
# 2 0.001388 0.024856 -0.004028 0.000000 -0.003397 0.000000
# 3 -0.001139 -0.004028 0.007257 0.000000 -0.004887 0.000000
# 4 0.000000 0.000000 0.000000 0.086658 0.000000 0.012447
# 5 -0.001902 -0.003397 -0.004887 0.000000 0.049774 0.000000
# 6 0.000000 0.000000 0.000000 0.012447 0.000000 0.082638
#
#
# Mechanical properties :
#
#
# Convention : Reuss Voigt Hill
#
# Bulk Modulus (GPa) = 25.02841 40.17029 32.59935
# Shear Modulus (GPa) = 17.39379 25.38782 21.39080
#
# Velocity S-wave (km/s) = 2.80034 3.38319 3.10547
# Velocity P-wave (km/s) = 4.66260 5.77685 5.24937
#
# Compressibility (1/GPa) = 0.03995460
#
# Stress axis : x y z
#
# Youngs Moduli (GPa) = 64.93502 40.23208 137.80555
#
# Poissons Ratio (x) = -0.05586 0.15702
# Poissons Ratio (y) = -0.09016 0.55507
# Poissons Ratio (z) = 0.07399 0.16205
#
# Static dielectric constant tensor:
#      x y z
#    x 1.803990 0.000000 -0.009410 
#    y 0.000000 1.815760 0.000000 
#    z -0.009410 0.000000 1.892490 
# 
# From -- ./inp_files/22078.got.cif
#   From: 2010.05.17/outbox.cif.g08.bks.cpg/sg14_12_cif.got.tgz:22078.got - 2010.06.03 17:49:19.
