data_PCOD9247651
_publ_section_title
;
Structure prediction by ZEFSAII (Michael W. Deem and Ramdas Pophale) SiO2 
 PCOD9247651
Probable space group: P 21/C
;
_chemical_formula_sum "Si O2"
_cell_formula_units_Z 32
_cell_length_a 9.364542
_cell_length_b 12.448151
_cell_length_c 15.100955
_cell_angle_alpha 90.000000
_cell_angle_beta 71.492257
_cell_angle_gamma 90.000000
_cell_volume 1669.293663
_symmetry_space_group_name_H-M "P 21/C"
_symmetry_group_IT_number 14
_symmetry_cell_setting 'monoclinic'
loop_
_space_group_symop_operation_xyz
x,y,z
-x,1/2+y,1/2-z
-x,-y,-z
x,1/2-y,1/2+z
loop_
_atom_site_type_symbol
_atom_site_label
_atom_site_fract_x
_atom_site_fract_y
_atom_site_fract_z
Si Si1 0.967012 0.496517 0.402999
Si Si2 0.329477 0.826292 0.257503
Si Si3 0.087021 0.671807 0.250989
Si Si4 0.273469 0.497252 0.112682
Si Si5 0.850021 0.822159 0.238175
Si Si6 0.408364 0.321625 0.749966
Si Si7 0.375798 0.005280 0.101950
Si Si8 0.621977 0.001807 0.604880
O O1 0.791466 0.502907 0.408674
O O2 0.000000 0.500000 0.500000
O O3 0.052428 0.595677 0.340061
O O4 0.046003 0.390780 0.347271
O O5 0.167432 0.781792 0.262664
O O6 0.426604 0.719690 0.256848
O O7 0.387230 0.903180 0.166703
O O8 0.332193 0.896144 0.345735
O O9 0.189088 0.603682 0.163641
O O10 0.930133 0.709380 0.241139
O O11 0.182636 0.396204 0.170152
O O12 0.443423 0.493617 0.117986
O O13 0.290193 0.495538 0.004283
O O14 0.688576 0.787091 0.233403
O O15 0.400524 0.389700 0.660069
O O16 0.351275 0.399333 0.838439
O O17 0.500000 0.000000 0.000000
#
# Coordination Sequence:
#
# PCOD9247651 Si02
#       8
#     4   4   4   4   4   4   4   4
#     4  11  26  42  64  94 129 166 210 263 316 372
#     4  11  23  41  65  92 125 168 206 252 312 371
#     4  11  23  43  63  87 130 168 203 252 316 371
#     4  10  22  39  63  93 124 158 204 260 304 359
#     4  11  23  43  63  87 130 168 203 252 316 371
#     4  11  23  41  65  92 125 168 206 252 312 371
#     4  11  26  42  64  96 129 160 215 266 307 375
#     4  10  22  39  63  95 122 154 212 258 300 361
#
# _framework density 19.169785999999998
#
# number of rings (size 3 to 8) (size 9 to 14) (size 15 to 20)
#    0.000    1.250    5.000    0.000    3.500    4.000 
#    0.000    1.250    0.000    0.000    0.000    0.000 
#    0.000    0.000    0.000    0.000    0.000    0.000 
#
# Total GULP energy -178655.012280 kJ/mol
# GULP energy per Si atom -5582.969134 kJ/mol
# Density = 1.912615 g / cm^3
# Si number density = 19.169786 Si / 1000 Ang^3
#
#
#
# Elastic Constant Matrix: (Units=GPa)
#
#
# Indices 1 2 3 4 5 6 
#
# 1 55.6132 5.0056 44.4713 0.0000 -0.1102 0.0000
# 2 5.0056 78.9260 53.9115 0.0000 2.4063 0.0000
# 3 44.4713 53.9115 176.2043 0.0000 4.3254 0.0000
# 4 0.0000 0.0000 0.0000 3.1579 0.0000 1.0238
# 5 -0.1102 2.4063 4.3254 0.0000 28.3124 0.0000
# 6 0.0000 0.0000 0.0000 1.0238 0.0000 43.2235
#
#
#
# Elastic Compliance Matrix: (Units=1/GPa)
#
#
# Indices 1 2 3 4 5 6 
#
# 1 0.023167 0.003177 -0.006840 0.000000 0.000865 0.000000
# 2 0.003177 0.016464 -0.005827 0.000000 -0.000497 0.000000
# 3 -0.006840 -0.005827 0.009207 0.000000 -0.000938 0.000000
# 4 0.000000 0.000000 0.000000 0.319113 0.000000 -0.007559
# 5 0.000865 -0.000497 -0.000938 0.000000 0.035509 0.000000
# 6 0.000000 0.000000 0.000000 -0.007559 0.000000 0.023315
#
#
# Mechanical properties :
#
#
# Convention : Reuss Voigt Hill
#
# Bulk Modulus (GPa) = 33.49250 57.50225 45.49738
# Shear Modulus (GPa) = 10.97193 28.76243 19.86718
#
# Velocity S-wave (km/s) = 2.39499 3.87771 3.22278
# Velocity P-wave (km/s) = 5.01572 7.07886 6.13464
#
# Compressibility (1/GPa) = 0.02985743
#
# Stress axis : x y z
#
# Youngs Moduli (GPa) = 43.16510 60.73904 108.60855
#
# Poissons Ratio (x) = -0.19294 0.74290
# Poissons Ratio (y) = -0.13712 0.63284
# Poissons Ratio (z) = 0.29525 0.35392
#
# Static dielectric constant tensor:
#      x y z
#    x 1.647020 0.000000 0.000010 
#    y 0.000000 1.678970 0.000000 
#    z 0.000010 0.000000 1.616400 
# 
# From -- ./inp_files/40269.got.cif
#   From: 2010.05.17/outbox.cif.g08.bks.cpg/sg14_21_cif.got.tgz:40269.got - 2010.06.03 17:49:19.
