data_PCOD9247110
_publ_section_title
;
Structure prediction by ZEFSAII (Michael W. Deem and Ramdas Pophale) SiO2 
 PCOD9247110
Probable space group: P 21/C
;
_chemical_formula_sum "Si O2"
_cell_formula_units_Z 28
_cell_length_a 12.363872
_cell_length_b 8.630861
_cell_length_c 20.324707
_cell_angle_alpha 90.000000
_cell_angle_beta 145.629269
_cell_angle_gamma 90.000000
_cell_volume 1224.423936
_symmetry_space_group_name_H-M "P 21/C"
_symmetry_group_IT_number 14
_symmetry_cell_setting 'monoclinic'
loop_
_space_group_symop_operation_xyz
x,y,z
-x,1/2+y,1/2-z
-x,-y,-z
x,1/2-y,1/2+z
loop_
_atom_site_type_symbol
_atom_site_label
_atom_site_fract_x
_atom_site_fract_y
_atom_site_fract_z
Si Si1 0.606149 0.279996 0.597102
Si Si2 0.630643 0.746795 0.775160
Si Si3 0.136951 0.577733 0.852942
Si Si4 0.016451 0.266133 0.456042
Si Si5 0.836095 0.514749 0.797734
Si Si6 0.621163 0.410466 0.238694
Si Si7 0.812144 0.784889 0.100197
O O1 0.758335 0.404024 0.700515
O O2 0.590929 0.159015 0.650985
O O3 0.394895 0.348229 0.484194
O O4 0.684503 0.187567 0.573638
O O5 0.663558 0.619743 0.735680
O O6 0.497000 0.684413 0.766211
O O7 0.563187 0.911127 0.714401
O O8 0.843573 0.765671 0.912515
O O9 0.186193 0.395861 0.876905
O O10 0.018946 0.605476 0.860856
O O11 0.984435 0.623037 0.720128
O O12 0.909818 0.101707 0.391007
O O13 0.844841 0.388603 0.368736
O O14 0.148026 0.288962 0.457486
#
# Coordination Sequence:
#
# PCOD9247110 Si02
#       7
#     4   4   4   4   4   4   4
#     4  11  22  45  66  92 135 171 212 267 331 375
#     4  12  24  41  67  96 132 166 222 257 322 386
#     4  11  22  44  64  94 130 165 217 266 323 388
#     4  10  21  44  65  91 132 173 209 266 324 368
#     4  10  24  41  65  96 129 173 211 270 316 386
#     4  11  23  40  66  96 127 173 211 268 311 386
#     4  11  23  41  70  90 129 171 213 272 327 380
#
# _framework density 22.867895000000001
#
# number of rings (size 3 to 8) (size 9 to 14) (size 15 to 20)
#    0.000    1.143    5.714    3.000    2.000    0.571 
#    0.000    0.000    0.000    0.000    0.000    0.000 
#    0.000    0.000    0.000    0.000    0.000    0.000 
#
# Total GULP energy -156657.687234 kJ/mol
# GULP energy per Si atom -5594.917401 kJ/mol
# Density = 2.281585 g / cm^3
# Si number density = 22.867895 Si / 1000 Ang^3
#
#
#
# Elastic Constant Matrix: (Units=GPa)
#
#
# Indices 1 2 3 4 5 6 
#
# 1 103.1190 50.6442 -3.9600 0.0000 22.7415 0.0000
# 2 50.6442 68.1273 -3.3723 0.0000 -2.8516 0.0000
# 3 -3.9600 -3.3723 46.6471 0.0000 16.2457 0.0000
# 4 0.0000 0.0000 0.0000 18.1538 0.0000 5.0404
# 5 22.7415 -2.8516 16.2457 0.0000 35.6776 0.0000
# 6 0.0000 0.0000 0.0000 5.0404 0.0000 38.9637
#
#
#
# Elastic Compliance Matrix: (Units=1/GPa)
#
#
# Indices 1 2 3 4 5 6 
#
# 1 0.022746 -0.017349 0.007379 0.000000 -0.019245 0.000000
# 2 -0.017349 0.027984 -0.004849 0.000000 0.015503 0.000000
# 3 0.007379 -0.004849 0.027913 0.000000 -0.017801 0.000000
# 4 0.000000 0.000000 0.000000 0.057137 0.000000 -0.007391
# 5 -0.019245 0.015503 -0.017801 0.000000 0.049641 0.000000
# 6 0.000000 0.000000 0.000000 -0.007391 0.000000 0.026621
#
#
# Mechanical properties :
#
#
# Convention : Reuss Voigt Hill
#
# Bulk Modulus (GPa) = 20.40586 33.83523 27.12054
# Shear Modulus (GPa) = 19.37878 30.19778 24.78828
#
# Velocity S-wave (km/s) = 2.91421 3.63785 3.29595
# Velocity P-wave (km/s) = 4.50180 5.69854 5.13515
#
# Compressibility (1/GPa) = 0.04900554
#
# Stress axis : x y z
#
# Youngs Moduli (GPa) = 43.96454 35.73469 35.82551
#
# Poissons Ratio (x) = 0.61996 -0.26436
# Poissons Ratio (y) = 0.76273 0.17372
# Poissons Ratio (z) = -0.32442 0.17328
#
# Static dielectric constant tensor:
#      x y z
#    x 1.825290 0.000000 0.019530 
#    y 0.000000 1.890380 0.000000 
#    z 0.019530 0.000000 1.846190 
# 
# From -- ./inp_files/67089.got.cif
#   From: 2010.05.17/outbox.cif.g08.bks.cpg/sg14_34_cif.got.tgz:67089.got - 2010.06.03 17:49:19.
