data_PCOD9247768
_publ_section_title
;
Structure prediction by ZEFSAII (Michael W. Deem and Ramdas Pophale) SiO2 
 PCOD9247768
Probable space group: P 21/C
;
_chemical_formula_sum "Si O2"
_cell_formula_units_Z 22
_cell_length_a 5.073709
_cell_length_b 18.145399
_cell_length_c 9.729344
_cell_angle_alpha 90.000000
_cell_angle_beta 78.361909
_cell_angle_gamma 90.000000
_cell_volume 877.312007
_symmetry_space_group_name_H-M "P 21/C"
_symmetry_group_IT_number 14
_symmetry_cell_setting 'monoclinic'
loop_
_space_group_symop_operation_xyz
x,y,z
-x,1/2+y,1/2-z
-x,-y,-z
x,1/2-y,1/2+z
loop_
_atom_site_type_symbol
_atom_site_label
_atom_site_fract_x
_atom_site_fract_y
_atom_site_fract_z
Si Si1 0.933624 0.496563 0.217163
Si Si2 0.380694 0.290105 0.071809
Si Si3 0.500000 0.500000 0.500000
Si Si4 0.353370 0.866376 0.990081
Si Si5 0.889719 0.378224 0.994557
Si Si6 0.770194 0.620394 0.670719
O O1 0.778630 0.503011 0.374980
O O2 0.981133 0.573879 0.139417
O O3 0.187989 0.444733 0.226471
O O4 0.806723 0.439324 0.117939
O O5 0.365164 0.312829 0.233844
O O6 0.477709 0.205957 0.057779
O O7 0.622597 0.335716 0.978587
O O8 0.099970 0.317807 0.035158
O O9 0.654908 0.437419 0.601578
O O10 0.567161 0.907926 0.075011
O O11 0.058897 0.852715 0.082567
#
# Coordination Sequence:
#
# PCOD9247768 Si02
#       6
#     4   4   2   4   4   4
#     4   9  21  40  64  92 124 161 207 249 304 365
#     4  11  22  40  63  89 120 161 207 255 304 357
#     4  10  22  40  60  88 124 164 198 246 306 366
#     4  11  24  39  60  88 123 162 202 249 308 368
#     4  10  22  40  67  92 119 160 208 258 299 354
#     4  10  22  41  60  86 126 161 197 258 312 349
#
# _framework density 25.076599000000002
#
# number of rings (size 3 to 8) (size 9 to 14) (size 15 to 20)
#    0.000    1.818    0.000    4.364    0.000   15.273 
#    0.000    1.818    0.000    0.000    0.000    0.000 
#    0.000    0.000    0.000    0.000    0.000    0.000 
#
# Total GULP energy -122585.232142 kJ/mol
# GULP energy per Si atom -5572.056006 kJ/mol
# Density = 2.501952 g / cm^3
# Si number density = 25.076599 Si / 1000 Ang^3
#
#
#
# Elastic Constant Matrix: (Units=GPa)
#
#
# Indices 1 2 3 4 5 6 
#
# 1 108.3517 29.3550 28.4574 0.0000 -25.4214 0.0000
# 2 29.3550 173.0778 39.2170 0.0000 -25.6551 0.0000
# 3 28.4574 39.2170 50.4382 0.0000 -9.7131 0.0000
# 4 0.0000 0.0000 0.0000 32.6231 0.0000 -7.8468
# 5 -25.4214 -25.6551 -9.7131 0.0000 34.1972 0.0000
# 6 0.0000 0.0000 0.0000 -7.8468 0.0000 35.6738
#
#
#
# Elastic Compliance Matrix: (Units=1/GPa)
#
#
# Indices 1 2 3 4 5 6 
#
# 1 0.012519 0.000372 -0.005825 0.000000 0.007931 0.000000
# 2 0.000372 0.007561 -0.005229 0.000000 0.004464 0.000000
# 3 -0.005825 -0.005229 0.027070 0.000000 -0.000565 0.000000
# 4 0.000000 0.000000 0.000000 0.032365 0.000000 0.007119
# 5 0.007931 0.004464 -0.000565 0.000000 0.038326 0.000000
# 6 0.000000 0.000000 0.000000 0.007119 0.000000 0.029598
#
#
# Mechanical properties :
#
#
# Convention : Reuss Voigt Hill
#
# Bulk Modulus (GPa) = 38.78176 58.43628 48.60902
# Shear Modulus (GPa) = 28.18483 36.15471 32.16977
#
# Velocity S-wave (km/s) = 3.35617 3.80119 3.58559
# Velocity P-wave (km/s) = 5.52426 6.52833 6.04717
#
# Compressibility (1/GPa) = 0.02578532
#
# Stress axis : x y z
#
# Youngs Moduli (GPa) = 79.87783 132.25417 36.94091
#
# Poissons Ratio (x) = -0.04923 0.21520
# Poissons Ratio (y) = -0.02974 0.19318
# Poissons Ratio (z) = 0.46533 0.69161
#
# Static dielectric constant tensor:
#      x y z
#    x 2.049670 0.000000 0.080820 
#    y 0.000000 2.106130 0.000000 
#    z 0.080820 0.000000 2.014550 
# 
# From -- ./inp_files/21055.got.cif
#   From: 2010.05.17/outbox.cif.g08.bks.cpg/sg14_11_cif.got.tgz:21055.got - 2010.06.03 17:49:19.
