data_PCOD9247527
_publ_section_title
;
Structure prediction by ZEFSAII (Michael W. Deem and Ramdas Pophale) SiO2 
 PCOD9247527
Probable space group: P 21/C
;
_chemical_formula_sum "Si O2"
_cell_formula_units_Z 28
_cell_length_a 8.807306
_cell_length_b 7.563107
_cell_length_c 25.875750
_cell_angle_alpha 90.000000
_cell_angle_beta 142.786716
_cell_angle_gamma 90.000000
_cell_volume 1042.404812
_symmetry_space_group_name_H-M "P 21/C"
_symmetry_group_IT_number 14
_symmetry_cell_setting 'monoclinic'
loop_
_space_group_symop_operation_xyz
x,y,z
-x,1/2+y,1/2-z
-x,-y,-z
x,1/2-y,1/2+z
loop_
_atom_site_type_symbol
_atom_site_label
_atom_site_fract_x
_atom_site_fract_y
_atom_site_fract_z
Si Si1 0.371807 0.390872 0.512336
Si Si2 0.757438 0.363037 0.436610
Si Si3 0.715774 0.426477 0.114052
Si Si4 0.963486 0.234926 0.270057
Si Si5 0.403050 0.009680 0.756996
Si Si6 0.067666 0.860642 0.429679
Si Si7 0.915551 0.002232 0.843659
O O1 0.500000 0.500000 0.500000
O O2 0.409760 0.526370 0.568804
O O3 0.484310 0.203845 0.560163
O O4 0.077492 0.353754 0.420174
O O5 0.568156 0.353810 0.337043
O O6 0.000000 0.500000 0.500000
O O7 0.852283 0.183009 0.490155
O O8 0.921288 0.300348 0.199998
O O9 0.782582 0.620630 0.154040
O O10 0.747546 0.448378 0.061212
O O11 0.949458 0.421246 0.296472
O O12 0.747955 0.121898 0.244274
O O13 0.201079 0.063950 0.658985
O O14 0.638591 0.951590 0.785979
O O15 0.063229 0.667399 0.402403
#
# Coordination Sequence:
#
# PCOD9247527 Si02
#       7
#     4   4   4   4   4   4   4
#     4  11  21  37  65  93 131 174 225 278 338 413
#     4  11  20  38  65 101 126 185 229 266 341 422
#     4  11  22  41  61 100 127 177 226 279 345 403
#     4  11  25  39  69  97 137 175 232 282 347 409
#     4  11  22  39  68  98 130 178 229 284 333 405
#     4  10  22  38  65  95 133 170 227 281 336 407
#     4  11  22  40  63  93 131 177 224 277 344 402
#
# _framework density 26.860965
#
# number of rings (size 3 to 8) (size 9 to 14) (size 15 to 20)
#    0.000    1.143    7.143    1.714    0.000    0.571 
#    0.000    0.000    6.286    4.286    0.000    0.000 
#    0.000    0.000    0.000    0.000    0.000    0.000 
#
# Total GULP energy -155872.877396 kJ/mol
# GULP energy per Si atom -5566.888478 kJ/mol
# Density = 2.679983 g / cm^3
# Si number density = 26.860965 Si / 1000 Ang^3
#
#
#
# Elastic Constant Matrix: (Units=GPa)
#
#
# Indices 1 2 3 4 5 6 
#
# 1 40.4180 14.6781 12.2310 0.0000 14.6058 0.0000
# 2 14.6781 94.9054 27.6532 0.0000 1.9183 0.0000
# 3 12.2310 27.6532 89.8983 0.0000 8.0684 0.0000
# 4 0.0000 0.0000 0.0000 58.4131 0.0000 -7.7130
# 5 14.6058 1.9183 8.0684 0.0000 52.5155 0.0000
# 6 0.0000 0.0000 0.0000 -7.7130 0.0000 5.7400
#
#
#
# Elastic Compliance Matrix: (Units=1/GPa)
#
#
# Indices 1 2 3 4 5 6 
#
# 1 0.029573 -0.003787 -0.002163 0.000000 -0.007754 0.000000
# 2 -0.003787 0.012060 -0.003295 0.000000 0.001119 0.000000
# 3 -0.002163 -0.003295 0.012540 0.000000 -0.001205 0.000000
# 4 0.000000 0.000000 0.000000 0.020812 0.000000 0.027966
# 5 -0.007754 0.001119 -0.001205 0.000000 0.021343 0.000000
# 6 0.000000 0.000000 0.000000 0.027966 0.000000 0.211793
#
#
# Mechanical properties :
#
#
# Convention : Reuss Voigt Hill
#
# Bulk Modulus (GPa) = 28.02392 37.14959 32.58675
# Shear Modulus (GPa) = 14.77085 34.71102 24.74093
#
# Velocity S-wave (km/s) = 2.34754 3.59868 3.03821
# Velocity P-wave (km/s) = 4.21942 5.57922 4.94627
#
# Compressibility (1/GPa) = 0.03568380
#
# Stress axis : x y z
#
# Youngs Moduli (GPa) = 33.81419 82.91925 79.74746
#
# Poissons Ratio (x) = 0.31401 0.17247
# Poissons Ratio (y) = 0.12805 0.26276
# Poissons Ratio (z) = 0.07313 0.27321
#
# Static dielectric constant tensor:
#      x y z
#    x 2.380620 0.000000 0.099050 
#    y 0.000000 2.271090 0.000000 
#    z 0.099050 0.000000 2.308180 
# 
# From -- ./inp_files/76498.got.cif
#   From: 2010.05.17/outbox.cif.g08.bks.cpg/sg14_39_cif.got.tgz:76498.got - 2010.06.03 17:49:19.
