data_PCOD9247558
_publ_section_title
;
Structure prediction by ZEFSAII (Michael W. Deem and Ramdas Pophale) SiO2 
 PCOD9247558
Probable space group: P 21/C
;
_chemical_formula_sum "Si O2"
_cell_formula_units_Z 22
_cell_length_a 7.090985
_cell_length_b 21.500994
_cell_length_c 5.164725
_cell_angle_alpha 90.000000
_cell_angle_beta 99.381568
_cell_angle_gamma 90.000000
_cell_volume 776.898476
_symmetry_space_group_name_H-M "P 21/C"
_symmetry_group_IT_number 14
_symmetry_cell_setting 'monoclinic'
loop_
_space_group_symop_operation_xyz
x,y,z
-x,1/2+y,1/2-z
-x,-y,-z
x,1/2-y,1/2+z
loop_
_atom_site_type_symbol
_atom_site_label
_atom_site_fract_x
_atom_site_fract_y
_atom_site_fract_z
Si Si1 0.434604 0.223445 0.385339
Si Si2 0.000000 0.000000 0.500000
Si Si3 0.412737 0.402424 0.625740
Si Si4 0.729961 0.033534 0.952355
Si Si5 0.865793 0.227781 0.919164
Si Si6 0.965530 0.891492 0.280521
O O1 0.333606 0.243431 0.622551
O O2 0.452231 0.150530 0.342748
O O3 0.643510 0.256421 0.425232
O O4 0.182008 0.986334 0.752306
O O5 0.922141 0.924624 0.539205
O O6 0.383057 0.474773 0.687150
O O7 0.595583 0.407875 0.476043
O O8 0.224403 0.383509 0.425868
O O9 0.894799 0.049153 0.777479
O O10 0.941654 0.278931 0.728922
O O11 0.906506 0.167238 0.755168
#
# Coordination Sequence:
#
# PCOD9247558 Si02
#       6
#     4   2   4   4   4   4
#     4  10  22  42  65  99 136 185 233 291 356 424
#     4  10  22  38  70  98 130 184 234 284 354 420
#     4  10  22  43  67  99 139 177 241 290 354 432
#     4  10  22  45  65 100 139 183 229 297 360 417
#     4  10  23  42  72 101 138 193 234 291 362 428
#     4  11  24  44  69 100 139 184 236 294 359 431
#
# _framework density 28.317726
#
# number of rings (size 3 to 8) (size 9 to 14) (size 15 to 20)
#    0.000    1.818    0.000    4.364    7.636    1.455 
#   13.091    7.273    0.000    0.000    0.000    0.000 
#    0.000    0.000    0.000    0.000    0.000    0.000 
#
# Total GULP energy -122685.933432 kJ/mol
# GULP energy per Si atom -5576.633338 kJ/mol
# Density = 2.825327 g / cm^3
# Si number density = 28.317726 Si / 1000 Ang^3
#
#
#
# Elastic Constant Matrix: (Units=GPa)
#
#
# Indices 1 2 3 4 5 6 
#
# 1 122.7403 20.1512 30.3284 0.0000 7.3933 0.0000
# 2 20.1512 106.1122 5.1727 0.0000 4.6734 0.0000
# 3 30.3284 5.1727 143.1296 0.0000 -15.5696 0.0000
# 4 0.0000 0.0000 0.0000 38.1604 0.0000 0.2805
# 5 7.3933 4.6734 -15.5696 0.0000 35.0181 0.0000
# 6 0.0000 0.0000 0.0000 0.2805 0.0000 48.1663
#
#
#
# Elastic Compliance Matrix: (Units=1/GPa)
#
#
# Indices 1 2 3 4 5 6 
#
# 1 0.009090 -0.001503 -0.002163 0.000000 -0.002680 0.000000
# 2 -0.001503 0.009763 -0.000149 0.000000 -0.001052 0.000000
# 3 -0.002163 -0.000149 0.007884 0.000000 0.003982 0.000000
# 4 0.000000 0.000000 0.000000 0.026206 0.000000 -0.000153
# 5 -0.002680 -0.001052 0.003982 0.000000 0.031033 0.000000
# 6 0.000000 0.000000 0.000000 -0.000153 0.000000 0.020762
#
#
# Mechanical properties :
#
#
# Convention : Reuss Voigt Hill
#
# Bulk Modulus (GPa) = 52.33778 53.69852 53.01815
# Shear Modulus (GPa) = 42.10979 45.35762 43.73370
#
# Velocity S-wave (km/s) = 3.86041 4.00652 3.93414
# Velocity P-wave (km/s) = 6.19619 6.35664 6.27693
#
# Compressibility (1/GPa) = 0.01910666
#
# Stress axis : x y z
#
# Youngs Moduli (GPa) = 110.01085 102.42818 126.84555
#
# Poissons Ratio (x) = 0.15392 0.27442
# Poissons Ratio (y) = 0.16532 0.01888
# Poissons Ratio (z) = 0.23800 0.01524
#
# Static dielectric constant tensor:
#      x y z
#    x 2.654140 0.000000 -0.441390 
#    y 0.000000 3.605510 0.000000 
#    z -0.441390 0.000000 3.009980 
# 
# From -- ./inp_files/1400.got.cif
#   From: 2010.05.17/outbox.cif.g08.bks.cpg/sg14_1_cif.got.tgz:1400.got - 2010.06.03 17:49:19.
