data_PCOD9247288
_publ_section_title
;
Structure prediction by ZEFSAII (Michael W. Deem and Ramdas Pophale) SiO2 
 PCOD9247288
Probable space group: P 21/C
;
_chemical_formula_sum "Si O2"
_cell_formula_units_Z 32
_cell_length_a 11.690554
_cell_length_b 6.283675
_cell_length_c 21.589138
_cell_angle_alpha 90.000000
_cell_angle_beta 101.948936
_cell_angle_gamma 90.000000
_cell_volume 1551.567217
_symmetry_space_group_name_H-M "P 21/C"
_symmetry_group_IT_number 14
_symmetry_cell_setting 'monoclinic'
loop_
_space_group_symop_operation_xyz
x,y,z
-x,1/2+y,1/2-z
-x,-y,-z
x,1/2-y,1/2+z
loop_
_atom_site_type_symbol
_atom_site_label
_atom_site_fract_x
_atom_site_fract_y
_atom_site_fract_z
Si Si1 0.834980 0.678751 0.265428
Si Si2 0.691878 0.137422 0.439636
Si Si3 0.134526 0.472712 0.521029
Si Si4 0.727152 0.959342 0.151778
Si Si5 0.217487 0.369181 0.937128
Si Si6 0.907844 0.341424 0.167364
Si Si7 0.717934 0.759750 0.873211
Si Si8 0.517494 0.006294 0.927016
O O1 0.773898 0.872529 0.221977
O O2 0.865485 0.482535 0.222482
O O3 0.740364 0.636997 0.309188
O O4 0.960310 0.762275 0.305444
O O5 0.793598 0.313970 0.457330
O O6 0.569581 0.258495 0.423055
O O7 0.708510 0.999854 0.504371
O O8 0.704027 0.991711 0.380279
O O9 0.176975 0.345668 0.466156
O O10 0.161120 0.312693 0.579325
O O11 0.000000 0.500000 0.500000
O O12 0.716280 0.736475 0.112521
O O13 0.599815 0.051919 0.122980
O O14 0.822342 0.140526 0.146627
O O15 0.113853 0.508044 0.895103
O O16 0.617955 0.860428 0.906318
O O17 0.500000 0.000000 0.000000
#
# Coordination Sequence:
#
# PCOD9247288 Si02
#       8
#     4   4   4   4   4   4   4   4
#     4  11  25  44  64  97 133 176 232 270 343 399
#     4  10  22  42  63  98 135 168 211 282 337 392
#     4  10  22  35  58  96 132 170 212 266 338 407
#     4  11  24  43  67  99 125 179 228 274 333 406
#     4  10  22  37  64  99 127 167 224 263 339 393
#     4  11  23  42  69  92 132 179 221 283 324 401
#     4  10  25  41  63  99 133 179 219 282 341 397
#     4  11  23  45  71  98 136 175 232 277 340 411
#
# _framework density 20.624310000000001
#
# number of rings (size 3 to 8) (size 9 to 14) (size 15 to 20)
#    0.000    1.500    1.250    3.750    5.250    7.000 
#    4.500    0.000    0.000    0.000    0.000    0.000 
#    0.000    0.000    0.000    0.000    0.000    0.000 
#
# Total GULP energy -178172.042015 kJ/mol
# GULP energy per Si atom -5567.876313 kJ/mol
# Density = 2.057737 g / cm^3
# Si number density = 20.624310 Si / 1000 Ang^3
#
#
#
# Elastic Constant Matrix: (Units=GPa)
#
#
# Indices 1 2 3 4 5 6 
#
# 1 95.4125 27.2071 41.7864 0.0000 17.1418 0.0000
# 2 27.2071 70.9815 19.0302 0.0000 -1.5976 0.0000
# 3 41.7864 19.0302 64.5969 0.0000 7.2274 0.0000
# 4 0.0000 0.0000 0.0000 29.9855 0.0000 9.6504
# 5 17.1418 -1.5976 7.2274 0.0000 38.6829 0.0000
# 6 0.0000 0.0000 0.0000 9.6504 0.0000 24.1149
#
#
#
# Elastic Compliance Matrix: (Units=1/GPa)
#
#
# Indices 1 2 3 4 5 6 
#
# 1 0.016589 -0.004115 -0.008863 0.000000 -0.005865 0.000000
# 2 -0.004115 0.016403 -0.002503 0.000000 0.002968 0.000000
# 3 -0.008863 -0.002503 0.021983 0.000000 -0.000283 0.000000
# 4 0.000000 0.000000 0.000000 0.038280 0.000000 -0.015319
# 5 -0.005865 0.002968 -0.000283 0.000000 0.028626 0.000000
# 6 0.000000 0.000000 0.000000 -0.015319 0.000000 0.047599
#
#
# Mechanical properties :
#
#
# Convention : Reuss Voigt Hill
#
# Bulk Modulus (GPa) = 41.64114 45.22647 43.43381
# Shear Modulus (GPa) = 23.98714 28.08781 26.03748
#
# Velocity S-wave (km/s) = 3.41405 3.69437 3.55697
# Velocity P-wave (km/s) = 5.98124 6.33831 6.16236
#
# Compressibility (1/GPa) = 0.02401471
#
# Stress axis : x y z
#
# Youngs Moduli (GPa) = 60.27942 60.96411 45.48990
#
# Poissons Ratio (x) = 0.25084 0.40318
# Poissons Ratio (y) = 0.24802 0.11385
# Poissons Ratio (z) = 0.53425 0.15258
#
# Static dielectric constant tensor:
#      x y z
#    x 1.760020 0.000000 -0.040550 
#    y 0.000000 1.779050 0.000000 
#    z -0.040550 0.000000 1.828710 
# 
# From -- ./inp_files/72844.got.cif
#   From: 2010.05.17/outbox.cif.g08.bks.cpg/sg14_37_cif.got.tgz:72844.got - 2010.06.03 17:49:19.
