data_PCOD9247359
_publ_section_title
;
Structure prediction by ZEFSAII (Michael W. Deem and Ramdas Pophale) SiO2 
 PCOD9247359
Probable space group: P 21/C
;
_chemical_formula_sum "Si O2"
_cell_formula_units_Z 32
_cell_length_a 14.838705
_cell_length_b 11.193265
_cell_length_c 9.126652
_cell_angle_alpha 90.000000
_cell_angle_beta 87.757068
_cell_angle_gamma 90.000000
_cell_volume 1514.716740
_symmetry_space_group_name_H-M "P 21/C"
_symmetry_group_IT_number 14
_symmetry_cell_setting 'monoclinic'
loop_
_space_group_symop_operation_xyz
x,y,z
-x,1/2+y,1/2-z
-x,-y,-z
x,1/2-y,1/2+z
loop_
_atom_site_type_symbol
_atom_site_label
_atom_site_fract_x
_atom_site_fract_y
_atom_site_fract_z
Si Si1 0.727083 0.609041 0.568415
Si Si2 0.340651 0.749237 0.257950
Si Si3 0.100848 0.507554 0.556289
Si Si4 0.233817 0.604939 0.013637
Si Si5 0.932230 0.792459 0.759132
Si Si6 0.586881 0.415582 0.494925
Si Si7 0.940494 0.238757 0.497761
Si Si8 0.243605 0.158314 0.617565
O O1 0.827945 0.554987 0.554013
O O2 0.669494 0.507790 0.494602
O O3 0.701245 0.632463 0.737497
O O4 0.722126 0.731969 0.480863
O O5 0.278106 0.667254 0.155550
O O6 0.280638 0.832145 0.370323
O O7 0.400510 0.666172 0.361123
O O8 0.400805 0.831004 0.146821
O O9 0.100711 0.426263 0.701033
O O10 0.115501 0.648176 0.561816
O O11 0.000000 0.500000 0.500000
O O12 0.127276 0.630574 0.012090
O O13 0.244619 0.463176 0.026005
O O14 0.854109 0.703392 0.816237
O O15 0.965491 0.777693 0.593181
O O16 0.024740 0.767673 0.842397
O O17 0.500000 0.500000 0.500000
#
# Coordination Sequence:
#
# PCOD9247359 Si02
#       8
#     4   4   4   4   4   4   4   4
#     4  11  24  43  66  94 134 176 223 283 342 408
#     4  10  23  47  70 107 135 170 230 272 332 414
#     4   9  19  36  59  80 123 171 216 268 335 391
#     4  11  23  41  69  95 134 181 227 286 339 408
#     4  10  22  37  52  87 124 171 229 286 328 405
#     4  11  25  48  77 106 142 175 217 279 340 409
#     4  11  22  35  58  86 123 178 227 281 348 386
#     4  11  24  41  64  91 133 178 231 280 345 405
#
# _framework density 21.126062000000001
#
# number of rings (size 3 to 8) (size 9 to 14) (size 15 to 20)
#    0.000    1.500    1.250    4.500    7.000    1.500 
#    4.500    1.250    0.000    0.000    0.000    0.000 
#    0.000    0.000    0.000    0.000    0.000    0.000 
#
# Total GULP energy -178803.680937 kJ/mol
# GULP energy per Si atom -5587.615029 kJ/mol
# Density = 2.107798 g / cm^3
# Si number density = 21.126062 Si / 1000 Ang^3
#
#
#
# Elastic Constant Matrix: (Units=GPa)
#
#
# Indices 1 2 3 4 5 6 
#
# 1 57.6886 16.0465 12.8805 0.0000 2.4755 0.0000
# 2 16.0465 130.0195 34.5968 0.0000 -3.3190 0.0000
# 3 12.8805 34.5968 81.1714 0.0000 -1.0284 0.0000
# 4 0.0000 0.0000 0.0000 24.3929 0.0000 8.8985
# 5 2.4755 -3.3190 -1.0284 0.0000 11.7215 0.0000
# 6 0.0000 0.0000 0.0000 8.8985 0.0000 29.3052
#
#
#
# Elastic Compliance Matrix: (Units=1/GPa)
#
#
# Indices 1 2 3 4 5 6 
#
# 1 0.018534 -0.001813 -0.002227 0.000000 -0.004623 0.000000
# 2 -0.001813 0.008906 -0.003475 0.000000 0.002600 0.000000
# 3 -0.002227 -0.003475 0.014163 0.000000 0.000729 0.000000
# 4 0.000000 0.000000 0.000000 0.046102 0.000000 -0.013999
# 5 -0.004623 0.002600 0.000729 0.000000 0.087090 0.000000
# 6 0.000000 0.000000 0.000000 -0.013999 0.000000 0.038374
#
#
# Mechanical properties :
#
#
# Convention : Reuss Voigt Hill
#
# Bulk Modulus (GPa) = 37.63146 43.99190 40.81168
# Shear Modulus (GPa) = 21.09186 26.77431 23.93308
#
# Velocity S-wave (km/s) = 3.16314 3.56386 3.36946
# Velocity P-wave (km/s) = 5.58499 6.14846 5.87349
#
# Compressibility (1/GPa) = 0.02657351
#
# Stress axis : x y z
#
# Youngs Moduli (GPa) = 53.95394 112.28394 70.60424
#
# Poissons Ratio (x) = 0.20356 0.15723
# Poissons Ratio (y) = 0.09781 0.24537
# Poissons Ratio (z) = 0.12015 0.39022
#
# Static dielectric constant tensor:
#      x y z
#    x 1.739260 0.000000 0.197840 
#    y 0.000000 1.773540 0.000000 
#    z 0.197840 0.000000 0.736900 
# 
# From -- ./inp_files/15822.got.cif
#   From: 2010.05.17/outbox.cif.g08.bks.cpg/sg14_8_cif.got.tgz:15822.got - 2010.06.03 17:49:19.
