data_PCOD9247985
_publ_section_title
;
Structure prediction by ZEFSAII (Michael W. Deem and Ramdas Pophale) SiO2 
 PCOD9247985
Probable space group: P 21/C
;
_chemical_formula_sum "Si O2"
_cell_formula_units_Z 22
_cell_length_a 10.790566
_cell_length_b 4.909515
_cell_length_c 22.152102
_cell_angle_alpha 90.000000
_cell_angle_beta 46.670428
_cell_angle_gamma 90.000000
_cell_volume 853.654659
_symmetry_space_group_name_H-M "P 21/C"
_symmetry_group_IT_number 14
_symmetry_cell_setting 'monoclinic'
loop_
_space_group_symop_operation_xyz
x,y,z
-x,1/2+y,1/2-z
-x,-y,-z
x,1/2-y,1/2+z
loop_
_atom_site_type_symbol
_atom_site_label
_atom_site_fract_x
_atom_site_fract_y
_atom_site_fract_z
Si Si1 0.420611 0.370057 0.181648
Si Si2 0.178937 0.529450 0.365252
Si Si3 0.000000 0.500000 0.000000
Si Si4 0.847283 0.266002 0.435500
Si Si5 0.886888 0.528900 0.800204
Si Si6 0.651789 0.633381 0.580405
O O1 0.345576 0.479907 0.269898
O O2 0.264191 0.340691 0.188000
O O3 0.528166 0.095563 0.151130
O O4 0.541067 0.600777 0.113997
O O5 0.123621 0.819541 0.408301
O O6 0.187592 0.346694 0.425073
O O7 0.029144 0.415915 0.373435
O O8 0.127317 0.589406 0.013186
O O9 0.819995 0.087243 0.386117
O O10 0.713027 0.499680 0.497764
O O11 0.030183 0.761209 0.758491
#
# Coordination Sequence:
#
# PCOD9247985 Si02
#       6
#     4   4   2   4   4   4
#     4  12  26  46  70 107 147 189 237 300 372 428
#     4  11  24  44  73 103 143 194 245 299 356 438
#     4  10  22  40  72 102 134 178 250 288 358 404
#     4  11  26  44  75 104 144 195 245 302 355 443
#     4  12  26  48  76 106 142 195 252 297 359 447
#     4  11  27  43  70 107 147 186 237 304 372 421
#
# _framework density 25.771543999999999
#
# number of rings (size 3 to 8) (size 9 to 14) (size 15 to 20)
#    0.000    0.727    1.818    5.455   12.727    1.455 
#    0.000    0.000    0.000    0.000    0.000    0.000 
#    0.000    0.000    0.000    0.000    0.000    0.000 
#
# Total GULP energy -122983.313016 kJ/mol
# GULP energy per Si atom -5590.150592 kJ/mol
# Density = 2.571289 g / cm^3
# Si number density = 25.771544 Si / 1000 Ang^3
#
#
#
# Elastic Constant Matrix: (Units=GPa)
#
#
# Indices 1 2 3 4 5 6 
#
# 1 84.6389 -2.4902 25.4653 0.0000 18.1886 0.0000
# 2 -2.4902 91.1491 1.2086 0.0000 2.4888 0.0000
# 3 25.4653 1.2086 117.0663 0.0000 6.1875 0.0000
# 4 0.0000 0.0000 0.0000 31.4800 0.0000 -0.9959
# 5 18.1886 2.4888 6.1875 0.0000 42.7315 0.0000
# 6 0.0000 0.0000 0.0000 -0.9959 0.0000 17.1816
#
#
#
# Elastic Compliance Matrix: (Units=1/GPa)
#
#
# Indices 1 2 3 4 5 6 
#
# 1 0.013839 0.000565 -0.002724 0.000000 -0.005529 0.000000
# 2 0.000565 0.011012 -0.000191 0.000000 -0.000854 0.000000
# 3 -0.002724 -0.000191 0.009145 0.000000 -0.000154 0.000000
# 4 0.000000 0.000000 0.000000 0.031825 0.000000 0.001845
# 5 -0.005529 -0.000854 -0.000154 0.000000 0.025827 0.000000
# 6 0.000000 0.000000 0.000000 0.001845 0.000000 0.058309
#
#
# Mechanical properties :
#
#
# Convention : Reuss Voigt Hill
#
# Bulk Modulus (GPa) = 34.13459 37.91349 36.02404
# Shear Modulus (GPa) = 30.40939 36.19001 33.29970
#
# Velocity S-wave (km/s) = 3.43878 3.75141 3.59849
# Velocity P-wave (km/s) = 5.38895 5.78856 5.59233
#
# Compressibility (1/GPa) = 0.02929580
#
# Stress axis : x y z
#
# Youngs Moduli (GPa) = 72.25796 90.80718 109.35155
#
# Poissons Ratio (x) = -0.05132 0.29788
# Poissons Ratio (y) = -0.04084 0.02094
# Poissons Ratio (z) = 0.19683 0.01739
#
# Static dielectric constant tensor:
#      x y z
#    x 1.968510 0.000000 -0.017240 
#    y 0.000000 1.965720 0.000000 
#    z -0.017240 0.000000 2.032970 
# 
# From -- ./inp_files/56435.got.cif
#   From: 2010.05.17/outbox.cif.g08.bks.cpg/sg14_29_cif.got.tgz:56435.got - 2010.06.03 17:49:19.
