data_PCOD9247376
_publ_section_title
;
Structure prediction by ZEFSAII (Michael W. Deem and Ramdas Pophale) SiO2 
 PCOD9247376
Probable space group: P 21/C
;
_chemical_formula_sum "Si O2"
_cell_formula_units_Z 30
_cell_length_a 11.881956
_cell_length_b 18.351798
_cell_length_c 5.185699
_cell_angle_alpha 90.000000
_cell_angle_beta 101.127317
_cell_angle_gamma 90.000000
_cell_volume 1109.511332
_symmetry_space_group_name_H-M "P 21/C"
_symmetry_group_IT_number 14
_symmetry_cell_setting 'monoclinic'
loop_
_space_group_symop_operation_xyz
x,y,z
-x,1/2+y,1/2-z
-x,-y,-z
x,1/2-y,1/2+z
loop_
_atom_site_type_symbol
_atom_site_label
_atom_site_fract_x
_atom_site_fract_y
_atom_site_fract_z
Si Si1 0.566378 0.221426 0.800129
Si Si2 0.965748 0.300035 0.426059
Si Si3 0.500000 0.500000 0.000000
Si Si4 0.137247 0.566814 0.389638
Si Si5 0.704856 0.993668 0.423790
Si Si6 0.891093 0.579560 0.283233
Si Si7 0.446367 0.095926 0.011927
Si Si8 0.697966 0.719313 0.400512
O O1 0.622097 0.270663 0.047180
O O2 0.542415 0.144503 0.919745
O O3 0.434101 0.250464 0.695466
O O4 0.962387 0.260807 0.149898
O O5 0.865462 0.359907 0.440591
O O6 0.079349 0.351396 0.521679
O O7 0.637067 0.478345 0.139625
O O8 0.485598 0.425401 0.811482
O O9 0.233219 0.551606 0.222996
O O10 0.127563 0.493826 0.557558
O O11 0.013267 0.572624 0.192245
O O12 0.788496 0.928238 0.535882
O O13 0.587866 0.962439 0.228444
O O14 0.672425 0.638783 0.488829
O O15 0.751892 0.767053 0.648459
#
# Coordination Sequence:
#
# PCOD9247376 Si02
#       8
#     4   4   2   4   4   4   4   4
#     4   8  16  32  59  84 110 160 213 276 356 414
#     4  10  23  41  75 119 155 181 237 314 385 465
#     4  12  28  40  60  94 138 196 248 316 332 416
#     4   9  22  43  75 106 145 196 240 299 387 465
#     4  12  24  42  65 100 143 198 251 299 366 436
#     4   9  22  42  77 107 147 192 243 298 389 469
#     4  10  22  37  59  87 127 173 242 297 344 403
#     4   8  16  32  59  84 110 160 213 276 356 414
#
# _framework density 27.038933
#
# number of rings (size 3 to 8) (size 9 to 14) (size 15 to 20)
#    0.800    1.867    0.000    1.600   11.200    0.000 
#    0.000    4.000    0.000    4.800    0.000    0.000 
#    0.000    0.000    0.000    0.000    0.000    0.000 
#
# Total GULP energy -167181.575113 kJ/mol
# GULP energy per Si atom -5572.719170 kJ/mol
# Density = 2.697739 g / cm^3
# Si number density = 27.038933 Si / 1000 Ang^3
#
#
#
# Elastic Constant Matrix: (Units=GPa)
#
#
# Indices 1 2 3 4 5 6 
#
# 1 90.6572 23.4136 1.2808 0.0000 -6.3053 0.0000
# 2 23.4136 104.8039 22.0889 0.0000 -7.7685 0.0000
# 3 1.2808 22.0889 121.2889 0.0000 -18.6480 0.0000
# 4 0.0000 0.0000 0.0000 55.2854 0.0000 -13.3668
# 5 -6.3053 -7.7685 -18.6480 0.0000 26.8306 0.0000
# 6 0.0000 0.0000 0.0000 -13.3668 0.0000 33.1088
#
#
#
# Elastic Compliance Matrix: (Units=1/GPa)
#
#
# Indices 1 2 3 4 5 6 
#
# 1 0.011874 -0.002621 0.000744 0.000000 0.002549 0.000000
# 2 -0.002621 0.010580 -0.001705 0.000000 0.001262 0.000000
# 3 0.000744 -0.001705 0.009515 0.000000 0.006294 0.000000
# 4 0.000000 0.000000 0.000000 0.020045 0.000000 0.008092
# 5 0.002549 0.001262 0.006294 0.000000 0.042610 0.000000
# 6 0.000000 0.000000 0.000000 0.008092 0.000000 0.033471
#
#
# Mechanical properties :
#
#
# Convention : Reuss Voigt Hill
#
# Bulk Modulus (GPa) = 40.31359 45.59075 42.95217
# Shear Modulus (GPa) = 34.83667 41.04274 37.93971
#
# Velocity S-wave (km/s) = 3.59331 3.90027 3.74993
# Velocity P-wave (km/s) = 5.67077 6.09758 5.88805
#
# Compressibility (1/GPa) = 0.02480553
#
# Stress axis : x y z
#
# Youngs Moduli (GPa) = 84.21683 94.51786 105.09502
#
# Poissons Ratio (x) = 0.24769 -0.07816
# Poissons Ratio (y) = 0.22070 0.17919
# Poissons Ratio (z) = -0.06263 0.16116
#
# Static dielectric constant tensor:
#      x y z
#    x 10.345420 0.000000 -7.145350 
#    y 0.000000 5.510080 0.000000 
#    z -7.145350 0.000000 8.501090 
# 
# From -- ./inp_files/2978.got.cif
#   From: 2010.05.17/outbox.cif.g08.bks.cpg/sg14_2_cif.got.tgz:2978.got - 2010.06.03 17:49:19.
