data_PCOD9247725
_publ_section_title
;
Structure prediction by ZEFSAII (Michael W. Deem and Ramdas Pophale) SiO2 
 PCOD9247725
Probable space group: P 21/C
;
_chemical_formula_sum "Si O2"
_cell_formula_units_Z 24
_cell_length_a 16.711031
_cell_length_b 14.710566
_cell_length_c 11.548753
_cell_angle_alpha 90.000000
_cell_angle_beta 22.869386
_cell_angle_gamma 90.000000
_cell_volume 1103.331286
_symmetry_space_group_name_H-M "P 21/C"
_symmetry_group_IT_number 14
_symmetry_cell_setting 'monoclinic'
loop_
_space_group_symop_operation_xyz
x,y,z
-x,1/2+y,1/2-z
-x,-y,-z
x,1/2-y,1/2+z
loop_
_atom_site_type_symbol
_atom_site_label
_atom_site_fract_x
_atom_site_fract_y
_atom_site_fract_z
Si Si1 0.818624 0.677633 0.516114
Si Si2 0.865248 0.417049 0.729064
Si Si3 0.004513 0.399879 0.934941
Si Si4 0.597908 0.102949 0.365828
Si Si5 0.989914 0.139291 0.704871
Si Si6 0.292056 0.530436 0.834535
O O1 0.905396 0.776545 0.369886
O O2 0.976190 0.637456 0.401179
O O3 0.821940 0.619084 0.392416
O O4 0.593828 0.670836 0.870853
O O5 0.746711 0.378983 0.776974
O O6 0.000000 0.500000 0.500000
O O7 0.690676 0.443564 0.055347
O O8 0.802773 0.392796 0.123358
O O9 0.000000 0.500000 0.000000
O O10 0.011759 0.339133 0.038987
O O11 0.500000 0.000000 0.500000
O O12 0.753434 0.119113 0.051972
O O13 0.123383 0.050371 0.557467
O O14 0.500000 0.500000 0.500000
#
# Coordination Sequence:
#
# PCOD9247725 Si02
#       6
#     4   4   4   4   4   4
#     4  11  26  44  66 101 139 175 222 290 350 388
#     4  11  22  43  68  99 130 174 242 275 316 432
#     4   9  21  43  64  91 135 178 225 271 335 422
#     4  12  24  45  74  96 133 189 229 273 350 410
#     4  11  25  43  65 103 138 171 230 288 336 410
#     4  10  22  39  67  96 131 181 227 272 336 403
#
# _framework density 21.752306999999998
#
# number of rings (size 3 to 8) (size 9 to 14) (size 15 to 20)
#    0.000    1.333    3.333    2.000    9.333    2.667 
#    0.000    0.000    0.000    0.000    0.000    0.000 
#    0.000    0.000    0.000    0.000    0.000    0.000 
#
# Total GULP energy -133877.566583 kJ/mol
# GULP energy per Si atom -5578.231941 kJ/mol
# Density = 2.170280 g / cm^3
# Si number density = 21.752307 Si / 1000 Ang^3
#
#
#
# Elastic Constant Matrix: (Units=GPa)
#
#
# Indices 1 2 3 4 5 6 
#
# 1 95.0687 1.9203 2.6020 0.0000 14.0202 0.0000
# 2 1.9203 59.6447 11.8053 0.0000 0.7094 0.0000
# 3 2.6020 11.8053 134.0804 0.0000 -4.1035 0.0000
# 4 0.0000 0.0000 0.0000 22.9224 0.0000 -2.1303
# 5 14.0202 0.7094 -4.1035 0.0000 30.0145 0.0000
# 6 0.0000 0.0000 0.0000 -2.1303 0.0000 27.1887
#
#
#
# Elastic Compliance Matrix: (Units=1/GPa)
#
#
# Indices 1 2 3 4 5 6 
#
# 1 0.011320 -0.000229 -0.000363 0.000000 -0.005332 0.000000
# 2 -0.000229 0.017079 -0.001515 0.000000 -0.000504 0.000000
# 3 -0.000363 -0.001515 0.007637 0.000000 0.001249 0.000000
# 4 0.000000 0.000000 0.000000 0.043945 0.000000 0.003443
# 5 -0.005332 -0.000504 0.001249 0.000000 0.035990 0.000000
# 6 0.000000 0.000000 0.000000 0.003443 0.000000 0.037050
#
#
# Mechanical properties :
#
#
# Convention : Reuss Voigt Hill
#
# Bulk Modulus (GPa) = 31.42454 35.71657 33.57055
# Shear Modulus (GPa) = 29.78994 34.18953 31.98974
#
# Velocity S-wave (km/s) = 3.70470 3.96885 3.83905
# Velocity P-wave (km/s) = 5.72517 6.12027 5.92602
#
# Compressibility (1/GPa) = 0.03182227
#
# Stress axis : x y z
#
# Youngs Moduli (GPa) = 88.34267 58.55101 130.94401
#
# Poissons Ratio (x) = 0.01342 0.04749
# Poissons Ratio (y) = 0.02025 0.19834
# Poissons Ratio (z) = 0.03204 0.08869
#
# Static dielectric constant tensor:
#      x y z
#    x 1.863200 0.000000 0.093540 
#    y 0.000000 1.983440 0.000000 
#    z 0.093540 0.000000 1.918110 
# 
# From -- ./inp_files/34382.got.cif
#   From: 2010.05.17/outbox.cif.g08.bks.cpg/sg14_18_cif.got.tgz:34382.got - 2010.06.03 17:49:19.
