data_PCOD9247877
_publ_section_title
;
Structure prediction by ZEFSAII (Michael W. Deem and Ramdas Pophale) SiO2 
 PCOD9247877
Probable space group: P 21/C
;
_chemical_formula_sum "Si O2"
_cell_formula_units_Z 24
_cell_length_a 16.533603
_cell_length_b 13.844675
_cell_length_c 9.043269
_cell_angle_alpha 90.000000
_cell_angle_beta 31.901484
_cell_angle_gamma 90.000000
_cell_volume 1093.926407
_symmetry_space_group_name_H-M "P 21/C"
_symmetry_group_IT_number 14
_symmetry_cell_setting 'monoclinic'
loop_
_space_group_symop_operation_xyz
x,y,z
-x,1/2+y,1/2-z
-x,-y,-z
x,1/2-y,1/2+z
loop_
_atom_site_type_symbol
_atom_site_label
_atom_site_fract_x
_atom_site_fract_y
_atom_site_fract_z
Si Si1 0.606669 0.079884 0.757655
Si Si2 0.249758 0.340277 0.608465
Si Si3 0.138670 0.829200 0.752648
Si Si4 0.437656 0.783091 0.910718
Si Si5 0.940696 0.786177 0.321300
Si Si6 0.441038 0.990229 0.754364
O O1 0.789382 0.083014 0.454391
O O2 0.556156 0.054470 0.671582
O O3 0.571873 0.177020 0.905424
O O4 0.500000 0.000000 0.000000
O O5 0.404540 0.275233 0.356086
O O6 0.137855 0.295418 0.659371
O O7 0.283910 0.451736 0.519750
O O8 0.184812 0.333512 0.875843
O O9 0.284287 0.773427 0.600285
O O10 0.056395 0.761421 0.759847
O O11 0.027031 0.850541 0.063784
O O12 0.439432 0.881107 0.811514
O O13 0.500000 0.000000 0.500000
#
# Coordination Sequence:
#
# PCOD9247877 Si02
#       6
#     4   4   4   4   4   4
#     4  10  22  40  65 101 129 165 231 291 322 389
#     4  11  22  44  66 100 135 180 219 287 336 407
#     4  11  21  42  69  99 128 186 223 274 338 409
#     4  11  23  40  76  94 131 176 239 280 332 390
#     4  10  24  38  67  97 141 180 215 267 358 414
#     4  11  24  38  69 106 130 167 233 287 329 390
#
# _framework density 21.939319000000001
#
# number of rings (size 3 to 8) (size 9 to 14) (size 15 to 20)
#    0.000    1.333    3.333    2.000    4.667    0.000 
#    0.000    3.333   14.667   11.000    0.000    0.000 
#    0.000    0.000    0.000    0.000    0.000    0.000 
#
# Total GULP energy -133725.476630 kJ/mol
# GULP energy per Si atom -5571.894860 kJ/mol
# Density = 2.188938 g / cm^3
# Si number density = 21.939319 Si / 1000 Ang^3
#
#
#
# Elastic Constant Matrix: (Units=GPa)
#
#
# Indices 1 2 3 4 5 6 
#
# 1 82.6631 16.4167 24.0568 0.0000 6.7458 0.0000
# 2 16.4167 74.3080 30.0589 0.0000 1.1905 0.0000
# 3 24.0568 30.0589 148.0988 0.0000 29.5222 0.0000
# 4 0.0000 0.0000 0.0000 31.4741 0.0000 10.6436
# 5 6.7458 1.1905 29.5222 0.0000 47.2765 0.0000
# 6 0.0000 0.0000 0.0000 10.6436 0.0000 -33.8810
#
#
#
# Elastic Compliance Matrix: (Units=1/GPa)
#
#
# Indices 1 2 3 4 5 6 
#
# 1 0.013052 -0.002269 -0.001485 0.000000 -0.000878 0.000000
# 2 -0.002269 0.015176 -0.003084 0.000000 0.001867 0.000000
# 3 -0.001485 -0.003084 0.008637 0.000000 -0.005104 0.000000
# 4 0.000000 0.000000 0.000000 0.028721 0.000000 0.009023
# 5 -0.000878 0.001867 -0.005104 0.000000 0.024418 0.000000
# 6 0.000000 0.000000 0.000000 0.009023 0.000000 -0.026681
#
#
# Mechanical properties :
#
#
# Convention : Reuss Voigt Hill
#
# Bulk Modulus (GPa) = 43.12211 49.57052 46.34632
# Shear Modulus (GPa) = 59.01284 24.60973 41.81129
#
# Velocity S-wave (km/s) = 5.19197 3.35284 4.37025
# Velocity P-wave (km/s) = 7.45922 6.13450 6.82906
#
# Compressibility (1/GPa) = 0.02318996
#
# Stress axis : x y z
#
# Youngs Moduli (GPa) = 76.61903 65.89190 115.78462
#
# Poissons Ratio (x) = 0.14950 0.17188
# Poissons Ratio (y) = 0.17384 0.35708
# Poissons Ratio (z) = 0.11374 0.20321
#
# Static dielectric constant tensor:
#      x y z
#    x 1.821880 0.000000 0.023500 
#    y 0.000000 1.835960 0.000000 
#    z 0.023500 0.000000 1.873730 
# 
# From -- ./inp_files/17958.got.cif
#   From: 2010.05.17/outbox.cif.g08.bks.cpg/sg14_9_cif.got.tgz:17958.got - 2010.06.03 17:49:19.
