data_PCOD9247892
_publ_section_title
;
Structure prediction by ZEFSAII (Michael W. Deem and Ramdas Pophale) SiO2 
 PCOD9247892
Probable space group: P 21/C
;
_chemical_formula_sum "Si O2"
_cell_formula_units_Z 22
_cell_length_a 13.652588
_cell_length_b 10.542468
_cell_length_c 8.771109
_cell_angle_alpha 90.000000
_cell_angle_beta 132.939375
_cell_angle_gamma 90.000000
_cell_volume 924.202868
_symmetry_space_group_name_H-M "P 21/C"
_symmetry_group_IT_number 14
_symmetry_cell_setting 'monoclinic'
loop_
_space_group_symop_operation_xyz
x,y,z
-x,1/2+y,1/2-z
-x,-y,-z
x,1/2-y,1/2+z
loop_
_atom_site_type_symbol
_atom_site_label
_atom_site_fract_x
_atom_site_fract_y
_atom_site_fract_z
Si Si1 0.186966 0.756348 0.204768
Si Si2 0.000000 0.000000 0.500000
Si Si3 0.890624 0.432495 0.136138
Si Si4 0.346622 0.114918 0.607809
Si Si5 0.650441 0.099612 0.877643
Si Si6 0.726698 0.857778 0.135733
O O1 0.086984 0.837081 0.203619
O O2 0.112552 0.642361 0.033484
O O3 0.294493 0.686588 0.425413
O O4 0.264683 0.848550 0.173574
O O5 0.134284 0.088805 0.657695
O O6 0.002153 0.971058 0.700016
O O7 0.742892 0.488597 0.001904
O O8 0.492336 0.113715 0.688567
O O9 0.264404 0.223215 0.434712
O O10 0.362667 0.142169 0.805375
O O11 0.671745 0.955772 0.952526
#
# Coordination Sequence:
#
# PCOD9247892 Si02
#       6
#     4   2   4   4   4   4
#     4  10  22  40  65  94 128 180 230 268 348 413
#     4  10  22  48  66  88 134 174 226 270 328 404
#     4  10  23  41  65  96 128 183 227 280 337 402
#     4  11  24  40  65 100 137 172 232 286 345 401
#     4  11  22  41  64  96 135 177 222 283 347 406
#     4  11  25  43  66  97 136 184 220 288 341 401
#
# _framework density 23.804296000000001
#
# number of rings (size 3 to 8) (size 9 to 14) (size 15 to 20)
#    0.000    1.455    3.636    1.636    7.636    3.636 
#    0.000    0.909    0.000    0.000    0.000    0.000 
#    0.000    0.000    0.000    0.000    0.000    0.000 
#
# Total GULP energy -122690.678509 kJ/mol
# GULP energy per Si atom -5576.849023 kJ/mol
# Density = 2.375012 g / cm^3
# Si number density = 23.804296 Si / 1000 Ang^3
#
#
#
# Elastic Constant Matrix: (Units=GPa)
#
#
# Indices 1 2 3 4 5 6 
#
# 1 110.5118 36.0080 28.2419 0.0000 -4.3658 0.0000
# 2 36.0080 74.8476 29.8938 0.0000 -15.1568 0.0000
# 3 28.2419 29.8938 45.2207 0.0000 -11.4263 0.0000
# 4 0.0000 0.0000 0.0000 43.1209 0.0000 -20.4095
# 5 -4.3658 -15.1568 -11.4263 0.0000 32.1116 0.0000
# 6 0.0000 0.0000 0.0000 -20.4095 0.0000 35.7383
#
#
#
# Elastic Compliance Matrix: (Units=1/GPa)
#
#
# Indices 1 2 3 4 5 6 
#
# 1 0.011565 -0.003932 -0.005158 0.000000 -0.002119 0.000000
# 2 -0.003932 0.020167 -0.009456 0.000000 0.005620 0.000000
# 3 -0.005158 -0.009456 0.033273 0.000000 0.006675 0.000000
# 4 0.000000 0.000000 0.000000 0.031781 0.000000 0.018149
# 5 -0.002119 0.005620 0.006675 0.000000 0.035881 0.000000
# 6 0.000000 0.000000 0.000000 0.018149 0.000000 0.038346
#
#
# Mechanical properties :
#
#
# Convention : Reuss Voigt Hill
#
# Bulk Modulus (GPa) = 35.82796 46.54083 41.18439
# Shear Modulus (GPa) = 22.99813 31.28993 27.14403
#
# Velocity S-wave (km/s) = 3.11164 3.62949 3.38050
# Velocity P-wave (km/s) = 5.29089 6.09575 5.70752
#
# Compressibility (1/GPa) = 0.02791116
#
# Stress axis : x y z
#
# Youngs Moduli (GPa) = 86.47026 49.58631 30.05456
#
# Poissons Ratio (x) = 0.19500 0.15503
# Poissons Ratio (y) = 0.34004 0.28419
# Poissons Ratio (z) = 0.44605 0.46887
#
# Static dielectric constant tensor:
#      x y z
#    x 3.888930 0.000000 0.572810 
#    y 0.000000 11.980570 0.000000 
#    z 0.572810 0.000000 2.127630 
# 
# From -- ./inp_files/15280.got.cif
#   From: 2010.05.17/outbox.cif.g08.bks.cpg/sg14_8_cif.got.tgz:15280.got - 2010.06.03 17:49:19.
