data_PCOD9247097
_publ_section_title
;
Structure prediction by ZEFSAII (Michael W. Deem and Ramdas Pophale) SiO2 
 PCOD9247097
Probable space group: P 21/C
;
_chemical_formula_sum "Si O2"
_cell_formula_units_Z 32
_cell_length_a 23.154252
_cell_length_b 10.214850
_cell_length_c 14.295496
_cell_angle_alpha 90.000000
_cell_angle_beta 23.853589
_cell_angle_gamma 90.000000
_cell_volume 1367.332308
_symmetry_space_group_name_H-M "P 21/C"
_symmetry_group_IT_number 14
_symmetry_cell_setting 'monoclinic'
loop_
_space_group_symop_operation_xyz
x,y,z
-x,1/2+y,1/2-z
-x,-y,-z
x,1/2-y,1/2+z
loop_
_atom_site_type_symbol
_atom_site_label
_atom_site_fract_x
_atom_site_fract_y
_atom_site_fract_z
Si Si1 0.817531 0.369633 0.642177
Si Si2 0.376821 0.704129 0.902543
Si Si3 0.880271 0.744276 0.742490
Si Si4 0.331025 0.383482 0.812768
Si Si5 0.416785 0.536387 0.454323
Si Si6 0.198747 0.669614 0.991967
Si Si7 0.837209 0.867584 0.609080
Si Si8 0.926795 0.547622 0.331176
O O1 0.771475 0.248637 0.645636
O O2 0.819539 0.488559 0.565810
O O3 0.978410 0.339292 0.440587
O O4 0.713472 0.370560 0.883671
O O5 0.499610 0.599557 0.693474
O O6 0.424653 0.846117 0.868490
O O7 0.268196 0.734707 0.978905
O O8 0.874076 0.778855 0.643030
O O9 0.881264 0.874049 0.806487
O O10 0.741270 0.670346 0.986249
O O11 0.497157 0.401966 0.584964
O O12 0.269158 0.309209 0.813426
O O13 0.265566 0.526306 0.896061
O O14 0.255647 0.488953 0.710656
O O15 0.029991 0.643303 0.237471
O O16 0.975461 0.928201 0.352983
#
# Coordination Sequence:
#
# PCOD9247097 Si02
#       8
#     4   4   4   4   4   4   4   4
#     4  11  23  42  67  98 142 169 218 283 349 399
#     4  11  25  44  71  96 138 180 230 280 335 405
#     4  11  22  38  67 104 133 167 226 276 337 404
#     4  10  21  44  62  94 132 172 226 269 335 399
#     4  11  24  46  68  99 132 184 239 271 331 406
#     4   9  21  41  64  93 129 179 210 269 346 402
#     4  11  22  40  70  94 131 184 218 278 331 405
#     4  10  22  41  63 102 132 171 218 277 343 410
#
# _framework density 23.403236
#
# number of rings (size 3 to 8) (size 9 to 14) (size 15 to 20)
#    0.000    1.500    2.500    3.750    3.500    1.500 
#    6.750    0.625    0.000    0.000    0.000    0.000 
#    0.000    0.000    0.000    0.000    0.000    0.000 
#
# Total GULP energy -178865.842224 kJ/mol
# GULP energy per Si atom -5589.557569 kJ/mol
# Density = 2.334997 g / cm^3
# Si number density = 23.403236 Si / 1000 Ang^3
#
#
#
# Elastic Constant Matrix: (Units=GPa)
#
#
# Indices 1 2 3 4 5 6 
#
# 1 121.9843 11.9956 1.2470 0.0000 20.2650 0.0000
# 2 11.9956 57.8915 7.5833 0.0000 -2.3603 0.0000
# 3 1.2470 7.5833 60.7220 0.0000 9.1387 0.0000
# 4 0.0000 0.0000 0.0000 32.4911 0.0000 8.2242
# 5 20.2650 -2.3603 9.1387 0.0000 23.9322 0.0000
# 6 0.0000 0.0000 0.0000 8.2242 0.0000 32.2799
#
#
#
# Elastic Compliance Matrix: (Units=1/GPa)
#
#
# Indices 1 2 3 4 5 6 
#
# 1 0.009988 -0.002649 0.001525 0.000000 -0.009301 0.000000
# 2 -0.002649 0.018433 -0.003033 0.000000 0.005219 0.000000
# 3 0.001525 -0.003033 0.018095 0.000000 -0.008501 0.000000
# 4 0.000000 0.000000 0.000000 0.032899 0.000000 -0.008382
# 5 -0.009301 0.005219 -0.008501 0.000000 0.053421 0.000000
# 6 0.000000 0.000000 0.000000 -0.008382 0.000000 0.033115
#
#
# Mechanical properties :
#
#
# Convention : Reuss Voigt Hill
#
# Bulk Modulus (GPa) = 26.17564 31.36108 28.76836
# Shear Modulus (GPa) = 26.73829 32.39210 29.56520
#
# Velocity S-wave (km/s) = 3.38376 3.72437 3.55814
# Velocity P-wave (km/s) = 5.14542 5.65013 5.40367
#
# Compressibility (1/GPa) = 0.03820346
#
# Stress axis : x y z
#
# Youngs Moduli (GPa) = 100.12204 54.25180 55.26296
#
# Poissons Ratio (x) = 0.14369 -0.08430
# Poissons Ratio (y) = 0.26518 0.16761
# Poissons Ratio (z) = -0.15274 0.16455
#
# Static dielectric constant tensor:
#      x y z
#    x 1.921110 0.000000 -0.003080 
#    y 0.000000 1.927090 0.000000 
#    z -0.003080 0.000000 1.910290 
# 
# From -- ./inp_files/35238.got.cif
#   From: 2010.05.17/outbox.cif.g08.bks.cpg/sg14_18_cif.got.tgz:35238.got - 2010.06.03 17:49:19.
