data_PCOD9247434
_publ_section_title
;
Structure prediction by ZEFSAII (Michael W. Deem and Ramdas Pophale) SiO2 
 PCOD9247434
Probable space group: P 21/C
;
_chemical_formula_sum "Si O2"
_cell_formula_units_Z 24
_cell_length_a 17.727343
_cell_length_b 10.990340
_cell_length_c 4.803506
_cell_angle_alpha 90.000000
_cell_angle_beta 74.278281
_cell_angle_gamma 90.000000
_cell_volume 900.853258
_symmetry_space_group_name_H-M "P 21/C"
_symmetry_group_IT_number 14
_symmetry_cell_setting 'monoclinic'
loop_
_space_group_symop_operation_xyz
x,y,z
-x,1/2+y,1/2-z
-x,-y,-z
x,1/2-y,1/2+z
loop_
_atom_site_type_symbol
_atom_site_label
_atom_site_fract_x
_atom_site_fract_y
_atom_site_fract_z
Si Si1 0.911062 0.168013 0.266544
Si Si2 0.911062 0.831987 0.911332
Si Si3 0.792387 0.500000 0.207613
Si Si4 0.500000 0.834458 0.832061
Si Si5 0.331794 0.834987 0.864020
Si Si6 0.668207 0.834987 0.527606
O O1 0.903018 0.291986 0.456035
O O2 0.847390 0.078632 0.450905
O O3 1.000000 0.122762 0.221984
O O4 0.903018 0.708014 0.737930
O O5 0.847390 0.921368 0.854315
O O6 0.736533 0.418892 0.457773
O O7 0.736534 0.581109 0.069160
O O8 0.500000 0.709346 0.649351
O O9 0.582757 0.892896 0.672865
O O10 0.417243 0.892896 0.838379
O O11 0.327102 0.711123 0.053990
O O12 0.672898 0.788877 0.208193
#
# Coordination Sequence:
#
# PCOD9247434 Si02
#       6
#     4   4   4   4   4   4
#     4  10  23  42  61  84 115 150 189 231 279 340
#     4  10  23  42  61  84 115 150 189 231 279 340
#     4  12  23  37  62  88 116 148 188 235 289 332
#     4   8  16  35  56  75 110 152 186 227 276 327
#     4  10  22  38  57  84 116 150 190 234 279 333
#     4  10  22  38  57  84 116 150 190 234 279 333
#
# _framework density 26.641411000000002
#
# number of rings (size 3 to 8) (size 9 to 14) (size 15 to 20)
#    0.000    2.000    0.000    2.500    0.000    6.000 
#    0.000    5.000    0.000   12.000    0.000    0.000 
#    0.000    0.000    0.000    0.000    0.000    0.000 
#
# Total GULP energy -134765.396332 kJ/mol
# GULP energy per Si atom -5615.224847 kJ/mol
# Density = 2.658077 g / cm^3
# Si number density = 26.641411 Si / 1000 Ang^3
#
#
#
# Elastic Constant Matrix: (Units=GPa)
#
#
# Indices 1 2 3 4 5 6 
#
# 1 198.0864 64.4295 34.9514 0.0000 -43.1706 0.0000
# 2 64.4295 62.7011 16.0950 0.0000 -19.9441 0.0000
# 3 34.9514 16.0950 96.6357 0.0000 1.3093 0.0000
# 4 0.0000 0.0000 0.0000 -20.0497 0.0000 141.4607
# 5 -43.1706 -19.9441 1.3093 0.0000 47.6093 0.0000
# 6 0.0000 0.0000 0.0000 141.4607 0.0000 -362.8819
#
#
#
# Elastic Compliance Matrix: (Units=1/GPa)
#
#
# Indices 1 2 3 4 5 6 
#
# 1 0.008760 -0.006827 -0.002101 0.000000 0.005141 0.000000
# 2 -0.006827 0.024746 -0.001710 0.000000 0.004223 0.000000
# 3 -0.002101 -0.001710 0.011433 0.000000 -0.002936 0.000000
# 4 0.000000 0.000000 0.000000 0.028494 0.000000 0.011108
# 5 0.005141 0.004223 -0.002936 0.000000 0.027516 0.000000
# 6 0.000000 0.000000 0.000000 0.011108 0.000000 0.001574
#
#
# Mechanical properties :
#
#
# Convention : Reuss Voigt Hill
#
# Bulk Modulus (GPa) = 42.25904 65.37502 53.81703
# Shear Modulus (GPa) = 37.96943 -50.93463 -6.48260
#
# Velocity S-wave (km/s) = 3.77928 -4.37723 -1.56159
# Velocity P-wave (km/s) = 5.91105 0.97706 4.12225
#
# Compressibility (1/GPa) = 0.02366358
#
# Stress axis : x y z
#
# Youngs Moduli (GPa) = 114.15592 40.41097 87.46968
#
# Poissons Ratio (x) = 0.27588 0.18377
# Poissons Ratio (y) = 0.77932 0.14954
# Poissons Ratio (z) = 0.23984 0.06909
#
# Static dielectric constant tensor:
#      x y z
#    x 2.051370 0.000000 -0.028010 
#    y 0.000000 2.074530 0.000000 
#    z -0.028010 0.000000 1.983500 
# 
# From -- ./inp_files/4059.got.cif
#   From: 2010.05.17/outbox.cif.g08.bks.cpg/sg14_3_cif.got.tgz:4059.got - 2010.06.03 17:49:19.
