data_PCOD9247136
_publ_section_title
;
Structure prediction by ZEFSAII (Michael W. Deem and Ramdas Pophale) SiO2 
 PCOD9247136
Probable space group: P 21/C
;
_chemical_formula_sum "Si O2"
_cell_formula_units_Z 28
_cell_length_a 7.892689
_cell_length_b 11.497260
_cell_length_c 20.668924
_cell_angle_alpha 90.000000
_cell_angle_beta 140.487638
_cell_angle_gamma 90.000000
_cell_volume 1193.332261
_symmetry_space_group_name_H-M "P 21/C"
_symmetry_group_IT_number 14
_symmetry_cell_setting 'monoclinic'
loop_
_space_group_symop_operation_xyz
x,y,z
-x,1/2+y,1/2-z
-x,-y,-z
x,1/2-y,1/2+z
loop_
_atom_site_type_symbol
_atom_site_label
_atom_site_fract_x
_atom_site_fract_y
_atom_site_fract_z
Si Si1 0.021732 0.159786 0.805048
Si Si2 0.734801 0.978767 0.017589
Si Si3 0.586792 0.852534 0.719793
Si Si4 0.626466 0.229353 0.958026
Si Si5 0.490925 0.196853 0.154344
Si Si6 0.255209 0.061425 0.606861
Si Si7 0.984184 0.652896 0.836983
O O1 0.321759 0.210768 0.890255
O O2 0.992484 0.096358 0.726481
O O3 0.792787 0.256638 0.737136
O O4 0.030172 0.080778 0.872023
O O5 0.611241 0.896726 0.926613
O O6 0.785024 0.107640 0.005426
O O7 0.500000 0.000000 0.000000
O O8 0.380762 0.775358 0.617026
O O9 0.539529 0.847458 0.781813
O O10 0.859096 0.782164 0.788456
O O11 0.514131 0.980879 0.674552
O O12 0.752602 0.320669 0.044817
O O13 0.311006 0.312548 0.094091
O O14 0.200953 0.083692 0.667316
O O15 0.000000 0.000000 0.500000
#
# Coordination Sequence:
#
# PCOD9247136 Si02
#       7
#     4   4   4   4   4   4   4
#     4  10  22  41  66  96 133 170 221 267 333 397
#     4  10  23  41  66  95 136 170 218 277 328 397
#     4  10  24  41  70  93 133 176 219 278 333 393
#     4  10  21  44  67  98 132 177 216 277 339 397
#     4  11  26  42  68 102 130 178 230 272 334 403
#     4  11  24  46  66  96 136 175 226 282 328 392
#     4  10  22  44  68  96 135 173 221 270 343 397
#
# _framework density 23.463706999999999
#
# number of rings (size 3 to 8) (size 9 to 14) (size 15 to 20)
#    0.000    1.714    1.429    1.714   12.000    0.000 
#    2.571    4.286    0.000    0.000    0.000    0.000 
#    0.000    0.000    0.000    0.000    0.000    0.000 
#
# Total GULP energy -156440.005030 kJ/mol
# GULP energy per Si atom -5587.143037 kJ/mol
# Density = 2.341030 g / cm^3
# Si number density = 23.463707 Si / 1000 Ang^3
#
#
#
# Elastic Constant Matrix: (Units=GPa)
#
#
# Indices 1 2 3 4 5 6 
#
# 1 53.4742 5.6201 32.2431 0.0000 -8.4190 0.0000
# 2 5.6201 83.3723 43.7933 0.0000 -7.0693 0.0000
# 3 32.2431 43.7933 164.6612 0.0000 -15.0292 0.0000
# 4 0.0000 0.0000 0.0000 42.5934 0.0000 -5.2505
# 5 -8.4190 -7.0693 -15.0292 0.0000 43.3594 0.0000
# 6 0.0000 0.0000 0.0000 -5.2505 0.0000 19.7434
#
#
#
# Elastic Compliance Matrix: (Units=1/GPa)
#
#
# Indices 1 2 3 4 5 6 
#
# 1 0.021603 0.001014 -0.004236 0.000000 0.002892 0.000000
# 2 0.001014 0.014034 -0.003825 0.000000 0.001159 0.000000
# 3 -0.004236 -0.003825 0.008042 0.000000 0.001341 0.000000
# 4 0.000000 0.000000 0.000000 0.024274 0.000000 0.006455
# 5 0.002892 0.001159 0.001341 0.000000 0.024278 0.000000
# 6 0.000000 0.000000 0.000000 0.006455 0.000000 0.052366
#
#
# Mechanical properties :
#
#
# Convention : Reuss Voigt Hill
#
# Bulk Modulus (GPa) = 33.80090 51.64675 42.72383
# Shear Modulus (GPa) = 29.66410 35.79598 32.73004
#
# Velocity S-wave (km/s) = 3.55949 3.91012 3.73892
# Velocity P-wave (km/s) = 5.59734 6.51494 6.07349
#
# Compressibility (1/GPa) = 0.02958501
#
# Stress axis : x y z
#
# Youngs Moduli (GPa) = 46.28885 71.25774 124.34214
#
# Poissons Ratio (x) = -0.07225 0.52672
# Poissons Ratio (y) = -0.04694 0.47562
# Poissons Ratio (z) = 0.19608 0.27257
#
# Static dielectric constant tensor:
#      x y z
#    x 1.931970 0.000000 0.031330 
#    y 0.000000 1.936530 0.000000 
#    z 0.031330 0.000000 1.901360 
# 
# From -- ./inp_files/65631.got.cif
#   From: 2010.05.17/outbox.cif.g08.bks.cpg/sg14_33_cif.got.tgz:65631.got - 2010.06.03 17:49:19.
