data_PCOD9247947
_publ_section_title
;
Structure prediction by ZEFSAII (Michael W. Deem and Ramdas Pophale) SiO2 
 PCOD9247947
Probable space group: P 21/C
;
_chemical_formula_sum "Si O2"
_cell_formula_units_Z 24
_cell_length_a 8.654609
_cell_length_b 13.570766
_cell_length_c 9.042064
_cell_angle_alpha 90.000000
_cell_angle_beta 87.951679
_cell_angle_gamma 90.000000
_cell_volume 1061.308896
_symmetry_space_group_name_H-M "P 21/C"
_symmetry_group_IT_number 14
_symmetry_cell_setting 'monoclinic'
loop_
_space_group_symop_operation_xyz
x,y,z
-x,1/2+y,1/2-z
-x,-y,-z
x,1/2-y,1/2+z
loop_
_atom_site_type_symbol
_atom_site_label
_atom_site_fract_x
_atom_site_fract_y
_atom_site_fract_z
Si Si1 0.071850 0.495520 0.296780
Si Si2 0.137767 0.148416 0.546860
Si Si3 0.224827 0.622933 0.678085
Si Si4 0.613516 0.435531 0.594990
Si Si5 0.996353 0.215496 0.263268
Si Si6 0.597066 0.956325 0.632559
O O1 0.087288 0.452218 0.129852
O O2 0.242114 0.496706 0.359198
O O3 0.935281 0.430040 0.367798
O O4 0.016572 0.607036 0.298658
O O5 0.020958 0.198548 0.436233
O O6 0.137345 0.224959 0.683314
O O7 0.285020 0.120878 0.444068
O O8 0.322575 0.641998 0.526776
O O9 0.310734 0.545159 0.784393
O O10 0.159599 0.721414 0.754538
O O11 0.500000 0.500000 0.500000
O O12 0.518298 0.407432 0.743842
O O13 0.500000 0.000000 0.500000
#
# Coordination Sequence:
#
# PCOD9247947 Si02
#       6
#     4   4   4   4   4   4
#     4  11  21  42  76  94 140 182 234 292 348 412
#     4  11  24  44  69 103 138 185 229 297 354 419
#     4  10  23  42  73 102 135 182 236 295 342 417
#     4  10  22  40  67  97 134 180 226 278 355 418
#     4  11  24  41  71 107 131 172 250 289 346 414
#     4  11  22  45  72  96 142 193 225 280 368 430
#
# _framework density 22.613583999999999
#
# number of rings (size 3 to 8) (size 9 to 14) (size 15 to 20)
#    0.000    1.333    3.333    2.000    2.333    1.333 
#    0.000    3.333    0.000    0.000    0.000    0.000 
#    0.000    0.000    0.000    0.000    0.000    0.000 
#
# Total GULP energy -133966.114300 kJ/mol
# GULP energy per Si atom -5581.921429 kJ/mol
# Density = 2.256211 g / cm^3
# Si number density = 22.613584 Si / 1000 Ang^3
#
#
#
# Elastic Constant Matrix: (Units=GPa)
#
#
# Indices 1 2 3 4 5 6 
#
# 1 75.6305 19.4468 46.9955 0.0000 -14.1635 0.0000
# 2 19.4468 86.0690 31.7285 0.0000 -7.5072 0.0000
# 3 46.9955 31.7285 158.6187 0.0000 -32.2698 0.0000
# 4 0.0000 0.0000 0.0000 33.0885 0.0000 -4.5384
# 5 -14.1635 -7.5072 -32.2698 0.0000 58.4293 0.0000
# 6 0.0000 0.0000 0.0000 -4.5384 0.0000 14.9214
#
#
#
# Elastic Compliance Matrix: (Units=1/GPa)
#
#
# Indices 1 2 3 4 5 6 
#
# 1 0.016651 -0.002079 -0.004225 0.000000 0.001436 0.000000
# 2 -0.002079 0.012807 -0.001930 0.000000 0.000075 0.000000
# 3 -0.004225 -0.001930 0.008656 0.000000 0.003508 0.000000
# 4 0.000000 0.000000 0.000000 0.031538 0.000000 0.009592
# 5 0.001436 0.000075 0.003508 0.000000 0.019410 0.000000
# 6 0.000000 0.000000 0.000000 0.009592 0.000000 0.069935
#
#
# Mechanical properties :
#
#
# Convention : Reuss Voigt Hill
#
# Bulk Modulus (GPa) = 46.20259 57.40665 51.80462
# Shear Modulus (GPa) = 27.36998 36.09768 31.73383
#
# Velocity S-wave (km/s) = 3.48276 3.99969 3.75014
# Velocity P-wave (km/s) = 6.05380 6.83893 6.45831
#
# Compressibility (1/GPa) = 0.02164381
#
# Stress axis : x y z
#
# Youngs Moduli (GPa) = 60.05531 78.08492 115.52374
#
# Poissons Ratio (x) = 0.16237 0.48814
# Poissons Ratio (y) = 0.12488 0.22299
# Poissons Ratio (z) = 0.25376 0.15073
#
# Static dielectric constant tensor:
#      x y z
#    x 1.873830 0.000000 -0.004130 
#    y 0.000000 1.834150 0.000000 
#    z -0.004130 0.000000 1.897680 
# 
# From -- ./inp_files/8469.got.cif
#   From: 2010.05.17/outbox.cif.g08.bks.cpg/sg14_5_cif.got.tgz:8469.got - 2010.06.03 17:49:19.
