data_PCOD9247091
_publ_section_title
;
Structure prediction by ZEFSAII (Michael W. Deem and Ramdas Pophale) SiO2 
 PCOD9247091
Probable space group: P 21/C
;
_chemical_formula_sum "Si O2"
_cell_formula_units_Z 28
_cell_length_a 7.618637
_cell_length_b 10.625099
_cell_length_c 16.542077
_cell_angle_alpha 90.000000
_cell_angle_beta 109.500186
_cell_angle_gamma 90.000000
_cell_volume 1262.252842
_symmetry_space_group_name_H-M "P 21/C"
_symmetry_group_IT_number 14
_symmetry_cell_setting 'monoclinic'
loop_
_space_group_symop_operation_xyz
x,y,z
-x,1/2+y,1/2-z
-x,-y,-z
x,1/2-y,1/2+z
loop_
_atom_site_type_symbol
_atom_site_label
_atom_site_fract_x
_atom_site_fract_y
_atom_site_fract_z
Si Si1 0.798306 0.199912 0.179492
Si Si2 0.562472 0.547463 0.316622
Si Si3 0.951714 0.555101 0.404703
Si Si4 0.315307 0.153662 0.484377
Si Si5 0.461181 0.384872 0.432744
Si Si6 0.417094 0.959425 0.361583
Si Si7 0.947933 0.800997 0.146641
O O1 0.625233 0.116306 0.184199
O O2 0.115503 0.278486 0.942852
O O3 0.717712 0.339702 0.159427
O O4 0.959639 0.213022 0.272523
O O5 0.750433 0.620664 0.370826
O O6 0.576774 0.418989 0.371802
O O7 0.562325 0.522072 0.222178
O O8 0.108222 0.640266 0.386297
O O9 0.526981 0.740337 0.512131
O O10 0.000000 0.500000 0.500000
O O11 0.380874 0.086228 0.575022
O O12 0.934738 0.426367 0.350105
O O13 0.500000 0.500000 0.500000
O O14 0.254016 0.361564 0.364915
O O15 0.335431 0.056559 0.413914
#
# Coordination Sequence:
#
# PCOD9247091 Si02
#       7
#     4   4   4   4   4   4   4
#     4  12  26  48  71 103 157 185 246 322 363 449
#     4  12  26  43  75 107 140 196 253 297 383 441
#     4  12  27  46  74 112 140 195 258 307 376 451
#     4   9  23  43  70  98 152 182 240 297 366 444
#     4  10  21  43  76 100 141 190 240 309 362 430
#     4  11  24  43  70 107 138 203 237 291 388 443
#     4  10  23  45  70 104 142 188 238 307 367 433
#
# _framework density 22.182562000000001
#
# number of rings (size 3 to 8) (size 9 to 14) (size 15 to 20)
#    0.857    0.286    2.857    2.571    6.000    0.000 
#    2.571    0.714    0.000    0.000    0.000    0.000 
#    0.000    0.000    0.000    0.000    0.000    0.000 
#
# Total GULP energy -156134.052323 kJ/mol
# GULP energy per Si atom -5576.216154 kJ/mol
# Density = 2.213207 g / cm^3
# Si number density = 22.182562 Si / 1000 Ang^3
#
#
#
# Elastic Constant Matrix: (Units=GPa)
#
#
# Indices 1 2 3 4 5 6 
#
# 1 115.0196 24.1248 41.8945 0.0000 11.5226 0.0000
# 2 24.1248 83.4415 34.1209 0.0000 3.1794 0.0000
# 3 41.8945 34.1209 133.5247 0.0000 -4.8037 0.0000
# 4 0.0000 0.0000 0.0000 36.7951 0.0000 5.1177
# 5 11.5226 3.1794 -4.8037 0.0000 31.3468 0.0000
# 6 0.0000 0.0000 0.0000 5.1177 0.0000 11.4831
#
#
#
# Elastic Compliance Matrix: (Units=1/GPa)
#
#
# Indices 1 2 3 4 5 6 
#
# 1 0.010569 -0.001651 -0.003045 0.000000 -0.004184 0.000000
# 2 -0.001651 0.013753 -0.003042 0.000000 -0.001254 0.000000
# 3 -0.003045 -0.003042 0.009325 0.000000 0.002857 0.000000
# 4 0.000000 0.000000 0.000000 0.028973 0.000000 -0.012913
# 5 -0.004184 -0.001254 0.002857 0.000000 0.034004 0.000000
# 6 0.000000 0.000000 0.000000 -0.012913 0.000000 0.092839
#
#
# Mechanical properties :
#
#
# Convention : Reuss Voigt Hill
#
# Bulk Modulus (GPa) = 55.03028 59.14067 57.08548
# Shear Modulus (GPa) = 23.69720 31.38139 27.53929
#
# Velocity S-wave (km/s) = 3.27200 3.76531 3.52729
# Velocity P-wave (km/s) = 6.25591 6.75442 6.50994
#
# Compressibility (1/GPa) = 0.01817181
#
# Stress axis : x y z
#
# Youngs Moduli (GPa) = 94.62000 72.70939 107.24425
#
# Poissons Ratio (x) = 0.12006 0.32651
# Poissons Ratio (y) = 0.15624 0.32619
# Poissons Ratio (z) = 0.28808 0.22115
#
# Static dielectric constant tensor:
#      x y z
#    x 1.838650 0.000000 0.056770 
#    y 0.000000 1.849680 0.000000 
#    z 0.056770 0.000000 1.887060 
# 
# From -- ./inp_files/72211.got.cif
#   From: 2010.05.17/outbox.cif.g08.bks.cpg/sg14_37_cif.got.tgz:72211.got - 2010.06.03 17:49:19.
