data_PCOD9247250
_publ_section_title
;
Structure prediction by ZEFSAII (Michael W. Deem and Ramdas Pophale) SiO2 
 PCOD9247250
Probable space group: P 21/C
;
_chemical_formula_sum "Si O2"
_cell_formula_units_Z 24
_cell_length_a 19.556155
_cell_length_b 5.469660
_cell_length_c 23.350126
_cell_angle_alpha 90.000000
_cell_angle_beta 22.114685
_cell_angle_gamma 90.000000
_cell_volume 940.272759
_symmetry_space_group_name_H-M "P 21/C"
_symmetry_group_IT_number 14
_symmetry_cell_setting 'monoclinic'
loop_
_space_group_symop_operation_xyz
x,y,z
-x,1/2+y,1/2-z
-x,-y,-z
x,1/2-y,1/2+z
loop_
_atom_site_type_symbol
_atom_site_label
_atom_site_fract_x
_atom_site_fract_y
_atom_site_fract_z
Si Si1 0.768347 0.105765 0.775004
Si Si2 0.148919 0.217419 0.440258
Si Si3 0.820743 0.849032 0.841930
Si Si4 0.353860 0.102320 0.679867
Si Si5 0.116569 0.495149 0.584096
Si Si6 0.537952 0.403754 0.619628
O O1 0.951103 0.099847 0.595152
O O2 0.830125 0.083151 0.792774
O O3 0.664332 0.853381 0.842424
O O4 0.665219 0.356753 0.841061
O O5 0.189616 0.386087 0.353730
O O6 0.155332 0.360647 0.495266
O O7 0.331322 0.049248 0.299065
O O8 0.935959 0.654583 0.717503
O O9 0.912512 0.851985 0.833394
O O10 0.612111 0.870074 0.024305
O O11 0.521606 0.165518 0.591729
O O12 0.306060 0.634439 0.454126
#
# Coordination Sequence:
#
# PCOD9247250 Si02
#       6
#     4   4   4   4   4   4
#     4  12  23  44  78 102 152 192 254 295 383 449
#     4  10  22  45  71 104 142 194 243 314 364 439
#     4  10  23  43  72 104 141 198 237 315 364 451
#     4  10  25  47  71 111 144 196 249 306 371 449
#     4  10  21  46  70 107 145 193 256 302 388 445
#     4   8  24  45  66 108 146 192 242 318 367 444
#
# _framework density 25.524509999999999
#
# number of rings (size 3 to 8) (size 9 to 14) (size 15 to 20)
#    2.000    0.000    0.000    3.000    0.000    4.000 
#    6.000    0.000    0.000    0.000    0.000    0.000 
#    0.000    0.000    0.000    0.000    0.000    0.000 
#
# Total GULP energy -133739.913156 kJ/mol
# GULP energy per Si atom -5572.496381 kJ/mol
# Density = 2.546642 g / cm^3
# Si number density = 25.524510 Si / 1000 Ang^3
#
#
#
# Elastic Constant Matrix: (Units=GPa)
#
#
# Indices 1 2 3 4 5 6 
#
# 1 109.8936 72.7211 -12.9963 0.0000 8.4272 0.0000
# 2 72.7211 109.6629 57.7427 0.0000 -14.3496 0.0000
# 3 -12.9963 57.7427 139.4553 0.0000 -7.9219 0.0000
# 4 0.0000 0.0000 0.0000 38.2246 0.0000 3.1108
# 5 8.4272 -14.3496 -7.9219 0.0000 30.5962 0.0000
# 6 0.0000 0.0000 0.0000 3.1108 0.0000 35.7229
#
#
#
# Elastic Compliance Matrix: (Units=1/GPa)
#
#
# Indices 1 2 3 4 5 6 
#
# 1 0.037662 -0.037309 0.017634 0.000000 -0.023305 0.000000
# 2 -0.037309 0.049202 -0.022283 0.000000 0.027582 0.000000
# 3 0.017634 -0.022283 0.017427 0.000000 -0.010795 0.000000
# 4 0.000000 0.000000 0.000000 0.026348 0.000000 -0.002294
# 5 -0.023305 0.027582 -0.010795 0.000000 0.049244 0.000000
# 6 0.000000 0.000000 0.000000 -0.002294 0.000000 0.028193
#
#
# Mechanical properties :
#
#
# Convention : Reuss Voigt Hill
#
# Bulk Modulus (GPa) = 49.07959 65.99410 57.53685
# Shear Modulus (GPa) = 16.73456 37.01171 26.87313
#
# Velocity S-wave (km/s) = 2.56330 3.81208 3.24826
# Velocity P-wave (km/s) = 5.29441 6.72958 6.05467
#
# Compressibility (1/GPa) = 0.02037507
#
# Stress axis : x y z
#
# Youngs Moduli (GPa) = 26.55231 20.32436 57.38138
#
# Poissons Ratio (x) = 0.75829 -1.01188
# Poissons Ratio (y) = 0.99065 1.27861
# Poissons Ratio (z) = -0.46823 0.45288
#
# Static dielectric constant tensor:
#      x y z
#    x 2.021820 0.000000 -0.017110 
#    y 0.000000 2.059670 0.000000 
#    z -0.017110 0.000000 2.021640 
# 
# From -- ./inp_files/74582.got.cif
#   From: 2010.05.17/outbox.cif.g08.bks.cpg/sg14_38_cif.got.tgz:74582.got - 2010.06.03 17:49:19.
