data_PCOD9247254
_publ_section_title
;
Structure prediction by ZEFSAII (Michael W. Deem and Ramdas Pophale) SiO2 
 PCOD9247254
Probable space group: P 21/C
;
_chemical_formula_sum "Si O2"
_cell_formula_units_Z 22
_cell_length_a 15.947520
_cell_length_b 4.990704
_cell_length_c 10.849346
_cell_angle_alpha 90.000000
_cell_angle_beta 110.381730
_cell_angle_gamma 90.000000
_cell_volume 809.431826
_symmetry_space_group_name_H-M "P 21/C"
_symmetry_group_IT_number 14
_symmetry_cell_setting 'monoclinic'
loop_
_space_group_symop_operation_xyz
x,y,z
-x,1/2+y,1/2-z
-x,-y,-z
x,1/2-y,1/2+z
loop_
_atom_site_type_symbol
_atom_site_label
_atom_site_fract_x
_atom_site_fract_y
_atom_site_fract_z
Si Si1 0.500000 0.000000 0.000000
Si Si2 0.011878 0.553059 0.834161
Si Si3 0.205537 0.459319 0.933013
Si Si4 0.443348 0.413698 0.705347
Si Si5 0.677020 0.295288 0.174121
Si Si6 0.179160 0.130760 0.671219
O O1 0.435512 0.193613 0.063159
O O2 0.589515 0.120774 0.109493
O O3 0.114878 0.627678 0.911195
O O4 0.011401 0.242425 0.794691
O O5 0.928716 0.596409 0.881994
O O6 0.290737 0.635505 0.947694
O O7 0.196832 0.313883 0.797710
O O8 0.207984 0.270452 0.051734
O O9 0.508904 0.201061 0.806897
O O10 0.361698 0.478752 0.752681
O O11 0.760634 0.133915 0.275878
#
# Coordination Sequence:
#
# PCOD9247254 Si02
#       6
#     2   4   4   4   4   4
#     4  10  24  46  70  98 140 188 242 306 374 440
#     4  10  21  46  73 112 152 203 254 317 383 453
#     4  11  25  45  74 108 152 197 255 313 381 460
#     4  10  24  44  68  99 134 181 240 302 370 436
#     4  11  24  46  69 107 139 196 247 315 373 456
#     4  11  25  46  71 109 150 199 255 310 383 455
#
# _framework density 27.179561
#
# number of rings (size 3 to 8) (size 9 to 14) (size 15 to 20)
#    0.000    1.455    1.818    1.636    5.091    5.818 
#    6.545    4.545    0.000    0.000    0.000    0.000 
#    0.000    0.000    0.000    0.000    0.000    0.000 
#
# Total GULP energy -122507.521824 kJ/mol
# GULP energy per Si atom -5568.523719 kJ/mol
# Density = 2.711770 g / cm^3
# Si number density = 27.179561 Si / 1000 Ang^3
#
#
#
# Elastic Constant Matrix: (Units=GPa)
#
#
# Indices 1 2 3 4 5 6 
#
# 1 195.1423 28.3500 52.8808 0.0000 -26.9965 0.0000
# 2 28.3500 51.3540 5.0556 0.0000 7.3622 0.0000
# 3 52.8808 5.0556 82.5902 0.0000 -24.7272 0.0000
# 4 0.0000 0.0000 0.0000 17.1275 0.0000 11.8602
# 5 -26.9965 7.3622 -24.7272 0.0000 64.5951 0.0000
# 6 0.0000 0.0000 0.0000 11.8602 0.0000 40.5114
#
#
#
# Elastic Compliance Matrix: (Units=1/GPa)
#
#
# Indices 1 2 3 4 5 6 
#
# 1 0.006916 -0.003738 -0.003621 0.000000 0.001930 0.000000
# 2 -0.003738 0.022155 -0.000211 0.000000 -0.004168 0.000000
# 3 -0.003621 -0.000211 0.015805 0.000000 0.004561 0.000000
# 4 0.000000 0.000000 0.000000 0.073232 0.000000 -0.021440
# 5 0.001930 -0.004168 0.004561 0.000000 0.018509 0.000000
# 6 0.000000 0.000000 0.000000 -0.021440 0.000000 0.030961
#
#
# Mechanical properties :
#
#
# Convention : Reuss Voigt Hill
#
# Bulk Modulus (GPa) = 33.63006 55.73993 44.68499
# Shear Modulus (GPa) = 25.95662 40.63346 33.29504
#
# Velocity S-wave (km/s) = 3.09367 3.87072 3.50380
# Velocity P-wave (km/s) = 5.01609 6.36625 5.73107
#
# Compressibility (1/GPa) = 0.02973530
#
# Stress axis : x y z
#
# Youngs Moduli (GPa) = 144.59410 45.13738 63.27100
#
# Poissons Ratio (x) = 0.16873 0.22913
# Poissons Ratio (y) = 0.54051 0.01332
# Poissons Ratio (z) = 0.52363 0.00950
#
# Static dielectric constant tensor:
#      x y z
#    x 1.127300 0.000000 1.762260 
#    y 0.000000 2.243030 0.000000 
#    z 1.762260 0.000000 -0.603390 
# 
# From -- ./inp_files/31093.got.cif
#   From: 2010.05.17/outbox.cif.g08.bks.cpg/sg14_16_cif.got.tgz:31093.got - 2010.06.03 17:49:19.
