data_PCOD9247680
_publ_section_title
;
Structure prediction by ZEFSAII (Michael W. Deem and Ramdas Pophale) SiO2 
 PCOD9247680
Probable space group: P 21/C
;
_chemical_formula_sum "Si O2"
_cell_formula_units_Z 32
_cell_length_a 11.688971
_cell_length_b 11.118524
_cell_length_c 23.806635
_cell_angle_alpha 90.000000
_cell_angle_beta 27.097889
_cell_angle_gamma 90.000000
_cell_volume 1409.358107
_symmetry_space_group_name_H-M "P 21/C"
_symmetry_group_IT_number 14
_symmetry_cell_setting 'monoclinic'
loop_
_space_group_symop_operation_xyz
x,y,z
-x,1/2+y,1/2-z
-x,-y,-z
x,1/2-y,1/2+z
loop_
_atom_site_type_symbol
_atom_site_label
_atom_site_fract_x
_atom_site_fract_y
_atom_site_fract_z
Si Si1 0.834426 0.158328 0.038614
Si Si2 0.142288 0.728709 0.083400
Si Si3 0.042272 0.453451 0.132961
Si Si4 0.400668 0.189758 0.551598
Si Si5 0.343735 0.015167 0.796221
Si Si6 0.870011 0.111931 0.588485
Si Si7 0.771579 0.545451 0.362402
Si Si8 0.785577 0.940718 0.263321
O O1 0.954283 0.268134 0.020322
O O2 0.645783 0.092092 0.163419
O O3 0.720680 0.208850 0.030055
O O4 0.063632 0.069199 0.924084
O O5 0.094430 0.590329 0.090838
O O6 0.895420 0.810328 0.196788
O O7 0.308815 0.728414 0.067556
O O8 0.925996 0.389423 0.129906
O O9 0.864811 0.478167 0.265103
O O10 0.277078 0.373344 0.051999
O O11 0.248925 0.310734 0.632750
O O12 0.370597 0.090231 0.613356
O O13 0.570658 0.102942 0.710962
O O14 0.360535 0.992269 0.722206
O O15 0.000000 0.000000 0.500000
O O16 0.500000 0.500000 0.500000
O O17 0.973196 0.514515 0.322096
#
# Coordination Sequence:
#
# PCOD9247680 Si02
#       8
#     4   4   4   4   4   4   4   4
#     4  10  24  44  70 102 134 180 237 286 351 417
#     4  11  20  42  68  90 130 175 223 272 337 408
#     4  11  26  42  62 101 135 171 230 271 338 417
#     4  11  23  40  65  93 132 174 216 281 338 401
#     4  10  25  44  71 100 135 184 238 292 344 421
#     4  12  26  45  68 102 141 184 227 286 353 413
#     4  11  23  42  67  99 127 173 227 278 345 405
#     4  10  22  39  64  97 127 170 223 284 333 400
#
# _framework density 22.705373000000002
#
# number of rings (size 3 to 8) (size 9 to 14) (size 15 to 20)
#    0.000    1.250    3.750    1.125    5.250    1.000 
#    0.000    0.000    0.000    0.000    0.000    0.000 
#    0.000    0.000    0.000    0.000    0.000    0.000 
#
# Total GULP energy -178714.654411 kJ/mol
# GULP energy per Si atom -5584.832950 kJ/mol
# Density = 2.265369 g / cm^3
# Si number density = 22.705373 Si / 1000 Ang^3
#
#
#
# Elastic Constant Matrix: (Units=GPa)
#
#
# Indices 1 2 3 4 5 6 
#
# 1 136.0900 -4.2168 21.7454 0.0000 14.2444 0.0000
# 2 -4.2168 46.7411 0.8725 0.0000 12.6893 0.0000
# 3 21.7454 0.8725 37.7120 0.0000 0.0828 0.0000
# 4 0.0000 0.0000 0.0000 11.6790 0.0000 -2.0993
# 5 14.2444 12.6893 0.0828 0.0000 26.6457 0.0000
# 6 0.0000 0.0000 0.0000 -2.0993 0.0000 34.2879
#
#
#
# Elastic Compliance Matrix: (Units=1/GPa)
#
#
# Indices 1 2 3 4 5 6 
#
# 1 0.008869 0.002503 -0.005159 0.000000 -0.005917 0.000000
# 2 0.002503 0.025289 -0.001999 0.000000 -0.013375 0.000000
# 3 -0.005159 -0.001999 0.029530 0.000000 0.003618 0.000000
# 4 0.000000 0.000000 0.000000 0.086576 0.000000 0.005301
# 5 -0.005917 -0.013375 0.003618 0.000000 0.047051 0.000000
# 6 0.000000 0.000000 0.000000 0.005301 0.000000 0.029489
#
#
# Mechanical properties :
#
#
# Convention : Reuss Voigt Hill
#
# Bulk Modulus (GPa) = 18.38996 28.59391 23.49194
# Shear Modulus (GPa) = 19.66642 27.99867 23.83254
#
# Velocity S-wave (km/s) = 2.94625 3.51540 3.24333
# Velocity P-wave (km/s) = 4.43743 5.39428 4.93908
#
# Compressibility (1/GPa) = 0.05437749
#
# Stress axis : x y z
#
# Youngs Moduli (GPa) = 112.74769 39.54359 33.86393
#
# Poissons Ratio (x) = -0.09897 0.17471
# Poissons Ratio (y) = -0.28220 0.06769
# Poissons Ratio (z) = 0.58168 0.07904
#
# Static dielectric constant tensor:
#      x y z
#    x 1.865200 0.000000 0.016360 
#    y 0.000000 1.861890 0.000000 
#    z 0.016360 0.000000 1.930710 
# 
# From -- ./inp_files/73293.got.cif
#   From: 2010.05.17/outbox.cif.g08.bks.cpg/sg14_37_cif.got.tgz:73293.got - 2010.06.03 17:49:19.
