data_PCOD9247449
_publ_section_title
;
Structure prediction by ZEFSAII (Michael W. Deem and Ramdas Pophale) SiO2 
 PCOD9247449
Probable space group: P 21/C
;
_chemical_formula_sum "Si O2"
_cell_formula_units_Z 28
_cell_length_a 8.183655
_cell_length_b 9.129030
_cell_length_c 28.958060
_cell_angle_alpha 90.000000
_cell_angle_beta 32.852984
_cell_angle_gamma 90.000000
_cell_volume 1173.625063
_symmetry_space_group_name_H-M "P 21/C"
_symmetry_group_IT_number 14
_symmetry_cell_setting 'monoclinic'
loop_
_space_group_symop_operation_xyz
x,y,z
-x,1/2+y,1/2-z
-x,-y,-z
x,1/2-y,1/2+z
loop_
_atom_site_type_symbol
_atom_site_label
_atom_site_fract_x
_atom_site_fract_y
_atom_site_fract_z
Si Si1 0.184233 0.226548 0.164123
Si Si2 0.229360 0.493507 0.729318
Si Si3 0.144517 0.376614 0.405773
Si Si4 0.804934 0.822669 0.523775
Si Si5 0.121810 0.141947 0.077939
Si Si6 0.421284 0.252233 0.750354
Si Si7 0.561021 0.438602 0.137335
O O1 0.103842 0.084770 0.213630
O O2 0.439342 0.311117 0.132700
O O3 0.931637 0.353760 0.222005
O O4 0.257610 0.172024 0.095632
O O5 0.583141 0.524433 0.639130
O O6 0.222851 0.376369 0.772361
O O7 0.052309 0.283955 0.471738
O O8 0.909674 0.479045 0.434969
O O9 0.297110 0.276081 0.330378
O O10 0.708642 0.733725 0.501792
O O11 0.078460 0.924192 0.441250
O O12 0.547084 0.912346 0.611367
O O13 0.770084 0.196116 0.165992
O O14 0.413228 0.101940 0.721611
#
# Coordination Sequence:
#
# PCOD9247449 Si02
#       7
#     4   4   4   4   4   4   4
#     4  11  23  41  62  93 137 160 209 267 322 370
#     4  10  24  37  62  97 129 163 206 268 321 365
#     4  11  22  39  67  92 124 166 220 260 307 375
#     4  10  22  41  64  89 123 176 212 253 314 380
#     4  10  22  38  59  90 128 163 210 256 308 382
#     4   9  20  38  60  92 117 165 216 260 298 373
#     4   9  22  40  63  89 130 164 213 262 312 375
#
# _framework density 23.857703000000001
#
# number of rings (size 3 to 8) (size 9 to 14) (size 15 to 20)
#    0.000    2.000    1.429    1.286   10.000    1.714 
#    0.000    2.857    0.000    0.000    0.000    0.000 
#    0.000    0.000    0.000    0.000    0.000    0.000 
#
# Total GULP energy -156443.058183 kJ/mol
# GULP energy per Si atom -5587.252078 kJ/mol
# Density = 2.380340 g / cm^3
# Si number density = 23.857703 Si / 1000 Ang^3
#
#
#
# Elastic Constant Matrix: (Units=GPa)
#
#
# Indices 1 2 3 4 5 6 
#
# 1 70.3383 16.5009 36.8095 0.0000 36.0102 0.0000
# 2 16.5009 81.9104 31.4416 0.0000 17.6281 0.0000
# 3 36.8095 31.4416 63.5733 0.0000 21.2739 0.0000
# 4 0.0000 0.0000 0.0000 36.1528 0.0000 -0.1804
# 5 36.0102 17.6281 21.2739 0.0000 42.5335 0.0000
# 6 0.0000 0.0000 0.0000 -0.1804 0.0000 35.2037
#
#
#
# Elastic Compliance Matrix: (Units=1/GPa)
#
#
# Indices 1 2 3 4 5 6 
#
# 1 0.030738 0.003057 -0.012223 0.000000 -0.021178 0.000000
# 2 0.003057 0.015704 -0.007798 0.000000 -0.005197 0.000000
# 3 -0.012223 -0.007798 0.026566 0.000000 0.000293 0.000000
# 4 0.000000 0.000000 0.000000 0.027661 0.000000 0.000142
# 5 -0.021178 -0.005197 0.000293 0.000000 0.043448 0.000000
# 6 0.000000 0.000000 0.000000 0.000142 0.000000 0.028407
#
#
# Mechanical properties :
#
#
# Convention : Reuss Voigt Hill
#
# Bulk Modulus (GPa) = 25.58805 42.81400 34.20103
# Shear Modulus (GPa) = 22.78122 31.51602 27.14862
#
# Velocity S-wave (km/s) = 3.09346 3.63850 3.37700
# Velocity P-wave (km/s) = 4.84850 5.96960 5.43801
#
# Compressibility (1/GPa) = 0.03908074
#
# Stress axis : x y z
#
# Youngs Moduli (GPa) = 32.53254 63.67677 37.64228
#
# Poissons Ratio (x) = -0.19468 0.46011
# Poissons Ratio (y) = -0.09946 0.29354
# Poissons Ratio (z) = 0.39765 0.49656
#
# Static dielectric constant tensor:
#      x y z
#    x 1.908710 0.000000 -0.031740 
#    y 0.000000 1.979950 0.000000 
#    z -0.031740 0.000000 1.905490 
# 
# From -- ./inp_files/64532.got.cif
#   From: 2010.05.17/outbox.cif.g08.bks.cpg/sg14_33_cif.got.tgz:64532.got - 2010.06.03 17:49:19.
