data_PCOD9247538
_publ_section_title
;
Structure prediction by ZEFSAII (Michael W. Deem and Ramdas Pophale) SiO2 
 PCOD9247538
Probable space group: P 21/C
;
_chemical_formula_sum "Si O2"
_cell_formula_units_Z 32
_cell_length_a 14.116627
_cell_length_b 9.458781
_cell_length_c 9.823428
_cell_angle_alpha 90.000000
_cell_angle_beta 98.878244
_cell_angle_gamma 90.000000
_cell_volume 1295.967977
_symmetry_space_group_name_H-M "P 21/C"
_symmetry_group_IT_number 14
_symmetry_cell_setting 'monoclinic'
loop_
_space_group_symop_operation_xyz
x,y,z
-x,1/2+y,1/2-z
-x,-y,-z
x,1/2-y,1/2+z
loop_
_atom_site_type_symbol
_atom_site_label
_atom_site_fract_x
_atom_site_fract_y
_atom_site_fract_z
Si Si1 0.338059 0.600291 0.475911
Si Si2 0.680896 0.935028 0.636473
Si Si3 0.849710 0.447212 0.001732
Si Si4 0.134084 0.854257 0.048054
Si Si5 0.367936 0.298426 0.600844
Si Si6 0.033910 0.412419 0.663640
Si Si7 0.943976 0.617515 0.814461
Si Si8 0.578075 0.294412 0.227580
O O1 0.224109 0.607392 0.474359
O O2 0.373518 0.440605 0.509922
O O3 0.365708 0.671829 0.340867
O O4 0.387190 0.689561 0.609624
O O5 0.694665 0.845653 0.780216
O O6 0.659614 0.825517 0.509960
O O7 0.765687 0.028886 0.589022
O O8 0.602097 0.053777 0.662208
O O9 0.840062 0.306462 0.907118
O O10 0.867222 0.582581 0.911612
O O11 0.949162 0.419410 0.104427
O O12 0.021848 0.844779 0.976999
O O13 0.119411 0.984499 0.145872
O O14 0.468117 0.248948 0.688538
O O15 0.943935 0.497174 0.702377
O O16 0.064453 0.272663 0.748965
#
# Coordination Sequence:
#
# PCOD9247538 Si02
#       8
#     4   4   4   4   4   4   4   4
#     4  11  25  43  74 104 139 185 231 301 342 442
#     4  11  25  46  73 103 142 188 228 299 345 441
#     4  10  22  42  62  97 134 181 237 279 351 408
#     4  10  22  43  62 100 135 184 239 284 352 413
#     4  11  26  46  70 106 143 179 235 296 360 424
#     4  10  22  39  67  92 142 181 231 294 343 421
#     4  10  22  38  66  93 137 185 226 293 344 415
#     4  11  24  47  72 101 140 187 229 292 367 417
#
# _framework density 24.691967999999999
#
# number of rings (size 3 to 8) (size 9 to 14) (size 15 to 20)
#    0.000    1.500    1.250    2.250    5.250    5.000 
#    2.250    0.000    0.000    0.000    0.000    0.000 
#    0.000    0.000    0.000    0.000    0.000    0.000 
#
# Total GULP energy -178579.688043 kJ/mol
# GULP energy per Si atom -5580.615251 kJ/mol
# Density = 2.463577 g / cm^3
# Si number density = 24.691968 Si / 1000 Ang^3
#
#
#
# Elastic Constant Matrix: (Units=GPa)
#
#
# Indices 1 2 3 4 5 6 
#
# 1 51.0935 19.4684 17.4269 0.0000 -0.7108 0.0000
# 2 19.4684 96.6157 22.3719 0.0000 0.8716 0.0000
# 3 17.4269 22.3719 33.9122 0.0000 -9.6702 0.0000
# 4 0.0000 0.0000 0.0000 36.1630 0.0000 -10.0279
# 5 -0.7108 0.8716 -9.6702 0.0000 32.0017 0.0000
# 6 0.0000 0.0000 0.0000 -10.0279 0.0000 34.7114
#
#
#
# Elastic Compliance Matrix: (Units=1/GPa)
#
#
# Indices 1 2 3 4 5 6 
#
# 1 0.024438 -0.002111 -0.012031 0.000000 -0.003035 0.000000
# 2 -0.002111 0.012673 -0.008084 0.000000 -0.002835 0.000000
# 3 -0.012031 -0.008084 0.044855 0.000000 0.013507 0.000000
# 4 0.000000 0.000000 0.000000 0.030061 0.000000 0.008684
# 5 -0.003035 -0.002835 0.013507 0.000000 0.035340 0.000000
# 6 0.000000 0.000000 0.000000 0.008684 0.000000 0.031318
#
#
# Mechanical properties :
#
#
# Convention : Reuss Voigt Hill
#
# Bulk Modulus (GPa) = 26.65680 33.35064 30.00372
# Shear Modulus (GPa) = 21.21875 28.73216 24.97545
#
# Velocity S-wave (km/s) = 2.93463 3.41489 3.18383
# Velocity P-wave (km/s) = 4.72249 5.39302 5.06885
#
# Compressibility (1/GPa) = 0.03751388
#
# Stress axis : x y z
#
# Youngs Moduli (GPa) = 40.92058 78.90698 22.29403
#
# Poissons Ratio (x) = 0.16658 0.26822
# Poissons Ratio (y) = 0.08639 0.18023
# Poissons Ratio (z) = 0.49231 0.63789
#
# Static dielectric constant tensor:
#      x y z
#    x 1.956390 0.000000 0.095730 
#    y 0.000000 2.164100 0.000000 
#    z 0.095730 0.000000 2.151580 
# 
# From -- ./inp_files/31845.got.cif
#   From: 2010.05.17/outbox.cif.g08.bks.cpg/sg14_16_cif.got.tgz:31845.got - 2010.06.03 17:49:19.
