data_PCOD9247554
_publ_section_title
;
Structure prediction by ZEFSAII (Michael W. Deem and Ramdas Pophale) SiO2 
 PCOD9247554
Probable space group: P 21/C
;
_chemical_formula_sum "Si O2"
_cell_formula_units_Z 20
_cell_length_a 9.720412
_cell_length_b 5.136513
_cell_length_c 22.412860
_cell_angle_alpha 90.000000
_cell_angle_beta 48.444033
_cell_angle_gamma 90.000000
_cell_volume 837.395833
_symmetry_space_group_name_H-M "P 21/C"
_symmetry_group_IT_number 14
_symmetry_cell_setting 'monoclinic'
loop_
_space_group_symop_operation_xyz
x,y,z
-x,1/2+y,1/2-z
-x,-y,-z
x,1/2-y,1/2+z
loop_
_atom_site_type_symbol
_atom_site_label
_atom_site_fract_x
_atom_site_fract_y
_atom_site_fract_z
Si Si1 0.608735 0.937528 0.240667
Si Si2 0.916688 0.312985 0.574182
Si Si3 0.649536 0.984485 0.369189
Si Si4 0.287395 0.981870 0.081332
Si Si5 0.225700 0.904060 0.499470
O O1 0.464052 0.165713 0.264912
O O2 0.795593 0.030815 0.155354
O O3 0.646110 0.923159 0.300346
O O4 0.782879 0.147363 0.568922
O O5 0.000000 0.500000 0.500000
O O6 0.069334 0.117522 0.555538
O O7 0.730643 0.263814 0.362235
O O8 0.750837 0.759541 0.377789
O O9 0.566014 0.006232 0.548976
O O10 0.194255 0.849338 0.050152
O O11 0.500000 0.000000 0.000000
#
# Coordination Sequence:
#
# PCOD9247554 Si02
#       5
#     4   4   4   4   4
#     4  12  25  44  69 101 142 178 235 299 354 422
#     4  11  25  40  70 100 138 185 228 292 356 416
#     4  11  22  41  69 101 132 178 230 279 341 411
#     4  10  22  38  69  98 133 177 226 278 332 414
#     4  10  22  41  62 106 137 174 233 281 346 410
#
# _framework density 23.883565999999998
#
# number of rings (size 3 to 8) (size 9 to 14) (size 15 to 20)
#    0.000    1.200    2.000    4.800   14.000    0.000 
#    0.000    0.000    4.400    0.000    0.000    0.000 
#    0.000    0.000    0.000    0.000    0.000    0.000 
#
# Total GULP energy -111922.102765 kJ/mol
# GULP energy per Si atom -5596.105138 kJ/mol
# Density = 2.382921 g / cm^3
# Si number density = 23.883566 Si / 1000 Ang^3
#
#
#
# Elastic Constant Matrix: (Units=GPa)
#
#
# Indices 1 2 3 4 5 6 
#
# 1 115.4370 46.7982 53.4583 0.0000 31.4589 0.0000
# 2 46.7982 131.8235 28.1233 0.0000 17.6941 0.0000
# 3 53.4583 28.1233 128.4004 0.0000 25.1675 0.0000
# 4 0.0000 0.0000 0.0000 35.8859 0.0000 7.0428
# 5 31.4589 17.6941 25.1675 0.0000 49.8829 0.0000
# 6 0.0000 0.0000 0.0000 7.0428 0.0000 55.1825
#
#
#
# Elastic Compliance Matrix: (Units=1/GPa)
#
#
# Indices 1 2 3 4 5 6 
#
# 1 0.013102 -0.003148 -0.003734 0.000000 -0.005262 0.000000
# 2 -0.003148 0.008929 -0.000459 0.000000 -0.000950 0.000000
# 3 -0.003734 -0.000459 0.009932 0.000000 -0.002493 0.000000
# 4 0.000000 0.000000 0.000000 0.028582 0.000000 -0.003648
# 5 -0.005262 -0.000950 -0.002493 0.000000 0.024961 0.000000
# 6 0.000000 0.000000 0.000000 -0.003648 0.000000 0.018587
#
#
# Mechanical properties :
#
#
# Convention : Reuss Voigt Hill
#
# Bulk Modulus (GPa) = 57.86637 70.26896 64.06767
# Shear Modulus (GPa) = 40.14904 44.67567 42.41235
#
# Velocity S-wave (km/s) = 4.10449 4.32969 4.21859
# Velocity P-wave (km/s) = 6.83693 7.38108 7.11421
#
# Compressibility (1/GPa) = 0.01728120
#
# Stress axis : x y z
#
# Youngs Moduli (GPa) = 76.32174 111.99438 100.68521
#
# Poissons Ratio (x) = 0.35261 0.37596
# Poissons Ratio (y) = 0.24030 0.04617
# Poissons Ratio (z) = 0.28499 0.05136
#
# Static dielectric constant tensor:
#      x y z
#    x 2.018860 0.000000 0.011050 
#    y 0.000000 2.052470 0.000000 
#    z 0.011050 0.000000 1.865780 
# 
# From -- ./inp_files/56514.got.cif
#   From: 2010.05.17/outbox.cif.g08.bks.cpg/sg14_29_cif.got.tgz:56514.got - 2010.06.03 17:49:19.
