data_PCOD9247546
_publ_section_title
;
Structure prediction by ZEFSAII (Michael W. Deem and Ramdas Pophale) SiO2 
 PCOD9247546
Probable space group: P 21/C
;
_chemical_formula_sum "Si O2"
_cell_formula_units_Z 24
_cell_length_a 10.872874
_cell_length_b 9.140406
_cell_length_c 13.519776
_cell_angle_alpha 90.000000
_cell_angle_beta 131.738620
_cell_angle_gamma 90.000000
_cell_volume 1002.601938
_symmetry_space_group_name_H-M "P 21/C"
_symmetry_group_IT_number 14
_symmetry_cell_setting 'monoclinic'
loop_
_space_group_symop_operation_xyz
x,y,z
-x,1/2+y,1/2-z
-x,-y,-z
x,1/2-y,1/2+z
loop_
_atom_site_type_symbol
_atom_site_label
_atom_site_fract_x
_atom_site_fract_y
_atom_site_fract_z
Si Si1 0.545066 0.265120 0.949154
Si Si2 0.227901 0.134952 0.691049
Si Si3 0.194035 0.655327 0.554482
Si Si4 0.620401 0.076984 0.662818
Si Si5 0.073332 0.409086 0.718148
Si Si6 0.007438 0.360784 0.901346
O O1 0.412443 0.149556 0.833723
O O2 0.715117 0.242673 0.983359
O O3 0.490873 0.433009 0.902264
O O4 0.558429 0.275317 0.075932
O O5 0.155669 0.285576 0.694582
O O6 0.186354 0.125863 0.551447
O O7 0.108275 0.005591 0.664017
O O8 0.333574 0.590782 0.698676
O O9 0.092942 0.753831 0.579037
O O10 0.080491 0.543267 0.432100
O O11 0.791457 0.034137 0.698910
O O12 0.033308 0.332761 0.800113
#
# Coordination Sequence:
#
# PCOD9247546 Si02
#       6
#     4   4   4   4   4   4
#     4  10  23  41  64  91 129 168 209 264 327 377
#     4   9  22  41  61  97 122 167 217 255 329 374
#     4  11  23  39  63  94 125 165 217 266 317 385
#     4  10  23  42  63  89 128 171 208 265 323 381
#     4  10  22  41  64  91 124 171 213 264 317 384
#     4  10  22  38  68  90 127 167 212 268 307 390
#
# _framework density 23.937716999999999
#
# number of rings (size 3 to 8) (size 9 to 14) (size 15 to 20)
#    0.000    2.000    0.000    1.500   11.667    2.667 
#    3.000    1.667    0.000    0.000    0.000    0.000 
#    0.000    0.000    0.000    0.000    0.000    0.000 
#
# Total GULP energy -133786.707515 kJ/mol
# GULP energy per Si atom -5574.446146 kJ/mol
# Density = 2.388323 g / cm^3
# Si number density = 23.937717 Si / 1000 Ang^3
#
#
#
# Elastic Constant Matrix: (Units=GPa)
#
#
# Indices 1 2 3 4 5 6 
#
# 1 52.4781 9.2509 36.0064 0.0000 -2.1871 0.0000
# 2 9.2509 41.3165 19.4039 0.0000 10.9378 0.0000
# 3 36.0064 19.4039 157.5057 0.0000 3.0176 0.0000
# 4 0.0000 0.0000 0.0000 34.4932 0.0000 3.4748
# 5 -2.1871 10.9378 3.0176 0.0000 24.7719 0.0000
# 6 0.0000 0.0000 0.0000 3.4748 0.0000 23.6285
#
#
#
# Elastic Compliance Matrix: (Units=1/GPa)
#
#
# Indices 1 2 3 4 5 6 
#
# 1 0.023337 -0.004100 -0.004916 0.000000 0.004470 0.000000
# 2 -0.004100 0.029783 -0.002479 0.000000 -0.013210 0.000000
# 3 -0.004916 -0.002479 0.007784 0.000000 -0.000288 0.000000
# 4 0.000000 0.000000 0.000000 0.029427 0.000000 -0.004328
# 5 0.004470 -0.013210 -0.000288 0.000000 0.046631 0.000000
# 6 0.000000 0.000000 0.000000 -0.004328 0.000000 0.042958
#
#
# Mechanical properties :
#
#
# Convention : Reuss Voigt Hill
#
# Bulk Modulus (GPa) = 26.37471 42.29139 34.33305
# Shear Modulus (GPa) = 23.19683 29.02133 26.10908
#
# Velocity S-wave (km/s) = 3.11633 3.48569 3.30617
# Velocity P-wave (km/s) = 4.89803 5.82285 5.38035
#
# Compressibility (1/GPa) = 0.03791511
#
# Stress axis : x y z
#
# Youngs Moduli (GPa) = 42.84994 33.57652 128.47601
#
# Poissons Ratio (x) = 0.13766 0.63153
# Poissons Ratio (y) = 0.17568 0.31845
# Poissons Ratio (z) = 0.21063 0.08323
#
# Static dielectric constant tensor:
#      x y z
#    x 1.959480 0.000000 0.092910 
#    y 0.000000 1.920260 0.000000 
#    z 0.092910 0.000000 2.151860 
# 
# From -- ./inp_files/29209.got.cif
#   From: 2010.05.17/outbox.cif.g08.bks.cpg/sg14_15_cif.got.tgz:29209.got - 2010.06.03 17:49:19.
