data_PCOD9247862
_publ_section_title
;
Structure prediction by ZEFSAII (Michael W. Deem and Ramdas Pophale) SiO2 
 PCOD9247862
Probable space group: P 21/C
;
_chemical_formula_sum "Si O2"
_cell_formula_units_Z 24
_cell_length_a 19.390530
_cell_length_b 14.026172
_cell_length_c 10.408051
_cell_angle_alpha 90.000000
_cell_angle_beta 154.399190
_cell_angle_gamma 90.000000
_cell_volume 1223.153630
_symmetry_space_group_name_H-M "P 21/C"
_symmetry_group_IT_number 14
_symmetry_cell_setting 'monoclinic'
loop_
_space_group_symop_operation_xyz
x,y,z
-x,1/2+y,1/2-z
-x,-y,-z
x,1/2-y,1/2+z
loop_
_atom_site_type_symbol
_atom_site_label
_atom_site_fract_x
_atom_site_fract_y
_atom_site_fract_z
Si Si1 0.095782 0.328868 0.825341
Si Si2 0.456250 0.098460 0.363811
Si Si3 0.731002 0.160139 0.637675
Si Si4 0.491492 0.318744 0.189230
Si Si5 0.366399 0.474305 0.172703
Si Si6 0.790758 0.684158 0.693438
O O1 0.123660 0.235766 0.781809
O O2 0.911532 0.349404 0.486810
O O3 0.224311 0.407448 0.990220
O O4 0.120052 0.320611 0.020480
O O5 0.611665 0.132056 0.550395
O O6 0.435173 0.169251 0.448381
O O7 0.500000 0.000000 0.500000
O O8 0.297032 0.090754 0.009702
O O9 0.663376 0.265025 0.482405
O O10 0.702603 0.076219 0.487045
O O11 0.457812 0.415847 0.212254
O O12 0.365689 0.247060 0.040656
O O13 0.500000 0.500000 0.500000
#
# Coordination Sequence:
#
# PCOD9247862 Si02
#       6
#     4   4   4   4   4   4
#     4  11  24  41  65  97 137 165 215 270 331 385
#     4  11  21  41  66  92 128 167 225 265 316 387
#     4  11  25  39  66  95 130 168 213 274 331 379
#     4  10  22  40  64  93 123 171 219 267 310 395
#     4  11  23  42  67  95 126 174 225 264 320 395
#     4  10  22  42  65  91 128 175 210 261 326 386
#
# _framework density 19.621410000000001
#
# number of rings (size 3 to 8) (size 9 to 14) (size 15 to 20)
#    0.000    1.333    3.333    2.500    7.000    0.000 
#    0.000    2.500    0.000    0.000    0.000    0.000 
#    0.000    0.000    0.000    0.000    0.000    0.000 
#
# Total GULP energy -133660.659253 kJ/mol
# GULP energy per Si atom -5569.194136 kJ/mol
# Density = 1.957675 g / cm^3
# Si number density = 19.621410 Si / 1000 Ang^3
#
#
#
# Elastic Constant Matrix: (Units=GPa)
#
#
# Indices 1 2 3 4 5 6 
#
# 1 61.1149 15.8281 65.8470 0.0000 -19.3188 0.0000
# 2 15.8281 44.8196 47.1984 0.0000 0.3362 0.0000
# 3 65.8470 47.1984 205.1635 0.0000 -7.7931 0.0000
# 4 0.0000 0.0000 0.0000 29.7034 0.0000 -8.8024
# 5 -19.3188 0.3362 -7.7931 0.0000 31.6303 0.0000
# 6 0.0000 0.0000 0.0000 -8.8024 0.0000 19.9110
#
#
#
# Elastic Compliance Matrix: (Units=1/GPa)
#
#
# Indices 1 2 3 4 5 6 
#
# 1 0.032408 -0.001747 -0.009334 0.000000 0.017512 0.000000
# 2 -0.001747 0.029665 -0.006376 0.000000 -0.002953 0.000000
# 3 -0.009334 -0.006376 0.009209 0.000000 -0.003364 0.000000
# 4 0.000000 0.000000 0.000000 0.038742 0.000000 0.017127
# 5 0.017512 -0.002953 -0.003364 0.000000 0.041514 0.000000
# 6 0.000000 0.000000 0.000000 0.017127 0.000000 0.057795
#
#
# Mechanical properties :
#
#
# Convention : Reuss Voigt Hill
#
# Bulk Modulus (GPa) = 27.49665 63.20501 45.35083
# Shear Modulus (GPa) = 19.50310 28.39724 23.95017
#
# Velocity S-wave (km/s) = 3.15615 3.80841 3.49752
# Velocity P-wave (km/s) = 5.22740 7.18477 6.28278
#
# Compressibility (1/GPa) = 0.03636807
#
# Stress axis : x y z
#
# Youngs Moduli (GPa) = 30.85681 33.70953 108.58905
#
# Poissons Ratio (x) = 0.05888 1.01360
# Poissons Ratio (y) = 0.05389 0.69238
# Poissons Ratio (z) = 0.28802 0.21494
#
# Static dielectric constant tensor:
#      x y z
#    x 1.745690 0.000000 -0.052400 
#    y 0.000000 1.967930 0.000000 
#    z -0.052400 0.000000 1.710950 
# 
# From -- ./inp_files/18038.got.cif
#   From: 2010.05.17/outbox.cif.g08.bks.cpg/sg14_10_cif.got.tgz:18038.got - 2010.06.03 17:49:19.
