data_PCOD9247882
_publ_section_title
;
Structure prediction by ZEFSAII (Michael W. Deem and Ramdas Pophale) SiO2 
 PCOD9247882
Probable space group: P 21/C
;
_chemical_formula_sum "Si O2"
_cell_formula_units_Z 22
_cell_length_a 13.909649
_cell_length_b 7.714259
_cell_length_c 10.679890
_cell_angle_alpha 90.000000
_cell_angle_beta 134.832702
_cell_angle_gamma 90.000000
_cell_volume 812.693095
_symmetry_space_group_name_H-M "P 21/C"
_symmetry_group_IT_number 14
_symmetry_cell_setting 'monoclinic'
loop_
_space_group_symop_operation_xyz
x,y,z
-x,1/2+y,1/2-z
-x,-y,-z
x,1/2-y,1/2+z
loop_
_atom_site_type_symbol
_atom_site_label
_atom_site_fract_x
_atom_site_fract_y
_atom_site_fract_z
Si Si1 0.325830 0.621573 0.836743
Si Si2 0.500000 0.500000 0.500000
Si Si3 0.242307 0.267756 0.299719
Si Si4 0.968489 0.256511 0.901425
Si Si5 0.599684 0.313131 0.350830
Si Si6 0.128391 0.023880 0.884633
O O1 0.301125 0.416337 0.810737
O O2 0.183371 0.721121 0.693379
O O3 0.429586 0.705387 0.827263
O O4 0.379753 0.661685 0.027219
O O5 0.345637 0.420568 0.362401
O O6 0.513343 0.440975 0.358789
O O7 0.204388 0.299513 0.410284
O O8 0.094188 0.293618 0.105072
O O9 0.952246 0.412546 0.790344
O O10 0.016897 0.079406 0.880405
O O11 0.746669 0.401602 0.466598
#
# Coordination Sequence:
#
# PCOD9247882 Si02
#       6
#     4   2   4   4   4   4
#     4  11  24  43  75 110 152 193 255 320 407 458
#     4  10  26  50  66 100 150 200 268 296 366 466
#     4  11  23  44  71 101 147 204 247 322 378 461
#     4  11  22  40  71 106 150 193 246 324 394 477
#     4  10  24  47  68 108 148 198 254 318 378 474
#     4  10  22  40  65 107 145 188 254 309 397 458
#
# _framework density 27.070487
#
# number of rings (size 3 to 8) (size 9 to 14) (size 15 to 20)
#    0.000    1.455    1.818    2.182    5.091    2.182 
#    9.818    0.000    0.000    0.000    0.000    0.000 
#    0.000    0.000    0.000    0.000    0.000    0.000 
#
# Total GULP energy -122522.374795 kJ/mol
# GULP energy per Si atom -5569.198854 kJ/mol
# Density = 2.700887 g / cm^3
# Si number density = 27.070487 Si / 1000 Ang^3
#
#
#
# Elastic Constant Matrix: (Units=GPa)
#
#
# Indices 1 2 3 4 5 6 
#
# 1 187.3642 40.4974 39.6437 0.0000 -30.7602 0.0000
# 2 40.4974 44.1588 19.8071 0.0000 22.9207 0.0000
# 3 39.6437 19.8071 91.6599 0.0000 6.6464 0.0000
# 4 0.0000 0.0000 0.0000 23.8231 0.0000 -1.6278
# 5 -30.7602 22.9207 6.6464 0.0000 42.1795 0.0000
# 6 0.0000 0.0000 0.0000 -1.6278 0.0000 47.2352
#
#
#
# Elastic Compliance Matrix: (Units=1/GPa)
#
#
# Indices 1 2 3 4 5 6 
#
# 1 0.016991 -0.029053 -0.003150 0.000000 0.028675 0.000000
# 2 -0.029053 0.084390 -0.000818 0.000000 -0.066917 0.000000
# 3 -0.003150 -0.000818 0.012729 0.000000 -0.003858 0.000000
# 4 0.000000 0.000000 0.000000 0.042075 0.000000 0.001450
# 5 0.028675 -0.066917 -0.003858 0.000000 0.081591 0.000000
# 6 0.000000 0.000000 0.000000 0.001450 0.000000 0.021221
#
#
# Mechanical properties :
#
#
# Convention : Reuss Voigt Hill
#
# Bulk Modulus (GPa) = 20.80410 58.11993 39.46201
# Shear Modulus (GPa) = 14.66017 37.52988 26.09502
#
# Velocity S-wave (km/s) = 2.32966 3.72745 3.10815
# Velocity P-wave (km/s) = 3.86500 6.32784 5.24308
#
# Compressibility (1/GPa) = 0.04806746
#
# Stress axis : x y z
#
# Youngs Moduli (GPa) = 58.85498 11.84979 78.56213
#
# Poissons Ratio (x) = 0.34427 0.24746
# Poissons Ratio (y) = 1.70992 0.06427
# Poissons Ratio (z) = 0.18538 0.00969
#
# Static dielectric constant tensor:
#      x y z
#    x 2.123780 0.000000 -0.275630 
#    y 0.000000 2.184250 0.000000 
#    z -0.275630 0.000000 2.274760 
# 
# From -- ./inp_files/31428.got.cif
#   From: 2010.05.17/outbox.cif.g08.bks.cpg/sg14_16_cif.got.tgz:31428.got - 2010.06.03 17:49:19.
