data_PCOD9247932
_publ_section_title
;
Structure prediction by ZEFSAII (Michael W. Deem and Ramdas Pophale) SiO2 
 PCOD9247932
Probable space group: P 21/C
;
_chemical_formula_sum "Si O2"
_cell_formula_units_Z 16
_cell_length_a 7.189618
_cell_length_b 7.134975
_cell_length_c 20.107359
_cell_angle_alpha 90.000000
_cell_angle_beta 142.334062
_cell_angle_gamma 90.000000
_cell_volume 630.281719
_symmetry_space_group_name_H-M "P 21/C"
_symmetry_group_IT_number 14
_symmetry_cell_setting 'monoclinic'
loop_
_space_group_symop_operation_xyz
x,y,z
-x,1/2+y,1/2-z
-x,-y,-z
x,1/2-y,1/2+z
loop_
_atom_site_type_symbol
_atom_site_label
_atom_site_fract_x
_atom_site_fract_y
_atom_site_fract_z
Si Si1 0.216440 0.020023 0.997453
Si Si2 0.307092 0.620023 0.739761
Si Si3 0.588134 0.103277 0.591673
Si Si4 0.718832 0.937917 0.229714
O O1 0.361752 0.222860 0.030421
O O2 0.511750 0.904270 0.105031
O O3 0.988586 0.009875 0.871017
O O4 0.000000 0.000000 0.000000
O O5 0.439858 0.517087 0.842240
O O6 0.248553 0.835622 0.746625
O O7 0.544177 0.631532 0.746096
O O8 0.500000 0.000000 0.500000
O O9 0.947259 0.140732 0.686173
#
# Coordination Sequence:
#
# PCOD9247932 Si02
#       4
#     4   4   4   4
#     4   9  20  43  69  98 140 187 237 293 356 422
#     4  10  22  42  65  95 142 180 234 291 355 418
#     4  11  22  40  67 102 140 182 239 290 356 426
#     4  10  22  40  66  99 134 187 233 289 355 423
#
# _framework density 25.385472
#
# number of rings (size 3 to 8) (size 9 to 14) (size 15 to 20)
#    0.000    2.000    2.500    0.000    0.000    6.000 
#    0.000    5.000    0.000    0.000    0.000    0.000 
#    0.000    0.000    0.000    0.000    0.000    0.000 
#
# Total GULP energy -89406.341135 kJ/mol
# GULP energy per Si atom -5587.896321 kJ/mol
# Density = 2.532769 g / cm^3
# Si number density = 25.385472 Si / 1000 Ang^3
#
#
#
# Elastic Constant Matrix: (Units=GPa)
#
#
# Indices 1 2 3 4 5 6 
#
# 1 160.5844 42.5759 49.1568 0.0000 -10.5608 0.0000
# 2 42.5759 102.1765 20.3734 0.0000 -6.8864 0.0000
# 3 49.1568 20.3734 137.4985 0.0000 -11.5350 0.0000
# 4 0.0000 0.0000 0.0000 -7.6115 0.0000 -0.2771
# 5 -10.5608 -6.8864 -11.5350 0.0000 58.5522 0.0000
# 6 0.0000 0.0000 0.0000 -0.2771 0.0000 50.1172
#
#
#
# Elastic Compliance Matrix: (Units=1/GPa)
#
#
# Indices 1 2 3 4 5 6 
#
# 1 0.007688 -0.002704 -0.002296 0.000000 0.000616 0.000000
# 2 -0.002704 0.011084 -0.000617 0.000000 0.000694 0.000000
# 3 -0.002296 -0.000617 0.008281 0.000000 0.001145 0.000000
# 4 0.000000 0.000000 0.000000 -0.131354 0.000000 -0.000726
# 5 0.000616 0.000694 0.001145 0.000000 0.017497 0.000000
# 6 0.000000 0.000000 0.000000 -0.000726 0.000000 0.019949
#
#
# Mechanical properties :
#
#
# Convention : Reuss Voigt Hill
#
# Bulk Modulus (GPa) = 63.22061 69.38572 66.30317
# Shear Modulus (GPa) = -99.30915 39.42180 -29.94367
#
# Velocity S-wave (km/s) = -6.26142 3.94500 -3.43820
# Velocity P-wave (km/s) = 5.22643 6.93850 3.22702
#
# Compressibility (1/GPa) = 0.01581763
#
# Stress axis : x y z
#
# Youngs Moduli (GPa) = 130.08093 90.22356 120.75616
#
# Poissons Ratio (x) = 0.24396 0.27726
# Poissons Ratio (y) = 0.35173 0.07455
# Poissons Ratio (z) = 0.29867 0.05570
#
# Static dielectric constant tensor:
#      x y z
#    x 1.990290 0.000000 -0.087150 
#    y 0.000000 1.936530 0.000000 
#    z -0.087150 0.000000 2.060900 
# 
# From -- ./inp_files/20313.got.cif
#   From: 2010.05.17/outbox.cif.g08.bks.cpg/sg14_11_cif.got.tgz:20313.got - 2010.06.03 17:49:19.
