data_PCOD9247218
_publ_section_title
;
Structure prediction by ZEFSAII (Michael W. Deem and Ramdas Pophale) SiO2 
 PCOD9247218
Probable space group: P 21/C
;
_chemical_formula_sum "Si O2"
_cell_formula_units_Z 20
_cell_length_a 10.953886
_cell_length_b 4.567748
_cell_length_c 26.510046
_cell_angle_alpha 90.000000
_cell_angle_beta 32.258854
_cell_angle_gamma 90.000000
_cell_volume 707.969939
_symmetry_space_group_name_H-M "P 21/C"
_symmetry_group_IT_number 14
_symmetry_cell_setting 'monoclinic'
loop_
_space_group_symop_operation_xyz
x,y,z
-x,1/2+y,1/2-z
-x,-y,-z
x,1/2-y,1/2+z
loop_
_atom_site_type_symbol
_atom_site_label
_atom_site_fract_x
_atom_site_fract_y
_atom_site_fract_z
Si Si1 0.420251 0.328566 0.478937
Si Si2 0.841075 0.710877 0.523102
Si Si3 0.873431 0.084315 0.773313
Si Si4 0.457722 0.968359 0.729639
Si Si5 0.035710 0.925676 0.363894
O O1 0.500000 0.500000 0.500000
O O2 0.273427 0.470405 0.483829
O O3 0.649623 0.247573 0.369881
O O4 0.233347 0.085651 0.558006
O O5 0.636319 0.865263 0.625122
O O6 0.997116 0.948696 0.437896
O O7 0.000000 0.500000 0.500000
O O8 0.065736 0.331817 0.708782
O O9 0.857976 0.935879 0.723878
O O10 0.529672 0.802920 0.757062
O O11 0.200866 0.864633 0.807372
#
# Coordination Sequence:
#
# PCOD9247218 Si02
#       5
#     4   4   4   4   4
#     4  10  21  45  71 107 142 188 239 295 358 421
#     4  10  21  45  71 107 142 188 239 295 358 421
#     4  12  25  46  72 105 146 190 240 296 359 428
#     4  12  25  46  72 105 146 190 240 296 359 428
#     4  10  22  44  70 108 138 192 234 302 348 430
#
# _framework density 28.249787999999999
#
# number of rings (size 3 to 8) (size 9 to 14) (size 15 to 20)
#    1.200    0.000    6.000    0.000    0.000    3.200 
#    3.600    0.000    0.000    0.000    0.000    0.000 
#    0.000    0.000    0.000    0.000    0.000    0.000 
#
# Total GULP energy -111535.949349 kJ/mol
# GULP energy per Si atom -5576.797467 kJ/mol
# Density = 2.818549 g / cm^3
# Si number density = 28.249788 Si / 1000 Ang^3
#
#
#
# Elastic Constant Matrix: (Units=GPa)
#
#
# Indices 1 2 3 4 5 6 
#
# 1 155.5780 -6.2082 12.8932 0.0000 -8.3147 0.0000
# 2 -6.2082 -27.8692 -41.0149 0.0000 -44.9737 0.0000
# 3 12.8932 -41.0149 192.4129 0.0000 7.7190 0.0000
# 4 0.0000 0.0000 0.0000 18.8582 0.0000 2.8645
# 5 -8.3147 -44.9737 7.7190 0.0000 35.3977 0.0000
# 6 0.0000 0.0000 0.0000 2.8645 0.0000 47.1595
#
#
#
# Elastic Compliance Matrix: (Units=1/GPa)
#
#
# Indices 1 2 3 4 5 6 
#
# 1 0.006461 -0.001030 -0.000667 0.000000 0.000354 0.000000
# 2 -0.001030 -0.010933 -0.001709 0.000000 -0.013759 0.000000
# 3 -0.000667 -0.001709 0.005015 0.000000 -0.003422 0.000000
# 4 0.000000 0.000000 0.000000 0.053521 0.000000 -0.003251
# 5 0.000354 -0.013759 -0.003422 0.000000 0.011598 0.000000
# 6 0.000000 0.000000 0.000000 -0.003251 0.000000 0.021402
#
#
# Mechanical properties :
#
#
# Convention : Reuss Voigt Hill
#
# Bulk Modulus (GPa) = -159.50776 27.94021 -65.78378
# Shear Modulus (GPa) = 54.47411 43.91317 49.19364
#
# Velocity S-wave (km/s) = 4.39601 3.94694 4.17751
# Velocity P-wave (km/s) = 5.55152 5.53923 0.26116
#
# Compressibility (1/GPa) = -0.00626929
#
# Stress axis : x y z
#
# Youngs Moduli (GPa) = 154.78120 -91.46907 199.41262
#
# Poissons Ratio (x) = -0.09421 0.13294
# Poissons Ratio (y) = 0.15942 0.34088
# Poissons Ratio (z) = 0.10319 -0.15636
#
# Static dielectric constant tensor:
#      x y z
#    x 2.315860 0.000000 -0.105410 
#    y 0.000000 2.248660 0.000000 
#    z -0.105410 0.000000 2.270530 
# 
# From -- ./inp_files/79806.got.cif
#   From: 2010.05.17/outbox.cif.g08.bks.cpg/sg14_40_cif.got.tgz:79806.got - 2010.06.03 17:49:19.
