data_PCOD9247999
_publ_section_title
;
Structure prediction by ZEFSAII (Michael W. Deem and Ramdas Pophale) SiO2 
 PCOD9247999
Probable space group: P 21/C
;
_chemical_formula_sum "Si O2"
_cell_formula_units_Z 28
_cell_length_a 9.307373
_cell_length_b 22.518108
_cell_length_c 8.580393
_cell_angle_alpha 90.000000
_cell_angle_beta 130.881016
_cell_angle_gamma 90.000000
_cell_volume 1359.654024
_symmetry_space_group_name_H-M "P 21/C"
_symmetry_group_IT_number 14
_symmetry_cell_setting 'monoclinic'
loop_
_space_group_symop_operation_xyz
x,y,z
-x,1/2+y,1/2-z
-x,-y,-z
x,1/2-y,1/2+z
loop_
_atom_site_type_symbol
_atom_site_label
_atom_site_fract_x
_atom_site_fract_y
_atom_site_fract_z
Si Si1 0.942581 0.322018 0.851658
Si Si2 0.557334 0.177988 0.648235
Si Si3 0.502036 0.699872 0.541143
Si Si4 0.998051 0.800116 0.958953
Si Si5 0.750058 0.884947 0.000048
Si Si6 0.954310 0.440202 0.060189
Si Si7 0.454410 0.940203 0.560303
O O1 0.716687 0.312884 0.663327
O O2 0.029928 0.314662 0.742155
O O3 0.022711 0.269724 0.018669
O O4 0.965014 0.385156 0.948018
O O5 0.469986 0.185331 0.757746
O O6 0.477193 0.230289 0.481243
O O7 0.783229 0.187125 0.836570
O O8 0.534914 0.114853 0.551861
O O9 0.631768 0.658127 0.528963
O O10 0.868301 0.841854 0.971119
O O11 0.890683 0.925819 0.198700
O O12 0.609484 0.925834 0.801420
O O13 0.749933 0.442347 0.999902
O O14 0.000000 0.500000 0.000000
O O15 0.500000 0.000000 0.500000
#
# Coordination Sequence:
#
# PCOD9247999 Si02
#       7
#     4   4   4   4   4   4   4
#     4  10  22  44  69 104 147 177 229 284 352 408
#     4  10  22  44  69 104 147 177 229 284 352 408
#     4  10  22  40  75 107 139 183 220 293 351 415
#     4  10  22  40  75 107 139 183 220 293 351 415
#     4  12  26  46  76 106 136 182 242 280 356 414
#     4  12  29  49  70 100 141 186 236 291 341 415
#     4  12  29  49  70 100 141 186 236 291 341 415
#
# _framework density 20.593475000000002
#
# number of rings (size 3 to 8) (size 9 to 14) (size 15 to 20)
#    0.000    1.143    2.857    1.714    8.000    8.000 
#    0.000    0.000    0.000    0.000    0.000    0.000 
#    0.000    0.000    0.000    0.000    0.000    0.000 
#
# Total GULP energy -156837.261283 kJ/mol
# GULP energy per Si atom -5601.330760 kJ/mol
# Density = 2.054660 g / cm^3
# Si number density = 20.593475 Si / 1000 Ang^3
#
#
#
# Elastic Constant Matrix: (Units=GPa)
#
#
# Indices 1 2 3 4 5 6 
#
# 1 181.0705 100.4911 82.5070 0.0000 -25.1454 0.0000
# 2 100.4911 224.7314 104.7928 0.0000 -27.0982 0.0000
# 3 82.5070 104.7928 137.1135 0.0000 -19.0834 0.0000
# 4 0.0000 0.0000 0.0000 29.2007 0.0000 -20.8231
# 5 -25.1454 -27.0982 -19.0834 0.0000 31.1815 0.0000
# 6 0.0000 0.0000 0.0000 -20.8231 0.0000 25.7964
#
#
#
# Elastic Compliance Matrix: (Units=1/GPa)
#
#
# Indices 1 2 3 4 5 6 
#
# 1 0.008491 -0.001918 -0.003194 0.000000 0.003225 0.000000
# 2 -0.001918 0.007620 -0.004332 0.000000 0.002424 0.000000
# 3 -0.003194 -0.004332 0.012728 0.000000 0.001449 0.000000
# 4 0.000000 0.000000 0.000000 0.080696 0.000000 0.065139
# 5 0.003225 0.002424 0.001449 0.000000 0.037664 0.000000
# 6 0.000000 0.000000 0.000000 0.065139 0.000000 0.091345
#
#
# Mechanical properties :
#
#
# Convention : Reuss Voigt Hill
#
# Bulk Modulus (GPa) = 100.50964 124.27747 112.39356
# Shear Modulus (GPa) = 19.17547 34.24401 26.70974
#
# Velocity S-wave (km/s) = 3.05477 4.08224 3.60530
# Velocity P-wave (km/s) = 7.83292 9.09387 8.48685
#
# Compressibility (1/GPa) = 0.00994929
#
# Stress axis : x y z
#
# Youngs Moduli (GPa) = 117.77564 131.23615 78.56809
#
# Poissons Ratio (x) = 0.25176 0.25096
# Poissons Ratio (y) = 0.22594 0.34036
# Poissons Ratio (z) = 0.37620 0.56851
#
# Static dielectric constant tensor:
#      x y z
#    x 1.609490 0.000000 0.081420 
#    y 0.000000 1.674580 0.000000 
#    z 0.081420 0.000000 1.717840 
# 
# From -- ./inp_files/10426.got.cif
#   From: 2010.05.17/outbox.cif.g08.bks.cpg/sg14_6_cif.got.tgz:10426.got - 2010.06.03 17:49:19.
