data_PCOD9247731
_publ_section_title
;
Structure prediction by ZEFSAII (Michael W. Deem and Ramdas Pophale) SiO2 
 PCOD9247731
Probable space group: P 21/C
;
_chemical_formula_sum "Si O2"
_cell_formula_units_Z 28
_cell_length_a 8.384132
_cell_length_b 13.131520
_cell_length_c 22.033863
_cell_angle_alpha 90.000000
_cell_angle_beta 149.623781
_cell_angle_gamma 90.000000
_cell_volume 1226.692924
_symmetry_space_group_name_H-M "P 21/C"
_symmetry_group_IT_number 14
_symmetry_cell_setting 'monoclinic'
loop_
_space_group_symop_operation_xyz
x,y,z
-x,1/2+y,1/2-z
-x,-y,-z
x,1/2-y,1/2+z
loop_
_atom_site_type_symbol
_atom_site_label
_atom_site_fract_x
_atom_site_fract_y
_atom_site_fract_z
Si Si1 0.504767 0.176514 0.593643
Si Si2 0.419358 0.373366 0.634276
Si Si3 0.792850 0.261877 0.476910
Si Si4 0.310630 0.959377 0.996162
Si Si5 0.278993 0.017841 0.279063
Si Si6 0.216230 0.882286 0.625674
Si Si7 0.519280 0.390512 0.970009
O O1 0.566812 0.284630 0.642360
O O2 0.493001 0.184015 0.517629
O O3 0.155442 0.135074 0.495333
O O4 0.744855 0.094128 0.700221
O O5 0.330210 0.464399 0.559805
O O6 0.661498 0.399685 0.766683
O O7 0.115605 0.319835 0.565857
O O8 0.597736 0.348386 0.448124
O O9 0.660951 0.219865 0.369301
O O10 0.805205 0.161287 0.524466
O O11 0.961994 0.957199 0.852834
O O12 0.500000 0.000000 0.000000
O O13 0.622503 0.030639 0.361292
O O14 0.267568 0.093130 0.333405
O O15 0.500000 0.500000 0.000000
#
# Coordination Sequence:
#
# PCOD9247731 Si02
#       7
#     4   4   4   4   4   4   4
#     4  10  22  39  68  95 128 171 228 282 342 409
#     4  11  24  41  65  97 135 178 231 283 345 421
#     4  10  22  44  64  95 135 177 226 284 346 424
#     4  12  26  43  64 100 138 184 232 289 359 426
#     4  10  22  42  66  94 133 172 225 284 350 415
#     4  10  22  40  67  95 129 175 227 283 347 416
#     4   9  20  43  65  97 130 170 222 280 341 416
#
# _framework density 22.825597999999999
#
# number of rings (size 3 to 8) (size 9 to 14) (size 15 to 20)
#    0.000    1.714    1.429    1.714    6.000    1.143 
#    5.143    0.000    0.000    0.000    0.000    0.000 
#    0.000    0.000    0.000    0.000    0.000    0.000 
#
# Total GULP energy -155977.040391 kJ/mol
# GULP energy per Si atom -5570.608585 kJ/mol
# Density = 2.277365 g / cm^3
# Si number density = 22.825598 Si / 1000 Ang^3
#
#
#
# Elastic Constant Matrix: (Units=GPa)
#
#
# Indices 1 2 3 4 5 6 
#
# 1 98.9715 36.0475 29.5483 0.0000 -31.3099 0.0000
# 2 36.0475 66.3023 33.4186 0.0000 -37.1208 0.0000
# 3 29.5483 33.4186 84.1839 0.0000 -46.8502 0.0000
# 4 0.0000 0.0000 0.0000 21.5847 0.0000 -10.4763
# 5 -31.3099 -37.1208 -46.8502 0.0000 43.9244 0.0000
# 6 0.0000 0.0000 0.0000 -10.4763 0.0000 42.1395
#
#
#
# Elastic Compliance Matrix: (Units=1/GPa)
#
#
# Indices 1 2 3 4 5 6 
#
# 1 0.013535 -0.003559 0.000880 0.000000 0.007578 0.000000
# 2 -0.003559 0.030507 0.005106 0.000000 0.028690 0.000000
# 3 0.000880 0.005106 0.030249 0.000000 0.037206 0.000000
# 4 0.000000 0.000000 0.000000 0.052686 0.000000 0.013098
# 5 0.007578 0.028690 0.037206 0.000000 0.092099 0.000000
# 6 0.000000 0.000000 0.000000 0.013098 0.000000 0.026987
#
#
# Mechanical properties :
#
#
# Convention : Reuss Voigt Hill
#
# Bulk Modulus (GPa) = 12.63534 49.72075 31.17804
# Shear Modulus (GPa) = 18.68510 31.55926 25.12218
#
# Velocity S-wave (km/s) = 2.86423 3.72240 3.32115
# Velocity P-wave (km/s) = 4.06030 6.34864 5.32875
#
# Compressibility (1/GPa) = 0.07914313
#
# Stress axis : x y z
#
# Youngs Moduli (GPa) = 73.88219 32.77922 33.05887
#
# Poissons Ratio (x) = 0.11667 -0.02908
# Poissons Ratio (y) = 0.26298 -0.16879
# Poissons Ratio (z) = -0.06498 -0.16736
#
# Static dielectric constant tensor:
#      x y z
#    x 2.069860 0.000000 0.116520 
#    y 0.000000 1.873680 0.000000 
#    z 0.116520 0.000000 1.840750 
# 
# From -- ./inp_files/65889.got.cif
#   From: 2010.05.17/outbox.cif.g08.bks.cpg/sg14_33_cif.got.tgz:65889.got - 2010.06.03 17:49:19.
