data_PCOD9247151
_publ_section_title
;
Structure prediction by ZEFSAII (Michael W. Deem and Ramdas Pophale) SiO2 
 PCOD9247151
Probable space group: P 21/C
;
_chemical_formula_sum "Si O2"
_cell_formula_units_Z 32
_cell_length_a 14.099223
_cell_length_b 14.246698
_cell_length_c 20.473661
_cell_angle_alpha 90.000000
_cell_angle_beta 21.757867
_cell_angle_gamma 90.000000
_cell_volume 1524.438388
_symmetry_space_group_name_H-M "P 21/C"
_symmetry_group_IT_number 14
_symmetry_cell_setting 'monoclinic'
loop_
_space_group_symop_operation_xyz
x,y,z
-x,1/2+y,1/2-z
-x,-y,-z
x,1/2-y,1/2+z
loop_
_atom_site_type_symbol
_atom_site_label
_atom_site_fract_x
_atom_site_fract_y
_atom_site_fract_z
Si Si1 0.728734 0.613863 0.878752
Si Si2 0.231424 0.730181 0.233340
Si Si3 0.275754 0.982775 0.856930
Si Si4 0.609995 0.064503 0.528068
Si Si5 0.287389 0.737283 0.344783
Si Si6 0.462014 0.104492 0.000200
Si Si7 0.731948 0.875204 0.022617
Si Si8 0.023816 0.785469 0.646996
O O1 0.774338 0.519480 0.890307
O O2 0.960800 0.684347 0.718597
O O3 0.498311 0.671751 0.061251
O O4 0.610889 0.586445 0.883564
O O5 0.159297 0.746266 0.355099
O O6 0.289948 0.827922 0.160172
O O7 0.014393 0.667866 0.339830
O O8 0.328677 0.872891 0.829501
O O9 0.482152 0.027392 0.675999
O O10 0.273983 0.035044 0.927031
O O11 0.000000 0.000000 0.000000
O O12 0.772485 0.155652 0.441669
O O13 0.546845 0.796714 0.172641
O O14 0.122233 0.774235 0.510553
O O15 0.367993 0.103851 0.985369
O O16 0.241556 0.157256 0.181613
O O17 0.500000 0.000000 0.000000
#
# Coordination Sequence:
#
# PCOD9247151 Si02
#       8
#     4   4   4   4   4   4   4   4
#     4  10  22  42  69 101 132 178 230 289 336 402
#     4  10  21  44  69  96 136 179 225 282 336 404
#     4  12  22  41  71 101 138 179 235 284 333 411
#     4  11  22  42  71 101 133 179 238 281 342 407
#     4  11  23  40  66 102 137 174 225 283 342 400
#     4  10  25  49  67  99 139 181 234 278 345 415
#     4  11  23  45  69 100 136 184 225 282 350 402
#     4  11  24  42  67 102 140 176 222 288 345 409
#
# _framework density 20.991337000000001
#
# number of rings (size 3 to 8) (size 9 to 14) (size 15 to 20)
#    0.000    1.250    3.750    1.500    0.000    4.000 
#   13.500    1.250    0.000    0.000    0.000    0.000 
#    0.000    0.000    0.000    0.000    0.000    0.000 
#
# Total GULP energy -179133.268078 kJ/mol
# GULP energy per Si atom -5597.914627 kJ/mol
# Density = 2.094356 g / cm^3
# Si number density = 20.991337 Si / 1000 Ang^3
#
#
#
# Elastic Constant Matrix: (Units=GPa)
#
#
# Indices 1 2 3 4 5 6 
#
# 1 73.2442 43.9514 48.3897 0.0000 27.7019 0.0000
# 2 43.9514 152.9027 53.1882 0.0000 13.1113 0.0000
# 3 48.3897 53.1882 99.4514 0.0000 28.9806 0.0000
# 4 0.0000 0.0000 0.0000 35.8391 0.0000 4.7984
# 5 27.7019 13.1113 28.9806 0.0000 31.4153 0.0000
# 6 0.0000 0.0000 0.0000 4.7984 0.0000 43.2263
#
#
#
# Elastic Compliance Matrix: (Units=1/GPa)
#
#
# Indices 1 2 3 4 5 6 
#
# 1 0.025914 -0.004065 -0.005840 0.000000 -0.015767 0.000000
# 2 -0.004065 0.008689 -0.003633 0.000000 0.003310 0.000000
# 3 -0.005840 -0.003633 0.017639 0.000000 -0.009606 0.000000
# 4 0.000000 0.000000 0.000000 0.028323 0.000000 -0.003144
# 5 -0.015767 0.003310 -0.009606 0.000000 0.053214 0.000000
# 6 0.000000 0.000000 0.000000 -0.003144 0.000000 0.023483
#
#
# Mechanical properties :
#
#
# Convention : Reuss Voigt Hill
#
# Bulk Modulus (GPa) = 39.73946 68.51741 54.12844
# Shear Modulus (GPa) = 25.94318 34.10074 30.02196
#
# Velocity S-wave (km/s) = 3.51935 4.03490 3.78591
# Velocity P-wave (km/s) = 5.95709 7.37692 6.70469
#
# Compressibility (1/GPa) = 0.02516390
#
# Stress axis : x y z
#
# Youngs Moduli (GPa) = 38.58924 115.09127 56.69173
#
# Poissons Ratio (x) = 0.46789 0.33109
# Poissons Ratio (y) = 0.15688 0.20599
# Poissons Ratio (z) = 0.22537 0.41818
#
# Static dielectric constant tensor:
#      x y z
#    x 1.742870 0.000000 0.000040 
#    y 0.000000 1.751750 0.000000 
#    z 0.000040 0.000000 1.760410 
# 
# From -- ./inp_files/68703.got.cif
#   From: 2010.05.17/outbox.cif.g08.bks.cpg/sg14_35_cif.got.tgz:68703.got - 2010.06.03 17:49:19.
