data_PCOD9247805
_publ_section_title
;
Structure prediction by ZEFSAII (Michael W. Deem and Ramdas Pophale) SiO2 
 PCOD9247805
Probable space group: P 21/C
;
_chemical_formula_sum "Si O2"
_cell_formula_units_Z 32
_cell_length_a 26.426198
_cell_length_b 12.303772
_cell_length_c 13.955519
_cell_angle_alpha 90.000000
_cell_angle_beta 161.124492
_cell_angle_gamma 90.000000
_cell_volume 1467.947918
_symmetry_space_group_name_H-M "P 21/C"
_symmetry_group_IT_number 14
_symmetry_cell_setting 'monoclinic'
loop_
_space_group_symop_operation_xyz
x,y,z
-x,1/2+y,1/2-z
-x,-y,-z
x,1/2-y,1/2+z
loop_
_atom_site_type_symbol
_atom_site_label
_atom_site_fract_x
_atom_site_fract_y
_atom_site_fract_z
Si Si1 0.328450 0.691191 0.419262
Si Si2 0.986486 0.374478 0.896742
Si Si3 0.731167 0.482500 0.539405
Si Si4 0.021926 0.492163 0.652309
Si Si5 0.012350 0.262873 0.150816
Si Si6 0.625240 0.017246 0.141203
Si Si7 0.844574 0.695818 0.414298
Si Si8 0.576429 0.851210 0.876353
O O1 0.352072 0.616446 0.555419
O O2 0.401130 0.631939 0.458479
O O3 0.401062 0.808472 0.563722
O O4 0.142745 0.690819 0.077866
O O5 0.117327 0.469163 0.130323
O O6 0.026743 0.286390 0.889075
O O7 0.012335 0.308487 0.042966
O O8 0.817517 0.432537 0.601301
O O9 0.616982 0.584354 0.350963
O O10 0.000000 0.500000 0.500000
O O11 0.997252 0.365878 0.628830
O O12 0.902330 0.578366 0.484340
O O13 0.199469 0.516441 0.002931
O O14 0.158528 0.299956 0.476257
O O15 0.500000 0.000000 0.000000
O O16 0.610276 0.928488 0.028520
O O17 0.687415 0.745181 0.087033
#
# Coordination Sequence:
#
# PCOD9247805 Si02
#       8
#     4   4   4   4   4   4   4   4
#     4  10  22  40  62  89 125 167 207 260 326 380
#     4   9  18  35  62  90 118 163 208 259 320 370
#     4   8  18  35  61  83 115 157 207 246 310 375
#     4  12  25  40  65 100 128 167 220 266 322 384
#     4  11  22  39  64  92 127 165 215 268 314 379
#     4  11  25  41  63  92 128 169 216 263 323 390
#     4  11  22  39  64  92 127 165 215 268 314 379
#     4  10  22  40  62  89 125 167 207 260 326 380
#
# _framework density 21.799139
#
# number of rings (size 3 to 8) (size 9 to 14) (size 15 to 20)
#    0.000    1.750    3.750    0.000    3.500    2.000 
#    0.000    0.000    0.000    1.500    0.000    0.000 
#    0.000    0.000    0.000    0.000    0.000    0.000 
#
# Total GULP energy -178492.833983 kJ/mol
# GULP energy per Si atom -5577.901062 kJ/mol
# Density = 2.174952 g / cm^3
# Si number density = 21.799139 Si / 1000 Ang^3
#
#
#
# Elastic Constant Matrix: (Units=GPa)
#
#
# Indices 1 2 3 4 5 6 
#
# 1 76.2176 10.6423 5.1083 0.0000 3.2910 0.0000
# 2 10.6423 82.5291 2.5722 0.0000 -3.1990 0.0000
# 3 5.1083 2.5722 22.5731 0.0000 0.6007 0.0000
# 4 0.0000 0.0000 0.0000 35.4185 0.0000 8.9845
# 5 3.2910 -3.1990 0.6007 0.0000 31.1957 0.0000
# 6 0.0000 0.0000 0.0000 8.9845 0.0000 40.7915
#
#
#
# Elastic Compliance Matrix: (Units=1/GPa)
#
#
# Indices 1 2 3 4 5 6 
#
# 1 0.013620 -0.001728 -0.002844 0.000000 -0.001559 0.000000
# 2 -0.001728 0.012430 -0.001065 0.000000 0.001477 0.000000
# 3 -0.002844 -0.001065 0.045083 0.000000 -0.000677 0.000000
# 4 0.000000 0.000000 0.000000 0.029905 0.000000 -0.006587
# 5 -0.001559 0.001477 -0.000677 0.000000 0.032385 0.000000
# 6 0.000000 0.000000 0.000000 -0.006587 0.000000 0.025966
#
#
# Mechanical properties :
#
#
# Convention : Reuss Voigt Hill
#
# Bulk Modulus (GPa) = 16.70557 24.21838 20.46197
# Shear Modulus (GPa) = 26.23095 32.34761 29.28928
#
# Velocity S-wave (km/s) = 3.47263 3.85631 3.66949
# Velocity P-wave (km/s) = 4.87431 5.56436 5.23073
#
# Compressibility (1/GPa) = 0.05986029
#
# Stress axis : x y z
#
# Youngs Moduli (GPa) = 73.42397 80.44901 22.18111
#
# Poissons Ratio (x) = 0.13902 0.06308
# Poissons Ratio (y) = 0.12688 0.02362
# Poissons Ratio (z) = 0.20880 0.08565
#
# Static dielectric constant tensor:
#      x y z
#    x 1.824410 0.000000 -0.014360 
#    y 0.000000 1.869620 0.000000 
#    z -0.014360 0.000000 1.831970 
# 
# From -- ./inp_files/52066.got.cif
#   From: 2010.05.17/outbox.cif.g08.bks.cpg/sg14_27_cif.got.tgz:52066.got - 2010.06.03 17:49:19.
