data_PCOD9247880
_publ_section_title
;
Structure prediction by ZEFSAII (Michael W. Deem and Ramdas Pophale) SiO2 
 PCOD9247880
Probable space group: P 21/C
;
_chemical_formula_sum "Si O2"
_cell_formula_units_Z 26
_cell_length_a 4.893649
_cell_length_b 22.188880
_cell_length_c 9.421843
_cell_angle_alpha 90.000000
_cell_angle_beta 72.686248
_cell_angle_gamma 90.000000
_cell_volume 976.711182
_symmetry_space_group_name_H-M "P 21/C"
_symmetry_group_IT_number 14
_symmetry_cell_setting 'monoclinic'
loop_
_space_group_symop_operation_xyz
x,y,z
-x,1/2+y,1/2-z
-x,-y,-z
x,1/2-y,1/2+z
loop_
_atom_site_type_symbol
_atom_site_label
_atom_site_fract_x
_atom_site_fract_y
_atom_site_fract_z
Si Si1 0.944936 0.242902 0.806785
Si Si2 0.633128 0.606256 0.048084
Si Si3 0.081408 0.621583 0.547587
Si Si4 0.713982 0.852054 0.849344
Si Si5 0.643756 0.310396 0.108150
Si Si6 0.500000 0.000000 0.500000
Si Si7 0.140702 0.559639 0.815861
O O1 0.059156 0.179222 0.849192
O O2 0.677108 0.231235 0.741923
O O3 0.841852 0.280246 0.958120
O O4 0.282149 0.377718 0.809329
O O5 0.611036 0.664115 0.951923
O O6 0.351554 0.565245 0.084103
O O7 0.817179 0.553904 0.932830
O O8 0.393893 0.645071 0.456846
O O9 0.107172 0.566246 0.652380
O O10 0.904368 0.612223 0.432912
O O11 0.835609 0.784242 0.814958
O O12 0.767018 0.373074 0.151249
O O13 0.365112 0.984254 0.351416
#
# Coordination Sequence:
#
# PCOD9247880 Si02
#       7
#     4   4   4   4   4   2   4
#     4  11  22  44  64 102 143 200 232 282 346 432
#     4  11  24  45  76 101 144 182 255 299 369 437
#     4  11  28  43  73 105 153 190 241 298 358 426
#     4  12  26  48  68 104 152 193 240 300 356 425
#     4  10  22  40  65 102 139 187 238 287 348 428
#     4  10  24  46  80 104 132 188 252 310 374 436
#     4  10  23  46  72 104 134 190 243 310 356 445
#
# _framework density 26.619947
#
# number of rings (size 3 to 8) (size 9 to 14) (size 15 to 20)
#    0.000    1.231    3.077    1.385    8.615    4.923 
#    0.000    1.538    0.000    0.000    0.000    0.000 
#    0.000    0.000    0.000    0.000    0.000    0.000 
#
# Total GULP energy -145172.493772 kJ/mol
# GULP energy per Si atom -5583.557453 kJ/mol
# Density = 2.655936 g / cm^3
# Si number density = 26.619947 Si / 1000 Ang^3
#
#
#
# Elastic Constant Matrix: (Units=GPa)
#
#
# Indices 1 2 3 4 5 6 
#
# 1 107.9508 9.5343 55.5321 0.0000 25.3182 0.0000
# 2 9.5343 73.4362 29.3469 0.0000 17.4536 0.0000
# 3 55.5321 29.3469 179.0587 0.0000 47.2581 0.0000
# 4 0.0000 0.0000 0.0000 29.4256 0.0000 17.9477
# 5 25.3182 17.4536 47.2581 0.0000 59.0640 0.0000
# 6 0.0000 0.0000 0.0000 17.9477 0.0000 38.3651
#
#
#
# Elastic Compliance Matrix: (Units=1/GPa)
#
#
# Indices 1 2 3 4 5 6 
#
# 1 0.011333 0.000304 -0.002863 0.000000 -0.002657 0.000000
# 2 0.000304 0.015022 -0.001712 0.000000 -0.003200 0.000000
# 3 -0.002863 -0.001712 0.007981 0.000000 -0.004653 0.000000
# 4 0.000000 0.000000 0.000000 0.047552 0.000000 -0.022246
# 5 -0.002657 -0.003200 -0.004653 0.000000 0.022738 0.000000
# 6 0.000000 0.000000 0.000000 -0.022246 0.000000 0.036472
#
#
# Mechanical properties :
#
#
# Convention : Reuss Voigt Hill
#
# Bulk Modulus (GPa) = 38.76796 61.03025 49.89911
# Shear Modulus (GPa) = 31.59778 43.10642 37.35210
#
# Velocity S-wave (km/s) = 3.44902 4.02845 3.74994
# Velocity P-wave (km/s) = 5.51870 6.67939 6.12659
#
# Compressibility (1/GPa) = 0.02579450
#
# Stress axis : x y z
#
# Youngs Moduli (GPa) = 88.24049 66.56722 125.29240
#
# Poissons Ratio (x) = -0.02026 0.35875
# Poissons Ratio (y) = -0.02686 0.21450
# Poissons Ratio (z) = 0.25266 0.11396
#
# Static dielectric constant tensor:
#      x y z
#    x 2.295120 0.000000 -0.045630 
#    y 0.000000 2.154130 0.000000 
#    z -0.045630 0.000000 2.031910 
# 
# From -- ./inp_files/37967.got.cif
#   From: 2010.05.17/outbox.cif.g08.bks.cpg/sg14_19_cif.got.tgz:37967.got - 2010.06.03 17:49:19.
