data_PCOD9247000
_publ_section_title
;
Structure prediction by ZEFSAII (Michael W. Deem and Ramdas Pophale) SiO2 
 PCOD9247000
Probable space group: P 21/C
;
_chemical_formula_sum "Si O2"
_cell_formula_units_Z 24
_cell_length_a 14.899990
_cell_length_b 11.950516
_cell_length_c 14.721458
_cell_angle_alpha 90.000000
_cell_angle_beta 27.208329
_cell_angle_gamma 90.000000
_cell_volume 1198.548276
_symmetry_space_group_name_H-M "P 21/C"
_symmetry_group_IT_number 14
_symmetry_cell_setting 'monoclinic'
loop_
_space_group_symop_operation_xyz
x,y,z
-x,1/2+y,1/2-z
-x,-y,-z
x,1/2-y,1/2+z
loop_
_atom_site_type_symbol
_atom_site_label
_atom_site_fract_x
_atom_site_fract_y
_atom_site_fract_z
Si Si1 0.347293 0.280553 0.240891
Si Si2 0.318933 0.939430 0.487026
Si Si3 0.568906 0.389120 0.313845
Si Si4 0.677871 0.094384 0.916223
Si Si5 0.998960 0.255445 0.696978
Si Si6 0.711288 0.808548 0.416577
O O1 0.483183 0.381836 0.153369
O O2 0.275163 0.304010 0.204023
O O3 0.170517 0.261567 0.468660
O O4 0.489894 0.172631 0.108483
O O5 0.326572 0.928161 0.371333
O O6 0.139137 0.863943 0.683895
O O7 0.307378 0.065906 0.530284
O O8 0.382604 0.470668 0.499575
O O9 0.697415 0.399186 0.289414
O O10 0.480123 0.264981 0.384499
O O11 0.862658 0.148319 0.799154
O O12 0.101618 0.244287 0.701867
#
# Coordination Sequence:
#
# PCOD9247000 Si02
#       6
#     4   4   4   4   4   4
#     4  10  22  45  63  93 132 162 210 260 315 386
#     4  11  24  41  63  93 130 168 209 259 320 378
#     4  10  21  43  66  91 127 170 207 263 317 373
#     4   9  22  42  67  93 126 165 211 262 319 368
#     4  11  24  40  64  99 125 166 214 260 311 378
#     4  11  24  41  66  92 125 171 209 260 323 369
#
# _framework density 20.024224
#
# number of rings (size 3 to 8) (size 9 to 14) (size 15 to 20)
#    0.000    1.667    1.667    1.500    7.000    0.667 
#    0.000    3.333    0.000    0.000    0.000    0.000 
#    0.000    0.000    0.000    0.000    0.000    0.000 
#
# Total GULP energy -134206.006609 kJ/mol
# GULP energy per Si atom -5591.916942 kJ/mol
# Density = 1.997865 g / cm^3
# Si number density = 20.024224 Si / 1000 Ang^3
#
#
#
# Elastic Constant Matrix: (Units=GPa)
#
#
# Indices 1 2 3 4 5 6 
#
# 1 79.8493 -6.3225 43.7306 0.0000 12.5536 0.0000
# 2 -6.3225 67.8079 -1.6373 0.0000 3.8779 0.0000
# 3 43.7306 -1.6373 76.5256 0.0000 7.3079 0.0000
# 4 0.0000 0.0000 0.0000 -93.2065 0.0000 -31.6419
# 5 12.5536 3.8779 7.3079 0.0000 20.1238 0.0000
# 6 0.0000 0.0000 0.0000 -31.6419 0.0000 10.1866
#
#
#
# Elastic Compliance Matrix: (Units=1/GPa)
#
#
# Indices 1 2 3 4 5 6 
#
# 1 0.019807 0.002109 -0.010416 0.000000 -0.008980 0.000000
# 2 0.002109 0.015164 -0.000493 0.000000 -0.004059 0.000000
# 3 -0.010416 -0.000493 0.019040 0.000000 -0.000322 0.000000
# 4 0.000000 0.000000 0.000000 -0.005222 0.000000 -0.016221
# 5 -0.008980 -0.004059 -0.000322 0.000000 0.056193 0.000000
# 6 0.000000 0.000000 0.000000 -0.016221 0.000000 0.047782
#
#
# Mechanical properties :
#
#
# Convention : Reuss Voigt Hill
#
# Bulk Modulus (GPa) = 27.46445 32.85826 30.16135
# Shear Modulus (GPa) = 27.39713 -0.01842 13.68935
#
# Velocity S-wave (km/s) = 3.70293 -0.09602 2.61749
# Velocity P-wave (km/s) = 5.65930 4.05371 4.92241
#
# Compressibility (1/GPa) = 0.03641071
#
# Stress axis : x y z
#
# Youngs Moduli (GPa) = 50.48783 65.94403 52.52138
#
# Poissons Ratio (x) = -0.13906 0.54706
# Poissons Ratio (y) = -0.10647 0.02590
# Poissons Ratio (z) = 0.52588 0.03251
#
# Static dielectric constant tensor:
#      x y z
#    x 1.702370 0.000000 0.003320 
#    y 0.000000 1.701000 0.000000 
#    z 0.003320 0.000000 1.665800 
# 
# From -- ./inp_files/46860.got.cif
#   From: 2010.05.17/outbox.cif.g08.bks.cpg/sg14_24_cif.got.tgz:46860.got - 2010.06.03 17:49:19.
