data_PCOD9247754
_publ_section_title
;
Structure prediction by ZEFSAII (Michael W. Deem and Ramdas Pophale) SiO2 
 PCOD9247754
Probable space group: P 21/C
;
_chemical_formula_sum "Si O2"
_cell_formula_units_Z 24
_cell_length_a 5.459377
_cell_length_b 9.295414
_cell_length_c 22.990491
_cell_angle_alpha 90.000000
_cell_angle_beta 70.512833
_cell_angle_gamma 90.000000
_cell_volume 1099.869236
_symmetry_space_group_name_H-M "P 21/C"
_symmetry_group_IT_number 14
_symmetry_cell_setting 'monoclinic'
loop_
_space_group_symop_operation_xyz
x,y,z
-x,1/2+y,1/2-z
-x,-y,-z
x,1/2-y,1/2+z
loop_
_atom_site_type_symbol
_atom_site_label
_atom_site_fract_x
_atom_site_fract_y
_atom_site_fract_z
Si Si1 0.316049 0.316641 0.148089
Si Si2 0.070522 0.600359 0.135466
Si Si3 0.568461 0.490231 0.225188
Si Si4 0.180681 0.776518 0.755383
Si Si5 0.641105 0.439812 0.577882
Si Si6 0.148710 0.897786 0.069696
O O1 0.378392 0.386196 0.205438
O O2 0.544382 0.214570 0.108614
O O3 0.241997 0.455710 0.114760
O O4 0.057360 0.225722 0.181334
O O5 0.772300 0.549873 0.161774
O O6 0.116253 0.663391 0.196956
O O7 0.116277 0.730694 0.088504
O O8 0.722618 0.388128 0.256636
O O9 0.406167 0.621221 0.262176
O O10 0.755604 0.415043 0.504180
O O11 0.379783 0.535016 0.590443
O O12 0.869958 0.520614 0.595168
#
# Coordination Sequence:
#
# PCOD9247754 Si02
#       6
#     4   4   4   4   4   4
#     4  10  23  41  62  93 129 170 218 267 328 391
#     4  10  23  41  62  93 129 170 218 267 328 391
#     4  10  22  40  59  88 131 166 214 264 312 396
#     4  10  22  40  58  92 126 166 212 258 326 384
#     4  10  24  45  68  97 129 168 222 275 328 387
#     4  10  24  45  68  97 129 168 222 275 328 387
#
# _framework density 21.820774
#
# number of rings (size 3 to 8) (size 9 to 14) (size 15 to 20)
#    0.000    2.000    0.000    1.000    9.333    7.333 
#    3.000    0.833    0.000    0.000    0.000    0.000 
#    0.000    0.000    0.000    0.000    0.000    0.000 
#
# Total GULP energy -134079.915401 kJ/mol
# GULP energy per Si atom -5586.663142 kJ/mol
# Density = 2.177111 g / cm^3
# Si number density = 21.820774 Si / 1000 Ang^3
#
#
#
# Elastic Constant Matrix: (Units=GPa)
#
#
# Indices 1 2 3 4 5 6 
#
# 1 115.1172 51.1577 20.2414 0.0000 -22.4718 0.0000
# 2 51.1577 101.4423 22.8670 0.0000 -21.6730 0.0000
# 3 20.2414 22.8670 22.8637 0.0000 -6.2255 0.0000
# 4 0.0000 0.0000 0.0000 44.8175 0.0000 -5.5400
# 5 -22.4718 -21.6730 -6.2255 0.0000 18.8980 0.0000
# 6 0.0000 0.0000 0.0000 -5.5400 0.0000 47.0229
#
#
#
# Elastic Compliance Matrix: (Units=1/GPa)
#
#
# Indices 1 2 3 4 5 6 
#
# 1 0.013042 -0.003162 -0.005656 0.000000 0.010019 0.000000
# 2 -0.003162 0.016222 -0.010308 0.000000 0.011449 0.000000
# 3 -0.005656 -0.010308 0.059325 0.000000 0.000996 0.000000
# 4 0.000000 0.000000 0.000000 0.022642 0.000000 0.002668
# 5 0.010019 0.011449 0.000996 0.000000 0.078288 0.000000
# 6 0.000000 0.000000 0.000000 0.002668 0.000000 0.021581
#
#
# Mechanical properties :
#
#
# Convention : Reuss Voigt Hill
#
# Bulk Modulus (GPa) = 19.86553 47.55059 33.70806
# Shear Modulus (GPa) = 18.78776 31.82482 25.30629
#
# Velocity S-wave (km/s) = 2.93747 3.82313 3.40918
# Velocity P-wave (km/s) = 4.54188 6.42862 5.56578
#
# Compressibility (1/GPa) = 0.05033845
#
# Stress axis : x y z
#
# Youngs Moduli (GPa) = 76.67414 61.64557 16.85616
#
# Poissons Ratio (x) = 0.19490 0.09534
# Poissons Ratio (y) = 0.24241 0.17375
# Poissons Ratio (z) = 0.43368 0.63543
#
# Static dielectric constant tensor:
#      x y z
#    x 1.843450 0.000000 0.014340 
#    y 0.000000 1.805850 0.000000 
#    z 0.014340 0.000000 1.764690 
# 
# From -- ./inp_files/71078.got.cif
#   From: 2010.05.17/outbox.cif.g08.bks.cpg/sg14_36_cif.got.tgz:71078.got - 2010.06.03 17:49:19.
