data_PCOD9247628
_publ_section_title
;
Structure prediction by ZEFSAII (Michael W. Deem and Ramdas Pophale) SiO2 
 PCOD9247628
Probable space group: P 21/C
;
_chemical_formula_sum "Si O2"
_cell_formula_units_Z 32
_cell_length_a 13.284821
_cell_length_b 9.482491
_cell_length_c 15.960877
_cell_angle_alpha 90.000000
_cell_angle_beta 49.887226
_cell_angle_gamma 90.000000
_cell_volume 1537.694836
_symmetry_space_group_name_H-M "P 21/C"
_symmetry_group_IT_number 14
_symmetry_cell_setting 'monoclinic'
loop_
_space_group_symop_operation_xyz
x,y,z
-x,1/2+y,1/2-z
-x,-y,-z
x,1/2-y,1/2+z
loop_
_atom_site_type_symbol
_atom_site_label
_atom_site_fract_x
_atom_site_fract_y
_atom_site_fract_z
Si Si1 0.897705 0.142930 0.232642
Si Si2 0.086458 0.095786 0.392898
Si Si3 0.615055 0.171487 0.193661
Si Si4 0.631419 0.010247 0.728539
Si Si5 0.100260 0.951190 0.203303
Si Si6 0.375866 0.908325 0.078047
Si Si7 0.918966 0.143394 0.031638
Si Si8 0.396745 0.899941 0.601118
O O1 0.918869 0.283772 0.275596
O O2 0.899536 0.199074 0.137175
O O3 0.758303 0.067593 0.325058
O O4 0.007603 0.027697 0.188477
O O5 0.235263 0.083831 0.351645
O O6 0.013013 0.246673 0.433409
O O7 0.081753 0.031029 0.302050
O O8 0.000000 0.000000 0.500000
O O9 0.498110 0.088203 0.208421
O O10 0.612303 0.343618 0.186138
O O11 0.765215 0.129285 0.087412
O O12 0.587000 0.126404 0.307073
O O13 0.655857 0.076278 0.806955
O O14 0.251465 0.965718 0.096170
O O15 0.407813 0.747498 0.046365
O O16 0.500000 0.000000 0.000000
O O17 0.000000 0.000000 0.000000
O O18 0.500000 0.000000 0.500000
#
# Coordination Sequence:
#
# PCOD9247628 Si02
#       8
#     4   4   4   4   4   4   4   4
#     4  10  22  41  59  88 123 153 200 252 297 359
#     4  11  20  43  65  84 118 168 202 243 311 370
#     4  10  22  41  59  88 123 153 200 252 297 359
#     4  10  22  39  62  87 120 158 199 248 301 361
#     4  10  22  39  62  87 120 158 199 248 301 361
#     4   9  20  40  57  81 118 154 189 239 294 349
#     4  11  24  41  63  90 126 158 206 261 303 359
#     4   9  20  40  59  80 116 156 193 237 289 351
#
# _framework density 20.810371
#
# number of rings (size 3 to 8) (size 9 to 14) (size 15 to 20)
#    0.000    2.000    2.500    1.500    3.500    4.000 
#    9.000    0.000    0.000    0.000    0.000    0.000 
#    0.000    0.000    0.000    0.000    0.000    0.000 
#
# Total GULP energy -178338.528822 kJ/mol
# GULP energy per Si atom -5573.079026 kJ/mol
# Density = 2.076301 g / cm^3
# Si number density = 20.810371 Si / 1000 Ang^3
#
#
#
# Elastic Constant Matrix: (Units=GPa)
#
#
# Indices 1 2 3 4 5 6 
#
# 1 99.3385 43.6302 39.7710 0.0000 -29.1764 0.0000
# 2 43.6302 81.5674 61.8113 0.0000 -33.9615 0.0000
# 3 39.7710 61.8113 96.7247 0.0000 -32.5093 0.0000
# 4 0.0000 0.0000 0.0000 43.9260 0.0000 -3.9913
# 5 -29.1764 -33.9615 -32.5093 0.0000 45.1528 0.0000
# 6 0.0000 0.0000 0.0000 -3.9913 0.0000 32.1447
#
#
#
# Elastic Compliance Matrix: (Units=1/GPa)
#
#
# Indices 1 2 3 4 5 6 
#
# 1 0.013945 -0.004571 -0.001240 0.000000 0.004680 0.000000
# 2 -0.004571 0.028535 -0.013370 0.000000 0.008882 0.000000
# 3 -0.001240 -0.013370 0.020769 0.000000 0.004096 0.000000
# 4 0.000000 0.000000 0.000000 0.023025 0.000000 0.002859
# 5 0.004680 0.008882 0.004096 0.000000 0.034801 0.000000
# 6 0.000000 0.000000 0.000000 0.002859 0.000000 0.031464
#
#
# Mechanical properties :
#
#
# Convention : Reuss Voigt Hill
#
# Bulk Modulus (GPa) = 40.18115 63.11730 51.64922
# Shear Modulus (GPa) = 25.10062 33.07258 29.08660
#
# Velocity S-wave (km/s) = 3.47675 3.99085 3.74263
# Velocity P-wave (km/s) = 5.95543 7.18550 6.59919
#
# Compressibility (1/GPa) = 0.02488729
#
# Stress axis : x y z
#
# Youngs Moduli (GPa) = 71.70904 35.04466 48.14821
#
# Poissons Ratio (x) = 0.16019 0.05969
# Poissons Ratio (y) = 0.32779 0.64375
# Poissons Ratio (z) = 0.08891 0.46855
#
# Static dielectric constant tensor:
#      x y z
#    x 1.790050 0.000000 0.040130 
#    y 0.000000 1.748720 0.000000 
#    z 0.040130 0.000000 1.770990 
# 
# From -- ./inp_files/68204.got.cif
#   From: 2010.05.17/outbox.cif.g08.bks.cpg/sg14_35_cif.got.tgz:68204.got - 2010.06.03 17:49:19.
