data_PCOD9247928
_publ_section_title
;
Structure prediction by ZEFSAII (Michael W. Deem and Ramdas Pophale) SiO2 
 PCOD9247928
Probable space group: P 21/C
;
_chemical_formula_sum "Si O2"
_cell_formula_units_Z 32
_cell_length_a 13.176770
_cell_length_b 7.470628
_cell_length_c 23.751589
_cell_angle_alpha 90.000000
_cell_angle_beta 30.414228
_cell_angle_gamma 90.000000
_cell_volume 1183.646475
_symmetry_space_group_name_H-M "P 21/C"
_symmetry_group_IT_number 14
_symmetry_cell_setting 'monoclinic'
loop_
_space_group_symop_operation_xyz
x,y,z
-x,1/2+y,1/2-z
-x,-y,-z
x,1/2-y,1/2+z
loop_
_atom_site_type_symbol
_atom_site_label
_atom_site_fract_x
_atom_site_fract_y
_atom_site_fract_z
Si Si1 0.000095 0.018187 0.705790
Si Si2 0.729824 0.877186 0.924980
Si Si3 0.359676 0.669635 0.078471
Si Si4 0.811563 0.826404 0.005222
Si Si5 0.210467 0.317461 0.791459
Si Si6 0.458372 0.886324 0.238066
Si Si7 0.738309 0.090951 0.245537
Si Si8 0.152513 0.568581 0.975230
O O1 0.172691 0.868892 0.628071
O O2 0.865759 0.015706 0.826382
O O3 0.845517 0.949577 0.733051
O O4 0.123909 0.201236 0.643094
O O5 0.695603 0.911356 0.007327
O O6 0.523712 0.823929 0.993637
O O7 0.287230 0.659745 0.178187
O O8 0.500000 0.500000 0.000000
O O9 0.805373 0.608741 0.008288
O O10 0.040950 0.876040 0.885545
O O11 0.698172 0.890585 0.116020
O O12 0.355581 0.436257 0.761181
O O13 0.988339 0.292483 0.925274
O O14 0.294207 0.122825 0.736669
O O15 0.397821 0.713596 0.229581
O O16 0.351251 0.866170 0.349299
O O17 0.000000 0.500000 0.000000
#
# Coordination Sequence:
#
# PCOD9247928 Si02
#       8
#     4   4   4   4   4   4   4   4
#     4  11  22  40  66  99 141 186 240 294 357 430
#     4  11  22  41  68  98 142 191 234 299 365 429
#     4  10  22  40  66  98 140 193 241 287 361 435
#     4  12  23  47  76 103 146 195 237 307 368 429
#     4  11  24  45  72 104 144 187 245 301 357 437
#     4  11  26  50  74 105 147 189 248 301 367 430
#     4  12  23  46  74 102 145 196 234 300 372 425
#     4  10  22  48  73  98 144 185 235 308 361 429
#
# _framework density 27.035097
#
# number of rings (size 3 to 8) (size 9 to 14) (size 15 to 20)
#    0.000    1.000    6.250    1.500    0.000    1.500 
#   13.500    1.250    0.000    0.000    0.000    0.000 
#    0.000    0.000    0.000    0.000    0.000    0.000 
#
# Total GULP energy -179267.618294 kJ/mol
# GULP energy per Si atom -5602.113072 kJ/mol
# Density = 2.697356 g / cm^3
# Si number density = 27.035097 Si / 1000 Ang^3
#
#
#
# Elastic Constant Matrix: (Units=GPa)
#
#
# Indices 1 2 3 4 5 6 
#
# 1 46.3473 -7.8828 10.1802 0.0000 -7.9878 0.0000
# 2 -7.8828 144.6044 25.3518 0.0000 1.5600 0.0000
# 3 10.1802 25.3518 164.2313 0.0000 -1.9323 0.0000
# 4 0.0000 0.0000 0.0000 49.5266 0.0000 6.5329
# 5 -7.9878 1.5600 -1.9323 0.0000 47.1154 0.0000
# 6 0.0000 0.0000 0.0000 6.5329 0.0000 18.7130
#
#
#
# Elastic Compliance Matrix: (Units=1/GPa)
#
#
# Indices 1 2 3 4 5 6 
#
# 1 0.022827 0.001484 -0.001600 0.000000 0.003755 0.000000
# 2 0.001484 0.007208 -0.001205 0.000000 -0.000036 0.000000
# 3 -0.001600 -0.001205 0.006375 0.000000 0.000030 0.000000
# 4 0.000000 0.000000 0.000000 0.021166 0.000000 -0.007389
# 5 0.003755 -0.000036 0.000030 0.000000 0.021864 0.000000
# 6 0.000000 0.000000 0.000000 -0.007389 0.000000 0.056018
#
#
# Mechanical properties :
#
#
# Convention : Reuss Voigt Hill
#
# Bulk Modulus (GPa) = 29.61340 45.60905 37.61122
# Shear Modulus (GPa) = 33.47719 44.90657 39.19188
#
# Velocity S-wave (km/s) = 3.52275 4.08002 3.81158
# Velocity P-wave (km/s) = 5.24631 6.25318 5.77175
#
# Compressibility (1/GPa) = 0.03376850
#
# Stress axis : x y z
#
# Youngs Moduli (GPa) = 43.80710 138.73459 156.87419
#
# Poissons Ratio (x) = -0.20593 0.25099
# Poissons Ratio (y) = -0.06503 0.18905
# Poissons Ratio (z) = 0.07009 0.16719
#
# Static dielectric constant tensor:
#      x y z
#    x 2.130890 0.000000 0.011210 
#    y 0.000000 2.266420 0.000000 
#    z 0.011210 0.000000 2.100140 
# 
# From -- ./inp_files/77496.got.cif
#   From: 2010.05.17/outbox.cif.g08.bks.cpg/sg14_39_cif.got.tgz:77496.got - 2010.06.03 17:49:19.
