data_PCOD9247473
_publ_section_title
;
Structure prediction by ZEFSAII (Michael W. Deem and Ramdas Pophale) SiO2 
 PCOD9247473
Probable space group: P 21/C
;
_chemical_formula_sum "Si O2"
_cell_formula_units_Z 28
_cell_length_a 8.593861
_cell_length_b 11.921883
_cell_length_c 16.756715
_cell_angle_alpha 90.000000
_cell_angle_beta 59.145406
_cell_angle_gamma 90.000000
_cell_volume 1473.832065
_symmetry_space_group_name_H-M "P 21/C"
_symmetry_group_IT_number 14
_symmetry_cell_setting 'monoclinic'
loop_
_space_group_symop_operation_xyz
x,y,z
-x,1/2+y,1/2-z
-x,-y,-z
x,1/2-y,1/2+z
loop_
_atom_site_type_symbol
_atom_site_label
_atom_site_fract_x
_atom_site_fract_y
_atom_site_fract_z
Si Si1 0.394647 0.831285 0.250000
Si Si2 0.163702 0.880667 0.750000
Si Si3 0.759747 0.642676 0.750000
Si Si4 0.925067 0.385218 0.054064
Si Si5 0.183110 0.241063 0.095935
Si Si6 0.874981 0.241063 0.404065
Si Si7 0.466805 0.885218 0.054064
O O1 0.303551 0.711380 0.250000
O O2 0.580003 0.822008 0.250000
O O3 0.247136 0.895418 0.342507
O O4 0.432149 0.895418 0.157493
O O5 0.146650 0.852027 0.660301
O O6 0.967252 0.852027 0.839699
O O7 0.222056 0.007823 0.750000
O O8 0.759695 0.694250 0.838809
O O9 0.937314 0.694250 0.661191
O O10 0.080056 0.325174 0.064507
O O11 0.871867 0.310119 0.992362
O O12 0.000000 0.500000 0.000000
O O13 0.356591 0.189881 0.007638
O O14 0.709068 0.325173 0.435494
O O15 0.500000 0.000000 0.000000
#
# Coordination Sequence:
#
# PCOD9247473 Si02
#       7
#     4   4   4   4   4   4   4
#     4  10  24  40  58  88 118 156 204 240 290 358
#     4   9  21  41  60  86 122 153 193 247 294 346
#     4  11  21  39  64  88 122 159 191 243 296 344
#     4  11  23  41  62  87 121 157 196 247 296 346
#     4  10  22  38  61  91 117 153 201 238 291 362
#     4  10  22  38  61  91 117 153 201 238 291 362
#     4  11  23  41  62  87 121 157 196 247 296 346
#
# _framework density 18.998096
#
# number of rings (size 3 to 8) (size 9 to 14) (size 15 to 20)
#    0.000    1.714    0.000    4.286    0.000    9.143 
#    0.000   10.000    0.000    0.000    0.000    0.000 
#    0.000    0.000    0.000    0.000    0.000    0.000 
#
# Total GULP energy -156513.772027 kJ/mol
# GULP energy per Si atom -5589.777572 kJ/mol
# Density = 1.895486 g / cm^3
# Si number density = 18.998096 Si / 1000 Ang^3
#
#
#
# Elastic Constant Matrix: (Units=GPa)
#
#
# Indices 1 2 3 4 5 6 
#
# 1 165.3555 40.0356 81.9864 0.0000 0.1721 0.0000
# 2 40.0356 59.8827 58.8546 0.0000 -1.0090 0.0000
# 3 81.9864 58.8546 177.8056 0.0000 -0.8386 0.0000
# 4 0.0000 0.0000 0.0000 -30.9493 0.0000 2.1389
# 5 0.1721 -1.0090 -0.8386 0.0000 40.1396 0.0000
# 6 0.0000 0.0000 0.0000 2.1389 0.0000 8.9318
#
#
#
# Elastic Compliance Matrix: (Units=1/GPa)
#
#
# Indices 1 2 3 4 5 6 
#
# 1 0.008103 -0.002590 -0.002880 0.000000 -0.000160 0.000000
# 2 -0.002590 0.025587 -0.007273 0.000000 0.000502 0.000000
# 3 -0.002880 -0.007273 0.009360 0.000000 0.000025 0.000000
# 4 0.000000 0.000000 0.000000 -0.031785 0.000000 0.007612
# 5 -0.000160 0.000502 0.000025 0.000000 0.024927 0.000000
# 6 0.000000 0.000000 0.000000 0.007612 0.000000 0.110137
#
#
# Mechanical properties :
#
#
# Convention : Reuss Voigt Hill
#
# Bulk Modulus (GPa) = 56.93250 84.97742 70.95496
# Shear Modulus (GPa) = 28.14234 18.43556 23.28895
#
# Velocity S-wave (km/s) = 3.85297 3.11849 3.50502
# Velocity P-wave (km/s) = 7.05878 7.60218 7.33552
#
# Compressibility (1/GPa) = 0.01756466
#
# Stress axis : x y z
#
# Youngs Moduli (GPa) = 123.41847 39.08184 106.84316
#
# Poissons Ratio (x) = 0.10120 0.30767
# Poissons Ratio (y) = 0.31960 0.77709
# Poissons Ratio (z) = 0.35541 0.28425
#
# Static dielectric constant tensor:
#      x y z
#    x 1.636900 0.000000 -0.000620 
#    y 0.000000 1.637350 0.000000 
#    z -0.000620 0.000000 1.648530 
# 
# From -- ./inp_files/36196.got.cif
#   From: 2010.05.17/outbox.cif.g08.bks.cpg/sg14_19_cif.got.tgz:36196.got - 2010.06.03 17:49:19.
