data_PCOD9247488
_publ_section_title
;
Structure prediction by ZEFSAII (Michael W. Deem and Ramdas Pophale) SiO2 
 PCOD9247488
Probable space group: P 21/C
;
_chemical_formula_sum "Si O2"
_cell_formula_units_Z 32
_cell_length_a 13.468229
_cell_length_b 9.275863
_cell_length_c 21.374456
_cell_angle_alpha 90.000000
_cell_angle_beta 149.321666
_cell_angle_gamma 90.000000
_cell_volume 1362.433890
_symmetry_space_group_name_H-M "P 21/C"
_symmetry_group_IT_number 14
_symmetry_cell_setting 'monoclinic'
loop_
_space_group_symop_operation_xyz
x,y,z
-x,1/2+y,1/2-z
-x,-y,-z
x,1/2-y,1/2+z
loop_
_atom_site_type_symbol
_atom_site_label
_atom_site_fract_x
_atom_site_fract_y
_atom_site_fract_z
Si Si1 0.841550 0.278722 0.203416
Si Si2 0.296542 0.213493 0.124192
Si Si3 0.990364 0.857083 0.450547
Si Si4 0.125011 0.422945 0.929139
Si Si5 0.664121 0.132944 0.864001
Si Si6 0.479646 0.093649 0.550700
Si Si7 0.439282 0.866866 0.047095
Si Si8 0.243171 0.134673 0.876661
O O1 0.698861 0.348061 0.178666
O O2 0.692933 0.235873 0.068116
O O3 0.956234 0.141511 0.292746
O O4 0.014116 0.373406 0.266983
O O5 0.503438 0.292919 0.232730
O O6 0.205849 0.274067 0.139365
O O7 0.308755 0.040011 0.130055
O O8 0.165866 0.287163 0.998822
O O9 0.148092 0.731514 0.545662
O O10 0.031376 0.934578 0.407972
O O11 0.000000 0.000000 0.500000
O O12 0.345245 0.476296 0.030544
O O13 0.598194 0.151832 0.900526
O O14 0.325099 0.217230 0.449542
O O15 0.500000 0.000000 0.500000
O O16 0.354111 0.019900 0.979411
O O17 0.658749 0.864387 0.138883
#
# Coordination Sequence:
#
# PCOD9247488 Si02
#       8
#     4   4   4   4   4   4   4   4
#     4  10  22  39  68  98 141 181 218 277 346 421
#     4  11  25  47  70 100 136 183 244 292 358 417
#     4  10  24  45  72 102 136 181 241 296 356 419
#     4  10  23  44  71 102 142 185 228 290 355 419
#     4  12  25  46  71 100 139 184 238 300 353 416
#     4  10  22  38  63 100 140 176 224 274 341 416
#     4  10  23  40  66  96 137 180 227 279 343 423
#     4   9  21  41  59 100 138 179 224 272 347 414
#
# _framework density 23.487379000000001
#
# number of rings (size 3 to 8) (size 9 to 14) (size 15 to 20)
#    0.000    1.750    0.000    3.375    7.000    7.000 
#    0.000    3.750    0.000    0.000    0.000    0.000 
#    0.000    0.000    0.000    0.000    0.000    0.000 
#
# Total GULP energy -178444.417038 kJ/mol
# GULP energy per Si atom -5576.388032 kJ/mol
# Density = 2.343392 g / cm^3
# Si number density = 23.487379 Si / 1000 Ang^3
#
#
#
# Elastic Constant Matrix: (Units=GPa)
#
#
# Indices 1 2 3 4 5 6 
#
# 1 78.9864 7.4858 30.5712 0.0000 34.2108 0.0000
# 2 7.4858 133.3774 39.8885 0.0000 2.1581 0.0000
# 3 30.5712 39.8885 110.2288 0.0000 35.6314 0.0000
# 4 0.0000 0.0000 0.0000 28.2142 0.0000 8.5030
# 5 34.2108 2.1581 35.6314 0.0000 46.6293 0.0000
# 6 0.0000 0.0000 0.0000 8.5030 0.0000 32.4326
#
#
#
# Elastic Compliance Matrix: (Units=1/GPa)
#
#
# Indices 1 2 3 4 5 6 
#
# 1 0.018684 -0.000624 -0.000710 0.000000 -0.013137 0.000000
# 2 -0.000624 0.008667 -0.003960 0.000000 0.003082 0.000000
# 3 -0.000710 -0.003960 0.013910 0.000000 -0.009925 0.000000
# 4 0.000000 0.000000 0.000000 0.038484 0.000000 -0.010090
# 5 -0.013137 0.003082 -0.009925 0.000000 0.038526 0.000000
# 6 0.000000 0.000000 0.000000 -0.010090 0.000000 0.033478
#
#
# Mechanical properties :
#
#
# Convention : Reuss Voigt Hill
#
# Bulk Modulus (GPa) = 32.60000 53.16483 42.88241
# Shear Modulus (GPa) = 28.97540 37.76502 33.37021
#
# Velocity S-wave (km/s) = 3.51616 4.01420 3.77340
# Velocity P-wave (km/s) = 5.51311 6.64602 6.10590
#
# Compressibility (1/GPa) = 0.03067485
#
# Stress axis : x y z
#
# Youngs Moduli (GPa) = 53.52148 115.38239 71.89026
#
# Poissons Ratio (x) = 0.07198 0.05102
# Poissons Ratio (y) = 0.03339 0.28466
# Poissons Ratio (z) = 0.03798 0.45687
#
# Static dielectric constant tensor:
#      x y z
#    x 2.096960 0.000000 0.015910 
#    y 0.000000 1.941370 0.000000 
#    z 0.015910 0.000000 1.877720 
# 
# From -- ./inp_files/77506.got.cif
#   From: 2010.05.17/outbox.cif.g08.bks.cpg/sg14_39_cif.got.tgz:77506.got - 2010.06.03 17:49:19.
