data_PCOD9247186
_publ_section_title
;
Structure prediction by ZEFSAII (Michael W. Deem and Ramdas Pophale) SiO2 
 PCOD9247186
Probable space group: P 21/C
;
_chemical_formula_sum "Si O2"
_cell_formula_units_Z 28
_cell_length_a 20.954300
_cell_length_b 9.110103
_cell_length_c 14.686252
_cell_angle_alpha 90.000000
_cell_angle_beta 150.396732
_cell_angle_gamma 90.000000
_cell_volume 1384.926933
_symmetry_space_group_name_H-M "P 21/C"
_symmetry_group_IT_number 14
_symmetry_cell_setting 'monoclinic'
loop_
_space_group_symop_operation_xyz
x,y,z
-x,1/2+y,1/2-z
-x,-y,-z
x,1/2-y,1/2+z
loop_
_atom_site_type_symbol
_atom_site_label
_atom_site_fract_x
_atom_site_fract_y
_atom_site_fract_z
Si Si1 0.742698 0.856557 0.409866
Si Si2 0.048821 0.608921 0.637517
Si Si3 0.679698 0.133944 0.452098
Si Si4 0.343815 0.628083 0.736075
Si Si5 0.955257 0.575234 0.037036
Si Si6 0.105660 0.439962 0.386312
Si Si7 0.504751 0.156458 0.401044
O O1 0.817504 0.938637 0.419115
O O2 0.841932 0.725848 0.564716
O O3 0.613959 0.765334 0.224677
O O4 0.697046 0.972703 0.429225
O O5 0.000000 0.500000 0.500000
O O6 0.964508 0.754223 0.525551
O O7 0.017066 0.555619 0.700030
O O8 0.198536 0.649187 0.828437
O O9 0.676125 0.246838 0.363734
O O10 0.557216 0.167062 0.363754
O O11 0.214635 0.531102 0.574311
O O12 0.454881 0.511392 0.846871
O O13 0.385914 0.683678 0.887273
O O14 0.062837 0.522013 0.242616
O O15 0.000000 0.500000 0.000000
#
# Coordination Sequence:
#
# PCOD9247186 Si02
#       7
#     4   4   4   4   4   4   4
#     4  10  24  42  66  99 136 175 224 282 334 405
#     4  11  24  38  65  98 130 175 221 271 340 401
#     4  12  22  40  67  97 129 176 222 275 334 401
#     4  10  22  43  65  87 132 173 225 276 327 408
#     4  11  24  42  65  98 136 176 219 279 342 399
#     4  10  21  45  62  93 137 173 221 278 336 401
#     4  10  23  44  64  95 130 179 225 273 337 399
#
# _framework density 20.217670999999999
#
# number of rings (size 3 to 8) (size 9 to 14) (size 15 to 20)
#    0.000    1.429    2.857    1.714    2.000    4.000 
#    5.143    0.000    0.000    0.000    0.000    0.000 
#    0.000    0.000    0.000    0.000    0.000    0.000 
#
# Total GULP energy -156105.059321 kJ/mol
# GULP energy per Si atom -5575.180690 kJ/mol
# Density = 2.017166 g / cm^3
# Si number density = 20.217671 Si / 1000 Ang^3
#
#
#
# Elastic Constant Matrix: (Units=GPa)
#
#
# Indices 1 2 3 4 5 6 
#
# 1 105.7782 32.6022 32.4588 0.0000 0.7071 0.0000
# 2 32.6022 54.1221 17.7182 0.0000 -1.7491 0.0000
# 3 32.4588 17.7182 75.7999 0.0000 -1.1636 0.0000
# 4 0.0000 0.0000 0.0000 24.1415 0.0000 -4.4134
# 5 0.7071 -1.7491 -1.1636 0.0000 20.5349 0.0000
# 6 0.0000 0.0000 0.0000 -4.4134 0.0000 32.5442
#
#
#
# Elastic Compliance Matrix: (Units=1/GPa)
#
#
# Indices 1 2 3 4 5 6 
#
# 1 0.012630 -0.006357 -0.003941 0.000000 -0.001200 0.000000
# 2 -0.006357 0.023250 -0.002681 0.000000 0.002047 0.000000
# 3 -0.003941 -0.002681 0.015519 0.000000 0.000787 0.000000
# 4 0.000000 0.000000 0.000000 0.042475 0.000000 0.005760
# 5 -0.001200 0.002047 0.000787 0.000000 0.048958 0.000000
# 6 0.000000 0.000000 0.000000 0.005760 0.000000 0.031509
#
#
# Mechanical properties :
#
#
# Convention : Reuss Voigt Hill
#
# Bulk Modulus (GPa) = 39.30627 44.58432 41.94530
# Shear Modulus (GPa) = 23.94868 25.63886 24.79377
#
# Velocity S-wave (km/s) = 3.44545 3.56496 3.50571
# Velocity P-wave (km/s) = 5.94238 6.24862 6.09743
#
# Compressibility (1/GPa) = 0.02544123
#
# Stress axis : x y z
#
# Youngs Moduli (GPa) = 79.17415 43.01092 64.43700
#
# Poissons Ratio (x) = 0.27342 0.25395
# Poissons Ratio (y) = 0.50330 0.17276
# Poissons Ratio (z) = 0.31203 0.11532
#
# Static dielectric constant tensor:
#      x y z
#    x 1.843230 0.000000 0.011430 
#    y 0.000000 1.775340 0.000000 
#    z 0.011430 0.000000 1.725430 
# 
# From -- ./inp_files/50277.got.cif
#   From: 2010.05.17/outbox.cif.g08.bks.cpg/sg14_26_cif.got.tgz:50277.got - 2010.06.03 17:49:19.
