data_PCOD9247189
_publ_section_title
;
Structure prediction by ZEFSAII (Michael W. Deem and Ramdas Pophale) SiO2 
 PCOD9247189
Probable space group: P 21/C
;
_chemical_formula_sum "Si O2"
_cell_formula_units_Z 32
_cell_length_a 22.471384
_cell_length_b 8.234069
_cell_length_c 14.792674
_cell_angle_alpha 90.000000
_cell_angle_beta 30.063529
_cell_angle_gamma 90.000000
_cell_volume 1371.178521
_symmetry_space_group_name_H-M "P 21/C"
_symmetry_group_IT_number 14
_symmetry_cell_setting 'monoclinic'
loop_
_space_group_symop_operation_xyz
x,y,z
-x,1/2+y,1/2-z
-x,-y,-z
x,1/2-y,1/2+z
loop_
_atom_site_type_symbol
_atom_site_label
_atom_site_fract_x
_atom_site_fract_y
_atom_site_fract_z
Si Si1 0.118724 0.796236 0.982920
Si Si2 0.923436 0.355972 0.147374
Si Si3 0.030200 0.045529 0.687336
Si Si4 0.368227 0.657873 0.660628
Si Si5 0.587708 0.645482 0.904904
Si Si6 0.714668 0.861266 0.610390
Si Si7 0.354320 0.931763 0.972805
Si Si8 0.589533 0.689332 0.094677
O O1 0.064773 0.630700 0.100865
O O2 0.067986 0.946254 0.105555
O O3 0.086401 0.779574 0.918883
O O4 0.260616 0.785769 0.808956
O O5 0.786548 0.402122 0.350982
O O6 0.987862 0.341720 0.158984
O O7 0.000000 0.500000 0.000000
O O8 0.145558 0.123798 0.582053
O O9 0.492329 0.707873 0.539795
O O10 0.319617 0.497923 0.771937
O O11 0.386780 0.630997 0.530146
O O12 0.644223 0.627432 0.928790
O O13 0.500000 0.500000 0.000000
O O14 0.672202 0.693733 0.711838
O O15 0.648673 0.894091 0.603609
O O16 0.380742 0.122135 0.933775
O O17 0.448233 0.844868 0.783560
#
# Coordination Sequence:
#
# PCOD9247189 Si02
#       8
#     4   4   4   4   4   4   4   4
#     4   9  21  39  65  91 119 165 211 262 321 383
#     4   9  21  41  68  90 126 170 218 254 323 391
#     4  10  22  39  65  94 123 164 219 265 315 383
#     4  10  21  45  63  83 133 175 206 256 338 389
#     4  12  25  40  61  96 133 166 214 272 325 380
#     4  11  23  42  63  91 129 174 213 261 330 395
#     4  11  23  43  68  98 126 174 218 272 321 398
#     4  12  25  38  68  97 131 168 220 267 328 383
#
# _framework density 23.337588
#
# number of rings (size 3 to 8) (size 9 to 14) (size 15 to 20)
#    0.000    1.500    2.500    2.625    5.250    1.000 
#    0.000    0.625    0.000    0.000    0.000    0.000 
#    0.000    0.000    0.000    0.000    0.000    0.000 
#
# Total GULP energy -178883.101092 kJ/mol
# GULP energy per Si atom -5590.096909 kJ/mol
# Density = 2.328447 g / cm^3
# Si number density = 23.337588 Si / 1000 Ang^3
#
#
#
# Elastic Constant Matrix: (Units=GPa)
#
#
# Indices 1 2 3 4 5 6 
#
# 1 79.9907 -18.9752 24.8721 0.0000 0.3807 0.0000
# 2 -18.9752 29.2710 0.3576 0.0000 -4.0831 0.0000
# 3 24.8721 0.3576 50.5591 0.0000 -15.1717 0.0000
# 4 0.0000 0.0000 0.0000 38.8455 0.0000 7.8929
# 5 0.3807 -4.0831 -15.1717 0.0000 32.9564 0.0000
# 6 0.0000 0.0000 0.0000 7.8929 0.0000 12.9966
#
#
#
# Elastic Compliance Matrix: (Units=1/GPa)
#
#
# Indices 1 2 3 4 5 6 
#
# 1 0.018437 0.011593 -0.010193 0.000000 -0.003469 0.000000
# 2 0.011593 0.042118 -0.005192 0.000000 0.002694 0.000000
# 3 -0.010193 -0.005192 0.028627 0.000000 0.012653 0.000000
# 4 0.000000 0.000000 0.000000 0.029367 0.000000 -0.017835
# 5 -0.003469 0.002694 0.012653 0.000000 0.036542 0.000000
# 6 0.000000 0.000000 0.000000 -0.017835 0.000000 0.087774
#
#
# Mechanical properties :
#
#
# Convention : Reuss Voigt Hill
#
# Bulk Modulus (GPa) = 12.25542 19.14774 15.70158
# Shear Modulus (GPa) = 18.00834 27.19746 22.60290
#
# Velocity S-wave (km/s) = 2.78086 3.41749 3.11548
# Velocity P-wave (km/s) = 3.94635 4.87799 4.43669
#
# Compressibility (1/GPa) = 0.08159658
#
# Stress axis : x y z
#
# Youngs Moduli (GPa) = 54.23763 23.74288 34.93224
#
# Poissons Ratio (x) = -0.27525 0.35607
# Poissons Ratio (y) = -0.62877 0.18138
# Poissons Ratio (z) = 0.55285 0.12328
#
# Static dielectric constant tensor:
#      x y z
#    x 1.990770 0.000000 -0.027140 
#    y 0.000000 1.940800 0.000000 
#    z -0.027140 0.000000 1.855710 
# 
# From -- ./inp_files/51361.got.cif
#   From: 2010.05.17/outbox.cif.g08.bks.cpg/sg14_26_cif.got.tgz:51361.got - 2010.06.03 17:49:19.
