data_PCOD9247734
_publ_section_title
;
Structure prediction by ZEFSAII (Michael W. Deem and Ramdas Pophale) SiO2 
 PCOD9247734
Probable space group: P 21/C
;
_chemical_formula_sum "Si O2"
_cell_formula_units_Z 32
_cell_length_a 10.572712
_cell_length_b 13.645975
_cell_length_c 14.162469
_cell_angle_alpha 90.000000
_cell_angle_beta 131.711448
_cell_angle_gamma 90.000000
_cell_volume 1525.326490
_symmetry_space_group_name_H-M "P 21/C"
_symmetry_group_IT_number 14
_symmetry_cell_setting 'monoclinic'
loop_
_space_group_symop_operation_xyz
x,y,z
-x,1/2+y,1/2-z
-x,-y,-z
x,1/2-y,1/2+z
loop_
_atom_site_type_symbol
_atom_site_label
_atom_site_fract_x
_atom_site_fract_y
_atom_site_fract_z
Si Si1 0.538675 0.787255 0.218185
Si Si2 0.484861 0.795582 0.404160
Si Si3 0.406683 0.602008 0.468267
Si Si4 0.690650 0.460593 0.090155
Si Si5 0.078768 0.191177 0.655153
Si Si6 0.875655 0.039950 0.292158
Si Si7 0.736863 0.123383 0.412594
Si Si8 0.853161 0.646748 0.162951
O O1 0.499680 0.825676 0.303103
O O2 0.741302 0.781715 0.304227
O O3 0.436454 0.684663 0.166758
O O4 0.459077 0.851297 0.093955
O O5 0.455503 0.682309 0.413496
O O6 0.328044 0.855074 0.371312
O O7 0.665817 0.818547 0.540973
O O8 0.500000 0.500000 0.500000
O O9 0.214546 0.574280 0.349114
O O10 0.815514 0.541691 0.195158
O O11 0.500000 0.500000 0.000000
O O12 0.733416 0.445957 0.001987
O O13 0.066790 0.267400 0.735544
O O14 0.903180 0.192316 0.509624
O O15 0.096729 0.076722 0.694813
O O16 0.766654 0.064163 0.331242
O O17 0.037085 0.112155 0.372115
#
# Coordination Sequence:
#
# PCOD9247734 Si02
#       8
#     4   4   4   4   4   4   4   4
#     4  12  24  43  69 101 142 189 233 296 355 426
#     4  11  23  44  68 101 137 186 240 289 350 430
#     4  12  23  43  66 101 142 185 228 289 368 418
#     4  10  22  39  68  96 134 178 235 288 345 411
#     4  12  25  44  69 103 147 179 245 294 357 433
#     4  12  25  42  73 102 138 190 230 300 366 426
#     4  12  24  43  70 106 141 185 244 294 352 438
#     4  11  23  43  68  98 140 184 232 297 359 417
#
# _framework density 20.979116000000001
#
# number of rings (size 3 to 8) (size 9 to 14) (size 15 to 20)
#    0.000    0.500    6.250    2.625    3.500    0.000 
#    2.250    0.000    0.000    1.500    0.000    0.000 
#    0.000    0.000    0.000    0.000    0.000    0.000 
#
# Total GULP energy -178509.211221 kJ/mol
# GULP energy per Si atom -5578.412851 kJ/mol
# Density = 2.093137 g / cm^3
# Si number density = 20.979116 Si / 1000 Ang^3
#
#
#
# Elastic Constant Matrix: (Units=GPa)
#
#
# Indices 1 2 3 4 5 6 
#
# 1 83.0161 55.1015 16.3933 0.0000 -6.8302 0.0000
# 2 55.1015 126.2445 13.4220 0.0000 -4.9162 0.0000
# 3 16.3933 13.4220 54.4546 0.0000 -4.6457 0.0000
# 4 0.0000 0.0000 0.0000 20.1353 0.0000 12.2219
# 5 -6.8302 -4.9162 -4.6457 0.0000 43.1263 0.0000
# 6 0.0000 0.0000 0.0000 12.2219 0.0000 30.2652
#
#
#
# Elastic Compliance Matrix: (Units=1/GPa)
#
#
# Indices 1 2 3 4 5 6 
#
# 1 0.017692 -0.007299 -0.003390 0.000000 0.001605 0.000000
# 2 -0.007299 0.011168 -0.000550 0.000000 0.000058 0.000000
# 3 -0.003390 -0.000550 0.019650 0.000000 0.001517 0.000000
# 4 0.000000 0.000000 0.000000 0.065790 0.000000 -0.026568
# 5 0.001605 0.000058 0.001517 0.000000 0.023612 0.000000
# 6 0.000000 0.000000 0.000000 -0.026568 0.000000 0.043770
#
#
# Mechanical properties :
#
#
# Convention : Reuss Voigt Hill
#
# Bulk Modulus (GPa) = 38.41684 48.17210 43.29447
# Shear Modulus (GPa) = 23.49209 30.62525 27.05867
#
# Velocity S-wave (km/s) = 3.34995 3.82487 3.59526
# Velocity P-wave (km/s) = 5.77188 6.52058 6.15762
#
# Compressibility (1/GPa) = 0.02603025
#
# Stress axis : x y z
#
# Youngs Moduli (GPa) = 56.52253 89.54395 50.89171
#
# Poissons Ratio (x) = 0.65359 0.17253
# Poissons Ratio (y) = 0.41256 0.02801
# Poissons Ratio (z) = 0.19162 0.04928
#
# Static dielectric constant tensor:
#      x y z
#    x 1.798410 0.000000 0.041870 
#    y 0.000000 1.797300 0.000000 
#    z 0.041870 0.000000 1.827950 
# 
# From -- ./inp_files/44646.got.cif
#   From: 2010.05.17/outbox.cif.g08.bks.cpg/sg14_23_cif.got.tgz:44646.got - 2010.06.03 17:49:19.
