data_PCOD9247698
_publ_section_title
;
Structure prediction by ZEFSAII (Michael W. Deem and Ramdas Pophale) SiO2 
 PCOD9247698
Probable space group: P 21/C
;
_chemical_formula_sum "Si O2"
_cell_formula_units_Z 26
_cell_length_a 9.952677
_cell_length_b 8.707609
_cell_length_c 13.161091
_cell_angle_alpha 90.000000
_cell_angle_beta 112.053278
_cell_angle_gamma 90.000000
_cell_volume 1057.141693
_symmetry_space_group_name_H-M "P 21/C"
_symmetry_group_IT_number 14
_symmetry_cell_setting 'monoclinic'
loop_
_space_group_symop_operation_xyz
x,y,z
-x,1/2+y,1/2-z
-x,-y,-z
x,1/2-y,1/2+z
loop_
_atom_site_type_symbol
_atom_site_label
_atom_site_fract_x
_atom_site_fract_y
_atom_site_fract_z
Si Si1 0.971725 0.323142 0.979440
Si Si2 0.042094 0.555228 0.397443
Si Si3 0.657810 0.107871 0.347546
Si Si4 0.601332 0.743813 0.839523
Si Si5 0.500000 0.000000 0.500000
Si Si6 0.758815 0.808247 0.071743
Si Si7 0.748764 0.938861 0.730262
O O1 0.963543 0.236285 0.084926
O O2 0.814079 0.314731 0.884940
O O3 0.000000 0.500000 0.000000
O O4 0.103869 0.263481 0.948770
O O5 0.196866 0.485387 0.411315
O O6 0.000000 0.500000 0.500000
O O7 0.912859 0.503204 0.286406
O O8 0.550808 0.208739 0.249518
O O9 0.599940 0.098291 0.446517
O O10 0.653176 0.925038 0.319563
O O11 0.698916 0.888093 0.828871
O O12 0.620055 0.747722 0.967622
O O13 0.372521 0.978040 0.371003
O O14 0.752112 0.726691 0.176069
#
# Coordination Sequence:
#
# PCOD9247698 Si02
#       7
#     4   4   4   4   2   4   4
#     4  11  20  40  67  97 130 172 224 276 341 401
#     4  10  22  39  65  96 133 171 218 278 340 397
#     4  11  24  40  68  95 130 179 222 279 337 411
#     4  11  23  43  66  92 137 174 220 280 342 402
#     4  10  22  40  64  92 128 178 228 262 340 408
#     4  11  23  42  65  97 136 171 223 282 340 413
#     4  11  21  41  67  95 132 177 218 277 342 403
#
# _framework density 24.594619999999999
#
# number of rings (size 3 to 8) (size 9 to 14) (size 15 to 20)
#    0.000    1.231    6.154    0.000    2.154    4.923 
#    0.000    2.308    0.000    0.000    0.000    0.000 
#    0.000    0.000    0.000    0.000    0.000    0.000 
#
# Total GULP energy -144753.383017 kJ/mol
# GULP energy per Si atom -5567.437808 kJ/mol
# Density = 2.453864 g / cm^3
# Si number density = 24.594620 Si / 1000 Ang^3
#
#
#
# Elastic Constant Matrix: (Units=GPa)
#
#
# Indices 1 2 3 4 5 6 
#
# 1 68.6966 9.4057 20.9577 0.0000 30.8080 0.0000
# 2 9.4057 73.9545 18.6411 0.0000 3.9623 0.0000
# 3 20.9577 18.6411 121.0537 0.0000 31.6433 0.0000
# 4 0.0000 0.0000 0.0000 28.5262 0.0000 9.5965
# 5 30.8080 3.9623 31.6433 0.0000 53.1695 0.0000
# 6 0.0000 0.0000 0.0000 9.5965 0.0000 33.0376
#
#
#
# Elastic Compliance Matrix: (Units=1/GPa)
#
#
# Indices 1 2 3 4 5 6 
#
# 1 0.019941 -0.001878 -0.000213 0.000000 -0.011288 0.000000
# 2 -0.001878 0.014248 -0.002221 0.000000 0.001348 0.000000
# 3 -0.000213 -0.002221 0.010142 0.000000 -0.005747 0.000000
# 4 0.000000 0.000000 0.000000 0.038852 0.000000 -0.011285
# 5 -0.011288 0.001348 -0.005747 0.000000 0.028668 0.000000
# 6 0.000000 0.000000 0.000000 -0.011285 0.000000 0.033547
#
#
# Mechanical properties :
#
#
# Convention : Reuss Voigt Hill
#
# Bulk Modulus (GPa) = 28.00511 40.19043 34.09777
# Shear Modulus (GPa) = 30.13424 37.26002 33.69713
#
# Velocity S-wave (km/s) = 3.50414 3.89648 3.70550
# Velocity P-wave (km/s) = 5.27099 6.05145 5.67465
#
# Compressibility (1/GPa) = 0.03570777
#
# Stress axis : x y z
#
# Youngs Moduli (GPa) = 50.14811 70.18352 98.59990
#
# Poissons Ratio (x) = 0.13179 0.02095
# Poissons Ratio (y) = 0.09417 0.21904
# Poissons Ratio (z) = 0.01066 0.15591
#
# Static dielectric constant tensor:
#      x y z
#    x 1.484740 0.000000 -0.132580 
#    y 0.000000 2.146530 0.000000 
#    z -0.132580 0.000000 1.889380 
# 
# From -- ./inp_files/28727.got.cif
#   From: 2010.05.17/outbox.cif.g08.bks.cpg/sg14_15_cif.got.tgz:28727.got - 2010.06.03 17:49:19.
