data_PCOD9247971
_publ_section_title
;
Structure prediction by ZEFSAII (Michael W. Deem and Ramdas Pophale) SiO2 
 PCOD9247971
Probable space group: P 21/C
;
_chemical_formula_sum "Si O2"
_cell_formula_units_Z 32
_cell_length_a 20.073550
_cell_length_b 11.528500
_cell_length_c 15.430666
_cell_angle_alpha 90.000000
_cell_angle_beta 158.031599
_cell_angle_gamma 90.000000
_cell_volume 1335.868722
_symmetry_space_group_name_H-M "P 21/C"
_symmetry_group_IT_number 14
_symmetry_cell_setting 'monoclinic'
loop_
_space_group_symop_operation_xyz
x,y,z
-x,1/2+y,1/2-z
-x,-y,-z
x,1/2-y,1/2+z
loop_
_atom_site_type_symbol
_atom_site_label
_atom_site_fract_x
_atom_site_fract_y
_atom_site_fract_z
Si Si1 0.164809 0.738168 0.464499
Si Si2 0.316894 0.990467 0.888536
Si Si3 0.618010 0.820977 0.889403
Si Si4 0.855320 0.612204 0.176467
Si Si5 0.726612 0.014196 0.354230
Si Si6 0.775244 0.255899 0.144697
Si Si7 0.240740 0.974081 0.272401
Si Si8 0.669380 0.995122 0.807726
O O1 0.268915 0.847080 0.629148
O O2 0.097852 0.763028 0.285874
O O3 0.284223 0.622313 0.600553
O O4 0.009086 0.703270 0.341440
O O5 0.219666 0.012998 0.679681
O O6 0.243208 0.875469 0.845545
O O7 0.326546 0.102777 0.961174
O O8 0.526356 0.965968 0.122511
O O9 0.407797 0.810566 0.616690
O O10 0.708894 0.890226 0.919819
O O11 0.680161 0.690321 0.970802
O O12 0.854710 0.543701 0.265777
O O13 0.840526 0.534588 0.071739
O O14 0.806446 0.340779 0.263017
O O15 0.220164 0.012881 0.148339
O O16 0.455796 0.988942 0.539886
#
# Coordination Sequence:
#
# PCOD9247971 Si02
#       8
#     4   4   4   4   4   4   4   4
#     4  12  24  40  68  90 136 178 215 260 334 406
#     4  11  22  41  74  98 128 164 228 289 328 384
#     4  11  22  39  65  96 128 169 218 269 332 388
#     4  12  26  42  63  95 140 177 210 264 335 404
#     4  11  24  43  65 103 130 172 221 279 336 392
#     4  11  20  41  68  97 127 171 221 275 330 388
#     4  10  22  42  68  97 131 162 226 281 323 387
#     4  10  22  40  69  98 122 168 224 275 328 390
#
# _framework density 23.954450000000001
#
# number of rings (size 3 to 8) (size 9 to 14) (size 15 to 20)
#    0.000    1.000    5.000    2.250    1.750    1.500 
#    0.000    5.000    0.000    0.000    0.000    0.000 
#    0.000    0.000    0.000    0.000    0.000    0.000 
#
# Total GULP energy -178934.065797 kJ/mol
# GULP energy per Si atom -5591.689556 kJ/mol
# Density = 2.389993 g / cm^3
# Si number density = 23.954450 Si / 1000 Ang^3
#
#
#
# Elastic Constant Matrix: (Units=GPa)
#
#
# Indices 1 2 3 4 5 6 
#
# 1 194.0408 38.5406 34.5179 0.0000 -27.5912 0.0000
# 2 38.5406 89.1580 15.2542 0.0000 -20.3307 0.0000
# 3 34.5179 15.2542 42.2889 0.0000 -11.3577 0.0000
# 4 0.0000 0.0000 0.0000 15.3774 0.0000 4.4583
# 5 -27.5912 -20.3307 -11.3577 0.0000 43.5472 0.0000
# 6 0.0000 0.0000 0.0000 4.4583 0.0000 39.6675
#
#
#
# Elastic Compliance Matrix: (Units=1/GPa)
#
#
# Indices 1 2 3 4 5 6 
#
# 1 0.006535 -0.001588 -0.004138 0.000000 0.002320 0.000000
# 2 -0.001588 0.013348 -0.002275 0.000000 0.004632 0.000000
# 3 -0.004138 -0.002275 0.028879 0.000000 0.003848 0.000000
# 4 0.000000 0.000000 0.000000 0.067221 0.000000 -0.007555
# 5 0.002320 0.004632 0.003848 0.000000 0.027600 0.000000
# 6 0.000000 0.000000 0.000000 -0.007555 0.000000 0.026059
#
#
# Mechanical properties :
#
#
# Convention : Reuss Voigt Hill
#
# Bulk Modulus (GPa) = 30.52491 55.79035 43.15763
# Shear Modulus (GPa) = 25.43722 35.53008 30.48365
#
# Velocity S-wave (km/s) = 3.26222 3.85546 3.57118
# Velocity P-wave (km/s) = 5.19230 6.56964 5.92115
#
# Compressibility (1/GPa) = 0.03276013
#
# Stress axis : x y z
#
# Youngs Moduli (GPa) = 153.02291 74.91799 34.62762
#
# Poissons Ratio (x) = 0.11896 0.14330
# Poissons Ratio (y) = 0.24298 0.07876
# Poissons Ratio (z) = 0.63325 0.17041
#
# Static dielectric constant tensor:
#      x y z
#    x 1.936200 0.000000 -0.019770 
#    y 0.000000 1.852030 0.000000 
#    z -0.019770 0.000000 1.962710 
# 
# From -- ./inp_files/49029.got.cif
#   From: 2010.05.17/outbox.cif.g08.bks.cpg/sg14_25_cif.got.tgz:49029.got - 2010.06.03 17:49:19.
