data_PCOD9247229
_publ_section_title
;
Structure prediction by ZEFSAII (Michael W. Deem and Ramdas Pophale) SiO2 
 PCOD9247229
Probable space group: P 21/C
;
_chemical_formula_sum "Si O2"
_cell_formula_units_Z 28
_cell_length_a 18.202606
_cell_length_b 11.123494
_cell_length_c 14.064481
_cell_angle_alpha 90.000000
_cell_angle_beta 21.975206
_cell_angle_gamma 90.000000
_cell_volume 1065.634998
_symmetry_space_group_name_H-M "P 21/C"
_symmetry_group_IT_number 14
_symmetry_cell_setting 'monoclinic'
loop_
_space_group_symop_operation_xyz
x,y,z
-x,1/2+y,1/2-z
-x,-y,-z
x,1/2-y,1/2+z
loop_
_atom_site_type_symbol
_atom_site_label
_atom_site_fract_x
_atom_site_fract_y
_atom_site_fract_z
Si Si1 0.212868 0.857131 0.156284
Si Si2 0.894781 0.799000 0.691294
Si Si3 0.801865 0.533036 0.478534
Si Si4 0.478443 0.295184 0.483478
Si Si5 0.607652 0.532478 0.249249
Si Si6 0.371640 0.617857 0.047592
Si Si7 0.084393 0.463114 0.289351
O O1 0.167527 0.901186 0.105006
O O2 0.029772 0.857247 0.447510
O O3 0.321162 0.230009 0.091178
O O4 0.637211 0.864641 0.792494
O O5 0.877892 0.878333 0.805286
O O6 0.985880 0.670779 0.606249
O O7 0.926009 0.544408 0.425160
O O8 0.575985 0.559920 0.770157
O O9 0.254973 0.450116 0.004585
O O10 0.626078 0.399039 0.270163
O O11 0.580930 0.181111 0.408515
O O12 0.379950 0.550535 0.492849
O O13 0.801015 0.478011 0.759780
O O14 0.311899 0.726834 0.048274
#
# Coordination Sequence:
#
# PCOD9247229 Si02
#       7
#     4   4   4   4   4   4   4
#     4  11  24  47  77 108 150 195 257 307 377 454
#     4  12  26  46  76 115 148 200 256 315 375 462
#     4  12  27  49  78 111 151 200 255 314 378 453
#     4  10  22  42  77 105 151 191 257 309 370 445
#     4  10  21  45  74 112 140 201 252 309 369 451
#     4  11  27  49  74 110 153 196 250 318 381 447
#     4  12  28  48  75 110 159 195 254 312 391 450
#
# _framework density 26.275413
#
# number of rings (size 3 to 8) (size 9 to 14) (size 15 to 20)
#    0.000    0.857    2.857    3.000   10.000    1.143 
#    5.143    0.000    0.000    0.000    0.000    0.000 
#    0.000    0.000    0.000    0.000    0.000    0.000 
#
# Total GULP energy -157141.405719 kJ/mol
# GULP energy per Si atom -5612.193061 kJ/mol
# Density = 2.621561 g / cm^3
# Si number density = 26.275413 Si / 1000 Ang^3
#
#
#
# Elastic Constant Matrix: (Units=GPa)
#
#
# Indices 1 2 3 4 5 6 
#
# 1 146.7891 40.6185 52.3296 0.0000 -5.2628 0.0000
# 2 40.6185 102.9655 38.7627 0.0000 0.5488 0.0000
# 3 52.3296 38.7627 123.1833 0.0000 -22.7212 0.0000
# 4 0.0000 0.0000 0.0000 28.1176 0.0000 -3.9393
# 5 -5.2628 0.5488 -22.7212 0.0000 40.9443 0.0000
# 6 0.0000 0.0000 0.0000 -3.9393 0.0000 41.1126
#
#
#
# Elastic Compliance Matrix: (Units=1/GPa)
#
#
# Indices 1 2 3 4 5 6 
#
# 1 0.008476 -0.002209 -0.003007 0.000000 -0.000550 0.000000
# 2 -0.002209 0.011792 -0.003179 0.000000 -0.002206 0.000000
# 3 -0.003007 -0.003179 0.011511 0.000000 0.006044 0.000000
# 4 0.000000 0.000000 0.000000 0.036049 0.000000 0.003454
# 5 -0.000550 -0.002206 0.006044 0.000000 0.027736 0.000000
# 6 0.000000 0.000000 0.000000 0.003454 0.000000 0.024654
#
#
# Mechanical properties :
#
#
# Convention : Reuss Voigt Hill
#
# Bulk Modulus (GPa) = 66.71799 70.70662 68.71230
# Shear Modulus (GPa) = 35.21025 38.11671 36.66348
#
# Velocity S-wave (km/s) = 3.66463 3.81289 3.73950
# Velocity P-wave (km/s) = 6.58430 6.80826 6.69721
#
# Compressibility (1/GPa) = 0.01498846
#
# Stress axis : x y z
#
# Youngs Moduli (GPa) = 117.98076 84.80375 86.87636
#
# Poissons Ratio (x) = 0.18730 0.26124
# Poissons Ratio (y) = 0.26058 0.27621
# Poissons Ratio (z) = 0.35477 0.26962
#
# Static dielectric constant tensor:
#      x y z
#    x 2.064160 0.000000 -0.005520 
#    y 0.000000 2.050800 0.000000 
#    z -0.005520 0.000000 2.039700 
# 
# From -- ./inp_files/61256.got.cif
#   From: 2010.05.17/outbox.cif.g08.bks.cpg/sg14_31_cif.got.tgz:61256.got - 2010.06.03 17:49:19.
