data_PCOD9247697
_publ_section_title
;
Structure prediction by ZEFSAII (Michael W. Deem and Ramdas Pophale) SiO2 
 PCOD9247697
Probable space group: P 21/C
;
_chemical_formula_sum "Si O2"
_cell_formula_units_Z 32
_cell_length_a 6.193055
_cell_length_b 28.057415
_cell_length_c 10.112799
_cell_angle_alpha 90.000000
_cell_angle_beta 114.941798
_cell_angle_gamma 90.000000
_cell_volume 1593.327768
_symmetry_space_group_name_H-M "P 21/C"
_symmetry_group_IT_number 14
_symmetry_cell_setting 'monoclinic'
loop_
_space_group_symop_operation_xyz
x,y,z
-x,1/2+y,1/2-z
-x,-y,-z
x,1/2-y,1/2+z
loop_
_atom_site_type_symbol
_atom_site_label
_atom_site_fract_x
_atom_site_fract_y
_atom_site_fract_z
Si Si1 0.689995 0.909644 0.225719
Si Si2 0.014810 0.456069 0.404144
Si Si3 0.804899 0.360534 0.467625
Si Si4 0.952318 0.174679 0.294939
Si Si5 0.835139 0.130134 0.533881
Si Si6 0.656114 0.231851 0.805607
Si Si7 0.467672 0.211724 0.490846
Si Si8 0.427280 0.546143 0.901805
O O1 0.754272 0.947425 0.127434
O O2 0.467398 0.878465 0.120150
O O3 0.618367 0.934718 0.345269
O O4 0.925449 0.879302 0.320955
O O5 0.000000 0.500000 0.500000
O O6 0.962061 0.405644 0.462831
O O7 0.802778 0.464421 0.246151
O O8 0.816765 0.314454 0.375452
O O9 0.874151 0.344401 0.632352
O O10 0.231787 0.186510 0.376895
O O11 0.894212 0.136913 0.395388
O O12 0.811571 0.223401 0.295212
O O13 0.695714 0.177260 0.540871
O O14 0.654788 0.087426 0.519567
O O15 0.455931 0.223914 0.642116
O O16 0.530687 0.244725 0.911459
O O17 0.500000 0.500000 0.000000
#
# Coordination Sequence:
#
# PCOD9247697 Si02
#       8
#     4   4   4   4   4   4   4   4
#     4  10  22  43  68  90 132 178 213 278 331 389
#     4  10  24  41  65  98 134 176 224 276 337 407
#     4  11  24  43  65  98 134 177 226 274 349 398
#     4  11  25  40  65  97 131 175 214 284 331 402
#     4  10  22  42  63  95 128 171 222 266 335 393
#     4  11  23  42  60  96 126 176 223 265 340 405
#     4  11  24  40  65  91 130 168 221 268 330 397
#     4  10  22  39  65  96 127 172 219 271 332 394
#
# _framework density 20.083752
#
# number of rings (size 3 to 8) (size 9 to 14) (size 15 to 20)
#    0.000    1.500    1.250    3.750    1.750   12.000 
#    0.000    0.000    0.000    0.000    0.000    0.000 
#    0.000    0.000    0.000    0.000    0.000    0.000 
#
# Total GULP energy -178738.699245 kJ/mol
# GULP energy per Si atom -5585.584351 kJ/mol
# Density = 2.003804 g / cm^3
# Si number density = 20.083752 Si / 1000 Ang^3
#
#
#
# Elastic Constant Matrix: (Units=GPa)
#
#
# Indices 1 2 3 4 5 6 
#
# 1 77.4556 30.1124 28.0819 0.0000 -5.3947 0.0000
# 2 30.1124 101.0160 62.4991 0.0000 -7.1331 0.0000
# 3 28.0819 62.4991 140.0462 0.0000 -15.6151 0.0000
# 4 0.0000 0.0000 0.0000 45.2368 0.0000 -10.0614
# 5 -5.3947 -7.1331 -15.6151 0.0000 11.3469 0.0000
# 6 0.0000 0.0000 0.0000 -10.0614 0.0000 12.9293
#
#
#
# Elastic Compliance Matrix: (Units=1/GPa)
#
#
# Indices 1 2 3 4 5 6 
#
# 1 0.014907 -0.003576 -0.001008 0.000000 0.003452 0.000000
# 2 -0.003576 0.014534 -0.005835 0.000000 -0.000594 0.000000
# 3 -0.001008 -0.005835 0.011203 0.000000 0.011270 0.000000
# 4 0.000000 0.000000 0.000000 0.026733 0.000000 0.020803
# 5 0.003452 -0.000594 0.011270 0.000000 0.104907 0.000000
# 6 0.000000 0.000000 0.000000 0.020803 0.000000 0.093532
#
#
# Mechanical properties :
#
#
# Convention : Reuss Voigt Hill
#
# Bulk Modulus (GPa) = 50.49284 62.21165 56.35225
# Shear Modulus (GPa) = 17.04992 27.09090 22.07041
#
# Velocity S-wave (km/s) = 2.91682 3.67672 3.31859
# Velocity P-wave (km/s) = 6.04479 7.00483 6.54245
#
# Compressibility (1/GPa) = 0.01980479
#
# Stress axis : x y z
#
# Youngs Moduli (GPa) = 67.08312 68.80530 89.25869
#
# Poissons Ratio (x) = 0.24605 0.09000
# Poissons Ratio (y) = 0.23989 0.52084
# Poissons Ratio (z) = 0.06764 0.40149
#
# Static dielectric constant tensor:
#      x y z
#    x 1.738630 0.000000 -0.026670 
#    y 0.000000 1.726100 0.000000 
#    z -0.026670 0.000000 1.699220 
# 
# From -- ./inp_files/7001.got.cif
#   From: 2010.05.17/outbox.cif.g08.bks.cpg/sg14_4_cif.got.tgz:7001.got - 2010.06.03 17:49:19.
