data_PCOD9247860
_publ_section_title
;
Structure prediction by ZEFSAII (Michael W. Deem and Ramdas Pophale) SiO2 
 PCOD9247860
Probable space group: P 21/C
;
_chemical_formula_sum "Si O2"
_cell_formula_units_Z 20
_cell_length_a 10.151193
_cell_length_b 7.982876
_cell_length_c 9.093146
_cell_angle_alpha 90.000000
_cell_angle_beta 82.418833
_cell_angle_gamma 90.000000
_cell_volume 730.428580
_symmetry_space_group_name_H-M "P 21/C"
_symmetry_group_IT_number 14
_symmetry_cell_setting 'monoclinic'
loop_
_space_group_symop_operation_xyz
x,y,z
-x,1/2+y,1/2-z
-x,-y,-z
x,1/2-y,1/2+z
loop_
_atom_site_type_symbol
_atom_site_label
_atom_site_fract_x
_atom_site_fract_y
_atom_site_fract_z
Si Si1 0.498162 0.724838 0.914861
Si Si2 0.626193 0.936233 0.149352
Si Si3 0.112125 0.331346 0.502008
Si Si4 0.225602 0.543370 0.959219
Si Si5 0.922354 0.260894 0.280921
O O1 0.623170 0.650674 0.808129
O O2 0.381755 0.587210 0.937289
O O3 0.439248 0.882946 0.834607
O O4 0.539062 0.813244 0.059613
O O5 0.766549 0.954511 0.048071
O O6 0.996726 0.358813 0.400077
O O7 0.043729 0.312381 0.668449
O O8 0.178803 0.148062 0.459801
O O9 0.163976 0.635232 0.823706
O O10 0.162945 0.625598 0.115874
#
# Coordination Sequence:
#
# PCOD9247860 Si02
#       5
#     4   4   4   4   4
#     4  11  25  43  65  94 127 166 212 261 316 377
#     4  11  25  43  65  94 127 166 212 261 316 377
#     4  11  24  42  65  95 129 166 212 262 313 374
#     4  11  24  42  65  95 129 166 212 262 313 374
#     4  10  22  40  64  92 126 164 206 256 310 368
#
# _framework density 27.381184999999999
#
# number of rings (size 3 to 8) (size 9 to 14) (size 15 to 20)
#    0.000    1.200    0.000    6.000    0.000   16.000 
#    0.000   10.000    0.000    0.000    0.000    0.000 
#    0.000    0.000    0.000    0.000    0.000    0.000 
#
# Total GULP energy -112359.536726 kJ/mol
# GULP energy per Si atom -5617.976836 kJ/mol
# Density = 2.731886 g / cm^3
# Si number density = 27.381185 Si / 1000 Ang^3
#
#
#
# Elastic Constant Matrix: (Units=GPa)
#
#
# Indices 1 2 3 4 5 6 
#
# 1 142.9344 15.3120 43.3280 0.0000 -14.9628 0.0000
# 2 15.3120 86.5591 24.1277 0.0000 5.4155 0.0000
# 3 43.3280 24.1277 162.9544 0.0000 -9.3338 0.0000
# 4 0.0000 0.0000 0.0000 36.2945 0.0000 1.2651
# 5 -14.9628 5.4155 -9.3338 0.0000 43.3314 0.0000
# 6 0.0000 0.0000 0.0000 1.2651 0.0000 48.5060
#
#
#
# Elastic Compliance Matrix: (Units=1/GPa)
#
#
# Indices 1 2 3 4 5 6 
#
# 1 0.007916 -0.001051 -0.001807 0.000000 0.002476 0.000000
# 2 -0.001051 0.012349 -0.001679 0.000000 -0.002268 0.000000
# 3 -0.001807 -0.001679 0.006928 0.000000 0.001078 0.000000
# 4 0.000000 0.000000 0.000000 0.027577 0.000000 -0.000719
# 5 0.002476 -0.002268 0.001078 0.000000 0.024448 0.000000
# 6 0.000000 0.000000 0.000000 -0.000719 0.000000 0.020635
#
#
# Mechanical properties :
#
#
# Convention : Reuss Voigt Hill
#
# Bulk Modulus (GPa) = 55.19632 61.99817 58.59724
# Shear Modulus (GPa) = 43.49094 46.27174 44.88134
#
# Velocity S-wave (km/s) = 3.98974 4.11531 4.05301
# Velocity P-wave (km/s) = 6.43632 6.72851 6.58404
#
# Compressibility (1/GPa) = 0.01811715
#
# Stress axis : x y z
#
# Youngs Moduli (GPa) = 126.32903 80.98072 144.35169
#
# Poissons Ratio (x) = 0.08514 0.26088
# Poissons Ratio (y) = 0.13282 0.24233
# Poissons Ratio (z) = 0.22831 0.13595
#
# Static dielectric constant tensor:
#      x y z
#    x 2.088240 0.000000 0.043580 
#    y 0.000000 2.159700 0.000000 
#    z 0.043580 0.000000 2.045080 
# 
# From -- ./inp_files/11768.got.cif
#   From: 2010.05.17/outbox.cif.g08.bks.cpg/sg14_6_cif.got.tgz:11768.got - 2010.06.03 17:49:19.
