data_PCOD9247761
_publ_section_title
;
Structure prediction by ZEFSAII (Michael W. Deem and Ramdas Pophale) SiO2 
 PCOD9247761
Probable space group: P 21/C
;
_chemical_formula_sum "Si O2"
_cell_formula_units_Z 32
_cell_length_a 12.261198
_cell_length_b 8.430721
_cell_length_c 20.278131
_cell_angle_alpha 90.000000
_cell_angle_beta 54.867473
_cell_angle_gamma 90.000000
_cell_volume 1714.292594
_symmetry_space_group_name_H-M "P 21/C"
_symmetry_group_IT_number 14
_symmetry_cell_setting 'monoclinic'
loop_
_space_group_symop_operation_xyz
x,y,z
-x,1/2+y,1/2-z
-x,-y,-z
x,1/2-y,1/2+z
loop_
_atom_site_type_symbol
_atom_site_label
_atom_site_fract_x
_atom_site_fract_y
_atom_site_fract_z
Si Si1 0.174095 0.664351 0.968126
Si Si2 0.665510 0.699947 0.229381
Si Si3 0.614687 0.330711 0.219426
Si Si4 0.410493 0.815036 0.632851
Si Si5 0.304532 0.313252 0.505579
Si Si6 0.636594 0.682955 0.880262
Si Si7 0.126385 0.208422 0.457751
Si Si8 0.653726 0.180758 0.980943
O O1 0.279658 0.708418 0.874354
O O2 0.154564 0.473888 0.970823
O O3 0.236080 0.726214 0.014800
O O4 0.028147 0.732023 0.003883
O O5 0.630378 0.514971 0.232556
O O6 0.533359 0.797660 0.255860
O O7 0.696795 0.738860 0.294095
O O8 0.784667 0.737698 0.137930
O O9 0.635788 0.229544 0.278186
O O10 0.567852 0.771295 0.573217
O O11 0.340479 0.716360 0.598859
O O12 0.386272 0.997727 0.624411
O O13 0.282128 0.220233 0.581677
O O14 0.182245 0.310827 0.498270
O O15 0.339972 0.494090 0.508882
O O16 0.490497 0.757071 0.944773
#
# Coordination Sequence:
#
# PCOD9247761 Si02
#       8
#     4   4   4   4   4   4   4   4
#     4  10  22  40  60  83 116 156 192 230 284 346
#     4  11  21  35  58  87 117 148 190 239 285 336
#     4  11  21  35  58  87 117 148 190 239 285 336
#     4  11  21  35  57  84 116 150 190 237 287 339
#     4  11  21  35  57  85 116 148 190 238 288 341
#     4  11  21  35  57  84 116 150 190 237 287 339
#     4  10  22  40  60  83 116 156 192 230 284 346
#     4  11  21  35  57  85 116 148 190 238 288 341
#
# _framework density 18.666589999999999
#
# number of rings (size 3 to 8) (size 9 to 14) (size 15 to 20)
#    0.000    1.250    2.500    6.750    0.000    1.500 
#    0.000    1.250    0.000    0.000    0.000    0.000 
#    0.000    0.000    0.000    0.000    0.000    0.000 
#
# Total GULP energy -178887.217884 kJ/mol
# GULP energy per Si atom -5590.225559 kJ/mol
# Density = 1.862410 g / cm^3
# Si number density = 18.666590 Si / 1000 Ang^3
#
#
#
# Elastic Constant Matrix: (Units=GPa)
#
#
# Indices 1 2 3 4 5 6 
#
# 1 64.0306 -18.7666 15.2863 0.0000 -2.1879 0.0000
# 2 -18.7666 32.9325 0.7738 0.0000 -5.4699 0.0000
# 3 15.2863 0.7738 53.2192 0.0000 -1.0498 0.0000
# 4 0.0000 0.0000 0.0000 22.3556 0.0000 8.2497
# 5 -2.1879 -5.4699 -1.0498 0.0000 28.4236 0.0000
# 6 0.0000 0.0000 0.0000 8.2497 0.0000 27.9576
#
#
#
# Elastic Compliance Matrix: (Units=1/GPa)
#
#
# Indices 1 2 3 4 5 6 
#
# 1 0.020935 0.012710 -0.006123 0.000000 0.003831 0.000000
# 2 0.012710 0.039091 -0.004054 0.000000 0.008351 0.000000
# 3 -0.006123 -0.004054 0.020598 0.000000 -0.000491 0.000000
# 4 0.000000 0.000000 0.000000 0.050197 0.000000 -0.014812
# 5 0.003831 0.008351 -0.000491 0.000000 0.037066 0.000000
# 6 0.000000 0.000000 0.000000 -0.014812 0.000000 0.040139
#
#
# Mechanical properties :
#
#
# Convention : Reuss Voigt Hill
#
# Bulk Modulus (GPa) = 11.66990 16.08548 13.87769
# Shear Modulus (GPa) = 21.59608 25.93995 23.76801
#
# Velocity S-wave (km/s) = 3.40507 3.73184 3.57219
# Velocity P-wave (km/s) = 4.66097 5.21582 4.94618
#
# Compressibility (1/GPa) = 0.08569051
#
# Stress axis : x y z
#
# Youngs Moduli (GPa) = 47.76611 25.58164 48.54821
#
# Poissons Ratio (x) = -0.32515 0.29724
# Poissons Ratio (y) = -0.60712 0.19684
# Poissons Ratio (z) = 0.29245 0.10372
#
# Static dielectric constant tensor:
#      x y z
#    x 1.643510 0.000000 0.016370 
#    y 0.000000 1.652790 0.000000 
#    z 0.016370 0.000000 1.629840 
# 
# From -- ./inp_files/67019.got.cif
#   From: 2010.05.17/outbox.cif.g08.bks.cpg/sg14_34_cif.got.tgz:67019.got - 2010.06.03 17:49:19.
