data_PCOD9247461
_publ_section_title
;
Structure prediction by ZEFSAII (Michael W. Deem and Ramdas Pophale) SiO2 
 PCOD9247461
Probable space group: P 21/C
;
_chemical_formula_sum "Si O2"
_cell_formula_units_Z 14
_cell_length_a 6.538651
_cell_length_b 11.955684
_cell_length_c 6.678890
_cell_angle_alpha 90.000000
_cell_angle_beta 74.830941
_cell_angle_gamma 90.000000
_cell_volume 503.924258
_symmetry_space_group_name_H-M "P 21/C"
_symmetry_group_IT_number 14
_symmetry_cell_setting 'monoclinic'
loop_
_space_group_symop_operation_xyz
x,y,z
-x,1/2+y,1/2-z
-x,-y,-z
x,1/2-y,1/2+z
loop_
_atom_site_type_symbol
_atom_site_label
_atom_site_fract_x
_atom_site_fract_y
_atom_site_fract_z
Si Si1 0.690881 0.635073 0.843964
Si Si2 0.324040 0.609272 0.258983
Si Si3 0.873961 0.869971 0.684148
Si Si4 0.500000 0.000000 0.000000
O O1 0.484495 0.635582 0.039018
O O2 0.880567 0.602541 0.946635
O O3 0.646321 0.529436 0.709523
O O4 0.766308 0.746049 0.717364
O O5 0.388828 0.631318 0.468264
O O6 0.090963 0.634955 0.249255
O O7 0.716395 0.958737 0.819132
#
# Coordination Sequence:
#
# PCOD9247461 Si02
#       4
#     4   4   4   2
#     4  10  23  39  58  88 119 155 202 242 299 360
#     4  10  22  41  61  86 123 158 196 249 297 354
#     4  11  22  38  62  87 118 158 198 250 298 350
#     4  10  22  38  60  90 116 152 202 242 294 360
#
# _framework density 27.781953000000001
#
# number of rings (size 3 to 8) (size 9 to 14) (size 15 to 20)
#    0.000    1.714    0.000    3.429    0.000    6.857 
#    0.000    0.000    0.000    0.000    0.000    0.000 
#    0.000    0.000    0.000    0.000    0.000    0.000 
#
# Total GULP energy -78021.274273 kJ/mol
# GULP energy per Si atom -5572.948162 kJ/mol
# Density = 2.771872 g / cm^3
# Si number density = 27.781953 Si / 1000 Ang^3
#
#
#
# Elastic Constant Matrix: (Units=GPa)
#
#
# Indices 1 2 3 4 5 6 
#
# 1 185.9482 38.1899 18.0675 0.0000 17.7237 0.0000
# 2 38.1899 135.1371 40.8228 0.0000 1.4170 0.0000
# 3 18.0675 40.8228 96.8580 0.0000 19.9457 0.0000
# 4 0.0000 0.0000 0.0000 37.3696 0.0000 12.7550
# 5 17.7237 1.4170 19.9457 0.0000 41.3522 0.0000
# 6 0.0000 0.0000 0.0000 12.7550 0.0000 38.0943
#
#
#
# Elastic Compliance Matrix: (Units=1/GPa)
#
#
# Indices 1 2 3 4 5 6 
#
# 1 0.005957 -0.001696 0.000130 0.000000 -0.002558 0.000000
# 2 -0.001696 0.009058 -0.003983 0.000000 0.002338 0.000000
# 3 0.000130 -0.003983 0.013281 0.000000 -0.006325 0.000000
# 4 0.000000 0.000000 0.000000 0.030213 0.000000 -0.010116
# 5 -0.002558 0.002338 -0.006325 0.000000 0.028250 0.000000
# 6 0.000000 0.000000 0.000000 -0.010116 0.000000 0.029638
#
#
# Mechanical properties :
#
#
# Convention : Reuss Voigt Hill
#
# Bulk Modulus (GPa) = 58.14046 68.01151 63.07599
# Shear Modulus (GPa) = 37.53016 44.75409 41.14212
#
# Velocity S-wave (km/s) = 3.67942 4.01796 3.85241
# Velocity P-wave (km/s) = 6.24690 6.78668 6.52237
#
# Compressibility (1/GPa) = 0.01719973
#
# Stress axis : x y z
#
# Youngs Moduli (GPa) = 167.85997 110.40239 75.29458
#
# Poissons Ratio (x) = 0.18726 -0.00982
# Poissons Ratio (y) = 0.28471 0.29986
# Poissons Ratio (z) = -0.02189 0.43968
#
# Static dielectric constant tensor:
#      x y z
#    x 2.374910 0.000000 0.212060 
#    y 0.000000 2.454120 0.000000 
#    z 0.212060 0.000000 2.274500 
# 
# From -- ./inp_files/4769.got.cif
#   From: 2010.05.17/outbox.cif.g08.bks.cpg/sg14_3_cif.got.tgz:4769.got - 2010.06.03 17:49:19.
