data_PCOD9247408
_publ_section_title
;
Structure prediction by ZEFSAII (Michael W. Deem and Ramdas Pophale) SiO2 
 PCOD9247408
Probable space group: P 21/C
;
_chemical_formula_sum "Si O2"
_cell_formula_units_Z 28
_cell_length_a 9.853299
_cell_length_b 12.728368
_cell_length_c 19.364770
_cell_angle_alpha 90.000000
_cell_angle_beta 148.703328
_cell_angle_gamma 90.000000
_cell_volume 1261.614770
_symmetry_space_group_name_H-M "P 21/C"
_symmetry_group_IT_number 14
_symmetry_cell_setting 'monoclinic'
loop_
_space_group_symop_operation_xyz
x,y,z
-x,1/2+y,1/2-z
-x,-y,-z
x,1/2-y,1/2+z
loop_
_atom_site_type_symbol
_atom_site_label
_atom_site_fract_x
_atom_site_fract_y
_atom_site_fract_z
Si Si1 0.832367 0.660582 0.345329
Si Si2 0.542593 0.492019 0.299122
Si Si3 0.285408 0.745703 0.609151
Si Si4 0.633371 0.560151 0.927314
Si Si5 0.750444 0.234143 0.752769
Si Si6 0.070135 0.518546 0.712875
Si Si7 0.855329 0.450507 0.759465
O O1 0.742325 0.586269 0.369945
O O2 0.556274 0.707586 0.199368
O O3 0.977850 0.580328 0.357422
O O4 0.027344 0.753635 0.451207
O O5 0.675239 0.378820 0.362463
O O6 0.373161 0.483693 0.153949
O O7 0.384992 0.509571 0.300031
O O8 0.232436 0.784910 0.663814
O O9 0.536813 0.681681 0.879650
O O10 0.385549 0.510174 0.860006
O O11 0.891406 0.541947 0.081582
O O12 0.941223 0.133701 0.827048
O O13 0.808805 0.326580 0.725358
O O14 0.909466 0.510512 0.712436
#
# Coordination Sequence:
#
# PCOD9247408 Si02
#       7
#     4   4   4   4   4   4   4
#     4  11  23  44  64  94 129 169 209 272 318 371
#     4  10  22  37  63  97 117 162 223 264 312 375
#     4  11  23  40  69  93 126 169 220 266 315 376
#     4   8  20  40  56  91 125 166 213 267 310 364
#     4   9  22  36  60  93 120 166 213 257 324 369
#     4   9  23  42  57  95 133 164 208 267 331 370
#     4  12  20  38  68  88 130 173 214 260 318 395
#
# _framework density 22.193778999999999
#
# number of rings (size 3 to 8) (size 9 to 14) (size 15 to 20)
#    0.857    1.143    2.857    1.286    4.000    3.429 
#    2.571    0.714    0.000    0.000    0.000    0.000 
#    0.000    0.000    0.000    0.000    0.000    0.000 
#
# Total GULP energy -156195.847617 kJ/mol
# GULP energy per Si atom -5578.423129 kJ/mol
# Density = 2.214326 g / cm^3
# Si number density = 22.193779 Si / 1000 Ang^3
#
#
#
# Elastic Constant Matrix: (Units=GPa)
#
#
# Indices 1 2 3 4 5 6 
#
# 1 135.6850 14.3328 11.2773 0.0000 -11.1619 0.0000
# 2 14.3328 57.2185 -2.2129 0.0000 0.8259 0.0000
# 3 11.2773 -2.2129 31.6336 0.0000 5.1631 0.0000
# 4 0.0000 0.0000 0.0000 12.9575 0.0000 -2.7063
# 5 -11.1619 0.8259 5.1631 0.0000 16.2248 0.0000
# 6 0.0000 0.0000 0.0000 -2.7063 0.0000 30.3386
#
#
#
# Elastic Compliance Matrix: (Units=1/GPa)
#
#
# Indices 1 2 3 4 5 6 
#
# 1 0.008613 -0.002438 -0.004460 0.000000 0.007468 0.000000
# 2 -0.002438 0.018242 0.002711 0.000000 -0.003468 0.000000
# 3 -0.004460 0.002711 0.035773 0.000000 -0.014590 0.000000
# 4 0.000000 0.000000 0.000000 0.078641 0.000000 0.007015
# 5 0.007468 -0.003468 -0.014590 0.000000 0.071591 0.000000
# 6 0.000000 0.000000 0.000000 0.007015 0.000000 0.033587
#
#
# Mechanical properties :
#
#
# Convention : Reuss Voigt Hill
#
# Bulk Modulus (GPa) = 18.43137 30.14793 24.28965
# Shear Modulus (GPa) = 18.32143 25.31350 21.81747
#
# Velocity S-wave (km/s) = 2.87631 3.38089 3.13876
# Velocity P-wave (km/s) = 4.39927 5.37159 4.90956
#
# Compressibility (1/GPa) = 0.05425533
#
# Stress axis : x y z
#
# Youngs Moduli (GPa) = 116.10968 54.81733 27.95419
#
# Poissons Ratio (x) = 0.13363 0.12467
# Poissons Ratio (y) = 0.28304 -0.07579
# Poissons Ratio (z) = 0.51783 -0.14862
#
# Static dielectric constant tensor:
#      x y z
#    x 1.773310 0.000000 -0.000120 
#    y 0.000000 1.864080 0.000000 
#    z -0.000120 0.000000 1.901140 
# 
# From -- ./inp_files/67361.got.cif
#   From: 2010.05.17/outbox.cif.g08.bks.cpg/sg14_34_cif.got.tgz:67361.got - 2010.06.03 17:49:19.
