data_PCOD9247959
_publ_section_title
;
Structure prediction by ZEFSAII (Michael W. Deem and Ramdas Pophale) SiO2 
 PCOD9247959
Probable space group: P 21/C
;
_chemical_formula_sum "Si O2"
_cell_formula_units_Z 30
_cell_length_a 12.042263
_cell_length_b 15.943223
_cell_length_c 8.388153
_cell_angle_alpha 90.000000
_cell_angle_beta 59.872215
_cell_angle_gamma 90.000000
_cell_volume 1392.901944
_symmetry_space_group_name_H-M "P 21/C"
_symmetry_group_IT_number 14
_symmetry_cell_setting 'monoclinic'
loop_
_space_group_symop_operation_xyz
x,y,z
-x,1/2+y,1/2-z
-x,-y,-z
x,1/2-y,1/2+z
loop_
_atom_site_type_symbol
_atom_site_label
_atom_site_fract_x
_atom_site_fract_y
_atom_site_fract_z
Si Si1 0.808339 0.787519 0.464935
Si Si2 0.300009 0.542599 0.722564
Si Si3 0.026941 0.167300 0.362249
Si Si4 0.642496 0.824226 0.305585
Si Si5 0.386511 0.839978 0.651483
Si Si6 0.251502 0.791619 0.435796
Si Si7 0.558618 0.503538 0.706142
Si Si8 0.000000 0.500000 0.000000
O O1 0.878397 0.708181 0.332292
O O2 0.908095 0.834149 0.508315
O O3 0.750813 0.841038 0.361887
O O4 0.697336 0.749680 0.656273
O O5 0.289634 0.641128 0.772734
O O6 0.408927 0.505858 0.763171
O O7 0.357522 0.522924 0.507685
O O8 0.156452 0.508199 0.845931
O O9 0.984620 0.072219 0.370616
O O10 0.899994 0.223676 0.462175
O O11 0.516153 0.797989 0.492550
O O12 0.603633 0.905071 0.231867
O O13 0.286258 0.830922 0.580437
O O14 0.331251 0.791107 0.842026
O O15 0.418386 0.934572 0.675205
#
# Coordination Sequence:
#
# PCOD9247959 Si02
#       8
#     4   4   4   4   4   4   4   2
#     4  10  23  41  64  92 130 164 216 259 328 380
#     4  10  23  43  66  95 131 169 216 272 323 391
#     4  10  22  42  65  91 124 170 212 266 309 397
#     4  11  23  40  63  96 128 168 209 271 322 384
#     4  12  24  40  65  96 131 169 212 271 319 387
#     4  11  23  41  66  93 128 172 219 258 331 380
#     4  11  24  42  66  98 134 165 219 271 330 378
#     4  10  22  40  68  90 124 166 214 256 328 370
#
# _framework density 21.537769999999998
#
# number of rings (size 3 to 8) (size 9 to 14) (size 15 to 20)
#    0.000    1.333    1.333    3.600    1.867    2.133 
#    0.000    0.000    0.000    8.800    0.000    0.000 
#    0.000    0.000    0.000    0.000    0.000    0.000 
#
# Total GULP energy -167174.342240 kJ/mol
# GULP energy per Si atom -5572.478075 kJ/mol
# Density = 2.148875 g / cm^3
# Si number density = 21.537770 Si / 1000 Ang^3
#
#
#
# Elastic Constant Matrix: (Units=GPa)
#
#
# Indices 1 2 3 4 5 6 
#
# 1 101.9821 -0.6661 40.2968 0.0000 -7.2181 0.0000
# 2 -0.6661 26.1951 9.1536 0.0000 -9.2229 0.0000
# 3 40.2968 9.1536 63.0686 0.0000 -7.8994 0.0000
# 4 0.0000 0.0000 0.0000 19.7941 0.0000 0.5832
# 5 -7.2181 -9.2229 -7.8994 0.0000 44.5075 0.0000
# 6 0.0000 0.0000 0.0000 0.5832 0.0000 21.7851
#
#
#
# Elastic Compliance Matrix: (Units=1/GPa)
#
#
# Indices 1 2 3 4 5 6 
#
# 1 0.013499 0.003996 -0.009028 0.000000 0.001415 0.000000
# 2 0.003996 0.043977 -0.007889 0.000000 0.008361 0.000000
# 3 -0.009028 -0.007889 0.022890 0.000000 0.000964 0.000000
# 4 0.000000 0.000000 0.000000 0.050560 0.000000 -0.001353
# 5 0.001415 0.008361 0.000964 0.000000 0.024601 0.000000
# 6 0.000000 0.000000 0.000000 -0.001353 0.000000 0.045939
#
#
# Mechanical properties :
#
#
# Convention : Reuss Voigt Hill
#
# Bulk Modulus (GPa) = 18.34025 32.09051 25.21538
# Shear Modulus (GPa) = 20.36809 26.71477 23.54143
#
# Velocity S-wave (km/s) = 3.07855 3.52571 3.30969
# Velocity P-wave (km/s) = 4.60114 5.61303 5.13209
#
# Compressibility (1/GPa) = 0.05452487
#
# Stress axis : x y z
#
# Youngs Moduli (GPa) = 74.07883 22.73912 43.68785
#
# Poissons Ratio (x) = -0.09087 0.39441
# Poissons Ratio (y) = -0.29603 0.34464
# Poissons Ratio (z) = 0.66877 0.17938
#
# Static dielectric constant tensor:
#      x y z
#    x 1.771150 0.000000 0.005750 
#    y 0.000000 1.850680 0.000000 
#    z 0.005750 0.000000 1.766120 
# 
# From -- ./inp_files/13366.got.cif
#   From: 2010.05.17/outbox.cif.g08.bks.cpg/sg14_7_cif.got.tgz:13366.got - 2010.06.03 17:49:19.
