data_PCOD9247024
_publ_section_title
;
Structure prediction by ZEFSAII (Michael W. Deem and Ramdas Pophale) SiO2 
 PCOD9247024
Probable space group: P 21/C
;
_chemical_formula_sum "Si O2"
_cell_formula_units_Z 24
_cell_length_a 22.779722
_cell_length_b 8.589176
_cell_length_c 16.888895
_cell_angle_alpha 90.000000
_cell_angle_beta 20.567069
_cell_angle_gamma 90.000000
_cell_volume 1160.870407
_symmetry_space_group_name_H-M "P 21/C"
_symmetry_group_IT_number 14
_symmetry_cell_setting 'monoclinic'
loop_
_space_group_symop_operation_xyz
x,y,z
-x,1/2+y,1/2-z
-x,-y,-z
x,1/2-y,1/2+z
loop_
_atom_site_type_symbol
_atom_site_label
_atom_site_fract_x
_atom_site_fract_y
_atom_site_fract_z
Si Si1 0.851860 0.608462 0.360183
Si Si2 0.121461 0.945913 0.776929
Si Si3 0.331187 0.845233 0.986170
Si Si4 0.505917 0.542350 0.583206
Si Si5 0.137407 0.055909 0.586342
Si Si6 0.654364 0.783585 0.488476
O O1 0.718544 0.467765 0.520353
O O2 0.841118 0.756111 0.434223
O O3 0.814830 0.693834 0.322809
O O4 0.022608 0.517469 0.163207
O O5 0.176414 0.767857 0.698883
O O6 0.059648 0.003567 0.768927
O O7 0.292820 0.039093 0.578372
O O8 0.000000 0.000000 0.000000
O O9 0.382677 0.932287 0.001503
O O10 0.498922 0.760381 0.744348
O O11 0.500000 0.500000 0.500000
O O12 0.589448 0.710528 0.489986
O O13 0.318234 0.523971 0.852686
#
# Coordination Sequence:
#
# PCOD9247024 Si02
#       6
#     4   4   4   4   4   4
#     4  10  22  37  70  89 129 177 219 277 347 395
#     4  11  23  40  68 100 134 176 231 279 343 410
#     4  11  20  45  68  91 132 186 223 278 341 407
#     4  11  24  40  67  96 132 177 235 275 335 415
#     4  11  22  41  60  99 133 171 226 285 342 398
#     4  10  21  43  67  93 132 183 223 272 347 407
#
# _framework density 20.674143000000001
#
# number of rings (size 3 to 8) (size 9 to 14) (size 15 to 20)
#    0.000    1.333    5.000    2.000    0.000    5.333 
#    0.000    6.667    0.000    0.000    0.000    0.000 
#    0.000    0.000    0.000    0.000    0.000    0.000 
#
# Total GULP energy -133657.903990 kJ/mol
# GULP energy per Si atom -5569.079333 kJ/mol
# Density = 2.062709 g / cm^3
# Si number density = 20.674143 Si / 1000 Ang^3
#
#
#
# Elastic Constant Matrix: (Units=GPa)
#
#
# Indices 1 2 3 4 5 6 
#
# 1 75.5206 33.6278 17.1905 0.0000 -14.9152 0.0000
# 2 33.6278 78.9449 22.1578 0.0000 -28.5297 0.0000
# 3 17.1905 22.1578 61.6894 0.0000 -4.8278 0.0000
# 4 0.0000 0.0000 0.0000 29.2559 0.0000 -16.0489
# 5 -14.9152 -28.5297 -4.8278 0.0000 36.5309 0.0000
# 6 0.0000 0.0000 0.0000 -16.0489 0.0000 36.6566
#
#
#
# Elastic Compliance Matrix: (Units=1/GPa)
#
#
# Indices 1 2 3 4 5 6 
#
# 1 0.016745 -0.005698 -0.002458 0.000000 0.002062 0.000000
# 2 -0.005698 0.021498 -0.005054 0.000000 0.013795 0.000000
# 3 -0.002458 -0.005054 0.018515 0.000000 -0.002504 0.000000
# 4 0.000000 0.000000 0.000000 0.044985 0.000000 0.019695
# 5 0.002062 0.013795 -0.002504 0.000000 0.038659 0.000000
# 6 0.000000 0.000000 0.000000 0.019695 0.000000 0.035903
#
#
# Mechanical properties :
#
#
# Convention : Reuss Voigt Hill
#
# Bulk Modulus (GPa) = 32.96266 40.23414 36.59840
# Shear Modulus (GPa) = 23.49190 30.03394 26.76292
#
# Velocity S-wave (km/s) = 3.37455 3.81560 3.60184
# Velocity P-wave (km/s) = 5.58229 6.23820 5.91934
#
# Compressibility (1/GPa) = 0.03033736
#
# Stress axis : x y z
#
# Youngs Moduli (GPa) = 59.71797 46.51565 54.01087
#
# Poissons Ratio (x) = 0.26503 0.13278
# Poissons Ratio (y) = 0.34025 0.27300
# Poissons Ratio (z) = 0.14681 0.23511
#
# Static dielectric constant tensor:
#      x y z
#    x 1.742300 0.000000 -0.001030 
#    y 0.000000 1.853530 0.000000 
#    z -0.001030 0.000000 1.735750 
# 
# From -- ./inp_files/59145.got.cif
#   From: 2010.05.17/outbox.cif.g08.bks.cpg/sg14_30_cif.got.tgz:59145.got - 2010.06.03 17:49:19.
