data_PCOD9247729
_publ_section_title
;
Structure prediction by ZEFSAII (Michael W. Deem and Ramdas Pophale) SiO2 
 PCOD9247729
Probable space group: P 21/C
;
_chemical_formula_sum "Si O2"
_cell_formula_units_Z 28
_cell_length_a 14.683627
_cell_length_b 12.923585
_cell_length_c 10.538183
_cell_angle_alpha 90.000000
_cell_angle_beta 149.368507
_cell_angle_gamma 90.000000
_cell_volume 1018.916488
_symmetry_space_group_name_H-M "P 21/C"
_symmetry_group_IT_number 14
_symmetry_cell_setting 'monoclinic'
loop_
_space_group_symop_operation_xyz
x,y,z
-x,1/2+y,1/2-z
-x,-y,-z
x,1/2-y,1/2+z
loop_
_atom_site_type_symbol
_atom_site_label
_atom_site_fract_x
_atom_site_fract_y
_atom_site_fract_z
Si Si1 0.288625 0.492698 0.346141
Si Si2 0.002901 0.125731 0.349680
Si Si3 0.391310 0.352038 0.883628
Si Si4 0.795825 0.110237 0.848175
Si Si5 0.750298 0.160449 0.360921
Si Si6 0.557818 0.800855 0.834270
Si Si7 0.991952 0.875859 0.137773
O O1 0.150699 0.571026 0.250618
O O2 0.378769 0.580590 0.365568
O O3 0.373914 0.416620 0.550868
O O4 0.185403 0.418577 0.124734
O O5 0.017681 0.250033 0.377540
O O6 0.942879 0.096816 0.135172
O O7 0.415006 0.285790 0.781761
O O8 0.208368 0.413788 0.635461
O O9 0.585512 0.406389 0.129505
O O10 0.358432 0.285034 0.971712
O O11 0.792711 0.237171 0.836973
O O12 0.870657 0.080822 0.800593
O O13 0.645351 0.198485 0.360573
O O14 0.930563 0.107367 0.628351
#
# Coordination Sequence:
#
# PCOD9247729 Si02
#       7
#     4   4   4   4   4   4   4
#     4  11  22  41  66  99 130 177 218 271 344 396
#     4  10  23  38  66  95 134 170 223 277 323 405
#     4  11  25  40  69 102 130 176 224 280 320 403
#     4  10  22  44  64  98 129 175 228 267 328 389
#     4  10  22  39  68  94 130 172 220 277 321 399
#     4  11  24  43  67 102 135 170 230 273 335 393
#     4  11  21  41  68  96 130 171 223 273 327 384
#
# _framework density 27.480170999999999
#
# number of rings (size 3 to 8) (size 9 to 14) (size 15 to 20)
#    0.000    1.429    4.286    0.429    8.000    0.000 
#    0.000    2.857    3.143    0.000    0.000    0.000 
#    0.000    0.000    0.000    0.000    0.000    0.000 
#
# Total GULP energy -156640.903326 kJ/mol
# GULP energy per Si atom -5594.317976 kJ/mol
# Density = 2.741762 g / cm^3
# Si number density = 27.480171 Si / 1000 Ang^3
#
#
#
# Elastic Constant Matrix: (Units=GPa)
#
#
# Indices 1 2 3 4 5 6 
#
# 1 78.9692 -10.6373 -0.1905 0.0000 -17.2313 0.0000
# 2 -10.6373 71.8473 5.1929 0.0000 -7.1298 0.0000
# 3 -0.1905 5.1929 108.4180 0.0000 -4.5813 0.0000
# 4 0.0000 0.0000 0.0000 68.0906 0.0000 -2.1804
# 5 -17.2313 -7.1298 -4.5813 0.0000 47.6338 0.0000
# 6 0.0000 0.0000 0.0000 -2.1804 0.0000 38.1311
#
#
#
# Elastic Compliance Matrix: (Units=1/GPa)
#
#
# Indices 1 2 3 4 5 6 
#
# 1 0.014233 0.002649 0.000133 0.000000 0.005558 0.000000
# 2 0.002649 0.014659 -0.000567 0.000000 0.003098 0.000000
# 3 0.000133 -0.000567 0.009287 0.000000 0.000857 0.000000
# 4 0.000000 0.000000 0.000000 0.014713 0.000000 0.000841
# 5 0.005558 0.003098 0.000857 0.000000 0.023550 0.000000
# 6 0.000000 0.000000 0.000000 0.000841 0.000000 0.026273
#
#
# Mechanical properties :
#
#
# Convention : Reuss Voigt Hill
#
# Bulk Modulus (GPa) = 23.46837 27.55163 25.51000
# Shear Modulus (GPa) = 44.44904 48.42905 46.43905
#
# Velocity S-wave (km/s) = 4.02617 4.20256 4.11531
# Velocity P-wave (km/s) = 5.49291 5.79625 5.64662
#
# Compressibility (1/GPa) = 0.04261054
#
# Stress axis : x y z
#
# Youngs Moduli (GPa) = 70.25866 68.21741 107.67600
#
# Poissons Ratio (x) = -0.18072 -0.01432
# Poissons Ratio (y) = -0.18613 0.06100
# Poissons Ratio (z) = -0.00934 0.03865
#
# Static dielectric constant tensor:
#      x y z
#    x 2.175900 0.000000 0.009570 
#    y 0.000000 2.264720 0.000000 
#    z 0.009570 0.000000 2.195110 
# 
# From -- ./inp_files/34115.got.cif
#   From: 2010.05.17/outbox.cif.g08.bks.cpg/sg14_18_cif.got.tgz:34115.got - 2010.06.03 17:49:19.
