data_PCOD9247977
_publ_section_title
;
Structure prediction by ZEFSAII (Michael W. Deem and Ramdas Pophale) SiO2 
 PCOD9247977
Probable space group: P 21/C
;
_chemical_formula_sum "Si O2"
_cell_formula_units_Z 22
_cell_length_a 11.610758
_cell_length_b 16.047885
_cell_length_c 5.073395
_cell_angle_alpha 90.000000
_cell_angle_beta 94.317777
_cell_angle_gamma 90.000000
_cell_volume 942.633122
_symmetry_space_group_name_H-M "P 21/C"
_symmetry_group_IT_number 14
_symmetry_cell_setting 'monoclinic'
loop_
_space_group_symop_operation_xyz
x,y,z
-x,1/2+y,1/2-z
-x,-y,-z
x,1/2-y,1/2+z
loop_
_atom_site_type_symbol
_atom_site_label
_atom_site_fract_x
_atom_site_fract_y
_atom_site_fract_z
Si Si1 0.283850 0.435811 0.667140
Si Si2 0.421184 0.190010 0.850083
Si Si3 0.500000 0.500000 0.000000
Si Si4 0.153960 0.700228 0.164498
Si Si5 0.641332 0.097569 0.081474
Si Si6 0.973407 0.557229 0.244883
O O1 0.323494 0.373839 0.439871
O O2 0.386153 0.441434 0.896171
O O3 0.282049 0.531791 0.565372
O O4 0.159714 0.414727 0.761484
O O5 0.417591 0.261743 0.074524
O O6 0.543151 0.138907 0.880444
O O7 0.572658 0.456266 0.779190
O O8 0.143292 0.779744 0.354864
O O9 0.279036 0.663217 0.257863
O O10 0.057305 0.635698 0.237725
O O11 0.000000 0.500000 0.500000
O O12 0.000000 0.500000 0.000000
#
# Coordination Sequence:
#
# PCOD9247977 Si02
#       6
#     4   4   2   4   4   4
#     4  11  26  43  76 101 143 193 248 298 358 447
#     4  11  26  42  64 101 145 186 228 292 365 426
#     4  10  22  40  70 106 138 182 248 292 354 440
#     4  12  27  47  75 112 148 191 248 315 378 434
#     4  11  24  43  72 103 143 191 243 298 364 442
#     4  12  26  49  76 106 143 197 251 301 368 442
#
# _framework density 23.338878000000001
#
# number of rings (size 3 to 8) (size 9 to 14) (size 15 to 20)
#    0.000    0.727    1.818    5.455   12.727    1.455 
#    0.000    0.000    0.000    0.000    0.000    0.000 
#    0.000    0.000    0.000    0.000    0.000    0.000 
#
# Total GULP energy -122800.051644 kJ/mol
# GULP energy per Si atom -5581.820529 kJ/mol
# Density = 2.328576 g / cm^3
# Si number density = 23.338878 Si / 1000 Ang^3
#
#
#
# Elastic Constant Matrix: (Units=GPa)
#
#
# Indices 1 2 3 4 5 6 
#
# 1 119.2904 -1.3095 -8.9314 0.0000 5.8138 0.0000
# 2 -1.3095 70.3362 2.1337 0.0000 -0.1802 0.0000
# 3 -8.9314 2.1337 75.2063 0.0000 -6.7233 0.0000
# 4 0.0000 0.0000 0.0000 31.4288 0.0000 15.2236
# 5 5.8138 -0.1802 -6.7233 0.0000 12.3215 0.0000
# 6 0.0000 0.0000 0.0000 15.2236 0.0000 11.9627
#
#
#
# Elastic Compliance Matrix: (Units=1/GPa)
#
#
# Indices 1 2 3 4 5 6 
#
# 1 0.008616 0.000130 0.000690 0.000000 -0.003687 0.000000
# 2 0.000130 0.014232 -0.000394 0.000000 -0.000068 0.000000
# 3 0.000690 -0.000394 0.014045 0.000000 0.007333 0.000000
# 4 0.000000 0.000000 0.000000 0.082950 0.000000 -0.105560
# 5 -0.003687 -0.000068 0.007333 0.000000 0.086899 0.000000
# 6 0.000000 0.000000 0.000000 -0.105560 0.000000 0.217928
#
#
# Mechanical properties :
#
#
# Convention : Reuss Voigt Hill
#
# Bulk Modulus (GPa) = 26.49451 27.62428 27.05939
# Shear Modulus (GPa) = 11.45740 29.33861 20.39800
#
# Velocity S-wave (km/s) = 2.21806 3.54937 2.95954
# Velocity P-wave (km/s) = 4.23515 5.35343 4.82678
#
# Compressibility (1/GPa) = 0.03774367
#
# Stress axis : x y z
#
# Youngs Moduli (GPa) = 116.06755 70.26597 71.19765
#
# Poissons Ratio (x) = -0.00914 -0.04912
# Poissons Ratio (y) = -0.01509 0.02808
# Poissons Ratio (z) = -0.08007 0.02772
#
# Static dielectric constant tensor:
#      x y z
#    x 1.820030 0.000000 0.053960 
#    y 0.000000 1.913860 0.000000 
#    z 0.053960 0.000000 1.907390 
# 
# From -- ./inp_files/2506.got.cif
#   From: 2010.05.17/outbox.cif.g08.bks.cpg/sg14_2_cif.got.tgz:2506.got - 2010.06.03 17:49:19.
