data_PCOD9247915
_publ_section_title
;
Structure prediction by ZEFSAII (Michael W. Deem and Ramdas Pophale) SiO2 
 PCOD9247915
Probable space group: P 21/C
;
_chemical_formula_sum "Si O2"
_cell_formula_units_Z 16
_cell_length_a 9.087759
_cell_length_b 5.061945
_cell_length_c 18.533869
_cell_angle_alpha 90.000000
_cell_angle_beta 46.429375
_cell_angle_gamma 90.000000
_cell_volume 617.723160
_symmetry_space_group_name_H-M "P 21/C"
_symmetry_group_IT_number 14
_symmetry_cell_setting 'monoclinic'
loop_
_space_group_symop_operation_xyz
x,y,z
-x,1/2+y,1/2-z
-x,-y,-z
x,1/2-y,1/2+z
loop_
_atom_site_type_symbol
_atom_site_label
_atom_site_fract_x
_atom_site_fract_y
_atom_site_fract_z
Si Si1 0.444107 0.479048 0.816796
Si Si2 0.216717 0.479281 0.540136
Si Si3 0.633158 0.635196 0.349947
Si Si4 0.949830 0.988735 0.617265
O O1 0.538657 0.244531 0.738486
O O2 0.564726 0.571572 0.846976
O O3 0.203390 0.429639 0.896933
O O4 0.418866 0.476108 0.422674
O O5 0.286410 0.392910 0.596508
O O6 0.037317 0.280454 0.582614
O O7 0.126584 0.773290 0.566622
O O8 0.808794 0.544590 0.236424
#
# Coordination Sequence:
#
# PCOD9247915 Si02
#       4
#     4   4   4   4
#     4  10  22  40  66  94 129 176 217 267 329 385
#     4  11  25  40  66  96 125 173 217 265 329 388
#     4  10  24  43  64  94 133 166 217 273 322 387
#     4  11  23  42  64  93 129 169 217 266 324 387
#
# _framework density 25.901571000000001
#
# number of rings (size 3 to 8) (size 9 to 14) (size 15 to 20)
#    0.000    1.500    0.000    4.500    0.000   16.000 
#    0.000    0.000    0.000    0.000    0.000    0.000 
#    0.000    0.000    0.000    0.000    0.000    0.000 
#
# Total GULP energy -89652.378768 kJ/mol
# GULP energy per Si atom -5603.273673 kJ/mol
# Density = 2.584262 g / cm^3
# Si number density = 25.901571 Si / 1000 Ang^3
#
#
#
# Elastic Constant Matrix: (Units=GPa)
#
#
# Indices 1 2 3 4 5 6 
#
# 1 84.8156 -19.8069 -5.1785 0.0000 6.3745 0.0000
# 2 -19.8069 87.6248 13.5688 0.0000 2.4429 0.0000
# 3 -5.1785 13.5688 156.0174 0.0000 -1.3343 0.0000
# 4 0.0000 0.0000 0.0000 40.3563 0.0000 -13.1404
# 5 6.3745 2.4429 -1.3343 0.0000 47.6812 0.0000
# 6 0.0000 0.0000 0.0000 -13.1404 0.0000 49.4788
#
#
#
# Elastic Compliance Matrix: (Units=1/GPa)
#
#
# Indices 1 2 3 4 5 6 
#
# 1 0.012609 0.002878 0.000153 0.000000 -0.001829 0.000000
# 2 0.002878 0.012243 -0.000978 0.000000 -0.001039 0.000000
# 3 0.000153 -0.000978 0.006501 0.000000 0.000212 0.000000
# 4 0.000000 0.000000 0.000000 0.027125 0.000000 0.007204
# 5 -0.001829 -0.001039 0.000212 0.000000 0.021276 0.000000
# 6 0.000000 0.000000 0.000000 0.007204 0.000000 0.022124
#
#
# Mechanical properties :
#
#
# Convention : Reuss Voigt Hill
#
# Bulk Modulus (GPa) = 28.20265 33.95829 31.08047
# Shear Modulus (GPa) = 45.62297 50.16158 47.89227
#
# Velocity S-wave (km/s) = 4.20145 4.40548 4.30468
# Velocity P-wave (km/s) = 5.86927 6.24633 6.06073
#
# Compressibility (1/GPa) = 0.03545766
#
# Stress axis : x y z
#
# Youngs Moduli (GPa) = 79.30822 81.67814 153.81098
#
# Poissons Ratio (x) = -0.23503 -0.02347
# Poissons Ratio (y) = -0.22821 0.15045
# Poissons Ratio (z) = -0.01210 0.07989
#
# Static dielectric constant tensor:
#      x y z
#    x 2.054240 0.000000 0.000540 
#    y 0.000000 2.032090 0.000000 
#    z 0.000540 0.000000 2.073920 
# 
# From -- ./inp_files/38343.got.cif
#   From: 2010.05.17/outbox.cif.g08.bks.cpg/sg14_20_cif.got.tgz:38343.got - 2010.06.03 17:49:19.
