data_PCOD9247197
_publ_section_title
;
Structure prediction by ZEFSAII (Michael W. Deem and Ramdas Pophale) SiO2 
 PCOD9247197
Probable space group: P 21/C
;
_chemical_formula_sum "Si O2"
_cell_formula_units_Z 28
_cell_length_a 16.216200
_cell_length_b 12.706380
_cell_length_c 8.243635
_cell_angle_alpha 90.000000
_cell_angle_beta 146.000693
_cell_angle_gamma 90.000000
_cell_volume 949.824897
_symmetry_space_group_name_H-M "P 21/C"
_symmetry_group_IT_number 14
_symmetry_cell_setting 'monoclinic'
loop_
_space_group_symop_operation_xyz
x,y,z
-x,1/2+y,1/2-z
-x,-y,-z
x,1/2-y,1/2+z
loop_
_atom_site_type_symbol
_atom_site_label
_atom_site_fract_x
_atom_site_fract_y
_atom_site_fract_z
Si Si1 0.416584 0.621236 0.217204
Si Si2 0.456411 0.092516 0.602012
Si Si3 0.226995 0.828216 0.883749
Si Si4 0.938979 0.094497 0.078910
Si Si5 0.147181 0.930418 0.436743
Si Si6 0.801815 0.885151 0.014771
Si Si7 0.725037 0.791168 0.194165
O O1 0.408943 0.518408 0.095847
O O2 0.582903 0.648788 0.527386
O O3 0.324348 0.722849 0.003858
O O4 0.322708 0.589204 0.219689
O O5 0.366372 0.190641 0.539459
O O6 0.624313 0.892855 0.702302
O O7 0.630422 0.097597 0.862181
O O8 0.136596 0.831110 0.907647
O O9 0.120022 0.872809 0.566632
O O10 0.908944 0.389155 0.335723
O O11 0.107546 0.053605 0.360856
O O12 0.875296 0.980056 0.039464
O O13 0.835646 0.773986 0.986036
O O14 0.816513 0.865142 0.225249
#
# Coordination Sequence:
#
# PCOD9247197 Si02
#       7
#     4   4   4   4   4   4   4
#     4  11  23  42  70 110 146 187 243 298 366 428
#     4   9  22  41  68 105 151 183 230 320 366 419
#     4  11  26  44  78 108 143 197 248 291 364 454
#     4  11  25  51  72 100 147 194 242 303 365 418
#     4  11  26  46  72 102 143 191 247 305 348 426
#     4  10  21  45  65 102 141 193 232 302 368 433
#     4   9  22  37  68  99 142 183 234 291 367 436
#
# _framework density 29.479118
#
# number of rings (size 3 to 8) (size 9 to 14) (size 15 to 20)
#    0.857    0.857    1.429    1.286    8.000    1.714 
#   10.286    1.429    0.000    0.000    0.000    0.000 
#    0.000    0.000    0.000    0.000    0.000    0.000 
#
# Total GULP energy -156252.277050 kJ/mol
# GULP energy per Si atom -5580.438466 kJ/mol
# Density = 2.941202 g / cm^3
# Si number density = 29.479118 Si / 1000 Ang^3
#
#
#
# Elastic Constant Matrix: (Units=GPa)
#
#
# Indices 1 2 3 4 5 6 
#
# 1 137.6613 10.8179 40.6764 0.0000 -7.5563 0.0000
# 2 10.8179 104.5001 19.0323 0.0000 -2.1738 0.0000
# 3 40.6764 19.0323 75.1559 0.0000 -4.9718 0.0000
# 4 0.0000 0.0000 0.0000 55.1705 0.0000 7.5890
# 5 -7.5563 -2.1738 -4.9718 0.0000 55.6003 0.0000
# 6 0.0000 0.0000 0.0000 7.5890 0.0000 63.3303
#
#
#
# Elastic Compliance Matrix: (Units=1/GPa)
#
#
# Indices 1 2 3 4 5 6 
#
# 1 0.008679 -0.000038 -0.004637 0.000000 0.000763 0.000000
# 2 -0.000038 0.010034 -0.002510 0.000000 0.000163 0.000000
# 3 -0.004637 -0.002510 0.016500 0.000000 0.000747 0.000000
# 4 0.000000 0.000000 0.000000 0.018429 0.000000 -0.002208
# 5 0.000763 0.000163 0.000747 0.000000 0.018162 0.000000
# 6 0.000000 0.000000 0.000000 -0.002208 0.000000 0.016055
#
#
# Mechanical properties :
#
#
# Convention : Reuss Voigt Hill
#
# Bulk Modulus (GPa) = 47.97621 50.93003 49.45312
# Shear Modulus (GPa) = 45.79671 51.27293 48.53482
#
# Velocity S-wave (km/s) = 3.94576 4.17501 4.06200
# Velocity P-wave (km/s) = 6.08841 6.36829 6.22992
#
# Compressibility (1/GPa) = 0.02084366
#
# Stress axis : x y z
#
# Youngs Moduli (GPa) = 115.21598 99.66362 60.60426
#
# Poissons Ratio (x) = 0.00379 0.28104
# Poissons Ratio (y) = 0.00438 0.15209
# Poissons Ratio (z) = 0.53430 0.25011
#
# Static dielectric constant tensor:
#      x y z
#    x 2.379020 0.000000 0.052290 
#    y 0.000000 2.500610 0.000000 
#    z 0.052290 0.000000 2.403970 
# 
# From -- ./inp_files/35193.got.cif
#   From: 2010.05.17/outbox.cif.g08.bks.cpg/sg14_18_cif.got.tgz:35193.got - 2010.06.03 17:49:19.
