data_PCOD9247145
_publ_section_title
;
Structure prediction by ZEFSAII (Michael W. Deem and Ramdas Pophale) SiO2 
 PCOD9247145
Probable space group: P 21/C
;
_chemical_formula_sum "Si O2"
_cell_formula_units_Z 32
_cell_length_a 13.553041
_cell_length_b 16.962230
_cell_length_c 11.240013
_cell_angle_alpha 90.000000
_cell_angle_beta 149.370335
_cell_angle_gamma 90.000000
_cell_volume 1316.496228
_symmetry_space_group_name_H-M "P 21/C"
_symmetry_group_IT_number 14
_symmetry_cell_setting 'monoclinic'
loop_
_space_group_symop_operation_xyz
x,y,z
-x,1/2+y,1/2-z
-x,-y,-z
x,1/2-y,1/2+z
loop_
_atom_site_type_symbol
_atom_site_label
_atom_site_fract_x
_atom_site_fract_y
_atom_site_fract_z
Si Si1 0.461279 0.576634 0.118640
Si Si2 0.183209 0.012375 0.849413
Si Si3 0.602624 0.718726 0.508633
Si Si4 0.762387 0.861705 0.773134
Si Si5 0.069850 0.166068 0.810769
Si Si6 0.541126 0.105991 0.959688
Si Si7 0.690143 0.249712 0.961672
Si Si8 0.812006 0.558564 0.081767
O O1 0.638749 0.539078 0.379917
O O2 0.567525 0.589544 0.102534
O O3 0.391482 0.664584 0.081793
O O4 0.280628 0.520361 0.955532
O O5 0.020054 0.956402 0.737893
O O6 0.060815 0.093568 0.706888
O O7 0.302366 0.964592 0.873400
O O8 0.714139 0.768849 0.721951
O O9 0.739019 0.708553 0.537190
O O10 0.529884 0.636988 0.486930
O O11 0.424323 0.769994 0.277710
O O12 0.833954 0.884613 0.717933
O O13 0.906032 0.871139 0.032946
O O14 0.906060 0.230380 0.649522
O O15 0.649632 0.180902 0.012265
O O16 0.352231 0.086807 0.682865
#
# Coordination Sequence:
#
# PCOD9247145 Si02
#       8
#     4   4   4   4   4   4   4   4
#     4  10  21  44  68  98 135 176 226 277 349 407
#     4  10  23  44  68 102 137 178 227 282 341 408
#     4  12  24  46  68  99 138 188 224 287 338 409
#     4  11  23  43  71 101 140 172 228 290 347 408
#     4  11  26  45  69 102 138 179 229 282 351 407
#     4  11  26  43  71 101 136 179 241 276 340 411
#     4  12  23  46  70  97 139 182 227 282 342 408
#     4  11  23  44  70 102 139 177 222 295 340 408
#
# _framework density 24.306943
#
# number of rings (size 3 to 8) (size 9 to 14) (size 15 to 20)
#    0.000    1.000    6.250    0.375    1.750    4.500 
#    4.500    1.250    0.000    0.000    0.000    0.000 
#    0.000    0.000    0.000    0.000    0.000    0.000 
#
# Total GULP energy -178705.794546 kJ/mol
# GULP energy per Si atom -5584.556080 kJ/mol
# Density = 2.425162 g / cm^3
# Si number density = 24.306943 Si / 1000 Ang^3
#
#
#
# Elastic Constant Matrix: (Units=GPa)
#
#
# Indices 1 2 3 4 5 6 
#
# 1 87.7086 14.9776 48.7279 0.0000 18.1151 0.0000
# 2 14.9776 83.8698 15.7916 0.0000 13.2011 0.0000
# 3 48.7279 15.7916 64.9451 0.0000 20.8525 0.0000
# 4 0.0000 0.0000 0.0000 30.2198 0.0000 3.8014
# 5 18.1151 13.2011 20.8525 0.0000 30.9420 0.0000
# 6 0.0000 0.0000 0.0000 3.8014 0.0000 39.7728
#
#
#
# Elastic Compliance Matrix: (Units=1/GPa)
#
#
# Indices 1 2 3 4 5 6 
#
# 1 0.019674 -0.000586 -0.014039 0.000000 -0.001808 0.000000
# 2 -0.000586 0.012953 -0.001335 0.000000 -0.004284 0.000000
# 3 -0.014039 -0.001335 0.029904 0.000000 -0.011365 0.000000
# 4 0.000000 0.000000 0.000000 0.033494 0.000000 -0.003201
# 5 -0.001808 -0.004284 -0.011365 0.000000 0.042863 0.000000
# 6 0.000000 0.000000 0.000000 -0.003201 0.000000 0.025449
#
#
# Mechanical properties :
#
#
# Convention : Reuss Voigt Hill
#
# Bulk Modulus (GPa) = 32.66505 43.94642 38.30574
# Shear Modulus (GPa) = 24.21776 30.65534 27.43655
#
# Velocity S-wave (km/s) = 3.15990 3.55516 3.36334
# Velocity P-wave (km/s) = 5.17504 5.91365 5.55663
#
# Compressibility (1/GPa) = 0.03061376
#
# Stress axis : x y z
#
# Youngs Moduli (GPa) = 50.82826 77.19949 33.44014
#
# Poissons Ratio (x) = 0.04521 0.46945
# Poissons Ratio (y) = 0.02977 0.04463
# Poissons Ratio (z) = 0.71356 0.10304
#
# Static dielectric constant tensor:
#      x y z
#    x 1.903260 0.000000 0.009280 
#    y 0.000000 2.027890 0.000000 
#    z 0.009280 0.000000 1.934090 
# 
# From -- ./inp_files/33079.got.cif
#   From: 2010.05.17/outbox.cif.g08.bks.cpg/sg14_17_cif.got.tgz:33079.got - 2010.06.03 17:49:19.
