data_PCOD9247052
_publ_section_title
;
Structure prediction by ZEFSAII (Michael W. Deem and Ramdas Pophale) SiO2 
 PCOD9247052
Probable space group: P 21/C
;
_chemical_formula_sum "Si O2"
_cell_formula_units_Z 22
_cell_length_a 5.056614
_cell_length_b 10.329417
_cell_length_c 14.838457
_cell_angle_alpha 90.000000
_cell_angle_beta 69.963278
_cell_angle_gamma 90.000000
_cell_volume 728.129724
_symmetry_space_group_name_H-M "P 21/C"
_symmetry_group_IT_number 14
_symmetry_cell_setting 'monoclinic'
loop_
_space_group_symop_operation_xyz
x,y,z
-x,1/2+y,1/2-z
-x,-y,-z
x,1/2-y,1/2+z
loop_
_atom_site_type_symbol
_atom_site_label
_atom_site_fract_x
_atom_site_fract_y
_atom_site_fract_z
Si Si1 0.117570 0.948974 0.163515
Si Si2 0.244736 0.955820 0.349347
Si Si3 0.808469 0.774857 0.633835
Si Si4 0.565765 0.689343 0.493958
Si Si5 0.676607 0.325325 0.671017
Si Si6 0.500000 0.500000 0.000000
O O1 0.954921 0.812271 0.191770
O O2 0.269397 0.974861 0.240545
O O3 0.334912 0.907415 0.062097
O O4 0.896023 0.059295 0.161593
O O5 0.149848 0.808227 0.369624
O O6 0.057649 0.081184 0.400871
O O7 0.496755 0.972009 0.389617
O O8 0.803121 0.685401 0.545388
O O9 0.507797 0.799583 0.717364
O O10 0.531913 0.664621 0.391382
O O11 0.507839 0.842392 0.514656
#
# Coordination Sequence:
#
# PCOD9247052 Si02
#       6
#     4   4   4   4   4   2
#     4  12  24  43  74 107 146 190 249 303 367 444
#     4  10  21  43  69 100 139 193 239 294 362 433
#     4  11  24  46  68 102 147 193 245 305 364 440
#     4  10  23  46  69 106 145 191 247 301 366 437
#     4  11  23  44  70 102 148 190 240 304 375 426
#     4   8  20  44  72  98 150 186 244 300 358 440
#
# _framework density 30.214393000000001
#
# number of rings (size 3 to 8) (size 9 to 14) (size 15 to 20)
#    0.000    1.455    1.818    2.727    0.000    0.727 
#    9.818    4.545    0.000    0.000    0.000    0.000 
#    0.000    0.000    0.000    0.000    0.000    0.000 
#
# Total GULP energy -122655.198667 kJ/mol
# GULP energy per Si atom -5575.236303 kJ/mol
# Density = 3.014562 g / cm^3
# Si number density = 30.214393 Si / 1000 Ang^3
#
#
#
# Elastic Constant Matrix: (Units=GPa)
#
#
# Indices 1 2 3 4 5 6 
#
# 1 79.4582 41.9730 53.3705 0.0000 37.2566 0.0000
# 2 41.9730 195.2532 42.1041 0.0000 13.3612 0.0000
# 3 53.3705 42.1041 246.1369 0.0000 48.9599 0.0000
# 4 0.0000 0.0000 0.0000 69.6573 0.0000 14.3841
# 5 37.2566 13.3612 48.9599 0.0000 47.2882 0.0000
# 6 0.0000 0.0000 0.0000 14.3841 0.0000 31.1558
#
#
#
# Elastic Compliance Matrix: (Units=1/GPa)
#
#
# Indices 1 2 3 4 5 6 
#
# 1 0.022522 -0.003522 -0.001196 0.000000 -0.015511 0.000000
# 2 -0.003522 0.005887 -0.000585 0.000000 0.001717 0.000000
# 3 -0.001196 -0.000585 0.005292 0.000000 -0.004371 0.000000
# 4 0.000000 0.000000 0.000000 0.015869 0.000000 -0.007326
# 5 -0.015511 0.001717 -0.004371 0.000000 0.037408 0.000000
# 6 0.000000 0.000000 0.000000 -0.007326 0.000000 0.035479
#
#
# Mechanical properties :
#
#
# Convention : Reuss Voigt Hill
#
# Bulk Modulus (GPa) = 43.29909 88.41595 65.85752
# Shear Modulus (GPa) = 35.52130 55.18031 45.35080
#
# Velocity S-wave (km/s) = 3.43248 4.27815 3.87843
# Velocity P-wave (km/s) = 5.48370 7.33006 6.47305
#
# Compressibility (1/GPa) = 0.02309517
#
# Stress axis : x y z
#
# Youngs Moduli (GPa) = 44.40179 169.85613 188.97811
#
# Poissons Ratio (x) = 0.59826 0.22594
# Poissons Ratio (y) = 0.15639 0.11054
# Poissons Ratio (z) = 0.05309 0.09935
#
# Static dielectric constant tensor:
#      x y z
#    x 5.514120 0.000000 -0.997470 
#    y 0.000000 2.414740 0.000000 
#    z -0.997470 0.000000 2.720480 
# 
# From -- ./inp_files/37040.got.cif
#   From: 2010.05.17/outbox.cif.g08.bks.cpg/sg14_19_cif.got.tgz:37040.got - 2010.06.03 17:49:19.
