data_PCOD9247639
_publ_section_title
;
Structure prediction by ZEFSAII (Michael W. Deem and Ramdas Pophale) SiO2 
 PCOD9247639
Probable space group: P 21/C
;
_chemical_formula_sum "Si O2"
_cell_formula_units_Z 24
_cell_length_a 13.526394
_cell_length_b 7.297411
_cell_length_c 9.340800
_cell_angle_alpha 90.000000
_cell_angle_beta 91.884953
_cell_angle_gamma 90.000000
_cell_volume 921.509567
_symmetry_space_group_name_H-M "P 21/C"
_symmetry_group_IT_number 14
_symmetry_cell_setting 'monoclinic'
loop_
_space_group_symop_operation_xyz
x,y,z
-x,1/2+y,1/2-z
-x,-y,-z
x,1/2-y,1/2+z
loop_
_atom_site_type_symbol
_atom_site_label
_atom_site_fract_x
_atom_site_fract_y
_atom_site_fract_z
Si Si1 0.886546 0.656533 0.615401
Si Si2 0.570719 0.491719 0.802383
Si Si3 0.786783 0.362191 0.229178
Si Si4 0.907606 0.244637 0.495242
Si Si5 0.591753 0.252871 0.065681
Si Si6 0.759861 0.747813 0.857989
O O1 0.900588 0.446276 0.568496
O O2 0.856540 0.675069 0.778165
O O3 0.791440 0.729816 0.523282
O O4 0.985312 0.759804 0.571470
O O5 0.476738 0.594478 0.861890
O O6 0.558193 0.436768 0.636482
O O7 0.665637 0.620951 0.830121
O O8 0.586690 0.308322 0.899733
O O9 0.829053 0.244291 0.362080
O O10 0.702835 0.270518 0.129760
O O11 0.745857 0.548872 0.294299
O O12 0.877023 0.390148 0.121590
#
# Coordination Sequence:
#
# PCOD9247639 Si02
#       6
#     4   4   4   4   4   4
#     4  10  22  40  61  91 132 173 219 276 331 398
#     4  11  25  45  69 100 135 175 224 275 339 405
#     4  11  22  39  64  94 130 174 220 273 331 397
#     4  10  22  39  62  93 129 173 222 272 335 394
#     4  11  24  43  68  98 136 175 221 276 332 402
#     4  11  23  40  64  94 132 173 220 276 334 397
#
# _framework density 26.044225000000001
#
# number of rings (size 3 to 8) (size 9 to 14) (size 15 to 20)
#    0.000    1.333    0.000    5.000    0.000    5.333 
#    0.000    0.000    0.000    0.000    0.000    0.000 
#    0.000    0.000    0.000    0.000    0.000    0.000 
#
# Total GULP energy -134542.043082 kJ/mol
# GULP energy per Si atom -5605.918462 kJ/mol
# Density = 2.598495 g / cm^3
# Si number density = 26.044225 Si / 1000 Ang^3
#
#
#
# Elastic Constant Matrix: (Units=GPa)
#
#
# Indices 1 2 3 4 5 6 
#
# 1 77.0276 0.2633 36.8124 0.0000 -7.6128 0.0000
# 2 0.2633 52.8489 35.1405 0.0000 5.6672 0.0000
# 3 36.8124 35.1405 109.3664 0.0000 3.2493 0.0000
# 4 0.0000 0.0000 0.0000 47.2618 0.0000 -8.9662
# 5 -7.6128 5.6672 3.2493 0.0000 33.1584 0.0000
# 6 0.0000 0.0000 0.0000 -8.9662 0.0000 42.4174
#
#
#
# Elastic Compliance Matrix: (Units=1/GPa)
#
#
# Indices 1 2 3 4 5 6 
#
# 1 0.016743 0.004235 -0.007110 0.000000 0.003817 0.000000
# 2 0.004235 0.025514 -0.009550 0.000000 -0.002453 0.000000
# 3 -0.007110 -0.009550 0.014648 0.000000 -0.001435 0.000000
# 4 0.000000 0.000000 0.000000 0.022043 0.000000 0.004659
# 5 0.003817 -0.002453 -0.001435 0.000000 0.031594 0.000000
# 6 0.000000 0.000000 0.000000 0.004659 0.000000 0.024560
#
#
# Mechanical properties :
#
#
# Convention : Reuss Voigt Hill
#
# Bulk Modulus (GPa) = 31.19724 42.63059 36.91391
# Shear Modulus (GPa) = 29.30183 35.70263 32.50223
#
# Velocity S-wave (km/s) = 3.35786 3.70651 3.53648
# Velocity P-wave (km/s) = 5.19983 5.89251 5.55697
#
# Compressibility (1/GPa) = 0.03205412
#
# Stress axis : x y z
#
# Youngs Moduli (GPa) = 59.72673 39.19399 68.26882
#
# Poissons Ratio (x) = -0.16597 0.48537
# Poissons Ratio (y) = -0.25292 0.65200
# Poissons Ratio (z) = 0.42464 0.37432
#
# Static dielectric constant tensor:
#      x y z
#    x 2.000380 0.000000 -0.021360 
#    y 0.000000 2.082150 0.000000 
#    z -0.021360 0.000000 1.993180 
# 
# From -- ./inp_files/15107.got.cif
#   From: 2010.05.17/outbox.cif.g08.bks.cpg/sg14_8_cif.got.tgz:15107.got - 2010.06.03 17:49:19.
