data_PCOD9247318
_publ_section_title
;
Structure prediction by ZEFSAII (Michael W. Deem and Ramdas Pophale) SiO2 
 PCOD9247318
Probable space group: P 21/C
;
_chemical_formula_sum "Si O2"
_cell_formula_units_Z 20
_cell_length_a 15.442483
_cell_length_b 10.201814
_cell_length_c 10.325991
_cell_angle_alpha 90.000000
_cell_angle_beta 153.091800
_cell_angle_gamma 90.000000
_cell_volume 736.215036
_symmetry_space_group_name_H-M "P 21/C"
_symmetry_group_IT_number 14
_symmetry_cell_setting 'monoclinic'
loop_
_space_group_symop_operation_xyz
x,y,z
-x,1/2+y,1/2-z
-x,-y,-z
x,1/2-y,1/2+z
loop_
_atom_site_type_symbol
_atom_site_label
_atom_site_fract_x
_atom_site_fract_y
_atom_site_fract_z
Si Si1 0.744389 0.018918 0.563828
Si Si2 0.319258 0.120607 0.792880
Si Si3 0.332026 0.034130 0.080552
Si Si4 0.272819 0.740170 0.625617
Si Si5 0.064474 0.245504 0.132232
O O1 0.693584 0.946326 0.360523
O O2 0.559052 0.044662 0.406388
O O3 0.874209 0.905478 0.796001
O O4 0.800272 0.160585 0.584096
O O5 0.124839 0.191023 0.576766
O O6 0.504382 0.214777 0.057327
O O7 0.325423 0.011932 0.916039
O O8 0.260403 0.909899 0.062676
O O9 0.210744 0.168764 0.922758
O O10 0.138619 0.756797 0.570764
#
# Coordination Sequence:
#
# PCOD9247318 Si02
#       5
#     4   4   4   4   4
#     4  11  19  40  63  82 117 155 190 235 285 347
#     4   9  22  38  59  86 117 149 196 229 290 340
#     4   9  18  37  58  82 113 151 182 234 289 330
#     4  11  19  36  60  84 117 148 192 236 284 340
#     4  10  22  36  58  86 117 151 190 238 287 333
#
# _framework density 27.165975
#
# number of rings (size 3 to 8) (size 9 to 14) (size 15 to 20)
#    1.200    0.800    2.000    3.600    0.000    0.800 
#    3.600    1.000    4.400    2.400    0.000    0.000 
#    0.000    0.000    0.000    0.000    0.000    0.000 
#
# Total GULP energy -111798.973050 kJ/mol
# GULP energy per Si atom -5589.948653 kJ/mol
# Density = 2.710414 g / cm^3
# Si number density = 27.165975 Si / 1000 Ang^3
#
#
#
# Elastic Constant Matrix: (Units=GPa)
#
#
# Indices 1 2 3 4 5 6 
#
# 1 107.5736 39.5514 50.6681 0.0000 30.9942 0.0000
# 2 39.5514 182.9793 76.4767 0.0000 20.3152 0.0000
# 3 50.6681 76.4767 128.4043 0.0000 54.9663 0.0000
# 4 0.0000 0.0000 0.0000 62.5687 0.0000 4.1693
# 5 30.9942 20.3152 54.9663 0.0000 47.8661 0.0000
# 6 0.0000 0.0000 0.0000 4.1693 0.0000 40.8934
#
#
#
# Elastic Compliance Matrix: (Units=1/GPa)
#
#
# Indices 1 2 3 4 5 6 
#
# 1 0.012121 -0.001306 -0.001736 0.000000 -0.005301 0.000000
# 2 -0.001306 0.007769 -0.006023 0.000000 0.004465 0.000000
# 3 -0.001736 -0.006023 0.020622 0.000000 -0.020001 0.000000
# 4 0.000000 0.000000 0.000000 0.016092 0.000000 -0.001641
# 5 -0.005301 0.004465 -0.020001 0.000000 0.045396 0.000000
# 6 0.000000 0.000000 0.000000 -0.001641 0.000000 0.024621
#
#
# Mechanical properties :
#
#
# Convention : Reuss Voigt Hill
#
# Bulk Modulus (GPa) = 44.67906 83.59440 64.13673
# Shear Modulus (GPa) = 32.84887 47.08302 39.96595
#
# Velocity S-wave (km/s) = 3.48112 4.16764 3.83975
# Velocity P-wave (km/s) = 5.71314 7.34830 6.58170
#
# Compressibility (1/GPa) = 0.02238185
#
# Stress axis : x y z
#
# Youngs Moduli (GPa) = 82.50099 128.71542 48.49191
#
# Poissons Ratio (x) = 0.16809 0.08418
# Poissons Ratio (y) = 0.10774 0.29208
# Poissons Ratio (z) = 0.14322 0.77528
#
# Static dielectric constant tensor:
#      x y z
#    x 2.074150 0.000000 -0.096240 
#    y 0.000000 2.104690 0.000000 
#    z -0.096240 0.000000 2.441480 
# 
# From -- ./inp_files/48953.got.cif
#   From: 2010.05.17/outbox.cif.g08.bks.cpg/sg14_25_cif.got.tgz:48953.got - 2010.06.03 17:49:19.
