data_PCOD9247675
_publ_section_title
;
Structure prediction by ZEFSAII (Michael W. Deem and Ramdas Pophale) SiO2 
 PCOD9247675
Probable space group: P 21/C
;
_chemical_formula_sum "Si O2"
_cell_formula_units_Z 20
_cell_length_a 9.818741
_cell_length_b 7.178006
_cell_length_c 16.559629
_cell_angle_alpha 90.000000
_cell_angle_beta 123.082944
_cell_angle_gamma 90.000000
_cell_volume 977.896053
_symmetry_space_group_name_H-M "P 21/C"
_symmetry_group_IT_number 14
_symmetry_cell_setting 'monoclinic'
loop_
_space_group_symop_operation_xyz
x,y,z
-x,1/2+y,1/2-z
-x,-y,-z
x,1/2-y,1/2+z
loop_
_atom_site_type_symbol
_atom_site_label
_atom_site_fract_x
_atom_site_fract_y
_atom_site_fract_z
Si Si1 0.634080 0.456365 0.609521
Si Si2 0.923238 0.701044 0.960806
Si Si3 0.691843 0.363596 0.237675
Si Si4 0.623731 0.982047 0.285080
Si Si5 0.044869 0.489767 0.384522
O O1 0.500000 0.500000 0.500000
O O2 0.637091 0.240065 0.638265
O O3 0.600553 0.563300 0.682729
O O4 0.812136 0.501529 0.633630
O O5 0.744210 0.660074 0.867520
O O6 0.916841 0.826129 0.038987
O O7 0.026385 0.820414 0.929670
O O8 0.000000 0.500000 0.000000
O O9 0.547348 0.487975 0.225086
O O10 0.867851 0.452943 0.289192
O O11 0.701925 0.188495 0.303970
#
# Coordination Sequence:
#
# PCOD9247675 Si02
#       5
#     4   4   4   4   4
#     4  10  24  40  66  99 140 176 226 284 339 399
#     4  11  22  42  69  98 133 176 224 276 346 419
#     4  10  22  41  65  98 134 184 221 282 342 402
#     4  10  22  39  64  95 135 171 230 265 346 400
#     4  11  24  41  70  99 136 174 226 288 337 407
#
# _framework density 20.452074
#
# number of rings (size 3 to 8) (size 9 to 14) (size 15 to 20)
#    1.200    0.400    2.000    2.400    8.400    0.000 
#    0.000    0.000    0.000    6.000    0.000    0.000 
#    0.000    0.000    0.000    0.000    0.000    0.000 
#
# Total GULP energy -111621.341148 kJ/mol
# GULP energy per Si atom -5581.067057 kJ/mol
# Density = 2.040552 g / cm^3
# Si number density = 20.452074 Si / 1000 Ang^3
#
#
#
# Elastic Constant Matrix: (Units=GPa)
#
#
# Indices 1 2 3 4 5 6 
#
# 1 155.9210 26.2891 51.1653 0.0000 16.5490 0.0000
# 2 26.2891 92.0278 26.3417 0.0000 3.2647 0.0000
# 3 51.1653 26.3417 108.6501 0.0000 13.6798 0.0000
# 4 0.0000 0.0000 0.0000 30.8662 0.0000 8.5885
# 5 16.5490 3.2647 13.6798 0.0000 24.5179 0.0000
# 6 0.0000 0.0000 0.0000 8.5885 0.0000 24.9970
#
#
#
# Elastic Compliance Matrix: (Units=1/GPa)
#
#
# Indices 1 2 3 4 5 6 
#
# 1 0.007994 -0.001298 -0.003003 0.000000 -0.003547 0.000000
# 2 -0.001298 0.011887 -0.002347 0.000000 0.000603 0.000000
# 3 -0.003003 -0.002347 0.011716 0.000000 -0.004197 0.000000
# 4 0.000000 0.000000 0.000000 0.035823 0.000000 -0.012308
# 5 -0.003547 0.000603 -0.004197 0.000000 0.045443 0.000000
# 6 0.000000 0.000000 0.000000 -0.012308 0.000000 0.044234
#
#
# Mechanical properties :
#
#
# Convention : Reuss Voigt Hill
#
# Bulk Modulus (GPa) = 54.64135 62.68791 58.66463
# Shear Modulus (GPa) = 28.32979 32.92974 30.62977
#
# Velocity S-wave (km/s) = 3.72584 4.01695 3.87413
# Velocity P-wave (km/s) = 6.72933 7.22718 6.98270
#
# Compressibility (1/GPa) = 0.01830116
#
# Stress axis : x y z
#
# Youngs Moduli (GPa) = 125.08682 84.12242 85.35670
#
# Poissons Ratio (x) = 0.10921 0.25635
# Poissons Ratio (y) = 0.16239 0.20030
# Poissons Ratio (z) = 0.37568 0.19740
#
# Static dielectric constant tensor:
#      x y z
#    x 1.690960 0.000000 0.005010 
#    y 0.000000 1.755030 0.000000 
#    z 0.005010 0.000000 1.735100 
# 
# From -- ./inp_files/54136.got.cif
#   From: 2010.05.17/outbox.cif.g08.bks.cpg/sg14_28_cif.got.tgz:54136.got - 2010.06.03 17:49:19.
