data_PCOD9247252
_publ_section_title
;
Structure prediction by ZEFSAII (Michael W. Deem and Ramdas Pophale) SiO2 
 PCOD9247252
Probable space group: P 21/C
;
_chemical_formula_sum "Si O2"
_cell_formula_units_Z 16
_cell_length_a 5.988848
_cell_length_b 13.462646
_cell_length_c 8.814089
_cell_angle_alpha 90.000000
_cell_angle_beta 53.618551
_cell_angle_gamma 90.000000
_cell_volume 572.128212
_symmetry_space_group_name_H-M "P 21/C"
_symmetry_group_IT_number 14
_symmetry_cell_setting 'monoclinic'
loop_
_space_group_symop_operation_xyz
x,y,z
-x,1/2+y,1/2-z
-x,-y,-z
x,1/2-y,1/2+z
loop_
_atom_site_type_symbol
_atom_site_label
_atom_site_fract_x
_atom_site_fract_y
_atom_site_fract_z
Si Si1 0.782950 0.783712 0.831694
Si Si2 0.221775 0.737546 0.391614
Si Si3 0.722942 0.929009 0.475619
Si Si4 0.696212 0.453001 0.294473
O O1 0.485007 0.810615 0.871905
O O2 0.997803 0.767417 0.608759
O O3 0.016951 0.824355 0.859836
O O4 0.674752 0.686136 0.966505
O O5 0.336535 0.841657 0.266156
O O6 0.996597 0.945519 0.264956
O O7 0.500000 0.000000 0.500000
O O8 0.738710 0.969106 0.640174
O O9 0.500000 0.500000 0.500000
#
# Coordination Sequence:
#
# PCOD9247252 Si02
#       4
#     4   4   4   4
#     4  11  24  48  73 104 149 192 244 302 366 438
#     4  11  24  49  71 107 144 199 239 306 365 440
#     4  10  21  46  71 106 139 186 241 301 359 437
#     4  10  23  46  73 104 143 190 247 301 363 432
#
# _framework density 27.965758999999998
#
# number of rings (size 3 to 8) (size 9 to 14) (size 15 to 20)
#    0.000    1.500    2.500    1.500    0.000    1.000 
#   49.500    0.000    0.000    0.000    0.000    0.000 
#    0.000    0.000    0.000    0.000    0.000    0.000 
#
# Total GULP energy -89172.227939 kJ/mol
# GULP energy per Si atom -5573.264246 kJ/mol
# Density = 2.790211 g / cm^3
# Si number density = 27.965759 Si / 1000 Ang^3
#
#
#
# Elastic Constant Matrix: (Units=GPa)
#
#
# Indices 1 2 3 4 5 6 
#
# 1 220.7821 24.1163 55.7508 0.0000 -37.8376 0.0000
# 2 24.1163 169.5366 43.1869 0.0000 -13.9680 0.0000
# 3 55.7508 43.1869 170.5763 0.0000 -13.4991 0.0000
# 4 0.0000 0.0000 0.0000 54.4187 0.0000 3.0633
# 5 -37.8376 -13.9680 -13.4991 0.0000 57.6792 0.0000
# 6 0.0000 0.0000 0.0000 3.0633 0.0000 16.5044
#
#
#
# Elastic Compliance Matrix: (Units=1/GPa)
#
#
# Indices 1 2 3 4 5 6 
#
# 1 0.005472 -0.000132 -0.001501 0.000000 0.003207 0.000000
# 2 -0.000132 0.006387 -0.001486 0.000000 0.001113 0.000000
# 3 -0.001501 -0.001486 0.006748 0.000000 0.000234 0.000000
# 4 0.000000 0.000000 0.000000 0.018570 0.000000 -0.003447
# 5 0.003207 0.001113 0.000234 0.000000 0.019765 0.000000
# 6 0.000000 0.000000 0.000000 -0.003447 0.000000 0.061230
#
#
# Mechanical properties :
#
#
# Convention : Reuss Voigt Hill
#
# Bulk Modulus (GPa) = 80.84577 89.66701 85.25639
# Shear Modulus (GPa) = 38.90015 54.90988 46.90501
#
# Velocity S-wave (km/s) = 3.73365 4.43591 4.09984
# Velocity P-wave (km/s) = 6.89626 7.63997 7.27762
#
# Compressibility (1/GPa) = 0.01236923
#
# Stress axis : x y z
#
# Youngs Moduli (GPa) = 182.73386 156.55842 148.19171
#
# Poissons Ratio (x) = 0.02063 0.22251
# Poissons Ratio (y) = 0.02408 0.22022
# Poissons Ratio (z) = 0.27437 0.23266
#
# Static dielectric constant tensor:
#      x y z
#    x 2.039740 0.000000 0.055610 
#    y 0.000000 2.789250 0.000000 
#    z 0.055610 0.000000 2.280110 
# 
# From -- ./inp_files/5382.got.cif
#   From: 2010.05.17/outbox.cif.g08.bks.cpg/sg14_3_cif.got.tgz:5382.got - 2010.06.03 17:49:19.
