data_PCOD9247001
_publ_section_title
;
Structure prediction by ZEFSAII (Michael W. Deem and Ramdas Pophale) SiO2 
 PCOD9247001
Probable space group: P 21/C
;
_chemical_formula_sum "Si O2"
_cell_formula_units_Z 30
_cell_length_a 9.406074
_cell_length_b 26.723133
_cell_length_c 9.380078
_cell_angle_alpha 90.000000
_cell_angle_beta 143.080675
_cell_angle_gamma 90.000000
_cell_volume 1416.291188
_symmetry_space_group_name_H-M "P 21/C"
_symmetry_group_IT_number 14
_symmetry_cell_setting 'monoclinic'
loop_
_space_group_symop_operation_xyz
x,y,z
-x,1/2+y,1/2-z
-x,-y,-z
x,1/2-y,1/2+z
loop_
_atom_site_type_symbol
_atom_site_label
_atom_site_fract_x
_atom_site_fract_y
_atom_site_fract_z
Si Si1 0.170796 0.280765 0.793700
Si Si2 0.875547 0.254093 0.811333
Si Si3 0.858794 0.430088 0.163803
Si Si4 0.553150 0.330811 0.939633
Si Si5 0.686887 0.926868 0.155594
Si Si6 0.000000 0.000000 0.000000
Si Si7 0.497238 0.998822 0.236266
Si Si8 0.448925 0.319704 0.540518
O O1 0.078663 0.278743 0.879318
O O2 0.964018 0.280625 0.511164
O O3 0.364139 0.322583 0.913761
O O4 0.287501 0.226206 0.863216
O O5 0.724405 0.217351 0.588282
O O6 0.712359 0.298627 0.736174
O O7 0.708212 0.380449 0.064251
O O8 0.002309 0.445895 0.418546
O O9 0.038912 0.426527 0.174784
O O10 0.683970 0.477095 0.995987
O O11 0.410298 0.329602 0.676966
O O12 0.624688 0.953902 0.253368
O O13 0.597175 0.870291 0.079619
O O14 0.554783 0.958903 0.925985
O O15 0.252095 0.985087 0.116465
#
# Coordination Sequence:
#
# PCOD9247001 Si02
#       8
#     4   4   4   4   4   2   4   4
#     4  11  23  41  65  91 133 172 214 268 327 392
#     4  11  23  42  64  91 135 171 211 272 324 384
#     4  11  22  42  68  89 129 174 216 269 329 389
#     4  11  23  39  67  94 123 172 223 257 327 398
#     4  10  22  39  67  95 120 163 222 260 325 388
#     4  10  24  42  62  92 130 166 208 272 334 394
#     4  10  21  43  66  92 124 164 210 277 326 388
#     4  11  22  40  63  96 127 165 219 270 319 394
#
# _framework density 21.182082999999999
#
# number of rings (size 3 to 8) (size 9 to 14) (size 15 to 20)
#    0.000    1.333    4.000    1.600    0.000    0.000 
#    7.200    0.000    0.000    0.000    0.000    0.000 
#    0.000    0.000    0.000    0.000    0.000    0.000 
#
# Total GULP energy -167039.847950 kJ/mol
# GULP energy per Si atom -5567.994932 kJ/mol
# Density = 2.113387 g / cm^3
# Si number density = 21.182083 Si / 1000 Ang^3
#
#
#
# Elastic Constant Matrix: (Units=GPa)
#
#
# Indices 1 2 3 4 5 6 
#
# 1 103.7779 15.1235 -3.9342 0.0000 17.4730 0.0000
# 2 15.1235 53.7628 -0.9175 0.0000 3.9922 0.0000
# 3 -3.9342 -0.9175 11.2498 0.0000 1.3445 0.0000
# 4 0.0000 0.0000 0.0000 24.2476 0.0000 4.3837
# 5 17.4730 3.9922 1.3445 0.0000 28.6512 0.0000
# 6 0.0000 0.0000 0.0000 4.3837 0.0000 24.7409
#
#
#
# Elastic Compliance Matrix: (Units=1/GPa)
#
#
# Indices 1 2 3 4 5 6 
#
# 1 0.011326 -0.002607 0.004556 0.000000 -0.006758 0.000000
# 2 -0.002607 0.019433 0.000812 0.000000 -0.001156 0.000000
# 3 0.004556 0.000812 0.091408 0.000000 -0.007181 0.000000
# 4 0.000000 0.000000 0.000000 0.042606 0.000000 -0.007549
# 5 -0.006758 -0.001156 -0.007181 0.000000 0.039522 0.000000
# 6 0.000000 0.000000 0.000000 -0.007549 0.000000 0.041757
#
#
# Mechanical properties :
#
#
# Convention : Reuss Voigt Hill
#
# Bulk Modulus (GPa) = 7.83146 21.03711 14.43428
# Shear Modulus (GPa) = 17.66201 26.09586 21.87893
#
# Velocity S-wave (km/s) = 2.89072 3.51376 3.21736
# Velocity P-wave (km/s) = 3.85317 5.13957 4.54214
#
# Compressibility (1/GPa) = 0.12769017
#
# Stress axis : x y z
#
# Youngs Moduli (GPa) = 88.28951 51.45844 10.93992
#
# Poissons Ratio (x) = 0.13413 -0.04984
# Poissons Ratio (y) = 0.23013 -0.00888
# Poissons Ratio (z) = -0.40226 -0.04176
#
# Static dielectric constant tensor:
#      x y z
#    x 1.775270 0.000000 0.024510 
#    y 0.000000 1.719310 0.000000 
#    z 0.024510 0.000000 1.830610 
# 
# From -- ./inp_files/11205.got.cif
#   From: 2010.05.17/outbox.cif.g08.bks.cpg/sg14_6_cif.got.tgz:11205.got - 2010.06.03 17:49:19.
