data_PCOD9247280
_publ_section_title
;
Structure prediction by ZEFSAII (Michael W. Deem and Ramdas Pophale) SiO2 
 PCOD9247280
Probable space group: P 21/C
;
_chemical_formula_sum "Si O2"
_cell_formula_units_Z 22
_cell_length_a 21.516984
_cell_length_b 9.011409
_cell_length_c 14.341916
_cell_angle_alpha 90.000000
_cell_angle_beta 162.326199
_cell_angle_gamma 90.000000
_cell_volume 844.266086
_symmetry_space_group_name_H-M "P 21/C"
_symmetry_group_IT_number 14
_symmetry_cell_setting 'monoclinic'
loop_
_space_group_symop_operation_xyz
x,y,z
-x,1/2+y,1/2-z
-x,-y,-z
x,1/2-y,1/2+z
loop_
_atom_site_type_symbol
_atom_site_label
_atom_site_fract_x
_atom_site_fract_y
_atom_site_fract_z
Si Si1 0.738475 0.920084 0.207512
Si Si2 0.697089 0.231963 0.667449
Si Si3 0.883747 0.658866 0.516308
Si Si4 0.740920 0.902835 0.006933
Si Si5 0.000000 0.500000 0.500000
Si Si6 0.570819 0.189384 0.690731
O O1 0.871807 0.834137 0.475050
O O2 0.728789 0.093669 0.200097
O O3 0.817711 0.868858 0.219633
O O4 0.510729 0.847827 0.890699
O O5 0.463671 0.193011 0.303371
O O6 0.703310 0.204515 0.787820
O O7 0.849960 0.128226 0.829339
O O8 0.890927 0.629505 0.635777
O O9 0.020414 0.575478 0.636621
O O10 0.647652 0.615691 0.150452
O O11 0.672329 0.074844 0.905774
#
# Coordination Sequence:
#
# PCOD9247280 Si02
#       6
#     4   4   4   4   2   4
#     4  10  22  34  62  93 117 145 211 267 281 346
#     4  11  20  35  61  87 115 158 202 238 317 350
#     4   9  21  37  58  83 119 160 196 241 309 349
#     4  11  18  39  62  86 118 154 205 251 295 358
#     4  12  20  38  62  76 122 174 188 234 312 382
#     4   9  18  38  56  86 109 153 197 250 291 343
#
# _framework density 26.058136999999999
#
# number of rings (size 3 to 8) (size 9 to 14) (size 15 to 20)
#    1.091    0.727    3.636    2.727    0.000    0.727 
#    0.000    1.818    0.000    0.000    0.000    0.000 
#    0.000    0.000    0.000    0.000    0.000    0.000 
#
# Total GULP energy -122618.504855 kJ/mol
# GULP energy per Si atom -5573.568403 kJ/mol
# Density = 2.599883 g / cm^3
# Si number density = 26.058137 Si / 1000 Ang^3
#
#
#
# Elastic Constant Matrix: (Units=GPa)
#
#
# Indices 1 2 3 4 5 6 
#
# 1 200.2829 70.9014 21.7051 0.0000 39.1793 0.0000
# 2 70.9014 161.1599 53.4314 0.0000 19.6619 0.0000
# 3 21.7051 53.4314 87.4272 0.0000 16.1495 0.0000
# 4 0.0000 0.0000 0.0000 22.0493 0.0000 8.2654
# 5 39.1793 19.6619 16.1495 0.0000 33.4926 0.0000
# 6 0.0000 0.0000 0.0000 8.2654 0.0000 37.0709
#
#
#
# Elastic Compliance Matrix: (Units=1/GPa)
#
#
# Indices 1 2 3 4 5 6 
#
# 1 0.007288 -0.002694 0.001229 0.000000 -0.007536 0.000000
# 2 -0.002694 0.008973 -0.004857 0.000000 0.000226 0.000000
# 3 0.001229 -0.004857 0.015193 0.000000 -0.005913 0.000000
# 4 0.000000 0.000000 0.000000 0.049489 0.000000 -0.011034
# 5 -0.007536 0.000226 -0.005913 0.000000 0.041392 0.000000
# 6 0.000000 0.000000 0.000000 -0.011034 0.000000 0.029436
#
#
# Mechanical properties :
#
#
# Convention : Reuss Voigt Hill
#
# Bulk Modulus (GPa) = 53.16086 82.32730 67.74408
# Shear Modulus (GPa) = 29.29388 38.71138 34.00263
#
# Velocity S-wave (km/s) = 3.35651 3.85850 3.61623
# Velocity P-wave (km/s) = 5.95539 7.17725 6.59468
#
# Compressibility (1/GPa) = 0.01881083
#
# Stress axis : x y z
#
# Youngs Moduli (GPa) = 137.21622 111.44503 65.81840
#
# Poissons Ratio (x) = 0.30028 -0.08092
# Poissons Ratio (y) = 0.36971 0.31966
# Poissons Ratio (z) = -0.16871 0.54126
#
# Static dielectric constant tensor:
#      x y z
#    x 2.015030 0.000000 -0.001360 
#    y 0.000000 2.070280 0.000000 
#    z -0.001360 0.000000 2.109770 
# 
# From -- ./inp_files/48638.got.cif
#   From: 2010.05.17/outbox.cif.g08.bks.cpg/sg14_25_cif.got.tgz:48638.got - 2010.06.03 17:49:19.
