data_PCOD9247749
_publ_section_title
;
Structure prediction by ZEFSAII (Michael W. Deem and Ramdas Pophale) SiO2 
 PCOD9247749
Probable space group: P 21/C
;
_chemical_formula_sum "Si O2"
_cell_formula_units_Z 28
_cell_length_a 5.366270
_cell_length_b 16.325709
_cell_length_c 15.823020
_cell_angle_alpha 90.000000
_cell_angle_beta 58.962199
_cell_angle_gamma 90.000000
_cell_volume 1187.756053
_symmetry_space_group_name_H-M "P 21/C"
_symmetry_group_IT_number 14
_symmetry_cell_setting 'monoclinic'
loop_
_space_group_symop_operation_xyz
x,y,z
-x,1/2+y,1/2-z
-x,-y,-z
x,1/2-y,1/2+z
loop_
_atom_site_type_symbol
_atom_site_label
_atom_site_fract_x
_atom_site_fract_y
_atom_site_fract_z
Si Si1 0.813794 0.787581 0.187120
Si Si2 0.831422 0.209450 0.223927
Si Si3 0.419684 0.003999 0.918545
Si Si4 0.630008 0.438177 0.854546
Si Si5 0.605125 0.068434 0.727526
Si Si6 0.128656 0.062045 0.547758
Si Si7 0.946256 0.351914 0.523239
O O1 0.513289 0.734921 0.224695
O O2 0.676894 0.876337 0.228052
O O3 0.997865 0.764663 0.237755
O O4 0.013092 0.794459 0.066978
O O5 0.841938 0.122780 0.271537
O O6 0.974004 0.196531 0.106585
O O7 0.334876 0.910361 0.911862
O O8 0.657582 0.041438 0.814061
O O9 0.500000 0.000000 0.000000
O O10 0.172830 0.074607 0.963508
O O11 0.463734 0.485832 0.810122
O O12 0.762563 0.505494 0.894255
O O13 0.393948 0.393032 0.956151
O O14 0.866565 0.112575 0.633340
O O15 0.000000 0.000000 0.500000
#
# Coordination Sequence:
#
# PCOD9247749 Si02
#       7
#     4   4   4   4   4   4   4
#     4  11  30  47  69 107 148 189 237 296 372 433
#     4  12  28  49  73 104 149 196 237 300 369 441
#     4  10  22  39  80 103 137 177 244 312 354 426
#     4  10  22  42  71 102 134 188 243 290 347 430
#     4  10  22  43  71 104 137 189 237 300 357 423
#     4   9  21  39  67 102 135 173 241 290 343 414
#     4  10  25  47  67 110 138 191 243 301 364 438
#
# _framework density 23.573865000000001
#
# number of rings (size 3 to 8) (size 9 to 14) (size 15 to 20)
#    0.000    1.714    1.429    0.000   14.000    1.143 
#   10.286    0.000    0.000    0.000    0.000    0.000 
#    0.000    0.000    0.000    0.000    0.000    0.000 
#
# Total GULP energy -156112.431394 kJ/mol
# GULP energy per Si atom -5575.443978 kJ/mol
# Density = 2.352021 g / cm^3
# Si number density = 23.573865 Si / 1000 Ang^3
#
#
#
# Elastic Constant Matrix: (Units=GPa)
#
#
# Indices 1 2 3 4 5 6 
#
# 1 56.9068 14.1663 35.1340 0.0000 22.9139 0.0000
# 2 14.1663 54.8397 48.0157 0.0000 6.9702 0.0000
# 3 35.1340 48.0157 191.1289 0.0000 18.7179 0.0000
# 4 0.0000 0.0000 0.0000 30.5358 0.0000 10.6644
# 5 22.9139 6.9702 18.7179 0.0000 37.5237 0.0000
# 6 0.0000 0.0000 0.0000 10.6644 0.0000 27.3395
#
#
#
# Elastic Compliance Matrix: (Units=1/GPa)
#
#
# Indices 1 2 3 4 5 6 
#
# 1 0.025362 -0.002441 -0.002709 0.000000 -0.013683 0.000000
# 2 -0.002441 0.023691 -0.005486 0.000000 -0.000174 0.000000
# 3 -0.002709 -0.005486 0.007198 0.000000 -0.000917 0.000000
# 4 0.000000 0.000000 0.000000 0.037913 0.000000 -0.014789
# 5 -0.013683 -0.000174 -0.000917 0.000000 0.035495 0.000000
# 6 0.000000 0.000000 0.000000 -0.014789 0.000000 0.042346
#
#
# Mechanical properties :
#
#
# Convention : Reuss Voigt Hill
#
# Bulk Modulus (GPa) = 28.58786 55.27861 41.93323
# Shear Modulus (GPa) = 24.39779 32.78376 28.59078
#
# Velocity S-wave (km/s) = 3.22056 3.73323 3.48633
# Velocity P-wave (km/s) = 5.09731 6.48712 5.83375
#
# Compressibility (1/GPa) = 0.03497988
#
# Stress axis : x y z
#
# Youngs Moduli (GPa) = 39.42876 42.21043 138.92574
#
# Poissons Ratio (x) = 0.10302 0.37636
# Poissons Ratio (y) = 0.09623 0.76215
# Poissons Ratio (z) = 0.10681 0.23157
#
# Static dielectric constant tensor:
#      x y z
#    x 1.877840 0.000000 -0.084780 
#    y 0.000000 2.001790 0.000000 
#    z -0.084780 0.000000 1.934330 
# 
# From -- ./inp_files/37618.got.cif
#   From: 2010.05.17/outbox.cif.g08.bks.cpg/sg14_19_cif.got.tgz:37618.got - 2010.06.03 17:49:19.
