data_PCOD9247497
_publ_section_title
;
Structure prediction by ZEFSAII (Michael W. Deem and Ramdas Pophale) SiO2 
 PCOD9247497
Probable space group: P 21/C
;
_chemical_formula_sum "Si O2"
_cell_formula_units_Z 16
_cell_length_a 25.545706
_cell_length_b 5.094222
_cell_length_c 13.909267
_cell_angle_alpha 90.000000
_cell_angle_beta 163.276310
_cell_angle_gamma 90.000000
_cell_volume 520.865030
_symmetry_space_group_name_H-M "P 21/C"
_symmetry_group_IT_number 14
_symmetry_cell_setting 'monoclinic'
loop_
_space_group_symop_operation_xyz
x,y,z
-x,1/2+y,1/2-z
-x,-y,-z
x,1/2-y,1/2+z
loop_
_atom_site_type_symbol
_atom_site_label
_atom_site_fract_x
_atom_site_fract_y
_atom_site_fract_z
Si Si1 0.935791 0.428895 0.221123
Si Si2 0.294034 0.322989 0.732642
Si Si3 0.402719 0.224227 0.201035
Si Si4 0.811204 0.247568 0.196828
O O1 0.095309 0.399888 0.424710
O O2 0.025010 0.643870 0.451358
O O3 0.870362 0.229090 0.188570
O O4 0.750125 0.509019 0.838927
O O5 0.365157 0.306068 0.748494
O O6 0.425868 0.530548 0.015057
O O7 0.349323 0.527450 0.085021
O O8 0.251793 0.040491 0.883328
#
# Coordination Sequence:
#
# PCOD9247497 Si02
#       4
#     4   4   4   4
#     4  10  22  38  63  92 123 161 207 256 307 367
#     4  10  22  38  63  92 123 161 207 256 307 367
#     4  10  23  42  62  88 124 163 203 252 310 369
#     4  10  23  42  62  88 124 163 203 252 310 369
#
# _framework density 30.718132000000001
#
# number of rings (size 3 to 8) (size 9 to 14) (size 15 to 20)
#    0.000    2.000    0.000    1.500    0.000   24.000 
#    0.000    0.000    0.000    0.000    0.000    0.000 
#    0.000    0.000    0.000    0.000    0.000    0.000 
#
# Total GULP energy -89240.928827 kJ/mol
# GULP energy per Si atom -5577.558052 kJ/mol
# Density = 3.064822 g / cm^3
# Si number density = 30.718132 Si / 1000 Ang^3
#
#
#
# Elastic Constant Matrix: (Units=GPa)
#
#
# Indices 1 2 3 4 5 6 
#
# 1 218.7689 -9.6410 3.8365 0.0000 -15.9089 0.0000
# 2 -9.6410 136.0027 18.0241 0.0000 -6.8939 0.0000
# 3 3.8365 18.0241 85.8506 0.0000 8.4913 0.0000
# 4 0.0000 0.0000 0.0000 52.3507 0.0000 -0.2345
# 5 -15.9089 -6.8939 8.4913 0.0000 27.4442 0.0000
# 6 0.0000 0.0000 0.0000 -0.2345 0.0000 9.7277
#
#
#
# Elastic Compliance Matrix: (Units=1/GPa)
#
#
# Indices 1 2 3 4 5 6 
#
# 1 0.004838 0.000589 -0.000652 0.000000 0.003154 0.000000
# 2 0.000589 0.007800 -0.001951 0.000000 0.002905 0.000000
# 3 -0.000652 -0.001951 0.012557 0.000000 -0.004753 0.000000
# 4 0.000000 0.000000 0.000000 0.019104 0.000000 0.000461
# 5 0.003154 0.002905 -0.004753 0.000000 0.040466 0.000000
# 6 0.000000 0.000000 0.000000 0.000461 0.000000 0.102810
#
#
# Mechanical properties :
#
#
# Convention : Reuss Voigt Hill
#
# Bulk Modulus (GPa) = 47.24252 51.67349 49.45801
# Shear Modulus (GPa) = 25.16872 46.46469 35.81671
#
# Velocity S-wave (km/s) = 2.86552 3.89345 3.41835
# Velocity P-wave (km/s) = 5.13430 6.08854 5.63167
#
# Compressibility (1/GPa) = 0.02116737
#
# Stress axis : x y z
#
# Youngs Moduli (GPa) = 206.70573 128.19846 79.63644
#
# Poissons Ratio (x) = -0.07554 0.05191
# Poissons Ratio (y) = -0.12179 0.15539
# Poissons Ratio (z) = 0.13474 0.25015
#
# Static dielectric constant tensor:
#      x y z
#    x 2.401190 0.000000 -0.093300 
#    y 0.000000 2.979270 0.000000 
#    z -0.093300 0.000000 2.569010 
# 
# From -- ./inp_files/51689.got.cif
#   From: 2010.05.17/outbox.cif.g08.bks.cpg/sg14_26_cif.got.tgz:51689.got - 2010.06.03 17:49:19.
