data_PCOD9247599
_publ_section_title
;
Structure prediction by ZEFSAII (Michael W. Deem and Ramdas Pophale) SiO2 
 PCOD9247599
Probable space group: P 21/C
;
_chemical_formula_sum "Si O2"
_cell_formula_units_Z 24
_cell_length_a 7.473783
_cell_length_b 11.330449
_cell_length_c 14.130303
_cell_angle_alpha 90.000000
_cell_angle_beta 113.492687
_cell_angle_gamma 90.000000
_cell_volume 1097.389911
_symmetry_space_group_name_H-M "P 21/C"
_symmetry_group_IT_number 14
_symmetry_cell_setting 'monoclinic'
loop_
_space_group_symop_operation_xyz
x,y,z
-x,1/2+y,1/2-z
-x,-y,-z
x,1/2-y,1/2+z
loop_
_atom_site_type_symbol
_atom_site_label
_atom_site_fract_x
_atom_site_fract_y
_atom_site_fract_z
Si Si1 0.246219 0.823653 0.681975
Si Si2 0.556089 0.099024 0.939414
Si Si3 0.953601 0.003989 0.699722
Si Si4 0.412749 0.334400 0.897703
Si Si5 0.300520 0.714157 0.896222
Si Si6 0.898458 0.422348 0.397663
O O1 0.417729 0.852394 0.644694
O O2 0.323482 0.764230 0.795795
O O3 0.101843 0.721378 0.609325
O O4 0.133005 0.940833 0.687981
O O5 0.383192 0.191998 0.884422
O O6 0.666200 0.056438 0.869271
O O7 0.710790 0.178858 0.031934
O O8 0.500000 0.000000 0.000000
O O9 0.774458 0.911881 0.655943
O O10 0.880287 0.125988 0.638793
O O11 0.976680 0.030359 0.815173
O O12 0.509460 0.352292 0.021838
O O13 0.000000 0.500000 0.500000
#
# Coordination Sequence:
#
# PCOD9247599 Si02
#       6
#     4   4   4   4   4   4
#     4  10  22  41  60  93 130 160 206 265 317 368
#     4   9  20  37  63  85 122 162 200 265 320 355
#     4  11  22  39  67  90 123 172 208 255 327 379
#     4   9  22  40  60  92 123 158 215 253 315 381
#     4   9  21  41  61  92 130 156 212 273 302 388
#     4  10  22  39  60  92 127 160 216 260 301 394
#
# _framework density 21.870075
#
# number of rings (size 3 to 8) (size 9 to 14) (size 15 to 20)
#    1.000    1.333    0.000    1.500    4.667    0.667 
#    0.000    0.000    0.000    0.000    0.000    0.000 
#    0.000    0.000    0.000    0.000    0.000    0.000 
#
# Total GULP energy -133747.392295 kJ/mol
# GULP energy per Si atom -5572.808012 kJ/mol
# Density = 2.182030 g / cm^3
# Si number density = 21.870075 Si / 1000 Ang^3
#
#
#
# Elastic Constant Matrix: (Units=GPa)
#
#
# Indices 1 2 3 4 5 6 
#
# 1 64.3791 34.3802 13.7428 0.0000 -16.0187 0.0000
# 2 34.3802 77.7606 20.4753 0.0000 -12.4425 0.0000
# 3 13.7428 20.4753 73.5212 0.0000 -4.5109 0.0000
# 4 0.0000 0.0000 0.0000 31.4055 0.0000 -8.6345
# 5 -16.0187 -12.4425 -4.5109 0.0000 19.9234 0.0000
# 6 0.0000 0.0000 0.0000 -8.6345 0.0000 23.7392
#
#
#
# Elastic Compliance Matrix: (Units=1/GPa)
#
#
# Indices 1 2 3 4 5 6 
#
# 1 0.023376 -0.007798 -0.001362 0.000000 0.013616 0.000000
# 2 -0.007798 0.017824 -0.003253 0.000000 0.004126 0.000000
# 3 -0.001362 -0.003253 0.014776 0.000000 0.000218 0.000000
# 4 0.000000 0.000000 0.000000 0.035380 0.000000 0.012868
# 5 0.013616 0.004126 0.000218 0.000000 0.063766 0.000000
# 6 0.000000 0.000000 0.000000 0.012868 0.000000 0.046805
#
#
# Mechanical properties :
#
#
# Convention : Reuss Voigt Hill
#
# Bulk Modulus (GPa) = 32.10377 39.20640 35.65509
# Shear Modulus (GPa) = 21.08496 24.81781 22.95138
#
# Velocity S-wave (km/s) = 3.10837 3.37231 3.24302
# Velocity P-wave (km/s) = 5.25298 5.75580 5.51012
#
# Compressibility (1/GPa) = 0.03114899
#
# Stress axis : x y z
#
# Youngs Moduli (GPa) = 42.77900 56.10308 67.67907
#
# Poissons Ratio (x) = 0.43747 0.09221
# Poissons Ratio (y) = 0.33358 0.22018
# Poissons Ratio (z) = 0.05829 0.18252
#
# Static dielectric constant tensor:
#      x y z
#    x 1.790440 0.000000 0.029230 
#    y 0.000000 1.881050 0.000000 
#    z 0.029230 0.000000 1.837690 
# 
# From -- ./inp_files/39369.got.cif
#   From: 2010.05.17/outbox.cif.g08.bks.cpg/sg14_20_cif.got.tgz:39369.got - 2010.06.03 17:49:19.
