data_PCOD9247956
_publ_section_title
;
Structure prediction by ZEFSAII (Michael W. Deem and Ramdas Pophale) SiO2 
 PCOD9247956
Probable space group: P 21/C
;
_chemical_formula_sum "Si O2"
_cell_formula_units_Z 20
_cell_length_a 19.697884
_cell_length_b 10.422366
_cell_length_c 14.222118
_cell_angle_alpha 90.000000
_cell_angle_beta 17.769897
_cell_angle_gamma 90.000000
_cell_volume 891.102398
_symmetry_space_group_name_H-M "P 21/C"
_symmetry_group_IT_number 14
_symmetry_cell_setting 'monoclinic'
loop_
_space_group_symop_operation_xyz
x,y,z
-x,1/2+y,1/2-z
-x,-y,-z
x,1/2-y,1/2+z
loop_
_atom_site_type_symbol
_atom_site_label
_atom_site_fract_x
_atom_site_fract_y
_atom_site_fract_z
Si Si1 0.746486 0.854564 0.908930
Si Si2 0.181851 0.098960 0.980116
Si Si3 0.076291 0.730362 0.826615
Si Si4 0.309575 0.593869 0.174399
Si Si5 0.522709 0.587944 0.199292
O O1 0.890913 0.853290 0.624572
O O2 0.872347 0.897876 0.838074
O O3 0.670909 0.708905 0.032863
O O4 0.535681 0.951461 0.173535
O O5 0.442205 0.144530 0.632168
O O6 0.184201 0.956300 0.931678
O O7 0.028824 0.185180 0.116871
O O8 0.174023 0.816250 0.783748
O O9 0.279947 0.650693 0.516756
O O10 0.363318 0.463406 0.045548
#
# Coordination Sequence:
#
# PCOD9247956 Si02
#       5
#     4   4   4   4   4
#     4  11  25  43  69 101 136 177 229 277 336 403
#     4  10  22  40  68 104 126 181 228 267 336 409
#     4  12  23  44  72  98 136 180 224 283 338 387
#     4  10  22  43  72  96 136 181 226 274 335 414
#     4  11  22  46  65  98 141 170 223 286 326 394
#
# _framework density 22.444109000000001
#
# number of rings (size 3 to 8) (size 9 to 14) (size 15 to 20)
#    0.000    1.200    6.000    1.200    0.000    4.800 
#    0.000    1.000    0.000    0.000    0.000    0.000 
#    0.000    0.000    0.000    0.000    0.000    0.000 
#
# Total GULP energy -111539.384523 kJ/mol
# GULP energy per Si atom -5576.969226 kJ/mol
# Density = 2.239303 g / cm^3
# Si number density = 22.444109 Si / 1000 Ang^3
#
#
#
# Elastic Constant Matrix: (Units=GPa)
#
#
# Indices 1 2 3 4 5 6 
#
# 1 66.6305 30.6288 -5.1753 0.0000 -9.1900 0.0000
# 2 30.6288 82.2833 15.0620 0.0000 -4.9250 0.0000
# 3 -5.1753 15.0620 38.3409 0.0000 0.0456 0.0000
# 4 0.0000 0.0000 0.0000 29.8895 0.0000 -11.4498
# 5 -9.1900 -4.9250 0.0456 0.0000 27.6635 0.0000
# 6 0.0000 0.0000 0.0000 -11.4498 0.0000 28.1287
#
#
#
# Elastic Compliance Matrix: (Units=1/GPa)
#
#
# Indices 1 2 3 4 5 6 
#
# 1 0.019946 -0.008197 0.005906 0.000000 0.005157 0.000000
# 2 -0.008197 0.016617 -0.007635 0.000000 0.000248 0.000000
# 3 0.005906 -0.007635 0.029878 0.000000 0.000554 0.000000
# 4 0.000000 0.000000 0.000000 0.039637 0.000000 0.016134
# 5 0.005157 0.000248 0.000554 0.000000 0.037905 0.000000
# 6 0.000000 0.000000 0.000000 0.016134 0.000000 0.042118
#
#
# Mechanical properties :
#
#
# Convention : Reuss Voigt Hill
#
# Bulk Modulus (GPa) = 21.46381 29.80951 25.63666
# Shear Modulus (GPa) = 22.57518 26.91894 24.74706
#
# Velocity S-wave (km/s) = 3.17494 3.46696 3.32416
# Velocity P-wave (km/s) = 4.79836 5.41636 5.11670
#
# Compressibility (1/GPa) = 0.04659005
#
# Stress axis : x y z
#
# Youngs Moduli (GPa) = 50.13453 60.18008 33.46988
#
# Poissons Ratio (x) = 0.49331 -0.19769
# Poissons Ratio (y) = 0.41097 0.25553
# Poissons Ratio (z) = -0.29612 0.45945
#
# Static dielectric constant tensor:
#      x y z
#    x 1.841790 0.000000 -0.007210 
#    y 0.000000 1.912310 0.000000 
#    z -0.007210 0.000000 1.857590 
# 
# From -- ./inp_files/44229.got.cif
#   From: 2010.05.17/outbox.cif.g08.bks.cpg/sg14_23_cif.got.tgz:44229.got - 2010.06.03 17:49:19.
