data_PCOD9247835
_publ_section_title
;
Structure prediction by ZEFSAII (Michael W. Deem and Ramdas Pophale) SiO2 
 PCOD9247835
Probable space group: P 21/C
;
_chemical_formula_sum "Si O2"
_cell_formula_units_Z 24
_cell_length_a 14.787684
_cell_length_b 8.689049
_cell_length_c 9.254166
_cell_angle_alpha 90.000000
_cell_angle_beta 99.699302
_cell_angle_gamma 90.000000
_cell_volume 1172.078994
_symmetry_space_group_name_H-M "P 21/C"
_symmetry_group_IT_number 14
_symmetry_cell_setting 'monoclinic'
loop_
_space_group_symop_operation_xyz
x,y,z
-x,1/2+y,1/2-z
-x,-y,-z
x,1/2-y,1/2+z
loop_
_atom_site_type_symbol
_atom_site_label
_atom_site_fract_x
_atom_site_fract_y
_atom_site_fract_z
Si Si1 0.422428 0.137446 0.317692
Si Si2 0.251406 0.413466 0.591978
Si Si3 0.029462 0.574838 0.156443
Si Si4 0.605574 0.950618 0.357531
Si Si5 0.925996 0.431455 0.370025
Si Si6 0.779861 0.593456 0.752764
O O1 0.348763 0.052918 0.193562
O O2 0.419077 0.311106 0.257933
O O3 0.393445 0.111774 0.477009
O O4 0.524836 0.073759 0.328782
O O5 0.176322 0.543851 0.602039
O O6 0.216750 0.256787 0.662273
O O7 0.254781 0.388166 0.421076
O O8 0.050091 0.754943 0.153495
O O9 0.121807 0.487148 0.229202
O O10 0.944575 0.535898 0.236167
O O11 0.000000 0.500000 0.000000
O O12 0.705432 0.001769 0.327574
O O13 0.000000 0.500000 0.500000
#
# Coordination Sequence:
#
# PCOD9247835 Si02
#       6
#     4   4   4   4   4   4
#     4  10  22  40  63  94 125 169 207 263 314 379
#     4  11  23  40  66  91 128 164 215 262 320 382
#     4  12  27  42  68  93 130 171 211 269 317 380
#     4  10  22  40  63  93 128 163 215 256 320 376
#     4  12  25  46  62  97 128 167 219 260 322 380
#     4  11  23  41  64  95 123 168 211 264 321 379
#
# _framework density 20.476436
#
# number of rings (size 3 to 8) (size 9 to 14) (size 15 to 20)
#    0.000    1.000    1.667    7.000    4.667    4.000 
#    0.000    3.333    0.000    0.000    0.000    0.000 
#    0.000    0.000    0.000    0.000    0.000    0.000 
#
# Total GULP energy -134074.768721 kJ/mol
# GULP energy per Si atom -5586.448697 kJ/mol
# Density = 2.042983 g / cm^3
# Si number density = 20.476436 Si / 1000 Ang^3
#
#
#
# Elastic Constant Matrix: (Units=GPa)
#
#
# Indices 1 2 3 4 5 6 
#
# 1 81.8690 5.3893 13.5736 0.0000 -9.6298 0.0000
# 2 5.3893 60.4082 8.0071 0.0000 -2.1695 0.0000
# 3 13.5736 8.0071 123.1872 0.0000 -13.9429 0.0000
# 4 0.0000 0.0000 0.0000 21.7902 0.0000 1.4249
# 5 -9.6298 -2.1695 -13.9429 0.0000 39.4698 0.0000
# 6 0.0000 0.0000 0.0000 1.4249 0.0000 42.6796
#
#
#
# Elastic Compliance Matrix: (Units=1/GPa)
#
#
# Indices 1 2 3 4 5 6 
#
# 1 0.012764 -0.000904 -0.001043 0.000000 0.002696 0.000000
# 2 -0.000904 0.016774 -0.000949 0.000000 0.000366 0.000000
# 3 -0.001043 -0.000949 0.008604 0.000000 0.002733 0.000000
# 4 0.000000 0.000000 0.000000 0.045993 0.000000 -0.001536
# 5 0.002696 0.000366 0.002733 0.000000 0.026979 0.000000
# 6 0.000000 0.000000 0.000000 -0.001536 0.000000 0.023482
#
#
# Mechanical properties :
#
#
# Convention : Reuss Voigt Hill
#
# Bulk Modulus (GPa) = 30.91157 35.48937 33.20047
# Shear Modulus (GPa) = 33.07553 36.68755 34.88154
#
# Velocity S-wave (km/s) = 4.02344 4.23744 4.13182
# Velocity P-wave (km/s) = 6.05912 6.42733 6.24594
#
# Compressibility (1/GPa) = 0.03235035
#
# Stress axis : x y z
#
# Youngs Moduli (GPa) = 78.34468 59.61737 116.23040
#
# Poissons Ratio (x) = 0.05388 0.12117
# Poissons Ratio (y) = 0.07080 0.11033
# Poissons Ratio (z) = 0.08168 0.05659
#
# Static dielectric constant tensor:
#      x y z
#    x 1.698270 0.000000 0.032000 
#    y 0.000000 1.711610 0.000000 
#    z 0.032000 0.000000 1.689390 
# 
# From -- ./inp_files/15144.got.cif
#   From: 2010.05.17/outbox.cif.g08.bks.cpg/sg14_8_cif.got.tgz:15144.got - 2010.06.03 17:49:19.
