data_PCOD9247739
_publ_section_title
;
Structure prediction by ZEFSAII (Michael W. Deem and Ramdas Pophale) SiO2 
 PCOD9247739
Probable space group: P 21/C
;
_chemical_formula_sum "Si O2"
_cell_formula_units_Z 28
_cell_length_a 14.016961
_cell_length_b 14.834470
_cell_length_c 9.098410
_cell_angle_alpha 90.000000
_cell_angle_beta 43.651963
_cell_angle_gamma 90.000000
_cell_volume 1305.912851
_symmetry_space_group_name_H-M "P 21/C"
_symmetry_group_IT_number 14
_symmetry_cell_setting 'monoclinic'
loop_
_space_group_symop_operation_xyz
x,y,z
-x,1/2+y,1/2-z
-x,-y,-z
x,1/2-y,1/2+z
loop_
_atom_site_type_symbol
_atom_site_label
_atom_site_fract_x
_atom_site_fract_y
_atom_site_fract_z
Si Si1 0.635864 0.022968 0.944191
Si Si2 0.773171 0.211257 0.102728
Si Si3 0.549313 0.535390 0.101215
Si Si4 0.192584 0.352740 0.771633
Si Si5 0.114475 0.645003 0.819057
Si Si6 0.597483 0.332682 0.078965
Si Si7 0.320060 0.211557 0.436231
O O1 0.759476 0.086842 0.754250
O O2 0.712718 0.931435 0.897791
O O3 0.575942 0.067881 0.156971
O O4 0.500000 0.000000 0.000000
O O5 0.874292 0.260669 0.105578
O O6 0.656908 0.174489 0.346203
O O7 0.856604 0.152433 0.888764
O O8 0.697437 0.281720 0.079736
O O9 0.647315 0.622200 0.002100
O O10 0.500000 0.500000 0.000000
O O11 0.597275 0.439236 0.115830
O O12 0.204984 0.270343 0.646095
O O13 0.265614 0.323208 0.841384
O O14 0.039541 0.387167 0.976104
O O15 0.452810 0.277447 0.258588
#
# Coordination Sequence:
#
# PCOD9247739 Si02
#       7
#     4   4   4   4   4   4   4
#     4  12  24  44  68 101 129 177 232 283 332 401
#     4  10  22  39  69  92 130 173 224 275 338 398
#     4  12  23  39  65 101 136 168 222 291 336 386
#     4  12  26  44  66  96 140 178 219 280 343 419
#     4  11  24  44  66  97 137 179 222 270 349 410
#     4  11  21  40  65 101 128 168 226 289 328 391
#     4  12  25  41  68 101 137 178 229 280 350 401
#
# _framework density 21.440940999999999
#
# number of rings (size 3 to 8) (size 9 to 14) (size 15 to 20)
#    0.000    0.571    2.857    7.286    0.000    0.000 
#    0.000    0.000    0.000    3.429    0.000    0.000 
#    0.000    0.000    0.000    0.000    0.000    0.000 
#
# Total GULP energy -156183.320097 kJ/mol
# GULP energy per Si atom -5577.975718 kJ/mol
# Density = 2.139214 g / cm^3
# Si number density = 21.440941 Si / 1000 Ang^3
#
#
#
# Elastic Constant Matrix: (Units=GPa)
#
#
# Indices 1 2 3 4 5 6 
#
# 1 22.5742 -9.0389 26.1502 0.0000 4.9169 0.0000
# 2 -9.0389 88.8027 23.6132 0.0000 -9.8098 0.0000
# 3 26.1502 23.6132 98.1303 0.0000 -7.9703 0.0000
# 4 0.0000 0.0000 0.0000 32.0257 0.0000 2.4712
# 5 4.9169 -9.8098 -7.9703 0.0000 44.0050 0.0000
# 6 0.0000 0.0000 0.0000 2.4712 0.0000 27.8818
#
#
#
# Elastic Compliance Matrix: (Units=1/GPa)
#
#
# Indices 1 2 3 4 5 6 
#
# 1 0.083018 0.014279 -0.026443 0.000000 -0.010882 0.000000
# 2 0.014279 0.014698 -0.007313 0.000000 0.000357 0.000000
# 3 -0.026443 -0.007313 0.019390 0.000000 0.004836 0.000000
# 4 0.000000 0.000000 0.000000 0.031440 0.000000 -0.002787
# 5 -0.010882 0.000357 0.004836 0.000000 0.024896 0.000000
# 6 0.000000 0.000000 0.000000 -0.002787 0.000000 0.036113
#
#
# Mechanical properties :
#
#
# Convention : Reuss Voigt Hill
#
# Bulk Modulus (GPa) = 12.79553 32.32849 22.56201
# Shear Modulus (GPa) = 18.21104 32.03469 25.12286
#
# Velocity S-wave (km/s) = 2.91754 3.86954 3.42676
# Velocity P-wave (km/s) = 4.16295 5.92242 5.11885
#
# Compressibility (1/GPa) = 0.07815230
#
# Stress axis : x y z
#
# Youngs Moduli (GPa) = 12.04562 68.03497 51.57372
#
# Poissons Ratio (x) = -0.97149 1.36376
# Poissons Ratio (y) = -0.17200 0.37716
# Poissons Ratio (z) = 0.31852 0.49755
#
# Static dielectric constant tensor:
#      x y z
#    x 1.773970 0.000000 0.039460 
#    y 0.000000 1.846330 0.000000 
#    z 0.039460 0.000000 1.790030 
# 
# From -- ./inp_files/16398.got.cif
#   From: 2010.05.17/outbox.cif.g08.bks.cpg/sg14_9_cif.got.tgz:16398.got - 2010.06.03 17:49:19.
