data_PCOD9247322
_publ_section_title
;
Structure prediction by ZEFSAII (Michael W. Deem and Ramdas Pophale) SiO2 
 PCOD9247322
Probable space group: P 21/C
;
_chemical_formula_sum "Si O2"
_cell_formula_units_Z 28
_cell_length_a 10.048978
_cell_length_b 8.950686
_cell_length_c 13.727109
_cell_angle_alpha 90.000000
_cell_angle_beta 106.957033
_cell_angle_gamma 90.000000
_cell_volume 1181.008581
_symmetry_space_group_name_H-M "P 21/C"
_symmetry_group_IT_number 14
_symmetry_cell_setting 'monoclinic'
loop_
_space_group_symop_operation_xyz
x,y,z
-x,1/2+y,1/2-z
-x,-y,-z
x,1/2-y,1/2+z
loop_
_atom_site_type_symbol
_atom_site_label
_atom_site_fract_x
_atom_site_fract_y
_atom_site_fract_z
Si Si1 0.193210 0.314177 0.792122
Si Si2 0.816938 0.377766 0.911255
Si Si3 0.973275 0.838062 0.385302
Si Si4 0.703846 0.380438 0.249597
Si Si5 0.568025 0.305596 0.565770
Si Si6 0.459533 0.113123 0.841745
Si Si7 0.271336 0.173756 0.533962
O O1 0.055828 0.227439 0.726766
O O2 0.201159 0.476673 0.746063
O O3 0.330620 0.219352 0.788963
O O4 0.215013 0.328632 0.912007
O O5 0.932496 0.486235 0.884039
O O6 0.767071 0.252207 0.827802
O O7 0.292957 0.495586 0.077923
O O8 0.887938 0.314384 0.024186
O O9 0.851016 0.763407 0.424726
O O10 0.663736 0.316721 0.135494
O O11 0.560124 0.422892 0.273978
O O12 0.602312 0.465375 0.620472
O O13 0.556499 0.314686 0.447166
O O14 0.410717 0.267562 0.564962
#
# Coordination Sequence:
#
# PCOD9247322 Si02
#       7
#     4   4   4   4   4   4   4
#     4  11  23  36  64  92 117 155 212 234 304 347
#     4   9  22  40  61  80 122 156 199 235 315 335
#     4   9  19  43  62  80 116 165 189 257 294 355
#     4  12  23  34  59  91 117 161 189 251 287 365
#     4  10  22  36  59  86 119 157 199 228 306 352
#     4  10  22  38  55  87 124 156 189 250 288 362
#     4   9  20  40  62  87 118 156 199 255 282 364
#
# _framework density 23.708549000000001
#
# number of rings (size 3 to 8) (size 9 to 14) (size 15 to 20)
#    0.857    1.143    0.000    3.429    6.000    1.714 
#    2.571    0.000    3.143    0.000    0.000    0.000 
#    0.000    0.000    0.000    0.000    0.000    0.000 
#
# Total GULP energy -156561.075584 kJ/mol
# GULP energy per Si atom -5591.466985 kJ/mol
# Density = 2.365459 g / cm^3
# Si number density = 23.708549 Si / 1000 Ang^3
#
#
#
# Elastic Constant Matrix: (Units=GPa)
#
#
# Indices 1 2 3 4 5 6 
#
# 1 42.6158 1.5399 11.3704 0.0000 -5.0963 0.0000
# 2 1.5399 60.9135 31.1755 0.0000 6.3846 0.0000
# 3 11.3704 31.1755 111.8794 0.0000 10.0377 0.0000
# 4 0.0000 0.0000 0.0000 44.8004 0.0000 8.4760
# 5 -5.0963 6.3846 10.0377 0.0000 29.1350 0.0000
# 6 0.0000 0.0000 0.0000 8.4760 0.0000 27.3582
#
#
#
# Elastic Compliance Matrix: (Units=1/GPa)
#
#
# Indices 1 2 3 4 5 6 
#
# 1 0.024924 0.000410 -0.003127 0.000000 0.005347 0.000000
# 2 0.000410 0.019323 -0.005214 0.000000 -0.002366 0.000000
# 3 -0.003127 -0.005214 0.010995 0.000000 -0.003193 0.000000
# 4 0.000000 0.000000 0.000000 0.023711 0.000000 -0.007346
# 5 0.005347 -0.002366 -0.003193 0.000000 0.036877 0.000000
# 6 0.000000 0.000000 0.000000 -0.007346 0.000000 0.038828
#
#
# Mechanical properties :
#
#
# Convention : Reuss Voigt Hill
#
# Bulk Modulus (GPa) = 25.39314 33.73116 29.56215
# Shear Modulus (GPa) = 27.22613 31.68025 29.45319
#
# Velocity S-wave (km/s) = 3.39243 3.65942 3.52845
# Velocity P-wave (km/s) = 5.10672 5.66688 5.39407
#
# Compressibility (1/GPa) = 0.03938072
#
# Stress axis : x y z
#
# Youngs Moduli (GPa) = 40.12122 51.75243 90.94835
#
# Poissons Ratio (x) = -0.02121 0.28440
# Poissons Ratio (y) = -0.01645 0.47418
# Poissons Ratio (z) = 0.12546 0.26982
#
# Static dielectric constant tensor:
#      x y z
#    x 1.919030 0.000000 -0.021130 
#    y 0.000000 1.885430 0.000000 
#    z -0.021130 0.000000 1.899400 
# 
# From -- ./inp_files/43810.got.cif
#   From: 2010.05.17/outbox.cif.g08.bks.cpg/sg14_22_cif.got.tgz:43810.got - 2010.06.03 17:49:19.
