data_PCOD9247278
_publ_section_title
;
Structure prediction by ZEFSAII (Michael W. Deem and Ramdas Pophale) SiO2 
 PCOD9247278
Probable space group: P 21/C
;
_chemical_formula_sum "Si O2"
_cell_formula_units_Z 30
_cell_length_a 10.536485
_cell_length_b 4.949937
_cell_length_c 30.991257
_cell_angle_alpha 90.000000
_cell_angle_beta 64.439481
_cell_angle_gamma 90.000000
_cell_volume 1458.155251
_symmetry_space_group_name_H-M "P 21/C"
_symmetry_group_IT_number 14
_symmetry_cell_setting 'monoclinic'
loop_
_space_group_symop_operation_xyz
x,y,z
-x,1/2+y,1/2-z
-x,-y,-z
x,1/2-y,1/2+z
loop_
_atom_site_type_symbol
_atom_site_label
_atom_site_fract_x
_atom_site_fract_y
_atom_site_fract_z
Si Si1 0.917617 0.678207 0.392727
Si Si2 0.670474 0.734207 0.872090
Si Si3 0.000000 0.000000 0.500000
Si Si4 0.560664 0.652182 0.795253
Si Si5 0.912246 0.663602 0.107196
Si Si6 0.441137 0.730867 0.561562
Si Si7 0.624607 0.649557 0.689247
Si Si8 0.723400 0.501180 0.989215
O O1 0.828888 0.693056 0.362247
O O2 0.812708 0.798279 0.444784
O O3 0.971093 0.382331 0.395811
O O4 0.048468 0.882027 0.375690
O O5 0.642219 0.740030 0.825787
O O6 0.632014 0.437475 0.894638
O O7 0.574958 0.938787 0.914715
O O8 0.074653 0.118708 0.445628
O O9 0.157342 0.898556 0.495802
O O10 0.642316 0.686916 0.738180
O O11 0.502478 0.347953 0.805954
O O12 0.424829 0.845835 0.811755
O O13 0.762330 0.771393 0.143371
O O14 0.599281 0.829376 0.529874
O O15 0.354995 0.779793 0.529478
#
# Coordination Sequence:
#
# PCOD9247278 Si02
#       8
#     4   4   2   4   4   4   4   4
#     4  10  22  40  57  82 123 157 193 242 302 344
#     4  11  21  37  62  88 112 153 201 253 288 359
#     4  10  22  34  58  84 118 156 206 232 288 356
#     4  10  22  39  65  90 118 147 203 251 303 350
#     4  11  23  40  59  84 122 162 194 242 298 365
#     4  10  22  37  59  83 122 157 204 248 306 341
#     4  10  22  42  61  89 121 156 188 255 308 350
#     4   9  21  38  54  85 120 164 199 252 291 358
#
# _framework density 20.573938999999999
#
# number of rings (size 3 to 8) (size 9 to 14) (size 15 to 20)
#    0.000    1.867    0.000    4.000    3.733    9.067 
#    0.000    1.333    0.000    0.000    0.000    0.000 
#    0.000    0.000    0.000    0.000    0.000    0.000 
#
# Total GULP energy -167115.190494 kJ/mol
# GULP energy per Si atom -5570.506350 kJ/mol
# Density = 2.052711 g / cm^3
# Si number density = 20.573939 Si / 1000 Ang^3
#
#
#
# Elastic Constant Matrix: (Units=GPa)
#
#
# Indices 1 2 3 4 5 6 
#
# 1 60.5953 -9.0000 30.0278 0.0000 9.0277 0.0000
# 2 -9.0000 49.0459 -3.6696 0.0000 9.7447 0.0000
# 3 30.0278 -3.6696 64.9597 0.0000 7.1976 0.0000
# 4 0.0000 0.0000 0.0000 18.1252 0.0000 -5.4897
# 5 9.0277 9.7447 7.1976 0.0000 35.8988 0.0000
# 6 0.0000 0.0000 0.0000 -5.4897 0.0000 15.1434
#
#
#
# Elastic Compliance Matrix: (Units=1/GPa)
#
#
# Indices 1 2 3 4 5 6 
#
# 1 0.022705 0.004428 -0.009695 0.000000 -0.004968 0.000000
# 2 0.004428 0.022649 0.000038 0.000000 -0.007269 0.000000
# 3 -0.009695 0.000038 0.020054 0.000000 -0.001593 0.000000
# 4 0.000000 0.000000 0.000000 0.061977 0.000000 0.022467
# 5 -0.004968 -0.007269 -0.001593 0.000000 0.031398 0.000000
# 6 0.000000 0.000000 0.000000 0.022467 0.000000 0.074180
#
#
# Mechanical properties :
#
#
# Convention : Reuss Voigt Hill
#
# Bulk Modulus (GPa) = 18.19820 23.25748 20.72784
# Shear Modulus (GPa) = 19.10311 24.31632 21.70971
#
# Velocity S-wave (km/s) = 3.05045 3.44161 3.25192
# Velocity P-wave (km/s) = 4.61210 5.20785 4.91901
#
# Compressibility (1/GPa) = 0.05495049
#
# Stress axis : x y z
#
# Youngs Moduli (GPa) = 44.04307 44.15260 49.86461
#
# Poissons Ratio (x) = -0.19551 0.48343
# Poissons Ratio (y) = -0.19503 -0.00189
# Poissons Ratio (z) = 0.42699 -0.00167
#
# Static dielectric constant tensor:
#      x y z
#    x 1.761380 0.000000 0.013810 
#    y 0.000000 1.740570 0.000000 
#    z 0.013810 0.000000 1.711430 
# 
# From -- ./inp_files/79107.got.cif
#   From: 2010.05.17/outbox.cif.g08.bks.cpg/sg14_40_cif.got.tgz:79107.got - 2010.06.03 17:49:19.
