data_PCOD9247090
_publ_section_title
;
Structure prediction by ZEFSAII (Michael W. Deem and Ramdas Pophale) SiO2 
 PCOD9247090
Probable space group: P 21/C
;
_chemical_formula_sum "Si O2"
_cell_formula_units_Z 28
_cell_length_a 14.845298
_cell_length_b 5.168205
_cell_length_c 15.068660
_cell_angle_alpha 90.000000
_cell_angle_beta 78.752841
_cell_angle_gamma 90.000000
_cell_volume 1133.917630
_symmetry_space_group_name_H-M "P 21/C"
_symmetry_group_IT_number 14
_symmetry_cell_setting 'monoclinic'
loop_
_space_group_symop_operation_xyz
x,y,z
-x,1/2+y,1/2-z
-x,-y,-z
x,1/2-y,1/2+z
loop_
_atom_site_type_symbol
_atom_site_label
_atom_site_fract_x
_atom_site_fract_y
_atom_site_fract_z
Si Si1 0.996405 0.191398 0.190094
Si Si2 0.808619 0.431052 0.181797
Si Si3 0.561580 0.794391 0.227325
Si Si4 0.311520 0.893604 0.694068
Si Si5 0.193295 0.256503 0.630921
Si Si6 0.305483 0.127099 0.447539
Si Si7 0.565843 0.251242 0.482184
O O1 0.904111 0.278726 0.158436
O O2 0.909884 0.712404 0.383939
O O3 0.989497 0.906459 0.234211
O O4 0.721785 0.241510 0.211082
O O5 0.807733 0.582417 0.276639
O O6 0.781761 0.591071 0.100582
O O7 0.500973 0.546792 0.258347
O O8 0.616664 0.763065 0.125890
O O9 0.636068 0.845365 0.289688
O O10 0.381969 0.737376 0.621652
O O11 0.219701 0.966857 0.658131
O O12 0.269976 0.287676 0.539873
O O13 0.351917 0.853944 0.469134
O O14 0.500000 0.500000 0.500000
O O15 0.500000 0.000000 0.500000
#
# Coordination Sequence:
#
# PCOD9247090 Si02
#       7
#     4   4   4   4   4   4   4
#     4  10  21  43  75 106 148 197 238 301 380 445
#     4  11  23  45  75 105 152 190 250 305 375 454
#     4  12  27  48  70 106 147 194 257 309 376 442
#     4  11  24  44  69  97 142 192 243 306 365 445
#     4  10  23  47  69 109 147 191 246 304 372 450
#     4  11  26  46  77 110 145 203 247 313 374 446
#     4  11  28  47  68 104 142 191 248 308 375 435
#
# _framework density 24.693151
#
# number of rings (size 3 to 8) (size 9 to 14) (size 15 to 20)
#    0.000    1.143    2.857    1.714    4.000    7.429 
#    5.143    0.714    0.000    5.143    0.000    0.000 
#    0.000    0.000    0.000    0.000    0.000    0.000 
#
# Total GULP energy -156557.235215 kJ/mol
# GULP energy per Si atom -5591.329829 kJ/mol
# Density = 2.463695 g / cm^3
# Si number density = 24.693151 Si / 1000 Ang^3
#
#
#
# Elastic Constant Matrix: (Units=GPa)
#
#
# Indices 1 2 3 4 5 6 
#
# 1 128.8246 35.3542 44.4185 0.0000 -8.7553 0.0000
# 2 35.3542 121.1821 26.7418 0.0000 -13.1625 0.0000
# 3 44.4185 26.7418 107.2730 0.0000 -4.6258 0.0000
# 4 0.0000 0.0000 0.0000 30.7360 0.0000 2.7697
# 5 -8.7553 -13.1625 -4.6258 0.0000 44.2479 0.0000
# 6 0.0000 0.0000 0.0000 2.7697 0.0000 35.5443
#
#
#
# Elastic Compliance Matrix: (Units=1/GPa)
#
#
# Indices 1 2 3 4 5 6 
#
# 1 0.009537 -0.001922 -0.003429 0.000000 0.000957 0.000000
# 2 -0.001922 0.009377 -0.001444 0.000000 0.002258 0.000000
# 3 -0.003429 -0.001444 0.011104 0.000000 0.000053 0.000000
# 4 0.000000 0.000000 0.000000 0.032765 0.000000 -0.002553
# 5 0.000957 0.002258 0.000053 0.000000 0.023467 0.000000
# 6 0.000000 0.000000 0.000000 -0.002553 0.000000 0.028333
#
#
# Mechanical properties :
#
#
# Convention : Reuss Voigt Hill
#
# Bulk Modulus (GPa) = 60.87104 63.36765 62.11934
# Shear Modulus (GPa) = 37.41158 38.82330 38.11744
#
# Velocity S-wave (km/s) = 3.89660 3.96944 3.93319
# Velocity P-wave (km/s) = 6.70441 6.83566 6.77036
#
# Compressibility (1/GPa) = 0.01642817
#
# Stress axis : x y z
#
# Youngs Moduli (GPa) = 104.85292 106.64702 90.05708
#
# Poissons Ratio (x) = 0.20496 0.30878
# Poissons Ratio (y) = 0.20151 0.13007
# Poissons Ratio (z) = 0.35951 0.15404
#
# Static dielectric constant tensor:
#      x y z
#    x 2.053620 0.000000 0.058660 
#    y 0.000000 2.045910 0.000000 
#    z 0.058660 0.000000 1.958330 
# 
# From -- ./inp_files/47815.got.cif
#   From: 2010.05.17/outbox.cif.g08.bks.cpg/sg14_24_cif.got.tgz:47815.got - 2010.06.03 17:49:19.
