data_PCOD9247158
_publ_section_title
;
Structure prediction by ZEFSAII (Michael W. Deem and Ramdas Pophale) SiO2 
 PCOD9247158
Probable space group: P 21/C
;
_chemical_formula_sum "Si O2"
_cell_formula_units_Z 24
_cell_length_a 14.541936
_cell_length_b 8.030685
_cell_length_c 19.463799
_cell_angle_alpha 90.000000
_cell_angle_beta 154.459231
_cell_angle_gamma 90.000000
_cell_volume 980.018041
_symmetry_space_group_name_H-M "P 21/C"
_symmetry_group_IT_number 14
_symmetry_cell_setting 'monoclinic'
loop_
_space_group_symop_operation_xyz
x,y,z
-x,1/2+y,1/2-z
-x,-y,-z
x,1/2-y,1/2+z
loop_
_atom_site_type_symbol
_atom_site_label
_atom_site_fract_x
_atom_site_fract_y
_atom_site_fract_z
Si Si1 0.017333 0.186667 0.864693
Si Si2 0.278947 0.526396 0.629753
Si Si3 0.873897 0.654339 0.200343
Si Si4 0.018997 0.327667 0.095975
Si Si5 0.645087 0.976753 0.274431
Si Si6 0.418178 0.691403 0.851387
O O1 0.794728 0.227337 0.749966
O O2 0.079776 0.313862 0.847977
O O3 0.980951 0.012327 0.800288
O O4 0.188565 0.146016 0.039470
O O5 0.081354 0.654681 0.499202
O O6 0.452702 0.590262 0.691227
O O7 0.381292 0.539244 0.773555
O O8 0.953172 0.799849 0.304527
O O9 0.618803 0.652562 0.033552
O O10 0.239683 0.370050 0.206869
O O11 0.840631 0.462606 0.954874
O O12 0.550897 0.142531 0.173641
#
# Coordination Sequence:
#
# PCOD9247158 Si02
#       6
#     4   4   4   4   4   4
#     4  11  25  45  66 101 140 179 230 287 344 408
#     4  10  22  45  67  97 134 182 234 280 339 412
#     4  11  25  43  67 104 137 184 221 287 352 407
#     4   9  23  41  65 101 134 177 232 289 336 409
#     4  10  21  44  70  97 132 186 233 283 349 407
#     4  11  24  42  71  99 134 183 228 288 344 413
#
# _framework density 24.489343999999999
#
# number of rings (size 3 to 8) (size 9 to 14) (size 15 to 20)
#    0.000    1.667    1.667    1.000    4.667    6.000 
#   12.000    0.000    0.000    0.000    0.000    0.000 
#    0.000    0.000    0.000    0.000    0.000    0.000 
#
# Total GULP energy -134437.922196 kJ/mol
# GULP energy per Si atom -5601.580091 kJ/mol
# Density = 2.443360 g / cm^3
# Si number density = 24.489344 Si / 1000 Ang^3
#
#
#
# Elastic Constant Matrix: (Units=GPa)
#
#
# Indices 1 2 3 4 5 6 
#
# 1 99.1017 13.7166 -10.6162 0.0000 6.9616 0.0000
# 2 13.7166 69.6331 11.0767 0.0000 -4.4147 0.0000
# 3 -10.6162 11.0767 74.2269 0.0000 -10.4274 0.0000
# 4 0.0000 0.0000 0.0000 23.4941 0.0000 -4.6666
# 5 6.9616 -4.4147 -10.4274 0.0000 41.7170 0.0000
# 6 0.0000 0.0000 0.0000 -4.6666 0.0000 43.3561
#
#
#
# Elastic Compliance Matrix: (Units=1/GPa)
#
#
# Indices 1 2 3 4 5 6 
#
# 1 0.010729 -0.002484 0.001675 0.000000 -0.001634 0.000000
# 2 -0.002484 0.015329 -0.002442 0.000000 0.001426 0.000000
# 3 0.001675 -0.002442 0.014510 0.000000 0.003089 0.000000
# 4 0.000000 0.000000 0.000000 0.043494 0.000000 0.004681
# 5 -0.001634 0.001426 0.003089 0.000000 0.025167 0.000000
# 6 0.000000 0.000000 0.000000 0.004681 0.000000 0.023569
#
#
# Mechanical properties :
#
#
# Convention : Reuss Voigt Hill
#
# Bulk Modulus (GPa) = 29.35378 30.14622 29.75000
# Shear Modulus (GPa) = 33.18864 36.96574 35.07719
#
# Velocity S-wave (km/s) = 3.68534 3.88939 3.78874
# Velocity P-wave (km/s) = 5.48829 5.70145 5.59588
#
# Compressibility (1/GPa) = 0.03406717
#
# Stress axis : x y z
#
# Youngs Moduli (GPa) = 93.20814 65.23526 68.91687
#
# Poissons Ratio (x) = 0.16201 -0.11547
# Poissons Ratio (y) = 0.23148 0.16832
# Poissons Ratio (z) = -0.15617 0.15933
#
# Static dielectric constant tensor:
#      x y z
#    x 1.893990 0.000000 -0.008310 
#    y 0.000000 2.000660 0.000000 
#    z -0.008310 0.000000 1.905380 
# 
# From -- ./inp_files/59148.got.cif
#   From: 2010.05.17/outbox.cif.g08.bks.cpg/sg14_30_cif.got.tgz:59148.got - 2010.06.03 17:49:19.
