data_PCOD9247430
_publ_section_title
;
Structure prediction by ZEFSAII (Michael W. Deem and Ramdas Pophale) SiO2 
 PCOD9247430
Probable space group: P 21/C
;
_chemical_formula_sum "Si O2"
_cell_formula_units_Z 24
_cell_length_a 13.702968
_cell_length_b 11.788557
_cell_length_c 7.333152
_cell_angle_alpha 90.000000
_cell_angle_beta 88.627999
_cell_angle_gamma 90.000000
_cell_volume 1184.244707
_symmetry_space_group_name_H-M "P 21/C"
_symmetry_group_IT_number 14
_symmetry_cell_setting 'monoclinic'
loop_
_space_group_symop_operation_xyz
x,y,z
-x,1/2+y,1/2-z
-x,-y,-z
x,1/2-y,1/2+z
loop_
_atom_site_type_symbol
_atom_site_label
_atom_site_fract_x
_atom_site_fract_y
_atom_site_fract_z
Si Si1 0.060949 0.646399 0.369343
Si Si2 0.862201 0.387810 0.027879
Si Si3 0.638366 0.540431 0.415258
Si Si4 0.638261 0.355502 0.094408
Si Si5 0.555817 0.383578 0.719274
Si Si6 0.858659 0.960020 0.867273
O O1 0.088753 0.777652 0.381901
O O2 0.121417 0.572116 0.511683
O O3 0.946327 0.625286 0.407061
O O4 0.089378 0.598948 0.170200
O O5 0.747854 0.359850 0.012137
O O6 0.868137 0.495880 0.159450
O O7 0.634727 0.436948 0.269588
O O8 0.604072 0.489187 0.609861
O O9 0.555296 0.624519 0.346125
O O10 0.749458 0.582364 0.410667
O O11 0.611709 0.229732 0.157697
O O12 0.567443 0.393499 0.934839
#
# Coordination Sequence:
#
# PCOD9247430 Si02
#       6
#     4   4   4   4   4   4
#     4  11  21  35  59  84 110 141 185 229 271 321
#     4  11  20  35  60  84 108 142 187 228 268 323
#     4  10  22  38  56  81 113 146 182 227 275 324
#     4  11  20  35  60  84 108 142 187 228 268 323
#     4  11  21  35  59  84 110 141 185 229 271 321
#     4  10  22  38  56  81 113 146 182 227 275 324
#
# _framework density 20.266081
#
# number of rings (size 3 to 8) (size 9 to 14) (size 15 to 20)
#    0.000    1.333    3.333    4.000    0.000    0.000 
#    0.000    1.667    0.000    0.000    0.000    0.000 
#    0.000    0.000    0.000    0.000    0.000    0.000 
#
# Total GULP energy -134154.001398 kJ/mol
# GULP energy per Si atom -5589.750058 kJ/mol
# Density = 2.021995 g / cm^3
# Si number density = 20.266081 Si / 1000 Ang^3
#
#
#
# Elastic Constant Matrix: (Units=GPa)
#
#
# Indices 1 2 3 4 5 6 
#
# 1 96.8691 3.5210 -5.5500 0.0000 1.9086 0.0000
# 2 3.5210 11.0911 -15.3146 0.0000 5.1583 0.0000
# 3 -5.5500 -15.3146 60.3453 0.0000 2.9716 0.0000
# 4 0.0000 0.0000 0.0000 13.1391 0.0000 0.2105
# 5 1.9086 5.1583 2.9716 0.0000 24.6945 0.0000
# 6 0.0000 0.0000 0.0000 0.2105 0.0000 20.0633
#
#
#
# Elastic Compliance Matrix: (Units=1/GPa)
#
#
# Indices 1 2 3 4 5 6 
#
# 1 0.010446 -0.002868 0.000245 0.000000 -0.000238 0.000000
# 2 -0.002868 0.173784 0.045888 0.000000 -0.041601 0.000000
# 3 0.000245 0.045888 0.028883 0.000000 -0.013080 0.000000
# 4 0.000000 0.000000 0.000000 0.076121 0.000000 -0.000799
# 5 -0.000238 -0.041601 -0.013080 0.000000 0.050777 0.000000
# 6 0.000000 0.000000 0.000000 -0.000799 0.000000 0.049851
#
#
# Mechanical properties :
#
#
# Convention : Reuss Voigt Hill
#
# Bulk Modulus (GPa) = 3.33731 14.84649 9.09190
# Shear Modulus (GPa) = 12.40037 23.95601 18.17819
#
# Velocity S-wave (km/s) = 2.47630 3.44186 2.99821
# Velocity P-wave (km/s) = 3.13471 4.81008 4.05976
#
# Compressibility (1/GPa) = 0.29964294
#
# Stress axis : x y z
#
# Youngs Moduli (GPa) = 95.72906 5.75428 34.62185
#
# Poissons Ratio (x) = 0.01650 -0.00847
# Poissons Ratio (y) = 0.27455 -1.58873
# Poissons Ratio (z) = -0.02342 -0.26405
#
# Static dielectric constant tensor:
#      x y z
#    x 1.732310 0.000000 0.009430 
#    y 0.000000 1.684680 0.000000 
#    z 0.009430 0.000000 1.718900 
# 
# From -- ./inp_files/12436.got.cif
#   From: 2010.05.17/outbox.cif.g08.bks.cpg/sg14_7_cif.got.tgz:12436.got - 2010.06.03 17:49:19.
