data_PCOD9247634
_publ_section_title
;
Structure prediction by ZEFSAII (Michael W. Deem and Ramdas Pophale) SiO2 
 PCOD9247634
Probable space group: P 21/C
;
_chemical_formula_sum "Si O2"
_cell_formula_units_Z 28
_cell_length_a 7.337965
_cell_length_b 9.319167
_cell_length_c 15.646489
_cell_angle_alpha 90.000000
_cell_angle_beta 91.813202
_cell_angle_gamma 90.000000
_cell_volume 1069.429407
_symmetry_space_group_name_H-M "P 21/C"
_symmetry_group_IT_number 14
_symmetry_cell_setting 'monoclinic'
loop_
_space_group_symop_operation_xyz
x,y,z
-x,1/2+y,1/2-z
-x,-y,-z
x,1/2-y,1/2+z
loop_
_atom_site_type_symbol
_atom_site_label
_atom_site_fract_x
_atom_site_fract_y
_atom_site_fract_z
Si Si1 0.963765 0.192201 0.525669
Si Si2 0.425282 0.780487 0.550262
Si Si3 0.434190 0.689512 0.357336
Si Si4 0.761683 0.557131 0.084024
Si Si5 0.497294 0.091829 0.783010
Si Si6 0.894075 0.796676 0.216951
Si Si7 0.033880 0.921126 0.859421
O O1 0.793130 0.200728 0.457677
O O2 0.029648 0.350534 0.553013
O O3 0.142343 0.107008 0.502441
O O4 0.859603 0.095682 0.596150
O O5 0.487210 0.732106 0.455132
O O6 0.545235 0.920780 0.576416
O O7 0.469037 0.668804 0.625615
O O8 0.407149 0.822520 0.292362
O O9 0.549304 0.573597 0.302464
O O10 0.251703 0.596847 0.371021
O O11 0.832182 0.679694 0.147306
O O12 0.284978 0.117501 0.753836
O O13 0.976894 0.697619 0.290131
O O14 0.012727 0.920867 0.173116
#
# Coordination Sequence:
#
# PCOD9247634 Si02
#       7
#     4   4   4   4   4   4   4
#     4  10  22  39  62  91 122 162 207 256 312 373
#     4  10  22  42  64  92 128 168 208 262 314 376
#     4  10  23  41  64  92 125 164 209 258 317 376
#     4  10  22  39  62  91 122 162 207 256 312 373
#     4  10  23  41  64  92 125 164 209 258 317 376
#     4  10  22  40  60  88 124 161 203 256 311 374
#     4  10  22  40  60  88 124 161 203 256 311 374
#
# _framework density 26.182186000000002
#
# number of rings (size 3 to 8) (size 9 to 14) (size 15 to 20)
#    0.000    2.000    0.000    1.714    4.000    8.571 
#    0.000    0.000    0.000    0.000    0.000    0.000 
#    0.000    0.000    0.000    0.000    0.000    0.000 
#
# Total GULP energy -156299.998968 kJ/mol
# GULP energy per Si atom -5582.142820 kJ/mol
# Density = 2.612259 g / cm^3
# Si number density = 26.182186 Si / 1000 Ang^3
#
#
#
# Elastic Constant Matrix: (Units=GPa)
#
#
# Indices 1 2 3 4 5 6 
#
# 1 56.4340 15.9284 11.5455 0.0000 -2.8587 0.0000
# 2 15.9284 90.5738 47.3318 0.0000 19.5541 0.0000
# 3 11.5455 47.3318 108.3343 0.0000 4.3281 0.0000
# 4 0.0000 0.0000 0.0000 49.9386 0.0000 0.5667
# 5 -2.8587 19.5541 4.3281 0.0000 37.2253 0.0000
# 6 0.0000 0.0000 0.0000 0.5667 0.0000 32.5891
#
#
#
# Elastic Compliance Matrix: (Units=1/GPa)
#
#
# Indices 1 2 3 4 5 6 
#
# 1 0.019092 -0.003872 -0.000485 0.000000 0.003556 0.000000
# 2 -0.003872 0.017052 -0.006699 0.000000 -0.008476 0.000000
# 3 -0.000485 -0.006699 0.012126 0.000000 0.002072 0.000000
# 4 0.000000 0.000000 0.000000 0.020029 0.000000 -0.000348
# 5 0.003556 -0.008476 0.002072 0.000000 0.031348 0.000000
# 6 0.000000 0.000000 0.000000 -0.000348 0.000000 0.030691
#
#
# Mechanical properties :
#
#
# Convention : Reuss Voigt Hill
#
# Bulk Modulus (GPa) = 38.22801 44.99484 41.61143
# Shear Modulus (GPa) = 31.02318 35.98634 33.50476
#
# Velocity S-wave (km/s) = 3.44597 3.71139 3.58114
# Velocity P-wave (km/s) = 5.51955 5.96561 5.74691
#
# Compressibility (1/GPa) = 0.02615883
#
# Stress axis : x y z
#
# Youngs Moduli (GPa) = 52.37781 58.64349 82.46451
#
# Poissons Ratio (x) = 0.22706 0.04001
# Poissons Ratio (y) = 0.20280 0.55242
# Poissons Ratio (z) = 0.02541 0.39285
#
# Static dielectric constant tensor:
#      x y z
#    x 2.106200 0.000000 -0.048650 
#    y 0.000000 2.164950 0.000000 
#    z -0.048650 0.000000 2.359150 
# 
# From -- ./inp_files/54926.got.cif
#   From: 2010.05.17/outbox.cif.g08.bks.cpg/sg14_28_cif.got.tgz:54926.got - 2010.06.03 17:49:19.
