data_PCOD9247867
_publ_section_title
;
Structure prediction by ZEFSAII (Michael W. Deem and Ramdas Pophale) SiO2 
 PCOD9247867
Probable space group: P 21/C
;
_chemical_formula_sum "Si O2"
_cell_formula_units_Z 22
_cell_length_a 18.191920
_cell_length_b 4.870966
_cell_length_c 27.382773
_cell_angle_alpha 90.000000
_cell_angle_beta 22.485870
_cell_angle_gamma 90.000000
_cell_volume 928.008729
_symmetry_space_group_name_H-M "P 21/C"
_symmetry_group_IT_number 14
_symmetry_cell_setting 'monoclinic'
loop_
_space_group_symop_operation_xyz
x,y,z
-x,1/2+y,1/2-z
-x,-y,-z
x,1/2-y,1/2+z
loop_
_atom_site_type_symbol
_atom_site_label
_atom_site_fract_x
_atom_site_fract_y
_atom_site_fract_z
Si Si1 0.927525 0.930072 0.767103
Si Si2 0.460542 0.723714 0.838283
Si Si3 0.747272 0.771271 0.078240
Si Si4 0.119340 0.614622 0.807628
Si Si5 0.613114 0.609416 0.849005
Si Si6 0.500000 0.000000 0.000000
O O1 0.985979 0.065659 0.679270
O O2 0.969473 0.147760 0.783552
O O3 0.704485 0.875787 0.895325
O O4 0.311388 0.532644 0.901689
O O5 0.659454 0.690806 0.685864
O O6 0.497146 0.619869 0.869958
O O7 0.369720 0.024215 0.885885
O O8 0.975644 0.769720 0.931899
O O9 0.207011 0.322212 0.769121
O O10 0.306435 0.810015 0.685118
O O11 0.489306 0.749053 0.966557
#
# Coordination Sequence:
#
# PCOD9247867 Si02
#       6
#     4   4   4   4   4   2
#     4  11  25  42  66  95 128 179 221 268 343 387
#     4  10  22  40  64  95 124 177 210 264 345 387
#     4  10  22  40  64  94 131 160 225 270 314 415
#     4  11  24  41  62  96 128 162 225 274 316 411
#     4  11  24  41  64  93 129 173 214 269 345 375
#     4  10  26  44  64  98 138 168 228 286 304 424
#
# _framework density 23.706672000000001
#
# number of rings (size 3 to 8) (size 9 to 14) (size 15 to 20)
#    0.000    1.455    0.000    4.364    5.091    8.000 
#    0.000    0.000    0.000    0.000    0.000    0.000 
#    0.000    0.000    0.000    0.000    0.000    0.000 
#
# Total GULP energy -122588.854385 kJ/mol
# GULP energy per Si atom -5572.220654 kJ/mol
# Density = 2.365271 g / cm^3
# Si number density = 23.706672 Si / 1000 Ang^3
#
#
#
# Elastic Constant Matrix: (Units=GPa)
#
#
# Indices 1 2 3 4 5 6 
#
# 1 74.1284 0.3067 -7.3616 0.0000 -12.1402 0.0000
# 2 0.3067 76.0457 -18.5364 0.0000 3.3732 0.0000
# 3 -7.3616 -18.5364 55.8234 0.0000 6.4458 0.0000
# 4 0.0000 0.0000 0.0000 23.6394 0.0000 -7.5383
# 5 -12.1402 3.3732 6.4458 0.0000 25.2313 0.0000
# 6 0.0000 0.0000 0.0000 -7.5383 0.0000 30.3795
#
#
#
# Elastic Compliance Matrix: (Units=1/GPa)
#
#
# Indices 1 2 3 4 5 6 
#
# 1 0.014717 -0.000087 0.001126 0.000000 0.006805 0.000000
# 2 -0.000087 0.014567 0.005209 0.000000 -0.003320 0.000000
# 3 0.001126 0.005209 0.020412 0.000000 -0.005369 0.000000
# 4 0.000000 0.000000 0.000000 0.045937 0.000000 0.011399
# 5 0.006805 -0.003320 -0.005369 0.000000 0.044723 0.000000
# 6 0.000000 0.000000 0.000000 0.011399 0.000000 0.035745
#
#
# Mechanical properties :
#
#
# Convention : Reuss Voigt Hill
#
# Bulk Modulus (GPa) = 16.07895 17.20165 16.64030
# Shear Modulus (GPa) = 27.12447 31.28929 29.20688
#
# Velocity S-wave (km/s) = 3.38623 3.63692 3.51381
# Velocity P-wave (km/s) = 4.69956 4.99079 4.84737
#
# Compressibility (1/GPa) = 0.06219311
#
# Stress axis : x y z
#
# Youngs Moduli (GPa) = 67.94968 68.64679 48.99121
#
# Poissons Ratio (x) = 0.00595 -0.05517
# Poissons Ratio (y) = 0.00589 -0.25520
# Poissons Ratio (z) = -0.07653 -0.35759
#
# Static dielectric constant tensor:
#      x y z
#    x 1.957380 0.000000 0.231710 
#    y 0.000000 1.840640 0.000000 
#    z 0.231710 0.000000 2.225260 
# 
# From -- ./inp_files/49456.got.cif
#   From: 2010.05.17/outbox.cif.g08.bks.cpg/sg14_25_cif.got.tgz:49456.got - 2010.06.03 17:49:19.
