data_PCOD9247100
_publ_section_title
;
Structure prediction by ZEFSAII (Michael W. Deem and Ramdas Pophale) SiO2 
 PCOD9247100
Probable space group: P 21/C
;
_chemical_formula_sum "Si O2"
_cell_formula_units_Z 28
_cell_length_a 6.663017
_cell_length_b 8.009912
_cell_length_c 31.444694
_cell_angle_alpha 90.000000
_cell_angle_beta 127.571500
_cell_angle_gamma 90.000000
_cell_volume 1330.136757
_symmetry_space_group_name_H-M "P 21/C"
_symmetry_group_IT_number 14
_symmetry_cell_setting 'monoclinic'
loop_
_space_group_symop_operation_xyz
x,y,z
-x,1/2+y,1/2-z
-x,-y,-z
x,1/2-y,1/2+z
loop_
_atom_site_type_symbol
_atom_site_label
_atom_site_fract_x
_atom_site_fract_y
_atom_site_fract_z
Si Si1 0.742120 0.416119 0.213831
Si Si2 0.181573 0.487338 0.154498
Si Si3 0.082550 0.272613 0.819131
Si Si4 0.340923 0.419670 0.426263
Si Si5 0.300727 0.720712 0.879886
Si Si6 0.829610 0.928216 0.440508
Si Si7 0.894317 0.082665 0.028906
O O1 0.462556 0.417753 0.197237
O O2 0.795964 0.590213 0.196511
O O3 0.737807 0.277614 0.175858
O O4 0.956218 0.372418 0.275208
O O5 0.164439 0.533382 0.102295
O O6 0.132833 0.634890 0.181176
O O7 0.955281 0.357281 0.134519
O O8 0.269202 0.203139 0.879119
O O9 0.366851 0.602771 0.408665
O O10 0.129487 0.451557 0.435394
O O11 0.602724 0.366241 0.482057
O O12 0.541412 0.599755 0.918105
O O13 0.937392 0.745546 0.441525
O O14 0.000000 0.000000 0.500000
O O15 0.000000 0.000000 0.000000
#
# Coordination Sequence:
#
# PCOD9247100 Si02
#       7
#     4   4   4   4   4   4   4
#     4  10  24  45  67  98 126 166 214 270 330 377
#     4  10  24  43  63  97 128 168 216 259 331 386
#     4  11  25  43  69  95 127 167 216 271 320 396
#     4  11  24  40  64  94 132 170 216 264 324 383
#     4  10  21  44  63  94 130 169 215 265 319 389
#     4  11  24  39  68  93 132 174 215 269 318 384
#     4  11  24  41  60  97 132 174 216 261 322 381
#
# _framework density 21.050466
#
# number of rings (size 3 to 8) (size 9 to 14) (size 15 to 20)
#    0.000    1.429    2.857    0.857    8.000    4.000 
#    0.000    0.000    0.000    0.000    0.000    0.000 
#    0.000    0.000    0.000    0.000    0.000    0.000 
#
# Total GULP energy -156424.324163 kJ/mol
# GULP energy per Si atom -5586.583006 kJ/mol
# Density = 2.100255 g / cm^3
# Si number density = 21.050466 Si / 1000 Ang^3
#
#
#
# Elastic Constant Matrix: (Units=GPa)
#
#
# Indices 1 2 3 4 5 6 
#
# 1 115.3200 35.5341 13.7690 0.0000 6.2095 0.0000
# 2 35.5341 59.8875 23.8807 0.0000 -4.2991 0.0000
# 3 13.7690 23.8807 71.6409 0.0000 8.4416 0.0000
# 4 0.0000 0.0000 0.0000 42.6769 0.0000 -8.8493
# 5 6.2095 -4.2991 8.4416 0.0000 26.0763 0.0000
# 6 0.0000 0.0000 0.0000 -8.8493 0.0000 19.9136
#
#
#
# Elastic Compliance Matrix: (Units=1/GPa)
#
#
# Indices 1 2 3 4 5 6 
#
# 1 0.010989 -0.007099 0.000729 0.000000 -0.004023 0.000000
# 2 -0.007099 0.024623 -0.007819 0.000000 0.008281 0.000000
# 3 0.000729 -0.007819 0.017255 0.000000 -0.007049 0.000000
# 4 0.000000 0.000000 0.000000 0.025810 0.000000 0.011470
# 5 -0.004023 0.008281 -0.007049 0.000000 0.042954 0.000000
# 6 0.000000 0.000000 0.000000 0.011470 0.000000 0.055314
#
#
# Mechanical properties :
#
#
# Convention : Reuss Voigt Hill
#
# Bulk Modulus (GPa) = 40.83780 43.69066 42.26423
# Shear Modulus (GPa) = 23.42057 29.31100 26.36579
#
# Velocity S-wave (km/s) = 3.33917 3.73556 3.54291
# Velocity P-wave (km/s) = 5.85737 6.27743 6.07103
#
# Compressibility (1/GPa) = 0.02448712
#
# Stress axis : x y z
#
# Youngs Moduli (GPa) = 91.00211 40.61273 57.95272
#
# Poissons Ratio (x) = 0.28833 -0.04222
# Poissons Ratio (y) = 0.64607 0.45314
# Poissons Ratio (z) = -0.06630 0.31755
#
# Static dielectric constant tensor:
#      x y z
#    x 1.760730 0.000000 -0.011680 
#    y 0.000000 1.764400 0.000000 
#    z -0.011680 0.000000 1.768230 
# 
# From -- ./inp_files/75651.got.cif
#   From: 2010.05.17/outbox.cif.g08.bks.cpg/sg14_38_cif.got.tgz:75651.got - 2010.06.03 17:49:19.
