data_PCOD9247201
_publ_section_title
;
Structure prediction by ZEFSAII (Michael W. Deem and Ramdas Pophale) SiO2 
 PCOD9247201
Probable space group: P 21/C
;
_chemical_formula_sum "Si O2"
_cell_formula_units_Z 20
_cell_length_a 7.667576
_cell_length_b 7.955188
_cell_length_c 20.218238
_cell_angle_alpha 90.000000
_cell_angle_beta 136.379367
_cell_angle_gamma 90.000000
_cell_volume 850.796265
_symmetry_space_group_name_H-M "P 21/C"
_symmetry_group_IT_number 14
_symmetry_cell_setting 'monoclinic'
loop_
_space_group_symop_operation_xyz
x,y,z
-x,1/2+y,1/2-z
-x,-y,-z
x,1/2-y,1/2+z
loop_
_atom_site_type_symbol
_atom_site_label
_atom_site_fract_x
_atom_site_fract_y
_atom_site_fract_z
Si Si1 0.895831 0.846122 0.820551
Si Si2 0.233862 0.327568 0.441160
Si Si3 0.716185 0.936934 0.905161
Si Si4 0.489048 0.731605 0.113075
Si Si5 0.790532 0.465089 0.056200
O O1 0.728159 0.833227 0.841492
O O2 0.719781 0.865919 0.708755
O O3 0.063733 0.677660 0.863241
O O4 0.062814 0.012153 0.877713
O O5 0.361737 0.345143 0.548549
O O6 0.428618 0.313438 0.434196
O O7 0.087629 0.148932 0.405095
O O8 0.567746 0.110657 0.856101
O O9 0.000000 0.000000 0.000000
O O10 0.253391 0.614490 0.028851
O O11 0.500000 0.500000 0.000000
#
# Coordination Sequence:
#
# PCOD9247201 Si02
#       5
#     4   4   4   4   4
#     4  11  25  45  66 103 141 172 237 281 338 414
#     4  10  23  43  71  91 135 184 220 284 343 399
#     4  10  21  45  66  91 139 179 214 287 348 394
#     4  11  23  43  70 102 133 180 237 277 337 420
#     4  10  23  42  67 100 134 177 227 275 346 404
#
# _framework density 23.507390000000001
#
# number of rings (size 3 to 8) (size 9 to 14) (size 15 to 20)
#    0.000    1.600    4.000    0.600    8.400    2.400 
#   10.800    0.000    0.000    0.000    0.000    0.000 
#    0.000    0.000    0.000    0.000    0.000    0.000 
#
# Total GULP energy -111631.387695 kJ/mol
# GULP energy per Si atom -5581.569385 kJ/mol
# Density = 2.345389 g / cm^3
# Si number density = 23.507390 Si / 1000 Ang^3
#
#
#
# Elastic Constant Matrix: (Units=GPa)
#
#
# Indices 1 2 3 4 5 6 
#
# 1 63.8297 12.8126 4.3622 0.0000 -18.4099 0.0000
# 2 12.8126 146.4733 9.6451 0.0000 7.4874 0.0000
# 3 4.3622 9.6451 63.3959 0.0000 -2.1788 0.0000
# 4 0.0000 0.0000 0.0000 26.1775 0.0000 2.8651
# 5 -18.4099 7.4874 -2.1788 0.0000 19.9060 0.0000
# 6 0.0000 0.0000 0.0000 2.8651 0.0000 27.8861
#
#
#
# Elastic Compliance Matrix: (Units=1/GPa)
#
#
# Indices 1 2 3 4 5 6 
#
# 1 0.022687 -0.003093 -0.000331 0.000000 0.022109 0.000000
# 2 -0.003093 0.007468 -0.001122 0.000000 -0.005792 0.000000
# 3 -0.000331 -0.001122 0.016032 0.000000 0.001871 0.000000
# 4 0.000000 0.000000 0.000000 0.038635 0.000000 -0.003970
# 5 0.022109 -0.005792 0.001871 0.000000 0.073067 0.000000
# 6 0.000000 0.000000 0.000000 -0.003970 0.000000 0.036268
#
#
# Mechanical properties :
#
#
# Convention : Reuss Voigt Hill
#
# Bulk Modulus (GPa) = 26.95824 36.37097 31.66460
# Shear Modulus (GPa) = 23.18969 31.25253 27.22111
#
# Velocity S-wave (km/s) = 3.14424 3.65015 3.40660
# Velocity P-wave (km/s) = 4.96735 5.76806 5.38262
#
# Compressibility (1/GPa) = 0.03709441
#
# Stress axis : x y z
#
# Youngs Moduli (GPa) = 44.07838 133.90972 62.37639
#
# Poissons Ratio (x) = 0.41417 0.02062
# Poissons Ratio (y) = 0.13633 0.07001
# Poissons Ratio (z) = 0.01457 0.15030
#
# Static dielectric constant tensor:
#      x y z
#    x 2.013440 0.000000 -0.008010 
#    y 0.000000 2.037600 0.000000 
#    z -0.008010 0.000000 1.865800 
# 
# From -- ./inp_files/48439.got.cif
#   From: 2010.05.17/outbox.cif.g08.bks.cpg/sg14_25_cif.got.tgz:48439.got - 2010.06.03 17:49:19.
