data_PCOD9247974
_publ_section_title
;
Structure prediction by ZEFSAII (Michael W. Deem and Ramdas Pophale) SiO2 
 PCOD9247974
Probable space group: P 21/C
;
_chemical_formula_sum "Si O2"
_cell_formula_units_Z 22
_cell_length_a 11.516616
_cell_length_b 7.590957
_cell_length_c 11.221748
_cell_angle_alpha 90.000000
_cell_angle_beta 53.417046
_cell_angle_gamma 90.000000
_cell_volume 787.761359
_symmetry_space_group_name_H-M "P 21/C"
_symmetry_group_IT_number 14
_symmetry_cell_setting 'monoclinic'
loop_
_space_group_symop_operation_xyz
x,y,z
-x,1/2+y,1/2-z
-x,-y,-z
x,1/2-y,1/2+z
loop_
_atom_site_type_symbol
_atom_site_label
_atom_site_fract_x
_atom_site_fract_y
_atom_site_fract_z
Si Si1 0.473290 0.777364 0.321869
Si Si2 0.911713 0.810890 0.204237
Si Si3 0.500000 0.000000 0.000000
Si Si4 0.693979 0.614281 0.047854
Si Si5 0.815367 0.055791 0.714974
Si Si6 0.179844 0.895830 0.911871
O O1 0.539129 0.659876 0.384587
O O2 0.591894 0.784002 0.141357
O O3 0.422855 0.961171 0.405388
O O4 0.337236 0.673549 0.349445
O O5 0.916571 0.599875 0.198664
O O6 0.809578 0.854496 0.376727
O O7 0.835099 0.914763 0.140217
O O8 0.074887 0.879074 0.089452
O O9 0.332097 0.923719 0.120389
O O10 0.773383 0.528142 0.111883
O O11 0.876677 0.249481 0.649679
#
# Coordination Sequence:
#
# PCOD9247974 Si02
#       6
#     4   4   2   4   4   4
#     4  10  23  44  68  99 143 168 236 286 341 414
#     4  11  24  44  70  96 139 182 226 276 350 411
#     4  10  22  40  70 102 128 182 222 286 344 394
#     4  10  24  43  66 104 130 181 231 282 344 407
#     4  10  23  43  67 100 134 180 229 280 340 410
#     4  10  24  45  65 104 136 177 229 283 335 417
#
# _framework density 27.927239
#
# number of rings (size 3 to 8) (size 9 to 14) (size 15 to 20)
#    0.000    1.818    0.000    1.636   12.727    0.727 
#   22.909    0.000    0.000    0.000    0.000    0.000 
#    0.000    0.000    0.000    0.000    0.000    0.000 
#
# Total GULP energy -122929.502867 kJ/mol
# GULP energy per Si atom -5587.704676 kJ/mol
# Density = 2.786368 g / cm^3
# Si number density = 27.927239 Si / 1000 Ang^3
#
#
#
# Elastic Constant Matrix: (Units=GPa)
#
#
# Indices 1 2 3 4 5 6 
#
# 1 63.1390 17.9213 35.6439 0.0000 -19.0240 0.0000
# 2 17.9213 158.2696 30.5922 0.0000 -6.1346 0.0000
# 3 35.6439 30.5922 218.6092 0.0000 -44.4383 0.0000
# 4 0.0000 0.0000 0.0000 42.4028 0.0000 -6.6676
# 5 -19.0240 -6.1346 -44.4383 0.0000 33.9579 0.0000
# 6 0.0000 0.0000 0.0000 -6.6676 0.0000 30.6698
#
#
#
# Elastic Compliance Matrix: (Units=1/GPa)
#
#
# Indices 1 2 3 4 5 6 
#
# 1 0.019736 -0.001663 -0.001088 0.000000 0.009332 0.000000
# 2 -0.001663 0.006634 -0.000822 0.000000 -0.000808 0.000000
# 3 -0.001088 -0.000822 0.006421 0.000000 0.007644 0.000000
# 4 0.000000 0.000000 0.000000 0.024418 0.000000 0.005308
# 5 0.009332 -0.000808 0.007644 0.000000 0.044534 0.000000
# 6 0.000000 0.000000 0.000000 0.005308 0.000000 0.033759
#
#
# Mechanical properties :
#
#
# Convention : Reuss Voigt Hill
#
# Bulk Modulus (GPa) = 38.99262 67.59254 53.29258
# Shear Modulus (GPa) = 33.06970 45.13012 39.09991
#
# Velocity S-wave (km/s) = 3.44486 4.02430 3.74580
# Velocity P-wave (km/s) = 5.46034 6.77118 6.15078
#
# Compressibility (1/GPa) = 0.02564588
#
# Stress axis : x y z
#
# Youngs Moduli (GPa) = 50.66836 150.73674 155.74691
#
# Poissons Ratio (x) = 0.25063 0.16949
# Poissons Ratio (y) = 0.08425 0.12795
# Poissons Ratio (z) = 0.05514 0.12384
#
# Static dielectric constant tensor:
#      x y z
#    x 5.092370 0.000000 2.862110 
#    y 0.000000 2.500260 0.000000 
#    z 2.862110 0.000000 5.113000 
# 
# From -- ./inp_files/31306.got.cif
#   From: 2010.05.17/outbox.cif.g08.bks.cpg/sg14_16_cif.got.tgz:31306.got - 2010.06.03 17:49:19.
