data_PCOD9247967
_publ_section_title
;
Structure prediction by ZEFSAII (Michael W. Deem and Ramdas Pophale) SiO2 
 PCOD9247967
Probable space group: P 21/C
;
_chemical_formula_sum "Si O2"
_cell_formula_units_Z 20
_cell_length_a 23.511807
_cell_length_b 8.173319
_cell_length_c 9.411703
_cell_angle_alpha 90.000000
_cell_angle_beta 23.353020
_cell_angle_gamma 90.000000
_cell_volume 716.937177
_symmetry_space_group_name_H-M "P 21/C"
_symmetry_group_IT_number 14
_symmetry_cell_setting 'monoclinic'
loop_
_space_group_symop_operation_xyz
x,y,z
-x,1/2+y,1/2-z
-x,-y,-z
x,1/2-y,1/2+z
loop_
_atom_site_type_symbol
_atom_site_label
_atom_site_fract_x
_atom_site_fract_y
_atom_site_fract_z
Si Si1 0.978294 0.241186 0.475048
Si Si2 0.354854 0.045910 0.637673
Si Si3 0.076291 0.420847 0.498160
Si Si4 0.588466 0.676731 0.711848
Si Si5 0.692680 0.348425 0.020323
O O1 0.019559 0.421691 0.320646
O O2 0.010411 0.268433 0.565375
O O3 0.067542 0.108825 0.186065
O O4 0.814854 0.224706 0.795930
O O5 0.308709 0.110723 0.899167
O O6 0.516372 0.982880 0.306020
O O7 0.307719 0.892073 0.646106
O O8 0.353842 0.205910 0.541877
O O9 0.234618 0.482274 0.087479
O O10 0.459527 0.787123 0.077308
#
# Coordination Sequence:
#
# PCOD9247967 Si02
#       5
#     4   4   4   4   4
#     4   9  21  40  61  95 124 165 208 262 308 385
#     4  11  24  42  68  93 131 173 216 276 314 391
#     4   9  21  40  65  91 130 161 212 261 312 387
#     4  11  24  44  64  98 131 168 224 267 323 384
#     4  10  22  40  69  89 135 171 208 266 333 365
#
# _framework density 27.896445
#
# number of rings (size 3 to 8) (size 9 to 14) (size 15 to 20)
#    1.200    0.800    2.000    0.600    2.800    2.400 
#    0.000    2.000    0.000    0.000    0.000    0.000 
#    0.000    0.000    0.000    0.000    0.000    0.000 
#
# Total GULP energy -111592.638792 kJ/mol
# GULP energy per Si atom -5579.631940 kJ/mol
# Density = 2.783295 g / cm^3
# Si number density = 27.896445 Si / 1000 Ang^3
#
#
#
# Elastic Constant Matrix: (Units=GPa)
#
#
# Indices 1 2 3 4 5 6 
#
# 1 126.1427 25.3283 33.6956 0.0000 18.0295 0.0000
# 2 25.3283 102.1932 19.0130 0.0000 12.4958 0.0000
# 3 33.6956 19.0130 46.4285 0.0000 -1.6748 0.0000
# 4 0.0000 0.0000 0.0000 51.6111 0.0000 8.1423
# 5 18.0295 12.4958 -1.6748 0.0000 42.4635 0.0000
# 6 0.0000 0.0000 0.0000 8.1423 0.0000 59.5505
#
#
#
# Elastic Compliance Matrix: (Units=1/GPa)
#
#
# Indices 1 2 3 4 5 6 
#
# 1 0.010798 -0.000663 -0.007734 0.000000 -0.004694 0.000000
# 2 -0.000663 0.011114 -0.004184 0.000000 -0.003154 0.000000
# 3 -0.007734 -0.004184 0.029069 0.000000 0.005661 0.000000
# 4 0.000000 0.000000 0.000000 0.019803 0.000000 -0.002708
# 5 -0.004694 -0.003154 0.005661 0.000000 0.026694 0.000000
# 6 0.000000 0.000000 0.000000 -0.002708 0.000000 0.017163
#
#
# Mechanical properties :
#
#
# Convention : Reuss Voigt Hill
#
# Bulk Modulus (GPa) = 38.73207 47.87094 43.30151
# Shear Modulus (GPa) = 33.69081 43.84018 38.76550
#
# Velocity S-wave (km/s) = 3.47898 3.96856 3.73181
# Velocity P-wave (km/s) = 5.48198 6.18035 5.84161
#
# Compressibility (1/GPa) = 0.02581839
#
# Stress axis : x y z
#
# Youngs Moduli (GPa) = 92.61285 89.97841 34.40083
#
# Poissons Ratio (x) = 0.05967 0.26606
# Poissons Ratio (y) = 0.06142 0.14392
# Poissons Ratio (z) = 0.71628 0.37644
#
# Static dielectric constant tensor:
#      x y z
#    x 2.281590 0.000000 -0.092050 
#    y 0.000000 2.184910 0.000000 
#    z -0.092050 0.000000 2.206270 
# 
# From -- ./inp_files/11746.got.cif
#   From: 2010.05.17/outbox.cif.g08.bks.cpg/sg14_6_cif.got.tgz:11746.got - 2010.06.03 17:49:19.
