data_PCOD9247774
_publ_section_title
;
Structure prediction by ZEFSAII (Michael W. Deem and Ramdas Pophale) SiO2 
 PCOD9247774
Probable space group: P 21/C
;
_chemical_formula_sum "Si O2"
_cell_formula_units_Z 30
_cell_length_a 12.204219
_cell_length_b 12.786270
_cell_length_c 9.065746
_cell_angle_alpha 90.000000
_cell_angle_beta 90.072900
_cell_angle_gamma 90.000000
_cell_volume 1414.676238
_symmetry_space_group_name_H-M "P 21/C"
_symmetry_group_IT_number 14
_symmetry_cell_setting 'monoclinic'
loop_
_space_group_symop_operation_xyz
x,y,z
-x,1/2+y,1/2-z
-x,-y,-z
x,1/2-y,1/2+z
loop_
_atom_site_type_symbol
_atom_site_label
_atom_site_fract_x
_atom_site_fract_y
_atom_site_fract_z
Si Si1 0.882288 0.656928 0.896912
Si Si2 0.908317 0.041323 0.216413
Si Si3 0.029397 0.741270 0.153901
Si Si4 0.500000 0.000000 0.500000
Si Si5 0.547626 0.665333 0.547505
Si Si6 0.137167 0.537416 0.604233
Si Si7 0.620987 0.487193 0.318114
Si Si8 0.362357 0.158492 0.630800
O O1 0.881136 0.536401 0.848155
O O2 0.757797 0.691526 0.921420
O O3 0.933584 0.717510 0.759027
O O4 0.967384 0.679803 0.025588
O O5 0.892703 0.160472 0.261586
O O6 0.846532 0.007766 0.067221
O O7 0.036987 0.027796 0.173164
O O8 0.094783 0.843219 0.102881
O O9 0.567131 0.996589 0.659351
O O10 0.390017 0.040325 0.589682
O O11 0.594244 0.583750 0.427587
O O12 0.434350 0.615344 0.606011
O O13 0.620461 0.675868 0.695533
O O14 0.546919 0.776572 0.463871
O O15 0.248974 0.524502 0.690604
#
# Coordination Sequence:
#
# PCOD9247774 Si02
#       8
#     4   4   4   2   4   4   4   4
#     4  11  23  37  65  91 126 170 215 260 328 376
#     4  10  22  40  60  93 129 165 219 266 309 404
#     4  11  22  41  59  97 127 166 220 265 308 409
#     4  10  24  42  62  98 130 154 236 252 326 382
#     4  10  22  40  65  91 126 153 227 254 326 377
#     4  10  22  41  66  91 133 170 207 265 339 369
#     4  10  22  43  66  93 125 176 201 277 318 389
#     4  11  22  40  61  96 120 170 204 277 309 390
#
# _framework density 21.206267
#
# number of rings (size 3 to 8) (size 9 to 14) (size 15 to 20)
#    0.000    1.600    1.333    2.800    3.733    0.000 
#    7.200    0.000    0.000    0.000    0.000    0.000 
#    0.000    0.000    0.000    0.000    0.000    0.000 
#
# Total GULP energy -167070.961207 kJ/mol
# GULP energy per Si atom -5569.032040 kJ/mol
# Density = 2.115800 g / cm^3
# Si number density = 21.206267 Si / 1000 Ang^3
#
#
#
# Elastic Constant Matrix: (Units=GPa)
#
#
# Indices 1 2 3 4 5 6 
#
# 1 55.2287 -6.5099 30.6111 0.0000 18.7524 0.0000
# 2 -6.5099 21.0941 -2.6389 0.0000 4.4134 0.0000
# 3 30.6111 -2.6389 117.5384 0.0000 19.4930 0.0000
# 4 0.0000 0.0000 0.0000 20.9469 0.0000 0.8400
# 5 18.7524 4.4134 19.4930 0.0000 18.8683 0.0000
# 6 0.0000 0.0000 0.0000 0.8400 0.0000 10.8359
#
#
#
# Elastic Compliance Matrix: (Units=1/GPa)
#
#
# Indices 1 2 3 4 5 6 
#
# 1 0.033215 0.017119 -0.002567 0.000000 -0.034363 0.000000
# 2 0.017119 0.060027 0.002461 0.000000 -0.033597 0.000000
# 3 -0.002567 0.002461 0.010745 0.000000 -0.009125 0.000000
# 4 0.000000 0.000000 0.000000 0.047889 0.000000 -0.003712
# 5 -0.034363 -0.033597 -0.009125 0.000000 0.104437 0.000000
# 6 0.000000 0.000000 0.000000 -0.003712 0.000000 0.092574
#
#
# Mechanical properties :
#
#
# Convention : Reuss Voigt Hill
#
# Bulk Modulus (GPa) = 7.24570 26.30953 16.77761
# Shear Modulus (GPa) = 13.85564 21.62349 17.73957
#
# Velocity S-wave (km/s) = 2.55889 3.19670 2.89541
# Velocity P-wave (km/s) = 3.48637 5.10476 4.37112
#
# Compressibility (1/GPa) = 0.13801292
#
# Stress axis : x y z
#
# Youngs Moduli (GPa) = 30.10704 16.65917 93.06640
#
# Poissons Ratio (x) = -0.28519 0.23891
# Poissons Ratio (y) = -0.51540 -0.22905
# Poissons Ratio (z) = 0.07729 -0.04100
#
# Static dielectric constant tensor:
#      x y z
#    x 1.743350 0.000000 0.011960 
#    y 0.000000 1.858400 0.000000 
#    z 0.011960 0.000000 1.775400 
# 
# From -- ./inp_files/13119.got.cif
#   From: 2010.05.17/outbox.cif.g08.bks.cpg/sg14_7_cif.got.tgz:13119.got - 2010.06.03 17:49:19.
