data_PCOD9247260
_publ_section_title
;
Structure prediction by ZEFSAII (Michael W. Deem and Ramdas Pophale) SiO2 
 PCOD9247260
Probable space group: P 21/C
;
_chemical_formula_sum "Si O2"
_cell_formula_units_Z 32
_cell_length_a 5.371692
_cell_length_b 21.792851
_cell_length_c 12.116802
_cell_angle_alpha 90.000000
_cell_angle_beta 103.076545
_cell_angle_gamma 90.000000
_cell_volume 1381.664944
_symmetry_space_group_name_H-M "P 21/C"
_symmetry_group_IT_number 14
_symmetry_cell_setting 'monoclinic'
loop_
_space_group_symop_operation_xyz
x,y,z
-x,1/2+y,1/2-z
-x,-y,-z
x,1/2-y,1/2+z
loop_
_atom_site_type_symbol
_atom_site_label
_atom_site_fract_x
_atom_site_fract_y
_atom_site_fract_z
Si Si1 0.569974 0.400516 0.524239
Si Si2 0.743652 0.291510 0.697490
Si Si3 0.140437 0.478557 0.407988
Si Si4 0.687907 0.054551 0.474818
Si Si5 0.891954 0.519500 0.813933
Si Si6 0.553869 0.631934 0.708969
Si Si7 0.706543 0.736855 0.167801
Si Si8 0.554657 0.181980 0.557287
O O1 0.640223 0.348374 0.616788
O O2 0.278040 0.416019 0.461042
O O3 0.661615 0.464574 0.585916
O O4 0.657600 0.379731 0.408248
O O5 0.536474 0.279476 0.775722
O O6 0.755333 0.234365 0.611749
O O7 0.031444 0.296241 0.771215
O O8 0.953536 0.486330 0.283663
O O9 0.000000 0.500000 0.500000
O O10 0.596879 0.123125 0.483950
O O11 0.940839 0.049635 0.574795
O O12 0.500000 0.000000 0.500000
O O13 0.764947 0.038679 0.358029
O O14 0.686983 0.566889 0.745892
O O15 0.723598 0.689490 0.683916
O O16 0.487635 0.652353 0.826709
O O17 0.651324 0.719728 0.034963
#
# Coordination Sequence:
#
# PCOD9247260 Si02
#       8
#     4   4   4   4   4   4   4   4
#     4  10  23  45  67 101 135 184 238 292 364 423
#     4  11  26  47  71 105 144 189 235 304 356 434
#     4  10  24  41  69  99 136 184 238 298 353 439
#     4  11  23  40  65  97 137 184 230 298 355 426
#     4  10  23  41  67  99 134 184 239 291 362 432
#     4  10  21  47  68  96 135 187 235 292 360 439
#     4  11  26  45  72 104 143 188 237 296 362 424
#     4  11  24  45  71 103 139 187 243 295 362 437
#
# _framework density 23.160461999999999
#
# number of rings (size 3 to 8) (size 9 to 14) (size 15 to 20)
#    0.000    1.500    2.500    0.750    5.250    5.000 
#    2.250    0.000    0.000    0.000    0.000    0.000 
#    0.000    0.000    0.000    0.000    0.000    0.000 
#
# Total GULP energy -178150.970907 kJ/mol
# GULP energy per Si atom -5567.217841 kJ/mol
# Density = 2.310775 g / cm^3
# Si number density = 23.160462 Si / 1000 Ang^3
#
#
#
# Elastic Constant Matrix: (Units=GPa)
#
#
# Indices 1 2 3 4 5 6 
#
# 1 50.5768 -6.3785 10.2708 0.0000 6.5170 0.0000
# 2 -6.3785 79.7251 6.4083 0.0000 2.3016 0.0000
# 3 10.2708 6.4083 126.9682 0.0000 12.5668 0.0000
# 4 0.0000 0.0000 0.0000 37.9768 0.0000 6.6267
# 5 6.5170 2.3016 12.5668 0.0000 24.9802 0.0000
# 6 0.0000 0.0000 0.0000 6.6267 0.0000 9.2916
#
#
#
# Elastic Compliance Matrix: (Units=1/GPa)
#
#
# Indices 1 2 3 4 5 6 
#
# 1 0.020919 0.001922 -0.001296 0.000000 -0.004983 0.000000
# 2 0.001922 0.012789 -0.000668 0.000000 -0.001344 0.000000
# 3 -0.001296 -0.000668 0.008393 0.000000 -0.003823 0.000000
# 4 0.000000 0.000000 0.000000 0.030075 0.000000 -0.021449
# 5 -0.004983 -0.001344 -0.003823 0.000000 0.043379 0.000000
# 6 0.000000 0.000000 0.000000 -0.021449 0.000000 0.122922
#
#
# Mechanical properties :
#
#
# Convention : Reuss Voigt Hill
#
# Bulk Modulus (GPa) = 23.79983 30.87461 27.33722
# Shear Modulus (GPa) = 19.79675 30.91433 25.35554
#
# Velocity S-wave (km/s) = 2.92681 3.65744 3.31233
# Velocity P-wave (km/s) = 4.66047 5.58529 5.14371
#
# Compressibility (1/GPa) = 0.04201710
#
# Stress axis : x y z
#
# Youngs Moduli (GPa) = 47.80229 78.19016 119.14854
#
# Poissons Ratio (x) = -0.15026 0.15442
# Poissons Ratio (y) = -0.09186 0.07959
# Poissons Ratio (z) = 0.06195 0.05223
#
# Static dielectric constant tensor:
#      x y z
#    x 2.106410 0.000000 -0.455770 
#    y 0.000000 2.710240 0.000000 
#    z -0.455770 0.000000 2.821090 
# 
# From -- ./inp_files/22125.got.cif
#   From: 2010.05.17/outbox.cif.g08.bks.cpg/sg14_12_cif.got.tgz:22125.got - 2010.06.03 17:49:19.
