data_PCOD9247264
_publ_section_title
;
Structure prediction by ZEFSAII (Michael W. Deem and Ramdas Pophale) SiO2 
 PCOD9247264
Probable space group: P 21/C
;
_chemical_formula_sum "Si O2"
_cell_formula_units_Z 28
_cell_length_a 7.565246
_cell_length_b 9.072214
_cell_length_c 22.157383
_cell_angle_alpha 90.000000
_cell_angle_beta 47.783854
_cell_angle_gamma 90.000000
_cell_volume 1126.282849
_symmetry_space_group_name_H-M "P 21/C"
_symmetry_group_IT_number 14
_symmetry_cell_setting 'monoclinic'
loop_
_space_group_symop_operation_xyz
x,y,z
-x,1/2+y,1/2-z
-x,-y,-z
x,1/2-y,1/2+z
loop_
_atom_site_type_symbol
_atom_site_label
_atom_site_fract_x
_atom_site_fract_y
_atom_site_fract_z
Si Si1 0.762539 0.756110 0.527415
Si Si2 0.970285 0.591553 0.583868
Si Si3 0.524446 0.983782 0.365635
Si Si4 0.014604 0.986311 0.685242
Si Si5 0.903342 0.279071 0.648287
Si Si6 0.638608 0.308488 0.980633
Si Si7 0.618369 0.767865 0.752004
O O1 0.828144 0.613628 0.552928
O O2 0.549625 0.751727 0.526452
O O3 0.000329 0.799802 0.435866
O O4 0.668278 0.886375 0.592853
O O5 0.016502 0.437496 0.606927
O O6 0.799215 0.682228 0.667991
O O7 0.220620 0.675276 0.521097
O O8 0.800011 0.037735 0.303034
O O9 0.483480 0.906926 0.440372
O O10 0.516350 0.854112 0.320472
O O11 0.975969 0.159594 0.681683
O O12 0.157788 0.907195 0.597990
O O13 0.764176 0.901987 0.748273
O O14 0.627228 0.319321 0.721160
#
# Coordination Sequence:
#
# PCOD9247264 Si02
#       7
#     4   4   4   4   4   4   4
#     4  11  23  44  77 102 140 186 241 304 350 432
#     4  11  27  43  67 106 149 181 240 303 363 426
#     4  11  22  45  78 104 137 196 241 299 368 421
#     4  10  22  46  69  98 146 180 244 298 359 442
#     4  12  23  45  69 101 143 187 235 299 365 420
#     4  10  21  47  74 108 132 187 251 294 357 425
#     4  11  27  43  65 105 138 192 238 286 367 443
#
# _framework density 24.860541000000001
#
# number of rings (size 3 to 8) (size 9 to 14) (size 15 to 20)
#    0.000    1.143    2.857    3.000    6.000    2.857 
#   15.429    0.000    0.000    0.000    0.000    0.000 
#    0.000    0.000    0.000    0.000    0.000    0.000 
#
# Total GULP energy -156436.251898 kJ/mol
# GULP energy per Si atom -5587.008996 kJ/mol
# Density = 2.480396 g / cm^3
# Si number density = 24.860541 Si / 1000 Ang^3
#
#
#
# Elastic Constant Matrix: (Units=GPa)
#
#
# Indices 1 2 3 4 5 6 
#
# 1 84.5200 53.9262 24.9965 0.0000 -19.2363 0.0000
# 2 53.9262 138.1606 12.6488 0.0000 -18.4412 0.0000
# 3 24.9965 12.6488 65.3271 0.0000 -27.0481 0.0000
# 4 0.0000 0.0000 0.0000 42.2234 0.0000 -10.8495
# 5 -19.2363 -18.4412 -27.0481 0.0000 44.6144 0.0000
# 6 0.0000 0.0000 0.0000 -10.8495 0.0000 41.6777
#
#
#
# Elastic Compliance Matrix: (Units=1/GPa)
#
#
# Indices 1 2 3 4 5 6 
#
# 1 0.017644 -0.006162 -0.004624 0.000000 0.002257 0.000000
# 2 -0.006162 0.009815 0.001385 0.000000 0.002240 0.000000
# 3 -0.004624 0.001385 0.021656 0.000000 0.011708 0.000000
# 4 0.000000 0.000000 0.000000 0.025381 0.000000 0.006607
# 5 0.002257 0.002240 0.011708 0.000000 0.031412 0.000000
# 6 0.000000 0.000000 0.000000 0.006607 0.000000 0.025714
#
#
# Mechanical properties :
#
#
# Convention : Reuss Voigt Hill
#
# Bulk Modulus (GPa) = 32.98809 52.35010 42.66909
# Shear Modulus (GPa) = 31.14691 38.79884 34.97287
#
# Velocity S-wave (km/s) = 3.54342 3.95480 3.75475
# Velocity P-wave (km/s) = 5.48080 6.47744 5.99985
#
# Compressibility (1/GPa) = 0.03031397
#
# Stress axis : x y z
#
# Youngs Moduli (GPa) = 56.67519 101.88118 46.17589
#
# Poissons Ratio (x) = 0.62782 0.21350
# Poissons Ratio (y) = 0.34925 -0.06394
# Poissons Ratio (z) = 0.26204 -0.14108
#
# Static dielectric constant tensor:
#      x y z
#    x 2.057290 0.000000 0.050540 
#    y 0.000000 2.012140 0.000000 
#    z 0.050540 0.000000 1.974370 
# 
# From -- ./inp_files/76460.got.cif
#   From: 2010.05.17/outbox.cif.g08.bks.cpg/sg14_39_cif.got.tgz:76460.got - 2010.06.03 17:49:19.
