data_PCOD9247224
_publ_section_title
;
Structure prediction by ZEFSAII (Michael W. Deem and Ramdas Pophale) SiO2 
 PCOD9247224
Probable space group: P 21/C
;
_chemical_formula_sum "Si O2"
_cell_formula_units_Z 28
_cell_length_a 16.457327
_cell_length_b 9.734708
_cell_length_c 10.723861
_cell_angle_alpha 90.000000
_cell_angle_beta 132.882207
_cell_angle_gamma 90.000000
_cell_volume 1258.901511
_symmetry_space_group_name_H-M "P 21/C"
_symmetry_group_IT_number 14
_symmetry_cell_setting 'monoclinic'
loop_
_space_group_symop_operation_xyz
x,y,z
-x,1/2+y,1/2-z
-x,-y,-z
x,1/2-y,1/2+z
loop_
_atom_site_type_symbol
_atom_site_label
_atom_site_fract_x
_atom_site_fract_y
_atom_site_fract_z
Si Si1 0.163062 0.967875 0.679605
Si Si2 0.734824 0.441687 0.039801
Si Si3 0.407846 0.591182 0.338658
Si Si4 0.091916 0.751981 0.927619
Si Si5 0.791049 0.513801 0.489288
Si Si6 0.399502 0.905892 0.352483
Si Si7 0.860619 0.811874 0.556658
O O1 0.291040 0.928867 0.787482
O O2 0.091623 0.842281 0.550154
O O3 0.133120 0.095711 0.560378
O O4 0.159839 0.000901 0.820407
O O5 0.816279 0.324279 0.065978
O O6 0.690759 0.410122 0.130049
O O7 0.798543 0.586381 0.089266
O O8 0.626574 0.448868 0.837561
O O9 0.500000 0.500000 0.500000
O O10 0.438239 0.750802 0.373103
O O11 0.977374 0.765735 0.735695
O O12 0.132006 0.904734 0.002199
O O13 0.666449 0.460083 0.337528
O O14 0.796372 0.672170 0.458940
O O15 0.500000 0.000000 0.500000
#
# Coordination Sequence:
#
# PCOD9247224 Si02
#       7
#     4   4   4   4   4   4   4
#     4  10  24  45  65 100 142 177 231 292 354 421
#     4  10  24  47  66 101 148 177 232 299 352 429
#     4  10  23  43  71  94 133 185 231 295 363 410
#     4  10  21  45  72  98 134 182 234 284 367 416
#     4  12  24  43  67  98 143 178 236 295 343 434
#     4  12  28  43  68 105 136 187 241 287 363 418
#     4  10  24  42  70 104 132 184 234 285 357 422
#
# _framework density 22.241610999999999
#
# number of rings (size 3 to 8) (size 9 to 14) (size 15 to 20)
#    0.000    1.714    2.857    2.571    8.000    2.286 
#    0.000    1.429    0.000    0.000    0.000    0.000 
#    0.000    0.000    0.000    0.000    0.000    0.000 
#
# Total GULP energy -156579.045194 kJ/mol
# GULP energy per Si atom -5592.108757 kJ/mol
# Density = 2.219099 g / cm^3
# Si number density = 22.241611 Si / 1000 Ang^3
#
#
#
# Elastic Constant Matrix: (Units=GPa)
#
#
# Indices 1 2 3 4 5 6 
#
# 1 27.2514 -9.9515 13.1881 0.0000 -2.9623 0.0000
# 2 -9.9515 113.6423 48.8627 0.0000 16.0967 0.0000
# 3 13.1881 48.8627 172.7945 0.0000 13.7425 0.0000
# 4 0.0000 0.0000 0.0000 47.3361 0.0000 18.2279
# 5 -2.9623 16.0967 13.7425 0.0000 42.6009 0.0000
# 6 0.0000 0.0000 0.0000 18.2279 0.0000 8.6609
#
#
#
# Elastic Compliance Matrix: (Units=1/GPa)
#
#
# Indices 1 2 3 4 5 6 
#
# 1 0.041265 0.005360 -0.004857 0.000000 0.002411 0.000000
# 2 0.005360 0.011088 -0.003326 0.000000 -0.002744 0.000000
# 3 -0.004857 -0.003326 0.007210 0.000000 -0.001407 0.000000
# 4 0.000000 0.000000 0.000000 0.111445 0.000000 -0.234550
# 5 0.002411 -0.002744 -0.001407 0.000000 0.025132 0.000000
# 6 0.000000 0.000000 0.000000 -0.234550 0.000000 0.609103
#
#
# Mechanical properties :
#
#
# Convention : Reuss Voigt Hill
#
# Bulk Modulus (GPa) = 18.54673 46.43185 32.48929
# Shear Modulus (GPa) = 6.03237 37.15886 21.59561
#
# Velocity S-wave (km/s) = 1.64866 4.09184 3.11940
# Velocity P-wave (km/s) = 3.46135 6.57614 5.25484
#
# Compressibility (1/GPa) = 0.05391787
#
# Stress axis : x y z
#
# Youngs Moduli (GPa) = 24.23338 90.18933 138.68822
#
# Poissons Ratio (x) = -0.48346 0.67361
# Poissons Ratio (y) = -0.12990 0.46132
# Poissons Ratio (z) = 0.11770 0.30000
#
# Static dielectric constant tensor:
#      x y z
#    x 1.860130 0.000000 -0.017520 
#    y 0.000000 1.808930 0.000000 
#    z -0.017520 0.000000 1.819160 
# 
# From -- ./inp_files/34994.got.cif
#   From: 2010.05.17/outbox.cif.g08.bks.cpg/sg14_18_cif.got.tgz:34994.got - 2010.06.03 17:49:19.
