data_PCOD9247034
_publ_section_title
;
Structure prediction by ZEFSAII (Michael W. Deem and Ramdas Pophale) SiO2 
 PCOD9247034
Probable space group: P 21/C
;
_chemical_formula_sum "Si O2"
_cell_formula_units_Z 28
_cell_length_a 19.410695
_cell_length_b 11.997334
_cell_length_c 9.914302
_cell_angle_alpha 90.000000
_cell_angle_beta 27.561487
_cell_angle_gamma 90.000000
_cell_volume 1068.286418
_symmetry_space_group_name_H-M "P 21/C"
_symmetry_group_IT_number 14
_symmetry_cell_setting 'monoclinic'
loop_
_space_group_symop_operation_xyz
x,y,z
-x,1/2+y,1/2-z
-x,-y,-z
x,1/2-y,1/2+z
loop_
_atom_site_type_symbol
_atom_site_label
_atom_site_fract_x
_atom_site_fract_y
_atom_site_fract_z
Si Si1 0.330096 0.869130 0.608184
Si Si2 0.987330 0.787292 0.284758
Si Si3 0.116985 0.637682 0.845703
Si Si4 0.853180 0.567113 0.476324
Si Si5 0.603773 0.159378 0.818513
Si Si6 0.355480 0.043943 0.895004
Si Si7 0.715117 0.582255 0.189335
O O1 0.107329 0.740554 0.967119
O O2 0.359999 0.768836 0.660615
O O3 0.359323 0.831846 0.403905
O O4 0.468567 0.953547 0.405707
O O5 0.055972 0.825984 0.306530
O O6 0.892418 0.676568 0.490665
O O7 0.876817 0.866026 0.390508
O O8 0.192768 0.955483 0.867304
O O9 0.272340 0.575156 0.553418
O O10 0.999894 0.556198 0.126423
O O11 0.722013 0.597412 0.599581
O O12 0.699037 0.050956 0.698931
O O13 0.428159 0.130460 0.139966
O O14 0.310073 0.107791 0.109126
#
# Coordination Sequence:
#
# PCOD9247034 Si02
#       7
#     4   4   4   4   4   4   4
#     4  11  25  46  76 109 152 197 259 317 390 450
#     4  10  22  40  77 109 147 201 250 310 381 465
#     4  10  24  44  76 104 151 200 258 301 388 455
#     4  10  23  41  75 112 146 198 252 314 382 465
#     4  10  25  43  70 107 151 197 243 323 385 457
#     4  11  22  46  73 103 145 204 250 315 369 456
#     4  10  21  43  68 106 148 187 252 310 382 449
#
# _framework density 26.210197999999998
#
# number of rings (size 3 to 8) (size 9 to 14) (size 15 to 20)
#    0.857    0.857    1.429    1.714    4.000    0.000 
#   12.857    0.000    6.286    2.571    0.000    0.000 
#    0.000    0.000    0.000    0.000    0.000    0.000 
#
# Total GULP energy -156688.222900 kJ/mol
# GULP energy per Si atom -5596.007961 kJ/mol
# Density = 2.615054 g / cm^3
# Si number density = 26.210198 Si / 1000 Ang^3
#
#
#
# Elastic Constant Matrix: (Units=GPa)
#
#
# Indices 1 2 3 4 5 6 
#
# 1 149.3142 80.9234 48.1170 0.0000 -6.2969 0.0000
# 2 80.9234 173.2404 69.6112 0.0000 -7.9904 0.0000
# 3 48.1170 69.6112 135.6505 0.0000 -15.5906 0.0000
# 4 0.0000 0.0000 0.0000 21.0833 0.0000 -13.8124
# 5 -6.2969 -7.9904 -15.5906 0.0000 29.2432 0.0000
# 6 0.0000 0.0000 0.0000 -13.8124 0.0000 34.9882
#
#
#
# Elastic Compliance Matrix: (Units=1/GPa)
#
#
# Indices 1 2 3 4 5 6 
#
# 1 0.009155 -0.003743 -0.001297 0.000000 0.000257 0.000000
# 2 -0.003743 0.008802 -0.003202 0.000000 -0.000108 0.000000
# 3 -0.001297 -0.003202 0.009952 0.000000 0.004152 0.000000
# 4 0.000000 0.000000 0.000000 0.063977 0.000000 0.025256
# 5 0.000257 -0.000108 0.004152 0.000000 0.036435 0.000000
# 6 0.000000 0.000000 0.000000 0.025256 0.000000 0.038552
#
#
# Mechanical properties :
#
#
# Convention : Reuss Voigt Hill
#
# Bulk Modulus (GPa) = 87.52323 95.05648 91.28985
# Shear Modulus (GPa) = 26.71431 34.36651 30.54041
#
# Velocity S-wave (km/s) = 3.19601 3.62496 3.41722
# Velocity P-wave (km/s) = 6.86182 7.33936 7.10460
#
# Compressibility (1/GPa) = 0.01142554
#
# Stress axis : x y z
#
# Youngs Moduli (GPa) = 109.23182 113.60453 100.48202
#
# Poissons Ratio (x) = 0.42527 0.13030
# Poissons Ratio (y) = 0.40890 0.32171
# Poissons Ratio (z) = 0.14165 0.36372
#
# Static dielectric constant tensor:
#      x y z
#    x 2.027850 0.000000 -0.054450 
#    y 0.000000 2.183770 0.000000 
#    z -0.054450 0.000000 2.223300 
# 
# From -- ./inp_files/35140.got.cif
#   From: 2010.05.17/outbox.cif.g08.bks.cpg/sg14_18_cif.got.tgz:35140.got - 2010.06.03 17:49:19.
