data_PCOD9247758
_publ_section_title
;
Structure prediction by ZEFSAII (Michael W. Deem and Ramdas Pophale) SiO2 
 PCOD9247758
Probable space group: P 21/C
;
_chemical_formula_sum "Si O2"
_cell_formula_units_Z 28
_cell_length_a 20.473659
_cell_length_b 11.737226
_cell_length_c 8.328468
_cell_angle_alpha 90.000000
_cell_angle_beta 138.250176
_cell_angle_gamma 90.000000
_cell_volume 1332.666917
_symmetry_space_group_name_H-M "P 21/C"
_symmetry_group_IT_number 14
_symmetry_cell_setting 'monoclinic'
loop_
_space_group_symop_operation_xyz
x,y,z
-x,1/2+y,1/2-z
-x,-y,-z
x,1/2-y,1/2+z
loop_
_atom_site_type_symbol
_atom_site_label
_atom_site_fract_x
_atom_site_fract_y
_atom_site_fract_z
Si Si1 0.277134 0.088287 0.606433
Si Si2 0.567443 0.204280 0.874097
Si Si3 0.293813 0.513182 0.493863
Si Si4 0.852272 0.806476 0.861645
Si Si5 0.418361 0.583360 0.276183
Si Si6 0.358739 0.318875 0.844893
Si Si7 0.092211 0.424774 0.218691
O O1 0.171653 0.126095 0.347188
O O2 0.351718 0.195455 0.747566
O O3 0.278904 0.035512 0.786606
O O4 0.322046 0.991240 0.576203
O O5 0.563089 0.339950 0.842738
O O6 0.458844 0.165334 0.623416
O O7 0.647075 0.130336 0.919444
O O8 0.592197 0.174755 0.101403
O O9 0.351777 0.418550 0.702217
O O10 0.186996 0.507743 0.379850
O O11 0.742516 0.807788 0.739049
O O12 0.887995 0.682742 0.866350
O O13 0.914003 0.869348 0.113431
O O14 0.500000 0.500000 0.500000
O O15 0.000000 0.500000 0.000000
#
# Coordination Sequence:
#
# PCOD9247758 Si02
#       7
#     4   4   4   4   4   4   4
#     4  11  19  37  64  89 124 164 214 263 305 380
#     4  11  25  36  59  91 134 173 211 264 323 371
#     4  10  22  40  59  92 129 164 216 269 317 382
#     4  11  21  40  67  96 124 159 218 262 317 395
#     4  11  24  39  55  86 128 174 221 259 311 382
#     4  11  19  34  64  91 125 170 214 255 310 382
#     4  11  23  43  71  97 125 167 216 274 330 382
#
# _framework density 21.010498999999999
#
# number of rings (size 3 to 8) (size 9 to 14) (size 15 to 20)
#    0.000    1.143    5.714    1.286    2.000    3.429 
#    0.000    7.143    0.000    0.000    0.000    0.000 
#    0.000    0.000    0.000    0.000    0.000    0.000 
#
# Total GULP energy -156268.826397 kJ/mol
# GULP energy per Si atom -5581.029514 kJ/mol
# Density = 2.096268 g / cm^3
# Si number density = 21.010499 Si / 1000 Ang^3
#
#
#
# Elastic Constant Matrix: (Units=GPa)
#
#
# Indices 1 2 3 4 5 6 
#
# 1 41.0465 26.8088 25.3812 0.0000 -5.6077 0.0000
# 2 26.8088 96.7797 51.2044 0.0000 -1.1429 0.0000
# 3 25.3812 51.2044 112.8977 0.0000 2.1600 0.0000
# 4 0.0000 0.0000 0.0000 44.5100 0.0000 3.1821
# 5 -5.6077 -1.1429 2.1600 0.0000 23.5612 0.0000
# 6 0.0000 0.0000 0.0000 3.1821 0.0000 34.4718
#
#
#
# Elastic Compliance Matrix: (Units=1/GPa)
#
#
# Indices 1 2 3 4 5 6 
#
# 1 0.032470 -0.006527 -0.004489 0.000000 0.007823 0.000000
# 2 -0.006527 0.014943 -0.005303 0.000000 -0.000342 0.000000
# 3 -0.004489 -0.005303 0.012319 0.000000 -0.002455 0.000000
# 4 0.000000 0.000000 0.000000 0.022616 0.000000 -0.002088
# 5 0.007823 -0.000342 -0.002455 0.000000 0.044513 0.000000
# 6 0.000000 0.000000 0.000000 -0.002088 0.000000 0.029202
#
#
# Mechanical properties :
#
#
# Convention : Reuss Voigt Hill
#
# Bulk Modulus (GPa) = 36.90985 50.83476 43.87230
# Shear Modulus (GPa) = 25.28664 30.33057 27.80861
#
# Velocity S-wave (km/s) = 3.47295 3.80358 3.64202
# Velocity P-wave (km/s) = 5.80408 6.59827 6.21387
#
# Compressibility (1/GPa) = 0.02709304
#
# Stress axis : x y z
#
# Youngs Moduli (GPa) = 30.79736 66.92279 81.17502
#
# Poissons Ratio (x) = 0.43681 0.36441
# Poissons Ratio (y) = 0.20101 0.43049
# Poissons Ratio (z) = 0.13826 0.35491
#
# Static dielectric constant tensor:
#      x y z
#    x 1.865650 0.000000 -0.042140 
#    y 0.000000 1.815730 0.000000 
#    z -0.042140 0.000000 1.765450 
# 
# From -- ./inp_files/18987.got.cif
#   From: 2010.05.17/outbox.cif.g08.bks.cpg/sg14_10_cif.got.tgz:18987.got - 2010.06.03 17:49:19.
