data_PCOD9247210
_publ_section_title
;
Structure prediction by ZEFSAII (Michael W. Deem and Ramdas Pophale) SiO2 
 PCOD9247210
Probable space group: P 21/C
;
_chemical_formula_sum "Si O2"
_cell_formula_units_Z 28
_cell_length_a 12.320014
_cell_length_b 5.398574
_cell_length_c 17.211353
_cell_angle_alpha 90.000000
_cell_angle_beta 110.315337
_cell_angle_gamma 90.000000
_cell_volume 1073.528709
_symmetry_space_group_name_H-M "P 21/C"
_symmetry_group_IT_number 14
_symmetry_cell_setting 'monoclinic'
loop_
_space_group_symop_operation_xyz
x,y,z
-x,1/2+y,1/2-z
-x,-y,-z
x,1/2-y,1/2+z
loop_
_atom_site_type_symbol
_atom_site_label
_atom_site_fract_x
_atom_site_fract_y
_atom_site_fract_z
Si Si1 0.194683 0.056521 0.083718
Si Si2 0.503073 0.309559 0.929801
Si Si3 0.346627 0.986234 0.270221
Si Si4 0.698008 0.967463 0.028598
Si Si5 0.989996 0.081146 0.293026
Si Si6 0.956971 0.190288 0.552487
Si Si7 0.247186 0.492034 0.299000
O O1 0.295787 0.002444 0.170693
O O2 0.074948 0.146132 0.094306
O O3 0.254603 0.212648 0.027473
O O4 0.144129 0.844663 0.013296
O O5 0.468941 0.415105 0.836293
O O6 0.399423 0.132598 0.934392
O O7 0.500000 0.500000 0.000000
O O8 0.624036 0.172095 0.964672
O O9 0.264914 0.199038 0.289281
O O10 0.339147 0.704489 0.298240
O O11 0.785846 0.042256 0.119095
O O12 0.070098 0.980102 0.380582
O O13 0.992562 0.856709 0.231921
O O14 0.856244 0.072543 0.284700
O O15 0.000000 0.000000 0.500000
#
# Coordination Sequence:
#
# PCOD9247210 Si02
#       7
#     4   4   4   4   4   4   4
#     4  11  25  45  67 105 140 192 230 295 360 426
#     4  10  21  45  69  97 135 178 232 295 353 421
#     4  11  23  44  70  96 138 179 230 291 355 417
#     4  10  23  42  69  99 134 182 236 291 358 422
#     4  12  26  42  69 104 140 191 251 294 347 429
#     4  11  26  45  70  98 155 191 235 296 362 431
#     4  11  22  42  67  95 136 180 231 289 345 415
#
# _framework density 26.082208999999999
#
# number of rings (size 3 to 8) (size 9 to 14) (size 15 to 20)
#    0.000    1.143    2.857    2.571    6.000    1.143 
#    2.571    0.000    0.000    0.000    0.000    0.000 
#    0.000    0.000    0.000    0.000    0.000    0.000 
#
# Total GULP energy -155962.781427 kJ/mol
# GULP energy per Si atom -5570.099337 kJ/mol
# Density = 2.602284 g / cm^3
# Si number density = 26.082209 Si / 1000 Ang^3
#
#
#
# Elastic Constant Matrix: (Units=GPa)
#
#
# Indices 1 2 3 4 5 6 
#
# 1 46.9502 13.2946 27.8514 0.0000 3.4559 0.0000
# 2 13.2946 74.2034 43.3707 0.0000 -2.6726 0.0000
# 3 27.8514 43.3707 234.3929 0.0000 2.9397 0.0000
# 4 0.0000 0.0000 0.0000 50.9071 0.0000 6.6203
# 5 3.4559 -2.6726 2.9397 0.0000 41.0073 0.0000
# 6 0.0000 0.0000 0.0000 6.6203 0.0000 24.7827
#
#
#
# Elastic Compliance Matrix: (Units=1/GPa)
#
#
# Indices 1 2 3 4 5 6 
#
# 1 0.023619 -0.003004 -0.002225 0.000000 -0.002027 0.000000
# 2 -0.003004 0.015551 -0.002539 0.000000 0.001449 0.000000
# 3 -0.002225 -0.002539 0.005005 0.000000 -0.000337 0.000000
# 4 0.000000 0.000000 0.000000 0.020351 0.000000 -0.005436
# 5 -0.002027 0.001449 -0.000337 0.000000 0.024675 0.000000
# 6 0.000000 0.000000 0.000000 -0.005436 0.000000 0.041803
#
#
# Mechanical properties :
#
#
# Convention : Reuss Voigt Hill
#
# Bulk Modulus (GPa) = 34.91796 58.28665 46.60230
# Shear Modulus (GPa) = 32.03379 41.40807 36.72093
#
# Velocity S-wave (km/s) = 3.50835 3.98879 3.75626
# Velocity P-wave (km/s) = 5.46151 6.60377 6.05961
#
# Compressibility (1/GPa) = 0.02863856
#
# Stress axis : x y z
#
# Youngs Moduli (GPa) = 42.33879 64.30602 199.81203
#
# Poissons Ratio (x) = 0.19318 0.44463
# Poissons Ratio (y) = 0.12719 0.50725
# Poissons Ratio (z) = 0.09421 0.16325
#
# Static dielectric constant tensor:
#      x y z
#    x 2.995110 0.000000 0.218430 
#    y 0.000000 1.981380 0.000000 
#    z 0.218430 0.000000 2.298510 
# 
# From -- ./inp_files/58663.got.cif
#   From: 2010.05.17/outbox.cif.g08.bks.cpg/sg14_30_cif.got.tgz:58663.got - 2010.06.03 17:49:19.
