data_PCOD9247370
_publ_section_title
;
Structure prediction by ZEFSAII (Michael W. Deem and Ramdas Pophale) SiO2 
 PCOD9247370
Probable space group: P 21/C
;
_chemical_formula_sum "Si O2"
_cell_formula_units_Z 16
_cell_length_a 8.824623
_cell_length_b 5.199016
_cell_length_c 13.888182
_cell_angle_alpha 90.000000
_cell_angle_beta 118.034653
_cell_angle_gamma 90.000000
_cell_volume 562.416272
_symmetry_space_group_name_H-M "P 21/C"
_symmetry_group_IT_number 14
_symmetry_cell_setting 'monoclinic'
loop_
_space_group_symop_operation_xyz
x,y,z
-x,1/2+y,1/2-z
-x,-y,-z
x,1/2-y,1/2+z
loop_
_atom_site_type_symbol
_atom_site_label
_atom_site_fract_x
_atom_site_fract_y
_atom_site_fract_z
Si Si1 0.749264 0.105913 0.510012
Si Si2 0.856666 0.783710 0.887827
Si Si3 0.111211 0.869739 0.257809
Si Si4 0.535882 0.857829 0.203287
O O1 0.781515 0.833231 0.464914
O O2 0.731298 0.113653 0.620175
O O3 0.587518 0.257821 0.417795
O O4 0.939030 0.232266 0.551439
O O5 0.844081 0.072909 0.840157
O O6 0.742401 0.644411 0.769910
O O7 0.998188 0.115504 0.258245
O O8 0.507689 0.642292 0.277042
#
# Coordination Sequence:
#
# PCOD9247370 Si02
#       4
#     4   4   4   4
#     4   9  20  39  62  86 118 155 190 239 292 338
#     4   9  20  38  62  84 118 155 190 239 292 336
#     4  10  22  37  58  89 116 150 200 235 280 353
#     4  10  22  37  58  89 116 150 200 235 280 353
#
# _framework density 28.448681000000001
#
# number of rings (size 3 to 8) (size 9 to 14) (size 15 to 20)
#    0.000    2.500    0.000    0.000    0.000   21.000 
#    0.000    0.000    0.000   51.000    0.000    0.000 
#    0.000    0.000    0.000    0.000    0.000    0.000 
#
# Total GULP energy -89338.137943 kJ/mol
# GULP energy per Si atom -5583.633621 kJ/mol
# Density = 2.838393 g / cm^3
# Si number density = 28.448681 Si / 1000 Ang^3
#
#
#
# Elastic Constant Matrix: (Units=GPa)
#
#
# Indices 1 2 3 4 5 6 
#
# 1 93.8350 34.6665 36.5503 0.0000 12.8634 0.0000
# 2 34.6665 118.0362 47.0457 0.0000 6.7893 0.0000
# 3 36.5503 47.0457 275.6527 0.0000 2.9610 0.0000
# 4 0.0000 0.0000 0.0000 65.1273 0.0000 5.7736
# 5 12.8634 6.7893 2.9610 0.0000 53.2340 0.0000
# 6 0.0000 0.0000 0.0000 5.7736 0.0000 50.1452
#
#
#
# Elastic Compliance Matrix: (Units=1/GPa)
#
#
# Indices 1 2 3 4 5 6 
#
# 1 0.012592 -0.003106 -0.001112 0.000000 -0.002585 0.000000
# 2 -0.003106 0.009918 -0.001276 0.000000 -0.000443 0.000000
# 3 -0.001112 -0.001276 0.003991 0.000000 0.000209 0.000000
# 4 0.000000 0.000000 0.000000 0.015513 0.000000 -0.001786
# 5 -0.002585 -0.000443 0.000209 0.000000 0.019454 0.000000
# 6 0.000000 0.000000 0.000000 -0.001786 0.000000 0.020148
#
#
# Mechanical properties :
#
#
# Convention : Reuss Voigt Hill
#
# Bulk Modulus (GPa) = 64.46360 80.44990 72.45675
# Shear Modulus (GPa) = 51.13749 58.31870 54.72810
#
# Velocity S-wave (km/s) = 4.24433 4.53256 4.39081
# Velocity P-wave (km/s) = 6.83579 7.46542 7.15753
#
# Compressibility (1/GPa) = 0.01551263
#
# Stress axis : x y z
#
# Youngs Moduli (GPa) = 79.41556 100.82227 250.58215
#
# Poissons Ratio (x) = 0.31320 0.27857
# Poissons Ratio (y) = 0.24670 0.31977
# Poissons Ratio (z) = 0.08829 0.12866
#
# Static dielectric constant tensor:
#      x y z
#    x 2.365580 0.000000 0.054940 
#    y 0.000000 2.337520 0.000000 
#    z 0.054940 0.000000 2.320800 
# 
# From -- ./inp_files/20325.got.cif
#   From: 2010.05.17/outbox.cif.g08.bks.cpg/sg14_11_cif.got.tgz:20325.got - 2010.06.03 17:49:19.
