data_PCOD9247603
_publ_section_title
;
Structure prediction by ZEFSAII (Michael W. Deem and Ramdas Pophale) SiO2 
 PCOD9247603
Probable space group: P 21/C
;
_chemical_formula_sum "Si O2"
_cell_formula_units_Z 24
_cell_length_a 7.991155
_cell_length_b 21.736126
_cell_length_c 5.872605
_cell_angle_alpha 90.000000
_cell_angle_beta 113.196496
_cell_angle_gamma 90.000000
_cell_volume 937.590795
_symmetry_space_group_name_H-M "P 21/C"
_symmetry_group_IT_number 14
_symmetry_cell_setting 'monoclinic'
loop_
_space_group_symop_operation_xyz
x,y,z
-x,1/2+y,1/2-z
-x,-y,-z
x,1/2-y,1/2+z
loop_
_atom_site_type_symbol
_atom_site_label
_atom_site_fract_x
_atom_site_fract_y
_atom_site_fract_z
Si Si1 0.193939 0.278267 0.129220
Si Si2 0.290322 0.024957 0.813218
Si Si3 0.482334 0.652933 0.538287
Si Si4 0.433289 0.586198 0.115108
Si Si5 0.834254 0.903207 0.621803
Si Si6 0.164455 0.579113 0.584167
O O1 0.152842 0.263496 0.377998
O O2 0.410494 0.293721 0.277328
O O3 0.116013 0.341865 0.989802
O O4 0.380105 0.092914 0.896266
O O5 0.572306 0.022713 0.241015
O O6 0.208562 0.984299 0.973242
O O7 0.141161 0.042865 0.544366
O O8 0.430364 0.651313 0.245809
O O9 0.296634 0.631552 0.552048
O O10 0.621611 0.591038 0.078571
O O11 0.247627 0.577718 0.876977
O O12 0.959112 0.905443 0.911536
#
# Coordination Sequence:
#
# PCOD9247603 Si02
#       6
#     4   4   4   4   4   4
#     4  11  24  48  74  96 127 181 232 289 350 394
#     4  10  22  39  60  95 144 178 214 263 330 417
#     4  10  23  42  65  94 134 177 222 275 333 403
#     4  11  21  40  63  96 138 178 213 262 333 409
#     4  11  24  41  66  97 132 173 225 278 331 397
#     4  11  22  40  62 101 134 172 216 265 335 412
#
# _framework density 25.597522999999999
#
# number of rings (size 3 to 8) (size 9 to 14) (size 15 to 20)
#    0.000    1.333    3.333    4.000    2.333    0.667 
#   21.000    1.667    0.000    0.000    0.000    0.000 
#    0.000    0.000    0.000    0.000    0.000    0.000 
#
# Total GULP energy -133634.154536 kJ/mol
# GULP energy per Si atom -5568.089772 kJ/mol
# Density = 2.553926 g / cm^3
# Si number density = 25.597523 Si / 1000 Ang^3
#
#
#
# Elastic Constant Matrix: (Units=GPa)
#
#
# Indices 1 2 3 4 5 6 
#
# 1 43.0150 3.0638 8.5572 0.0000 9.3198 0.0000
# 2 3.0638 45.3823 18.7371 0.0000 -2.1954 0.0000
# 3 8.5572 18.7371 135.6733 0.0000 18.0125 0.0000
# 4 0.0000 0.0000 0.0000 56.9248 0.0000 -1.4797
# 5 9.3198 -2.1954 18.0125 0.0000 40.4730 0.0000
# 6 0.0000 0.0000 0.0000 -1.4797 0.0000 14.6171
#
#
#
# Elastic Compliance Matrix: (Units=1/GPa)
#
#
# Indices 1 2 3 4 5 6 
#
# 1 0.024680 -0.001688 -0.000592 0.000000 -0.005511 0.000000
# 2 -0.001688 0.023802 -0.003617 0.000000 0.003290 0.000000
# 3 -0.000592 -0.003617 0.008413 0.000000 -0.003804 0.000000
# 4 0.000000 0.000000 0.000000 0.017613 0.000000 0.001783
# 5 -0.005511 0.003290 -0.003804 0.000000 0.027848 0.000000
# 6 0.000000 0.000000 0.000000 0.001783 0.000000 0.068594
#
#
# Mechanical properties :
#
#
# Convention : Reuss Voigt Hill
#
# Bulk Modulus (GPa) = 22.17349 31.64296 26.90822
# Shear Modulus (GPa) = 25.28094 35.31714 30.29904
#
# Velocity S-wave (km/s) = 3.14607 3.71847 3.44418
# Velocity P-wave (km/s) = 4.67741 5.55199 5.13336
#
# Compressibility (1/GPa) = 0.04509890
#
# Stress axis : x y z
#
# Youngs Moduli (GPa) = 40.51904 42.01380 118.86965
#
# Poissons Ratio (x) = 0.07094 0.07034
# Poissons Ratio (y) = 0.06841 0.43000
# Poissons Ratio (z) = 0.02398 0.15198
#
# Static dielectric constant tensor:
#      x y z
#    x 2.046400 0.000000 -0.059510 
#    y 0.000000 2.047680 0.000000 
#    z -0.059510 0.000000 2.530670 
# 
# From -- ./inp_files/1835.got.cif
#   From: 2010.05.17/outbox.cif.g08.bks.cpg/sg14_1_cif.got.tgz:1835.got - 2010.06.03 17:49:19.
