data_PCOD9247308
_publ_section_title
;
Structure prediction by ZEFSAII (Michael W. Deem and Ramdas Pophale) SiO2 
 PCOD9247308
Probable space group: P 21/C
;
_chemical_formula_sum "Si O2"
_cell_formula_units_Z 26
_cell_length_a 12.706102
_cell_length_b 8.050588
_cell_length_c 10.826716
_cell_angle_alpha 90.000000
_cell_angle_beta 63.583655
_cell_angle_gamma 90.000000
_cell_volume 991.844152
_symmetry_space_group_name_H-M "P 21/C"
_symmetry_group_IT_number 14
_symmetry_cell_setting 'monoclinic'
loop_
_space_group_symop_operation_xyz
x,y,z
-x,1/2+y,1/2-z
-x,-y,-z
x,1/2-y,1/2+z
loop_
_atom_site_type_symbol
_atom_site_label
_atom_site_fract_x
_atom_site_fract_y
_atom_site_fract_z
Si Si1 0.300656 0.891101 0.445970
Si Si2 0.981841 0.689926 0.407162
Si Si3 0.500000 0.500000 0.000000
Si Si4 0.744290 0.477437 0.482313
Si Si5 0.078956 0.358016 0.299937
Si Si6 0.465678 0.207018 0.815335
Si Si7 0.282826 0.377161 0.757248
O O1 0.243044 0.712489 0.486087
O O2 0.413218 0.864679 0.296382
O O3 0.363580 0.942806 0.539037
O O4 0.234873 0.040577 0.409716
O O5 0.859091 0.585690 0.455281
O O6 0.980168 0.825459 0.301259
O O7 0.987193 0.728281 0.548916
O O8 0.079731 0.553292 0.323496
O O9 0.517505 0.661199 0.085317
O O10 0.629459 0.566397 0.600170
O O11 0.721663 0.488814 0.347981
O O12 0.203868 0.270645 0.244897
O O13 0.406960 0.295348 0.726357
#
# Coordination Sequence:
#
# PCOD9247308 Si02
#       7
#     4   4   2   4   4   4   4
#     4  11  23  38  58  93 128 175 221 270 323 396
#     4  10  23  46  72 102 134 171 224 280 354 405
#     4  10  22  36  54  86 120 168 216 260 320 370
#     4  11  22  41  63  94 131 172 221 283 330 410
#     4  10  22  48  70 103 131 176 219 284 345 417
#     4  11  21  38  62  91 129 175 219 272 323 395
#     4  10  22  41  63  92 132 173 223 272 345 393
#
# _framework density 26.213798000000001
#
# number of rings (size 3 to 8) (size 9 to 14) (size 15 to 20)
#    0.000    1.538    1.538    3.692    0.000    2.462 
#   13.846    0.000    0.000    0.000    0.000    0.000 
#    0.000    0.000    0.000    0.000    0.000    0.000 
#
# Total GULP energy -145114.412229 kJ/mol
# GULP energy per Si atom -5581.323547 kJ/mol
# Density = 2.615413 g / cm^3
# Si number density = 26.213798 Si / 1000 Ang^3
#
#
#
# Elastic Constant Matrix: (Units=GPa)
#
#
# Indices 1 2 3 4 5 6 
#
# 1 91.4147 24.0125 27.5530 0.0000 5.9837 0.0000
# 2 24.0125 48.8758 11.8219 0.0000 -13.5230 0.0000
# 3 27.5530 11.8219 72.1844 0.0000 14.1804 0.0000
# 4 0.0000 0.0000 0.0000 35.5928 0.0000 2.2762
# 5 5.9837 -13.5230 14.1804 0.0000 29.2124 0.0000
# 6 0.0000 0.0000 0.0000 2.2762 0.0000 31.9083
#
#
#
# Elastic Compliance Matrix: (Units=1/GPa)
#
#
# Indices 1 2 3 4 5 6 
#
# 1 0.014211 -0.007532 -0.003243 0.000000 -0.004823 0.000000
# 2 -0.007532 0.030702 -0.005802 0.000000 0.018571 0.000000
# 3 -0.003243 -0.005802 0.018171 0.000000 -0.010842 0.000000
# 4 0.000000 0.000000 0.000000 0.028224 0.000000 -0.002013
# 5 -0.004823 0.018571 -0.010842 0.000000 0.049080 0.000000
# 6 0.000000 0.000000 0.000000 -0.002013 0.000000 0.031483
#
#
# Mechanical properties :
#
#
# Convention : Reuss Voigt Hill
#
# Bulk Modulus (GPa) = 33.41022 37.69441 35.55232
# Shear Modulus (GPa) = 23.25556 29.28186 26.26871
#
# Velocity S-wave (km/s) = 2.98174 3.34584 3.16902
# Velocity P-wave (km/s) = 4.96259 5.41637 5.19444
#
# Compressibility (1/GPa) = 0.02993096
#
# Stress axis : x y z
#
# Youngs Moduli (GPa) = 70.36896 32.57123 55.03133
#
# Poissons Ratio (x) = 0.24532 0.17849
# Poissons Ratio (y) = 0.52999 0.31927
# Poissons Ratio (z) = 0.22823 0.18897
#
# Static dielectric constant tensor:
#      x y z
#    x 2.053130 0.000000 -0.001390 
#    y 0.000000 1.702080 0.000000 
#    z -0.001390 0.000000 2.134780 
# 
# From -- ./inp_files/31326.got.cif
#   From: 2010.05.17/outbox.cif.g08.bks.cpg/sg14_16_cif.got.tgz:31326.got - 2010.06.03 17:49:19.
