data_PCOD9247298
_publ_section_title
;
Structure prediction by ZEFSAII (Michael W. Deem and Ramdas Pophale) SiO2 
 PCOD9247298
Probable space group: P 21/C
;
_chemical_formula_sum "Si O2"
_cell_formula_units_Z 28
_cell_length_a 12.374791
_cell_length_b 20.349816
_cell_length_c 5.472075
_cell_angle_alpha 90.000000
_cell_angle_beta 112.581035
_cell_angle_gamma 90.000000
_cell_volume 1272.362361
_symmetry_space_group_name_H-M "P 21/C"
_symmetry_group_IT_number 14
_symmetry_cell_setting 'monoclinic'
loop_
_space_group_symop_operation_xyz
x,y,z
-x,1/2+y,1/2-z
-x,-y,-z
x,1/2-y,1/2+z
loop_
_atom_site_type_symbol
_atom_site_label
_atom_site_fract_x
_atom_site_fract_y
_atom_site_fract_z
Si Si1 0.361922 0.090893 0.934467
Si Si2 0.506672 0.920960 0.459595
Si Si3 0.041177 0.594748 0.124620
Si Si4 0.101312 0.511433 0.783112
Si Si5 0.948392 0.237439 0.209803
Si Si6 0.277069 0.541634 0.577969
Si Si7 0.792137 0.786247 0.093287
O O1 0.451386 0.105461 0.240327
O O2 0.256373 0.141451 0.894241
O O3 0.326455 0.014508 0.942897
O O4 0.413488 0.097202 0.705784
O O5 0.374762 0.907722 0.251045
O O6 0.500000 0.000000 0.500000
O O7 0.161258 0.573368 0.363977
O O8 0.930752 0.545853 0.055580
O O9 0.009495 0.663280 0.214039
O O10 0.080787 0.583099 0.880585
O O11 0.226420 0.504529 0.772374
O O12 0.000000 0.500000 0.500000
O O13 0.882247 0.255095 0.399484
O O14 0.066177 0.281389 0.296656
O O15 0.754500 0.758110 0.795097
#
# Coordination Sequence:
#
# PCOD9247298 Si02
#       7
#     4   4   4   4   4   4   4
#     4  11  23  39  65  94 133 162 215 269 325 387
#     4  10  22  40  61  97 127 161 203 261 320 397
#     4  10  22  38  59  90 130 165 211 262 311 387
#     4   9  21  35  57  92 129 162 202 254 321 379
#     4  10  24  40  62  85 125 164 218 257 309 375
#     4  10  22  35  65  90 129 168 204 256 342 380
#     4  10  22  39  62  91 121 168 212 261 322 368
#
# _framework density 22.006309000000002
#
# number of rings (size 3 to 8) (size 9 to 14) (size 15 to 20)
#    0.000    2.000    0.000    2.571   14.000    5.714 
#    0.000    0.000    0.000    5.143    0.000    0.000 
#    0.000    0.000    0.000    0.000    0.000    0.000 
#
# Total GULP energy -156069.114837 kJ/mol
# GULP energy per Si atom -5573.896958 kJ/mol
# Density = 2.195622 g / cm^3
# Si number density = 22.006309 Si / 1000 Ang^3
#
#
#
# Elastic Constant Matrix: (Units=GPa)
#
#
# Indices 1 2 3 4 5 6 
#
# 1 59.9956 0.9922 36.6483 0.0000 -0.1873 0.0000
# 2 0.9922 40.3294 19.3124 0.0000 4.7325 0.0000
# 3 36.6483 19.3124 133.6690 0.0000 -22.8289 0.0000
# 4 0.0000 0.0000 0.0000 18.5563 0.0000 -10.5657
# 5 -0.1873 4.7325 -22.8289 0.0000 42.7856 0.0000
# 6 0.0000 0.0000 0.0000 -10.5657 0.0000 31.1681
#
#
#
# Elastic Compliance Matrix: (Units=1/GPa)
#
#
# Indices 1 2 3 4 5 6 
#
# 1 0.020773 0.003217 -0.006828 0.000000 -0.003908 0.000000
# 2 0.003217 0.028368 -0.006067 0.000000 -0.006361 0.000000
# 3 -0.006828 -0.006067 0.011376 0.000000 0.006711 0.000000
# 4 0.000000 0.000000 0.000000 0.066780 0.000000 0.022638
# 5 -0.003908 -0.006361 0.006711 0.000000 0.027640 0.000000
# 6 0.000000 0.000000 0.000000 0.022638 0.000000 0.039758
#
#
# Mechanical properties :
#
#
# Convention : Reuss Voigt Hill
#
# Bulk Modulus (GPa) = 24.29424 38.65554 31.47489
# Shear Modulus (GPa) = 21.95192 30.30473 26.12832
#
# Velocity S-wave (km/s) = 3.16179 3.71495 3.44948
# Velocity P-wave (km/s) = 4.93892 6.00041 5.49535
#
# Compressibility (1/GPa) = 0.04116203
#
# Stress axis : x y z
#
# Youngs Moduli (GPa) = 48.13909 35.25058 87.90596
#
# Poissons Ratio (x) = -0.11340 0.60019
# Poissons Ratio (y) = -0.15486 0.53332
# Poissons Ratio (z) = 0.32868 0.21386
#
# Static dielectric constant tensor:
#      x y z
#    x 1.838530 0.000000 -0.036910 
#    y 0.000000 1.869440 0.000000 
#    z -0.036910 0.000000 1.969150 
# 
# From -- ./inp_files/2899.got.cif
#   From: 2010.05.17/outbox.cif.g08.bks.cpg/sg14_2_cif.got.tgz:2899.got - 2010.06.03 17:49:19.
