data_PCOD9247149
_publ_section_title
;
Structure prediction by ZEFSAII (Michael W. Deem and Ramdas Pophale) SiO2 
 PCOD9247149
Probable space group: P 21/C
;
_chemical_formula_sum "Si O2"
_cell_formula_units_Z 32
_cell_length_a 14.313916
_cell_length_b 10.175531
_cell_length_c 9.217107
_cell_angle_alpha 90.000000
_cell_angle_beta 95.656977
_cell_angle_gamma 90.000000
_cell_volume 1335.949176
_symmetry_space_group_name_H-M "P 21/C"
_symmetry_group_IT_number 14
_symmetry_cell_setting 'monoclinic'
loop_
_space_group_symop_operation_xyz
x,y,z
-x,1/2+y,1/2-z
-x,-y,-z
x,1/2-y,1/2+z
loop_
_atom_site_type_symbol
_atom_site_label
_atom_site_fract_x
_atom_site_fract_y
_atom_site_fract_z
Si Si1 0.256391 0.841812 0.007864
Si Si2 0.692434 0.738184 0.420393
Si Si3 0.403650 0.407083 0.844967
Si Si4 0.164706 0.608028 0.803677
Si Si5 0.132388 0.174635 0.390690
Si Si6 0.950621 0.626388 0.837031
Si Si7 0.243062 0.011989 0.743003
Si Si8 0.386412 0.634723 0.064706
O O1 0.351497 0.124410 0.185954
O O2 0.207301 0.869941 0.152286
O O3 0.361633 0.785483 0.035513
O O4 0.199525 0.727697 0.910166
O O5 0.793100 0.731437 0.516800
O O6 0.741197 0.469023 0.591709
O O7 0.713917 0.850990 0.303165
O O8 0.624915 0.802866 0.531662
O O9 0.515268 0.391576 0.843693
O O10 0.386460 0.549547 0.916217
O O11 0.186402 0.461052 0.865979
O O12 0.051587 0.603264 0.786064
O O13 0.048989 0.146537 0.490800
O O14 0.090975 0.243594 0.245005
O O15 0.868934 0.518567 0.799776
O O16 0.300080 0.910877 0.652216
#
# Coordination Sequence:
#
# PCOD9247149 Si02
#       8
#     4   4   4   4   4   4   4   4
#     4  12  25  44  68  99 144 185 232 285 362 421
#     4  10  21  44  69 105 136 181 235 288 351 410
#     4  10  22  42  78 100 142 179 239 292 345 431
#     4  12  27  44  73 102 139 191 236 290 354 424
#     4  11  25  44  72 102 139 184 233 298 354 418
#     4  11  25  45  72  99 141 180 241 293 351 418
#     4  10  23  42  66  94 141 179 226 293 343 419
#     4  10  23  47  69 104 139 189 226 289 361 414
#
# _framework density 23.953008000000001
#
# number of rings (size 3 to 8) (size 9 to 14) (size 15 to 20)
#    0.000    1.250    1.250    4.875    5.250    0.500 
#    4.500    0.625    0.000    0.000    0.000    0.000 
#    0.000    0.000    0.000    0.000    0.000    0.000 
#
# Total GULP energy -179093.952504 kJ/mol
# GULP energy per Si atom -5596.686016 kJ/mol
# Density = 2.389849 g / cm^3
# Si number density = 23.953008 Si / 1000 Ang^3
#
#
#
# Elastic Constant Matrix: (Units=GPa)
#
#
# Indices 1 2 3 4 5 6 
#
# 1 95.9061 15.3131 14.6593 0.0000 -8.7983 0.0000
# 2 15.3131 72.0136 36.6909 0.0000 1.5677 0.0000
# 3 14.6593 36.6909 136.4928 0.0000 -16.2271 0.0000
# 4 0.0000 0.0000 0.0000 48.9660 0.0000 9.5849
# 5 -8.7983 1.5677 -16.2271 0.0000 31.3171 0.0000
# 6 0.0000 0.0000 0.0000 9.5849 0.0000 20.8298
#
#
#
# Elastic Compliance Matrix: (Units=1/GPa)
#
#
# Indices 1 2 3 4 5 6 
#
# 1 0.011117 -0.002334 -0.000193 0.000000 0.003140 0.000000
# 2 -0.002334 0.016896 -0.004763 0.000000 -0.003969 0.000000
# 3 -0.000193 -0.004763 0.009217 0.000000 0.004960 0.000000
# 4 0.000000 0.000000 0.000000 0.022444 0.000000 -0.010328
# 5 0.003140 -0.003969 0.004960 0.000000 0.035582 0.000000
# 6 0.000000 0.000000 0.000000 -0.010328 0.000000 0.052760
#
#
# Mechanical properties :
#
#
# Convention : Reuss Voigt Hill
#
# Bulk Modulus (GPa) = 44.15074 48.63767 46.39420
# Shear Modulus (GPa) = 29.38639 36.07255 32.72947
#
# Velocity S-wave (km/s) = 3.50642 3.88489 3.70050
# Velocity P-wave (km/s) = 5.90471 6.36182 6.13752
#
# Compressibility (1/GPa) = 0.02264968
#
# Stress axis : x y z
#
# Youngs Moduli (GPa) = 89.95158 59.18668 108.49286
#
# Poissons Ratio (x) = 0.13813 0.02097
# Poissons Ratio (y) = 0.20993 0.51675
# Poissons Ratio (z) = 0.01739 0.28191
#
# Static dielectric constant tensor:
#      x y z
#    x 1.924000 0.000000 0.022950 
#    y 0.000000 1.991390 0.000000 
#    z 0.022950 0.000000 1.920480 
# 
# From -- ./inp_files/15814.got.cif
#   From: 2010.05.17/outbox.cif.g08.bks.cpg/sg14_8_cif.got.tgz:15814.got - 2010.06.03 17:49:19.
