data_PCOD9247645
_publ_section_title
;
Structure prediction by ZEFSAII (Michael W. Deem and Ramdas Pophale) SiO2 
 PCOD9247645
Probable space group: P 21/C
;
_chemical_formula_sum "Si O2"
_cell_formula_units_Z 24
_cell_length_a 19.282210
_cell_length_b 10.477536
_cell_length_c 13.613675
_cell_angle_alpha 90.000000
_cell_angle_beta 27.916501
_cell_angle_gamma 90.000000
_cell_volume 1287.680770
_symmetry_space_group_name_H-M "P 21/C"
_symmetry_group_IT_number 14
_symmetry_cell_setting 'monoclinic'
loop_
_space_group_symop_operation_xyz
x,y,z
-x,1/2+y,1/2-z
-x,-y,-z
x,1/2-y,1/2+z
loop_
_atom_site_type_symbol
_atom_site_label
_atom_site_fract_x
_atom_site_fract_y
_atom_site_fract_z
Si Si1 0.725754 0.756349 0.598194
Si Si2 0.200922 0.038874 0.655818
Si Si3 0.481532 0.072621 0.750277
Si Si4 0.560894 0.873088 0.974843
Si Si5 0.868661 0.543489 0.537624
Si Si6 0.400080 0.603869 0.186832
O O1 0.779249 0.846958 0.445231
O O2 0.576569 0.688292 0.744496
O O3 0.834163 0.643725 0.495371
O O4 0.694978 0.832855 0.736527
O O5 0.195890 0.085129 0.775205
O O6 0.341316 0.944921 0.467226
O O7 0.041899 0.977449 0.833644
O O8 0.415786 0.093883 0.940439
O O9 0.423323 0.944484 0.769308
O O10 0.455173 0.747677 0.106150
O O11 0.500000 0.000000 0.000000
O O12 0.768445 0.420261 0.635785
O O13 0.500000 0.500000 0.000000
#
# Coordination Sequence:
#
# PCOD9247645 Si02
#       6
#     4   4   4   4   4   4
#     4  11  21  40  61  88 126 159 205 260 306 364
#     4  11  21  38  60  91 119 161 204 253 308 373
#     4  11  21  37  65  91 120 161 208 252 312 365
#     4  12  23  35  63  96 121 154 215 268 300 360
#     4  10  22  39  63  86 121 167 202 247 314 380
#     4  11  20  40  64  87 122 164 210 250 312 371
#
# _framework density 18.638161
#
# number of rings (size 3 to 8) (size 9 to 14) (size 15 to 20)
#    0.000    1.000    6.667    2.000    0.000    1.333 
#    0.000    0.000    3.667    5.000    0.000    0.000 
#    0.000    0.000    0.000    0.000    0.000    0.000 
#
# Total GULP energy -133852.454185 kJ/mol
# GULP energy per Si atom -5577.185591 kJ/mol
# Density = 1.859574 g / cm^3
# Si number density = 18.638161 Si / 1000 Ang^3
#
#
#
# Elastic Constant Matrix: (Units=GPa)
#
#
# Indices 1 2 3 4 5 6 
#
# 1 116.5935 38.5129 47.2657 0.0000 13.2521 0.0000
# 2 38.5129 93.2241 28.8102 0.0000 16.6502 0.0000
# 3 47.2657 28.8102 69.2488 0.0000 9.5239 0.0000
# 4 0.0000 0.0000 0.0000 24.0742 0.0000 12.0438
# 5 13.2521 16.6502 9.5239 0.0000 37.9090 0.0000
# 6 0.0000 0.0000 0.0000 12.0438 0.0000 26.6702
#
#
#
# Elastic Compliance Matrix: (Units=1/GPa)
#
#
# Indices 1 2 3 4 5 6 
#
# 1 0.012572 -0.002701 -0.007267 0.000000 -0.001383 0.000000
# 2 -0.002701 0.013594 -0.003233 0.000000 -0.004215 0.000000
# 3 -0.007267 -0.003233 0.020924 0.000000 -0.001296 0.000000
# 4 0.000000 0.000000 0.000000 0.053661 0.000000 -0.024232
# 5 -0.001383 -0.004215 -0.001296 0.000000 0.029039 0.000000
# 6 0.000000 0.000000 0.000000 -0.024232 0.000000 0.048438
#
#
# Mechanical properties :
#
#
# Convention : Reuss Voigt Hill
#
# Bulk Modulus (GPa) = 48.33470 56.47158 52.40314
# Shear Modulus (GPa) = 23.63763 28.69585 26.16674
#
# Velocity S-wave (km/s) = 3.56510 3.92807 3.75098
# Velocity P-wave (km/s) = 6.55256 7.13706 6.85105
#
# Compressibility (1/GPa) = 0.02068907
#
# Stress axis : x y z
#
# Youngs Moduli (GPa) = 79.54025 73.55949 47.79163
#
# Poissons Ratio (x) = 0.19868 0.34732
# Poissons Ratio (y) = 0.21484 0.15449
# Poissons Ratio (z) = 0.57804 0.23779
#
# Static dielectric constant tensor:
#      x y z
#    x 1.670500 0.000000 0.018730 
#    y 0.000000 1.659220 0.000000 
#    z 0.018730 0.000000 1.670510 
# 
# From -- ./inp_files/33857.got.cif
#   From: 2010.05.17/outbox.cif.g08.bks.cpg/sg14_17_cif.got.tgz:33857.got - 2010.06.03 17:49:19.
