data_PCOD9247355
_publ_section_title
;
Structure prediction by ZEFSAII (Michael W. Deem and Ramdas Pophale) SiO2 
 PCOD9247355
Probable space group: P 21/C
;
_chemical_formula_sum "Si O2"
_cell_formula_units_Z 26
_cell_length_a 15.525386
_cell_length_b 6.799899
_cell_length_c 21.395303
_cell_angle_alpha 90.000000
_cell_angle_beta 27.284159
_cell_angle_gamma 90.000000
_cell_volume 1035.408130
_symmetry_space_group_name_H-M "P 21/C"
_symmetry_group_IT_number 14
_symmetry_cell_setting 'monoclinic'
loop_
_space_group_symop_operation_xyz
x,y,z
-x,1/2+y,1/2-z
-x,-y,-z
x,1/2-y,1/2+z
loop_
_atom_site_type_symbol
_atom_site_label
_atom_site_fract_x
_atom_site_fract_y
_atom_site_fract_z
Si Si1 0.000000 0.000000 0.500000
Si Si2 0.215951 0.475392 0.679781
Si Si3 0.516639 0.555083 0.152150
Si Si4 0.580102 0.533386 0.647308
Si Si5 0.482942 0.823663 0.921260
Si Si6 0.857727 0.179696 0.175591
Si Si7 0.049533 0.718807 0.589377
O O1 0.991958 0.794880 0.463027
O O2 0.033042 0.867549 0.542293
O O3 0.368992 0.341649 0.618264
O O4 0.307259 0.545386 0.556792
O O5 0.197080 0.673000 0.733194
O O6 0.027782 0.346799 0.802534
O O7 0.493987 0.456381 0.234675
O O8 0.636342 0.751209 0.086789
O O9 0.567482 0.394942 0.067319
O O10 0.317533 0.638792 0.257048
O O11 0.429608 0.437632 0.695698
O O12 0.746639 0.376702 0.538312
O O13 0.922433 0.971692 0.159414
#
# Coordination Sequence:
#
# PCOD9247355 Si02
#       7
#     2   4   4   4   4   4   4
#     4  10  22  36  68  98 144 186 240 300 362 434
#     4  10  24  45  74  99 140 196 250 294 370 454
#     4  12  24  41  71 104 146 188 244 305 381 439
#     4  12  26  42  68 108 150 188 241 318 374 434
#     4  11  24  46  70 104 145 189 245 306 367 456
#     4  11  22  40  67 101 136 193 247 296 361 453
#     4  11  24  43  69 104 145 192 247 307 371 438
#
# _framework density 25.110870999999999
#
# number of rings (size 3 to 8) (size 9 to 14) (size 15 to 20)
#    0.000    0.923    6.154    0.462    0.000    5.538 
#    2.769    0.000    0.000    0.000    0.000    0.000 
#    0.000    0.000    0.000    0.000    0.000    0.000 
#
# Total GULP energy -145048.108511 kJ/mol
# GULP energy per Si atom -5578.773404 kJ/mol
# Density = 2.505372 g / cm^3
# Si number density = 25.110871 Si / 1000 Ang^3
#
#
#
# Elastic Constant Matrix: (Units=GPa)
#
#
# Indices 1 2 3 4 5 6 
#
# 1 69.0100 43.4959 28.4894 0.0000 8.6107 0.0000
# 2 43.4959 207.0618 57.0975 0.0000 3.3212 0.0000
# 3 28.4894 57.0975 66.8431 0.0000 7.5817 0.0000
# 4 0.0000 0.0000 0.0000 45.7302 0.0000 3.7366
# 5 8.6107 3.3212 7.5817 0.0000 33.5859 0.0000
# 6 0.0000 0.0000 0.0000 3.7366 0.0000 40.7719
#
#
#
# Elastic Compliance Matrix: (Units=1/GPa)
#
#
# Indices 1 2 3 4 5 6 
#
# 1 0.018680 -0.002327 -0.005601 0.000000 -0.003295 0.000000
# 2 -0.002327 0.006620 -0.004778 0.000000 0.001021 0.000000
# 3 -0.005601 -0.004778 0.021770 0.000000 -0.003006 0.000000
# 4 0.000000 0.000000 0.000000 0.022032 0.000000 -0.002019
# 5 -0.003295 0.001021 -0.003006 0.000000 0.031197 0.000000
# 6 0.000000 0.000000 0.000000 -0.002019 0.000000 0.024712
#
#
# Mechanical properties :
#
#
# Convention : Reuss Voigt Hill
#
# Bulk Modulus (GPa) = 46.17135 66.78671 56.47903
# Shear Modulus (GPa) = 31.71739 38.27307 34.99523
#
# Velocity S-wave (km/s) = 3.55786 3.90829 3.73718
# Velocity P-wave (km/s) = 5.94178 6.85717 6.41582
#
# Compressibility (1/GPa) = 0.02165845
#
# Stress axis : x y z
#
# Youngs Moduli (GPa) = 53.53201 151.06755 45.93440
#
# Poissons Ratio (x) = 0.35151 0.25726
# Poissons Ratio (y) = 0.12456 0.21950
# Poissons Ratio (z) = 0.29981 0.72187
#
# Static dielectric constant tensor:
#      x y z
#    x 1.990280 0.000000 -0.112110 
#    y 0.000000 1.928660 0.000000 
#    z -0.112110 0.000000 2.074480 
# 
# From -- ./inp_files/66398.got.cif
#   From: 2010.05.17/outbox.cif.g08.bks.cpg/sg14_34_cif.got.tgz:66398.got - 2010.06.03 17:49:19.
