data_PCOD9247131
_publ_section_title
;
Structure prediction by ZEFSAII (Michael W. Deem and Ramdas Pophale) SiO2 
 PCOD9247131
Probable space group: P 21/C
;
_chemical_formula_sum "Si O2"
_cell_formula_units_Z 32
_cell_length_a 9.445504
_cell_length_b 16.233814
_cell_length_c 10.053307
_cell_angle_alpha 90.000000
_cell_angle_beta 68.623585
_cell_angle_gamma 90.000000
_cell_volume 1435.490694
_symmetry_space_group_name_H-M "P 21/C"
_symmetry_group_IT_number 14
_symmetry_cell_setting 'monoclinic'
loop_
_space_group_symop_operation_xyz
x,y,z
-x,1/2+y,1/2-z
-x,-y,-z
x,1/2-y,1/2+z
loop_
_atom_site_type_symbol
_atom_site_label
_atom_site_fract_x
_atom_site_fract_y
_atom_site_fract_z
Si Si1 0.949807 0.067953 0.913777
Si Si2 0.849545 0.622341 0.194480
Si Si3 0.337576 0.831295 0.586531
Si Si4 0.945486 0.791465 0.262208
Si Si5 0.661727 0.025200 0.886381
Si Si6 0.873366 0.474009 0.877104
Si Si7 0.316989 0.125152 0.498097
Si Si8 0.258047 0.817349 0.304830
O O1 0.004497 0.162229 0.891855
O O2 0.769141 0.064748 0.962641
O O3 0.029275 0.032078 0.752869
O O4 0.000000 0.000000 0.000000
O O5 0.922900 0.694825 0.254429
O O6 0.748048 0.557355 0.309661
O O7 0.996315 0.573663 0.085317
O O8 0.739251 0.661157 0.122826
O O9 0.220667 0.903493 0.666784
O O10 0.507433 0.866706 0.533080
O O11 0.289983 0.808167 0.450873
O O12 0.329231 0.754887 0.689855
O O13 0.783415 0.827624 0.359631
O O14 0.080474 0.812143 0.320492
O O15 0.671054 0.094955 0.768270
O O16 0.500000 0.000000 0.000000
O O17 0.746437 0.531509 0.986805
#
# Coordination Sequence:
#
# PCOD9247131 Si02
#       8
#     4   4   4   4   4   4   4   4
#     4   9  21  40  65 100 138 181 229 275 335 413
#     4  11  22  42  70  97 133 185 226 281 346 415
#     4  12  26  44  70  99 140 179 229 291 350 414
#     4  10  23  42  65 100 133 180 231 280 332 420
#     4  10  24  42  67  96 139 177 225 286 351 413
#     4  10  21  44  66  98 131 184 224 278 341 417
#     4  11  25  39  69  99 135 167 232 282 341 411
#     4  11  26  47  67  99 138 188 230 286 356 420
#
# _framework density 22.292031000000001
#
# number of rings (size 3 to 8) (size 9 to 14) (size 15 to 20)
#    0.000    1.500    1.250    3.000    3.500    7.000 
#    0.000    0.000    0.000    0.000    0.000    0.000 
#    0.000    0.000    0.000    0.000    0.000    0.000 
#
# Total GULP energy -178660.055576 kJ/mol
# GULP energy per Si atom -5583.126737 kJ/mol
# Density = 2.224129 g / cm^3
# Si number density = 22.292031 Si / 1000 Ang^3
#
#
#
# Elastic Constant Matrix: (Units=GPa)
#
#
# Indices 1 2 3 4 5 6 
#
# 1 133.3828 39.8766 23.8957 0.0000 -28.1024 0.0000
# 2 39.8766 129.3331 34.3672 0.0000 -21.5545 0.0000
# 3 23.8957 34.3672 32.7234 0.0000 -6.0648 0.0000
# 4 0.0000 0.0000 0.0000 32.0719 0.0000 -3.3787
# 5 -28.1024 -21.5545 -6.0648 0.0000 40.4925 0.0000
# 6 0.0000 0.0000 0.0000 -3.3787 0.0000 30.3683
#
#
#
# Elastic Compliance Matrix: (Units=1/GPa)
#
#
# Indices 1 2 3 4 5 6 
#
# 1 0.009869 -0.000638 -0.005482 0.000000 0.005688 0.000000
# 2 -0.000638 0.011485 -0.010846 0.000000 0.004046 0.000000
# 3 -0.005482 -0.010846 0.045440 0.000000 -0.002772 0.000000
# 4 0.000000 0.000000 0.000000 0.031550 0.000000 0.003510
# 5 0.005688 0.004046 -0.002772 0.000000 0.030382 0.000000
# 6 0.000000 0.000000 0.000000 0.003510 0.000000 0.033320
#
#
# Mechanical properties :
#
#
# Convention : Reuss Voigt Hill
#
# Bulk Modulus (GPa) = 30.43156 54.63539 42.53347
# Shear Modulus (GPa) = 24.16262 33.73985 28.95123
#
# Velocity S-wave (km/s) = 3.29585 3.89464 3.60769
# Velocity P-wave (km/s) = 5.30702 6.69227 6.03949
#
# Compressibility (1/GPa) = 0.03286062
#
# Stress axis : x y z
#
# Youngs Moduli (GPa) = 101.33224 87.06859 22.00723
#
# Poissons Ratio (x) = 0.05555 0.12064
# Poissons Ratio (y) = 0.06465 0.23870
# Poissons Ratio (z) = 0.55551 0.94437
#
# Static dielectric constant tensor:
#      x y z
#    x 1.799200 0.000000 0.035900 
#    y 0.000000 1.924130 0.000000 
#    z 0.035900 0.000000 1.861280 
# 
# From -- ./inp_files/25497.got.cif
#   From: 2010.05.17/outbox.cif.g08.bks.cpg/sg14_13_cif.got.tgz:25497.got - 2010.06.03 17:49:19.
