data_PCOD9247063
_publ_section_title
;
Structure prediction by ZEFSAII (Michael W. Deem and Ramdas Pophale) SiO2 
 PCOD9247063
Probable space group: P 21/C
;
_chemical_formula_sum "Si O2"
_cell_formula_units_Z 32
_cell_length_a 9.579870
_cell_length_b 7.529310
_cell_length_c 25.792845
_cell_angle_alpha 90.000000
_cell_angle_beta 47.821493
_cell_angle_gamma 90.000000
_cell_volume 1378.686035
_symmetry_space_group_name_H-M "P 21/C"
_symmetry_group_IT_number 14
_symmetry_cell_setting 'monoclinic'
loop_
_space_group_symop_operation_xyz
x,y,z
-x,1/2+y,1/2-z
-x,-y,-z
x,1/2-y,1/2+z
loop_
_atom_site_type_symbol
_atom_site_label
_atom_site_fract_x
_atom_site_fract_y
_atom_site_fract_z
Si Si1 0.083258 0.126535 0.416854
Si Si2 0.646029 0.865319 0.843263
Si Si3 0.374023 0.782413 0.640632
Si Si4 0.211223 0.174311 0.489823
Si Si5 0.267277 0.952925 0.776729
Si Si6 0.399037 0.675623 0.826889
Si Si7 0.007408 0.117551 0.321933
Si Si8 0.896920 0.713165 0.372723
O O1 0.255707 0.986224 0.369446
O O2 0.897080 0.012732 0.476551
O O3 0.050276 0.199315 0.367720
O O4 0.138458 0.246391 0.452231
O O5 0.473626 0.759056 0.861567
O O6 0.714840 0.801170 0.881967
O O7 0.604707 0.072965 0.856069
O O8 0.826102 0.841629 0.759944
O O9 0.565980 0.849007 0.567244
O O10 0.346100 0.874256 0.703061
O O11 0.190521 0.822203 0.652247
O O12 0.154286 0.286309 0.554200
O O13 0.298877 0.821438 0.816743
O O14 0.043137 0.944343 0.823386
O O15 0.411445 0.113393 0.750181
O O16 0.993484 0.903338 0.334496
#
# Coordination Sequence:
#
# PCOD9247063 Si02
#       8
#     4   4   4   4   4   4   4   4
#     4  10  21  43  69  99 135 174 230 275 342 415
#     4  12  25  41  66 101 139 175 232 287 342 396
#     4  12  24  41  70 100 132 183 230 276 344 408
#     4  10  23  44  68  97 140 180 224 277 340 421
#     4  12  22  42  67 101 136 171 234 282 343 403
#     4  12  24  42  71 103 132 182 228 286 345 409
#     4  11  21  43  69 103 129 175 233 286 337 397
#     4  11  24  43  66  98 140 177 224 285 342 407
#
# _framework density 23.210504
#
# number of rings (size 3 to 8) (size 9 to 14) (size 15 to 20)
#    0.000    0.750    6.250    2.250    1.750    2.500 
#    2.250    0.625    0.000    0.000    0.000    0.000 
#    0.000    0.000    0.000    0.000    0.000    0.000 
#
# Total GULP energy -179107.784783 kJ/mol
# GULP energy per Si atom -5597.118274 kJ/mol
# Density = 2.315768 g / cm^3
# Si number density = 23.210504 Si / 1000 Ang^3
#
#
#
# Elastic Constant Matrix: (Units=GPa)
#
#
# Indices 1 2 3 4 5 6 
#
# 1 155.3575 15.1149 43.8173 0.0000 3.1339 0.0000
# 2 15.1149 33.2886 5.4598 0.0000 -6.0514 0.0000
# 3 43.8173 5.4598 99.8232 0.0000 -10.4435 0.0000
# 4 0.0000 0.0000 0.0000 12.3466 0.0000 2.0514
# 5 3.1339 -6.0514 -10.4435 0.0000 44.8759 0.0000
# 6 0.0000 0.0000 0.0000 2.0514 0.0000 31.2502
#
#
#
# Elastic Compliance Matrix: (Units=1/GPa)
#
#
# Indices 1 2 3 4 5 6 
#
# 1 0.007754 -0.003285 -0.003410 0.000000 -0.001778 0.000000
# 2 -0.003285 0.032347 0.000157 0.000000 0.004628 0.000000
# 3 -0.003410 0.000157 0.011821 0.000000 0.003010 0.000000
# 4 0.000000 0.000000 0.000000 0.081887 0.000000 -0.005376
# 5 -0.001778 0.004628 0.003010 0.000000 0.023732 0.000000
# 6 0.000000 0.000000 0.000000 -0.005376 0.000000 0.032353
#
#
# Mechanical properties :
#
#
# Convention : Reuss Voigt Hill
#
# Bulk Modulus (GPa) = 25.74244 46.36148 36.05196
# Shear Modulus (GPa) = 23.15684 32.63303 27.89493
#
# Velocity S-wave (km/s) = 3.16205 3.75368 3.47049
# Velocity P-wave (km/s) = 4.94432 6.22933 5.62365
#
# Compressibility (1/GPa) = 0.03884636
#
# Stress axis : x y z
#
# Youngs Moduli (GPa) = 128.96646 30.91448 84.59617
#
# Poissons Ratio (x) = 0.10154 0.28847
# Poissons Ratio (y) = 0.42361 -0.01326
# Poissons Ratio (z) = 0.43977 -0.00485
#
# Static dielectric constant tensor:
#      x y z
#    x 1.872710 0.000000 0.004280 
#    y 0.000000 1.951820 0.000000 
#    z 0.004280 0.000000 1.865010 
# 
# From -- ./inp_files/76350.got.cif
#   From: 2010.05.17/outbox.cif.g08.bks.cpg/sg14_39_cif.got.tgz:76350.got - 2010.06.03 17:49:19.
