data_PCOD9247193
_publ_section_title
;
Structure prediction by ZEFSAII (Michael W. Deem and Ramdas Pophale) SiO2 
 PCOD9247193
Probable space group: P 21/C
;
_chemical_formula_sum "Si O2"
_cell_formula_units_Z 28
_cell_length_a 6.997836
_cell_length_b 15.533930
_cell_length_c 16.559589
_cell_angle_alpha 90.000000
_cell_angle_beta 135.124742
_cell_angle_gamma 90.000000
_cell_volume 1270.082904
_symmetry_space_group_name_H-M "P 21/C"
_symmetry_group_IT_number 14
_symmetry_cell_setting 'monoclinic'
loop_
_space_group_symop_operation_xyz
x,y,z
-x,1/2+y,1/2-z
-x,-y,-z
x,1/2-y,1/2+z
loop_
_atom_site_type_symbol
_atom_site_label
_atom_site_fract_x
_atom_site_fract_y
_atom_site_fract_z
Si Si1 0.649631 0.662874 0.884473
Si Si2 0.307469 0.196580 0.892561
Si Si3 0.324049 0.439188 0.260987
Si Si4 0.517042 0.933708 0.931027
Si Si5 0.782697 0.298876 0.750590
Si Si6 0.752401 0.492420 0.016519
Si Si7 0.752075 0.307500 0.933145
O O1 0.557360 0.620158 0.773222
O O2 0.407948 0.722641 0.841361
O O3 0.734585 0.581316 0.962993
O O4 0.930524 0.713924 0.957240
O O5 0.228135 0.124668 0.803014
O O6 0.572695 0.242237 0.933393
O O7 0.089258 0.270210 0.838050
O O8 0.314598 0.143408 0.978697
O O9 0.552601 0.503453 0.364835
O O10 0.050706 0.483226 0.145035
O O11 0.260667 0.880809 0.819790
O O12 0.500000 0.000000 0.000000
O O13 0.699462 0.307943 0.820380
O O14 0.500000 0.500000 0.000000
O O15 0.711473 0.405194 0.952682
#
# Coordination Sequence:
#
# PCOD9247193 Si02
#       7
#     4   4   4   4   4   4   4
#     4  11  23  43  70 100 136 182 234 285 343 416
#     4  11  25  43  69 105 132 182 233 281 346 414
#     4  10  21  45  64  96 140 179 224 285 346 412
#     4  10  24  42  70  96 141 179 223 287 345 415
#     4  12  24  44  72  98 139 182 230 286 349 408
#     4  11  24  40  69 101 133 179 235 287 341 409
#     4  11  25  43  68 100 137 175 233 286 342 415
#
# _framework density 22.045805000000001
#
# number of rings (size 3 to 8) (size 9 to 14) (size 15 to 20)
#    0.000    1.143    1.429    5.143   10.000    0.000 
#    0.000    0.714    3.143    0.000    0.000    0.000 
#    0.000    0.000    0.000    0.000    0.000    0.000 
#
# Total GULP energy -156140.007357 kJ/mol
# GULP energy per Si atom -5576.428834 kJ/mol
# Density = 2.199563 g / cm^3
# Si number density = 22.045805 Si / 1000 Ang^3
#
#
#
# Elastic Constant Matrix: (Units=GPa)
#
#
# Indices 1 2 3 4 5 6 
#
# 1 69.9458 19.0972 16.1193 0.0000 3.1173 0.0000
# 2 19.0972 85.7653 46.3678 0.0000 -15.5910 0.0000
# 3 16.1193 46.3678 68.3791 0.0000 -16.5194 0.0000
# 4 0.0000 0.0000 0.0000 60.5161 0.0000 -14.4757
# 5 3.1173 -15.5910 -16.5194 0.0000 31.5079 0.0000
# 6 0.0000 0.0000 0.0000 -14.4757 0.0000 21.1400
#
#
#
# Elastic Compliance Matrix: (Units=1/GPa)
#
#
# Indices 1 2 3 4 5 6 
#
# 1 0.015936 -0.002759 -0.002973 0.000000 -0.004501 0.000000
# 2 -0.002759 0.019126 -0.011412 0.000000 0.003754 0.000000
# 3 -0.002973 -0.011412 0.024928 0.000000 0.007717 0.000000
# 4 0.000000 0.000000 0.000000 0.019761 0.000000 0.013532
# 5 -0.004501 0.003754 0.007717 0.000000 0.038087 0.000000
# 6 0.000000 0.000000 0.000000 0.013532 0.000000 0.056570
#
#
# Mechanical properties :
#
#
# Convention : Reuss Voigt Hill
#
# Bulk Modulus (GPa) = 38.90829 43.02876 40.96853
# Shear Modulus (GPa) = 23.01349 32.13319 27.57334
#
# Velocity S-wave (km/s) = 3.23444 3.82195 3.54040
# Velocity P-wave (km/s) = 5.62459 6.24793 5.94443
#
# Compressibility (1/GPa) = 0.02570146
#
# Stress axis : x y z
#
# Youngs Moduli (GPa) = 62.75156 52.28369 40.11558
#
# Poissons Ratio (x) = 0.14427 0.11926
# Poissons Ratio (y) = 0.17316 0.45781
# Poissons Ratio (z) = 0.18655 0.59667
#
# Static dielectric constant tensor:
#      x y z
#    x 1.794330 0.000000 -0.133860 
#    y 0.000000 1.945130 0.000000 
#    z -0.133860 0.000000 1.667070 
# 
# From -- ./inp_files/65940.got.cif
#   From: 2010.05.17/outbox.cif.g08.bks.cpg/sg14_33_cif.got.tgz:65940.got - 2010.06.03 17:49:19.
