data_PCOD9247863
_publ_section_title
;
Structure prediction by ZEFSAII (Michael W. Deem and Ramdas Pophale) SiO2 
 PCOD9247863
Probable space group: P 21/C
;
_chemical_formula_sum "Si O2"
_cell_formula_units_Z 28
_cell_length_a 10.024140
_cell_length_b 7.156264
_cell_length_c 21.545487
_cell_angle_alpha 90.000000
_cell_angle_beta 132.502779
_cell_angle_gamma 90.000000
_cell_volume 1139.466007
_symmetry_space_group_name_H-M "P 21/C"
_symmetry_group_IT_number 14
_symmetry_cell_setting 'monoclinic'
loop_
_space_group_symop_operation_xyz
x,y,z
-x,1/2+y,1/2-z
-x,-y,-z
x,1/2-y,1/2+z
loop_
_atom_site_type_symbol
_atom_site_label
_atom_site_fract_x
_atom_site_fract_y
_atom_site_fract_z
Si Si1 0.525707 0.872459 0.571147
Si Si2 0.919888 0.644460 0.024854
Si Si3 0.841293 0.254510 0.790608
Si Si4 0.827644 0.217589 0.567255
Si Si5 0.786466 0.701513 0.367752
Si Si6 0.486570 0.548089 0.795990
Si Si7 0.907675 0.498352 0.203783
O O1 0.372747 0.712788 0.513213
O O2 0.744090 0.851704 0.644509
O O3 0.500000 0.000000 0.500000
O O4 0.487875 0.950075 0.629414
O O5 0.821530 0.498623 0.039303
O O6 0.070895 0.740600 0.114029
O O7 0.810069 0.795102 0.949999
O O8 0.000000 0.500000 0.000000
O O9 0.626791 0.235466 0.724314
O O10 0.916836 0.429378 0.776026
O O11 0.914357 0.073865 0.775529
O O12 0.010648 0.298892 0.595731
O O13 0.849332 0.187521 0.647097
O O14 0.654073 0.557796 0.292630
O O15 0.675265 0.896922 0.323910
#
# Coordination Sequence:
#
# PCOD9247863 Si02
#       7
#     4   4   4   4   4   4   4
#     4   9  18  38  63  92 114 163 218 257 307 394
#     4   9  19  38  64  89 125 175 208 250 328 395
#     4  10  22  40  64  93 129 163 217 273 316 391
#     4   9  18  36  63  91 117 168 218 251 314 395
#     4  11  24  38  64  92 128 172 211 265 330 385
#     4  11  25  39  63  98 130 162 220 273 322 387
#     4   9  20  35  65  92 124 166 212 272 321 368
#
# _framework density 24.572914000000001
#
# number of rings (size 3 to 8) (size 9 to 14) (size 15 to 20)
#    0.000    2.286    1.429    0.000   10.000    0.571 
#    0.000    0.000    0.000    1.714    0.000    0.000 
#    0.000    0.000    0.000    0.000    0.000    0.000 
#
# Total GULP energy -155961.548998 kJ/mol
# GULP energy per Si atom -5570.055321 kJ/mol
# Density = 2.451698 g / cm^3
# Si number density = 24.572914 Si / 1000 Ang^3
#
#
#
# Elastic Constant Matrix: (Units=GPa)
#
#
# Indices 1 2 3 4 5 6 
#
# 1 101.0406 17.7689 25.3366 0.0000 6.5031 0.0000
# 2 17.7689 25.1728 31.3744 0.0000 0.5702 0.0000
# 3 25.3366 31.3744 143.4816 0.0000 -12.1397 0.0000
# 4 0.0000 0.0000 0.0000 37.3179 0.0000 -2.9725
# 5 6.5031 0.5702 -12.1397 0.0000 44.5811 0.0000
# 6 0.0000 0.0000 0.0000 -2.9725 0.0000 32.7968
#
#
#
# Elastic Compliance Matrix: (Units=1/GPa)
#
#
# Indices 1 2 3 4 5 6 
#
# 1 0.011439 -0.007335 -0.000562 0.000000 -0.001728 0.000000
# 2 -0.007335 0.060032 -0.012085 0.000000 -0.002989 0.000000
# 3 -0.000562 -0.012085 0.009961 0.000000 0.002949 0.000000
# 4 0.000000 0.000000 0.000000 0.026992 0.000000 0.002446
# 5 -0.001728 -0.002989 0.002949 0.000000 0.023524 0.000000
# 6 0.000000 0.000000 0.000000 0.002446 0.000000 0.030713
#
#
# Mechanical properties :
#
#
# Convention : Reuss Voigt Hill
#
# Bulk Modulus (GPa) = 24.11439 46.51720 35.31579
# Shear Modulus (GPa) = 23.10039 35.95350 29.52694
#
# Velocity S-wave (km/s) = 3.06939 3.82924 3.47018
# Velocity P-wave (km/s) = 4.73247 6.20662 5.51899
#
# Compressibility (1/GPa) = 0.04146902
#
# Stress axis : x y z
#
# Youngs Moduli (GPa) = 87.41951 16.65774 100.39332
#
# Poissons Ratio (x) = 0.12218 0.05646
# Poissons Ratio (y) = 0.64118 1.21321
# Poissons Ratio (z) = 0.04916 0.20130
#
# Static dielectric constant tensor:
#      x y z
#    x 2.024380 0.000000 0.048410 
#    y 0.000000 2.079540 0.000000 
#    z 0.048410 0.000000 2.065330 
# 
# From -- ./inp_files/73016.got.cif
#   From: 2010.05.17/outbox.cif.g08.bks.cpg/sg14_37_cif.got.tgz:73016.got - 2010.06.03 17:49:19.
