data_PCOD9247212
_publ_section_title
;
Structure prediction by ZEFSAII (Michael W. Deem and Ramdas Pophale) SiO2 
 PCOD9247212
Probable space group: P 21/C
;
_chemical_formula_sum "Si O2"
_cell_formula_units_Z 30
_cell_length_a 13.244844
_cell_length_b 8.481163
_cell_length_c 18.896895
_cell_angle_alpha 90.000000
_cell_angle_beta 145.049671
_cell_angle_gamma 90.000000
_cell_volume 1216.034272
_symmetry_space_group_name_H-M "P 21/C"
_symmetry_group_IT_number 14
_symmetry_cell_setting 'monoclinic'
loop_
_space_group_symop_operation_xyz
x,y,z
-x,1/2+y,1/2-z
-x,-y,-z
x,1/2-y,1/2+z
loop_
_atom_site_type_symbol
_atom_site_label
_atom_site_fract_x
_atom_site_fract_y
_atom_site_fract_z
Si Si1 0.316351 0.204895 0.658925
Si Si2 0.969883 0.823748 0.904810
Si Si3 0.356891 0.971841 0.497429
Si Si4 0.305725 0.858305 0.626477
Si Si5 0.963730 0.667627 0.606051
Si Si6 0.500000 0.000000 0.000000
Si Si7 0.827162 0.778987 0.177438
Si Si8 0.643578 0.214662 0.642677
O O1 0.515327 0.260390 0.760070
O O2 0.192050 0.234232 0.519283
O O3 0.215695 0.297663 0.663025
O O4 0.314013 0.020308 0.673606
O O5 0.950782 0.758691 0.814326
O O6 0.024301 0.003789 0.927987
O O7 0.125404 0.734560 0.035178
O O8 0.246528 0.110599 0.394726
O O9 0.544834 0.061033 0.615720
O O10 0.302621 0.908483 0.541892
O O11 0.360132 0.825308 0.444428
O O12 0.920268 0.643147 0.663539
O O13 0.159641 0.736929 0.718343
O O14 0.536801 0.125109 0.087098
O O15 0.680322 0.900207 0.119974
#
# Coordination Sequence:
#
# PCOD9247212 Si02
#       8
#     4   4   4   4   4   2   4   4
#     4  12  29  51  73 110 150 202 252 303 381 452
#     4  12  28  48  77 110 149 196 252 315 379 448
#     4  10  21  45  70 105 141 194 236 308 373 444
#     4  12  27  50  76 102 152 200 249 308 369 456
#     4  12  25  46  73 105 147 197 246 310 374 451
#     4  10  26  38  68 114 144 184 236 318 362 446
#     4  11  25  44  71 110 142 186 252 302 378 438
#     4  10  22  40  70 105 148 185 243 309 380 432
#
# _framework density 24.670356999999999
#
# number of rings (size 3 to 8) (size 9 to 14) (size 15 to 20)
#    0.000    0.800    2.667    3.200    9.333    2.133 
#    0.000    0.000    0.000    0.000    0.000    0.000 
#    0.000    0.000    0.000    0.000    0.000    0.000 
#
# Total GULP energy -167541.849200 kJ/mol
# GULP energy per Si atom -5584.728307 kJ/mol
# Density = 2.461421 g / cm^3
# Si number density = 24.670357 Si / 1000 Ang^3
#
#
#
# Elastic Constant Matrix: (Units=GPa)
#
#
# Indices 1 2 3 4 5 6 
#
# 1 45.1596 -9.7156 7.7615 0.0000 -23.1158 0.0000
# 2 -9.7156 42.2981 41.3132 0.0000 3.7953 0.0000
# 3 7.7615 41.3132 144.8622 0.0000 15.1231 0.0000
# 4 0.0000 0.0000 0.0000 39.7741 0.0000 1.0704
# 5 -23.1158 3.7953 15.1231 0.0000 39.1704 0.0000
# 6 0.0000 0.0000 0.0000 1.0704 0.0000 21.9404
#
#
#
# Elastic Compliance Matrix: (Units=1/GPa)
#
#
# Indices 1 2 3 4 5 6 
#
# 1 0.040667 0.016340 -0.009565 0.000000 0.026109 0.000000
# 2 0.016340 0.039343 -0.013238 0.000000 0.010942 0.000000
# 3 -0.009565 -0.013238 0.012135 0.000000 -0.009047 0.000000
# 4 0.000000 0.000000 0.000000 0.025175 0.000000 -0.001228
# 5 0.026109 0.010942 -0.009047 0.000000 0.043370 0.000000
# 6 0.000000 0.000000 0.000000 -0.001228 0.000000 0.045638
#
#
# Mechanical properties :
#
#
# Convention : Reuss Voigt Hill
#
# Bulk Modulus (GPa) = 12.62298 34.55980 23.59139
# Shear Modulus (GPa) = 20.35334 33.04101 26.69718
#
# Velocity S-wave (km/s) = 2.87542 3.66362 3.29318
# Velocity P-wave (km/s) = 4.01893 5.65112 4.90341
#
# Compressibility (1/GPa) = 0.07922058
#
# Stress axis : x y z
#
# Youngs Moduli (GPa) = 24.58989 25.41760 82.40378
#
# Poissons Ratio (x) = -0.41533 0.78816
# Poissons Ratio (y) = -0.40180 1.09086
# Poissons Ratio (z) = 0.23519 0.33648
#
# Static dielectric constant tensor:
#      x y z
#    x 1.993260 0.000000 -0.005760 
#    y 0.000000 1.923460 0.000000 
#    z -0.005760 0.000000 1.976990 
# 
# From -- ./inp_files/68405.got.cif
#   From: 2010.05.17/outbox.cif.g08.bks.cpg/sg14_35_cif.got.tgz:68405.got - 2010.06.03 17:49:19.
