data_PCOD9247887
_publ_section_title
;
Structure prediction by ZEFSAII (Michael W. Deem and Ramdas Pophale) SiO2 
 PCOD9247887
Probable space group: P 21/C
;
_chemical_formula_sum "Si O2"
_cell_formula_units_Z 32
_cell_length_a 21.811562
_cell_length_b 11.028451
_cell_length_c 8.498263
_cell_angle_alpha 90.000000
_cell_angle_beta 45.524367
_cell_angle_gamma 90.000000
_cell_volume 1458.662885
_symmetry_space_group_name_H-M "P 21/C"
_symmetry_group_IT_number 14
_symmetry_cell_setting 'monoclinic'
loop_
_space_group_symop_operation_xyz
x,y,z
-x,1/2+y,1/2-z
-x,-y,-z
x,1/2-y,1/2+z
loop_
_atom_site_type_symbol
_atom_site_label
_atom_site_fract_x
_atom_site_fract_y
_atom_site_fract_z
Si Si1 0.979085 0.620776 0.765418
Si Si2 0.154960 0.823517 0.787589
Si Si3 0.452852 0.092185 0.369085
Si Si4 0.126143 0.305929 0.344408
Si Si5 0.263539 0.012638 0.737935
Si Si6 0.861474 0.422770 0.033299
Si Si7 0.547043 0.651870 0.759949
Si Si8 0.740204 0.903150 0.911915
O O1 0.921248 0.628370 0.712318
O O2 0.950633 0.495011 0.895198
O O3 0.075993 0.629607 0.536850
O O4 0.946363 0.733373 0.928147
O O5 0.143779 0.863501 0.628446
O O6 0.240212 0.883111 0.706770
O O7 0.150632 0.680079 0.815465
O O8 0.352805 0.065423 0.512939
O O9 0.459246 0.127922 0.542134
O O10 0.484652 0.212403 0.221705
O O11 0.501516 0.963936 0.260761
O O12 0.184257 0.400424 0.334146
O O13 0.194156 0.204898 0.164690
O O14 0.271253 0.014968 0.912388
O O15 0.786432 0.521043 0.192707
O O16 0.647541 0.646580 0.532355
#
# Coordination Sequence:
#
# PCOD9247887 Si02
#       8
#     4   4   4   4   4   4   4   4
#     4  11  24  39  63  91 125 162 217 264 320 375
#     4  12  25  41  61  87 132 165 215 266 322 377
#     4  10  23  41  68  98 135 167 218 260 329 386
#     4  11  20  37  64  92 118 162 207 265 308 372
#     4  11  22  39  64  91 125 167 208 263 314 377
#     4  11  25  41  60  89 121 170 208 263 321 379
#     4  10  22  42  67 100 132 169 211 272 317 397
#     4  10  22  40  65  92 123 162 216 256 317 381
#
# _framework density 21.937899999999999
#
# number of rings (size 3 to 8) (size 9 to 14) (size 15 to 20)
#    0.000    1.250    3.750    1.875    1.750    2.500 
#    0.000    5.625    0.000    0.000    0.000    0.000 
#    0.000    0.000    0.000    0.000    0.000    0.000 
#
# Total GULP energy -178980.761714 kJ/mol
# GULP energy per Si atom -5593.148804 kJ/mol
# Density = 2.188797 g / cm^3
# Si number density = 21.937900 Si / 1000 Ang^3
#
#
#
# Elastic Constant Matrix: (Units=GPa)
#
#
# Indices 1 2 3 4 5 6 
#
# 1 46.7763 33.6046 9.4462 0.0000 -9.3284 0.0000
# 2 33.6046 112.3083 9.8433 0.0000 -12.7182 0.0000
# 3 9.4462 9.8433 38.1366 0.0000 -9.0855 0.0000
# 4 0.0000 0.0000 0.0000 36.6527 0.0000 0.8900
# 5 -9.3284 -12.7182 -9.0855 0.0000 21.5791 0.0000
# 6 0.0000 0.0000 0.0000 0.8900 0.0000 30.2095
#
#
#
# Elastic Compliance Matrix: (Units=1/GPa)
#
#
# Indices 1 2 3 4 5 6 
#
# 1 0.028851 -0.007580 -0.003649 0.000000 0.006468 0.000000
# 2 -0.007580 0.011586 -0.000296 0.000000 0.003427 0.000000
# 3 -0.003649 -0.000296 0.029771 0.000000 0.010782 0.000000
# 4 0.000000 0.000000 0.000000 0.027303 0.000000 -0.000804
# 5 0.006468 0.003427 0.010782 0.000000 0.055697 0.000000
# 6 0.000000 0.000000 0.000000 -0.000804 0.000000 0.033126
#
#
# Mechanical properties :
#
#
# Convention : Reuss Voigt Hill
#
# Bulk Modulus (GPa) = 21.20596 33.66772 27.43684
# Shear Modulus (GPa) = 22.21205 27.31006 24.76106
#
# Velocity S-wave (km/s) = 3.18543 3.53211 3.36324
# Velocity P-wave (km/s) = 4.81836 5.65814 5.25505
#
# Compressibility (1/GPa) = 0.04715656
#
# Stress axis : x y z
#
# Youngs Moduli (GPa) = 34.66093 86.30857 33.59022
#
# Poissons Ratio (x) = 0.65426 0.12256
# Poissons Ratio (y) = 0.26275 0.00996
# Poissons Ratio (z) = 0.12647 0.02559
#
# Static dielectric constant tensor:
#      x y z
#    x 1.772780 0.000000 0.006590 
#    y 0.000000 1.845090 0.000000 
#    z 0.006590 0.000000 1.801480 
# 
# From -- ./inp_files/19480.got.cif
#   From: 2010.05.17/outbox.cif.g08.bks.cpg/sg14_10_cif.got.tgz:19480.got - 2010.06.03 17:49:19.
