data_PCOD9247386
_publ_section_title
;
Structure prediction by ZEFSAII (Michael W. Deem and Ramdas Pophale) SiO2 
 PCOD9247386
Probable space group: P 21/C
;
_chemical_formula_sum "Si O2"
_cell_formula_units_Z 30
_cell_length_a 7.263448
_cell_length_b 31.010805
_cell_length_c 5.160095
_cell_angle_alpha 90.000000
_cell_angle_beta 91.769211
_cell_angle_gamma 90.000000
_cell_volume 1161.733437
_symmetry_space_group_name_H-M "P 21/C"
_symmetry_group_IT_number 14
_symmetry_cell_setting 'monoclinic'
loop_
_space_group_symop_operation_xyz
x,y,z
-x,1/2+y,1/2-z
-x,-y,-z
x,1/2-y,1/2+z
loop_
_atom_site_type_symbol
_atom_site_label
_atom_site_fract_x
_atom_site_fract_y
_atom_site_fract_z
Si Si1 0.174377 0.437721 0.314163
Si Si2 0.471347 0.085802 0.446778
Si Si3 0.557156 0.139683 0.947765
Si Si4 0.000000 0.000000 0.000000
Si Si5 0.142452 0.942911 0.533616
Si Si6 0.519354 0.235974 0.056502
Si Si7 0.889900 0.727740 0.960432
Si Si8 0.039878 0.860327 0.237798
O O1 0.977456 0.462488 0.214567
O O2 0.216640 0.474501 0.513414
O O3 0.116413 0.390335 0.401039
O O4 0.288271 0.434298 0.058559
O O5 0.498395 0.124945 0.657915
O O6 0.641808 0.053861 0.496631
O O7 0.494391 0.104787 0.159307
O O8 0.779105 0.144390 0.930074
O O9 0.479184 0.185863 0.027730
O O10 0.080018 0.960639 0.801152
O O11 0.096951 0.892315 0.478181
O O12 0.628134 0.247612 0.315382
O O13 0.333691 0.265495 0.047190
O O14 0.949308 0.764178 0.756567
O O15 0.955632 0.683040 0.844782
#
# Coordination Sequence:
#
# PCOD9247386 Si02
#       8
#     4   4   4   2   4   4   4   4
#     4  10  25  43  73 104 140 194 229 301 353 438
#     4  11  25  45  73 106 136 193 236 289 355 430
#     4  11  24  43  68  98 145 181 243 294 350 425
#     4  12  22  46  76 106 150 182 244 298 372 422
#     4   9  24  45  69 103 146 183 239 299 353 435
#     4  10  22  37  60  93 132 180 221 300 342 409
#     4  10  23  38  63  97 134 181 233 294 341 425
#     4   9  23  45  65 100 141 189 238 290 363 420
#
# _framework density 25.823481000000001
#
# number of rings (size 3 to 8) (size 9 to 14) (size 15 to 20)
#    0.800    1.067    0.000    2.000    9.333    4.800 
#    0.000    1.333    0.000    0.000    0.000    0.000 
#    0.000    0.000    0.000    0.000    0.000    0.000 
#
# Total GULP energy -167208.092612 kJ/mol
# GULP energy per Si atom -5573.603087 kJ/mol
# Density = 2.576471 g / cm^3
# Si number density = 25.823481 Si / 1000 Ang^3
#
#
#
# Elastic Constant Matrix: (Units=GPa)
#
#
# Indices 1 2 3 4 5 6 
#
# 1 90.1852 19.8527 27.4579 0.0000 -31.7066 0.0000
# 2 19.8527 114.3429 32.8520 0.0000 -19.8215 0.0000
# 3 27.4579 32.8520 150.1414 0.0000 -13.9350 0.0000
# 4 0.0000 0.0000 0.0000 55.6840 0.0000 -15.2531
# 5 -31.7066 -19.8215 -13.9350 0.0000 28.4685 0.0000
# 6 0.0000 0.0000 0.0000 -15.2531 0.0000 21.9538
#
#
#
# Elastic Compliance Matrix: (Units=1/GPa)
#
#
# Indices 1 2 3 4 5 6 
#
# 1 0.018622 0.000799 -0.001680 0.000000 0.020474 0.000000
# 2 0.000799 0.010365 -0.001741 0.000000 0.007254 0.000000
# 3 -0.001680 -0.001741 0.007398 0.000000 0.000538 0.000000
# 4 0.000000 0.000000 0.000000 0.022180 0.000000 0.015410
# 5 0.020474 0.007254 0.000538 0.000000 0.063243 0.000000
# 6 0.000000 0.000000 0.000000 0.015410 0.000000 0.056257
#
#
# Mechanical properties :
#
#
# Convention : Reuss Voigt Hill
#
# Bulk Modulus (GPa) = 32.11216 57.22161 44.66689
# Shear Modulus (GPa) = 25.81454 39.52171 32.66813
#
# Velocity S-wave (km/s) = 3.16516 3.91635 3.56062
# Velocity P-wave (km/s) = 5.08133 6.53125 5.85137
#
# Compressibility (1/GPa) = 0.03114085
#
# Stress axis : x y z
#
# Youngs Moduli (GPa) = 53.69980 96.48287 135.16303
#
# Poissons Ratio (x) = -0.07706 0.22709
# Poissons Ratio (y) = -0.04289 0.23527
# Poissons Ratio (z) = 0.09022 0.16794
#
# Static dielectric constant tensor:
#      x y z
#    x 2.206410 0.000000 0.070710 
#    y 0.000000 2.046550 0.000000 
#    z 0.070710 0.000000 2.146290 
# 
# From -- ./inp_files/2117.got.cif
#   From: 2010.05.17/outbox.cif.g08.bks.cpg/sg14_2_cif.got.tgz:2117.got - 2010.06.03 17:49:19.
