data_PCOD9247572
_publ_section_title
;
Structure prediction by ZEFSAII (Michael W. Deem and Ramdas Pophale) SiO2 
 PCOD9247572
Probable space group: P 21/C
;
_chemical_formula_sum "Si O2"
_cell_formula_units_Z 32
_cell_length_a 8.656848
_cell_length_b 9.153409
_cell_length_c 27.325921
_cell_angle_alpha 90.000000
_cell_angle_beta 50.683747
_cell_angle_gamma 90.000000
_cell_volume 1675.204757
_symmetry_space_group_name_H-M "P 21/C"
_symmetry_group_IT_number 14
_symmetry_cell_setting 'monoclinic'
loop_
_space_group_symop_operation_xyz
x,y,z
-x,1/2+y,1/2-z
-x,-y,-z
x,1/2-y,1/2+z
loop_
_atom_site_type_symbol
_atom_site_label
_atom_site_fract_x
_atom_site_fract_y
_atom_site_fract_z
Si Si1 0.940284 0.920668 0.562034
Si Si2 0.311581 0.920667 0.562034
Si Si3 0.059303 0.081460 0.938575
Si Si4 0.939027 0.590412 0.312125
Si Si5 0.805652 0.582558 0.814836
Si Si6 0.687527 0.409588 0.687875
Si Si7 0.435006 0.582558 0.814836
Si Si8 0.313604 0.581460 0.561425
O O1 0.890317 0.750838 0.562540
O O2 0.127747 0.926058 0.561127
O O3 0.755348 0.001642 0.624321
O O4 0.000000 0.000000 0.500000
O O5 0.359522 0.750837 0.562540
O O6 0.500000 0.000000 0.500000
O O7 0.247367 0.001641 0.624321
O O8 0.868398 0.078414 0.940801
O O9 0.235716 0.998242 0.874722
O O10 0.000000 0.000000 0.000000
O O11 0.868954 0.751623 0.312330
O O12 0.765394 0.501758 0.374722
O O13 0.020291 0.502595 0.249045
O O14 0.124096 0.601334 0.312952
O O15 0.612241 0.581596 0.818880
O O16 0.516471 0.497405 0.750955
O O17 0.618272 0.248378 0.687670
O O18 0.500000 0.500000 0.500000
#
# Coordination Sequence:
#
# PCOD9247572 Si02
#       8
#     4   4   4   4   4   4   4   4
#     4  11  23  40  61  87 120 156 196 242 293 350
#     4  11  23  40  61  87 120 156 196 242 293 350
#     4  10  22  39  59  84 115 152 193 239 290 346
#     4  10  22  40  60  84 117 155 194 239 292 349
#     4  11  23  39  61  89 118 153 198 244 294 349
#     4  10  22  40  60  84 117 155 194 239 292 349
#     4  11  23  39  61  89 118 153 198 244 294 349
#     4  10  22  39  59  84 115 152 193 239 290 346
#
# _framework density 19.102139999999999
#
# number of rings (size 3 to 8) (size 9 to 14) (size 15 to 20)
#    0.000    1.500    0.000    4.500    0.000   11.000 
#    0.000    0.000    0.000    0.000    0.000    0.000 
#    0.000    0.000    0.000    0.000    0.000    0.000 
#
# Total GULP energy -178979.383903 kJ/mol
# GULP energy per Si atom -5593.105747 kJ/mol
# Density = 1.905866 g / cm^3
# Si number density = 19.102140 Si / 1000 Ang^3
#
#
#
# Elastic Constant Matrix: (Units=GPa)
#
#
# Indices 1 2 3 4 5 6 
#
# 1 31.9133 55.1511 54.5442 0.0000 -1.3894 0.0000
# 2 55.1511 241.8839 147.3520 0.0000 -1.3936 0.0000
# 3 54.5442 147.3520 239.8359 0.0000 -1.7533 0.0000
# 4 0.0000 0.0000 0.0000 46.1644 0.0000 -0.1446
# 5 -1.3894 -1.3936 -1.7533 0.0000 34.6450 0.0000
# 6 0.0000 0.0000 0.0000 -0.1446 0.0000 36.5961
#
#
#
# Elastic Compliance Matrix: (Units=1/GPa)
#
#
# Indices 1 2 3 4 5 6 
#
# 1 0.061017 -0.008720 -0.008507 0.000000 0.001666 0.000000
# 2 -0.008720 0.007854 -0.002843 0.000000 -0.000178 0.000000
# 3 -0.008507 -0.002843 0.007851 0.000000 -0.000058 0.000000
# 4 0.000000 0.000000 0.000000 0.021662 0.000000 0.000086
# 5 0.001666 -0.000178 -0.000058 0.000000 0.028921 0.000000
# 6 0.000000 0.000000 0.000000 0.000086 0.000000 0.027326
#
#
# Mechanical properties :
#
#
# Convention : Reuss Voigt Hill
#
# Bulk Modulus (GPa) = 27.33725 114.19196 70.76461
# Shear Modulus (GPa) = 24.15887 40.58683 32.37285
#
# Velocity S-wave (km/s) = 3.56015 4.61448 4.12117
# Velocity P-wave (km/s) = 5.58943 9.39684 7.73118
#
# Compressibility (1/GPa) = 0.03658013
#
# Stress axis : x y z
#
# Youngs Moduli (GPa) = 16.38895 127.33123 127.38033
#
# Poissons Ratio (x) = 1.11039 1.08358
# Poissons Ratio (y) = 0.14292 0.36216
# Poissons Ratio (z) = 0.13942 0.36202
#
# Static dielectric constant tensor:
#      x y z
#    x 1.651420 0.000000 0.000370 
#    y 0.000000 1.627450 0.000000 
#    z 0.000370 0.000000 1.627090 
# 
# From -- ./inp_files/76366.got.cif
#   From: 2010.05.17/outbox.cif.g08.bks.cpg/sg14_39_cif.got.tgz:76366.got - 2010.06.03 17:49:19.
