data_PCOD9247390
_publ_section_title
;
Structure prediction by ZEFSAII (Michael W. Deem and Ramdas Pophale) SiO2 
 PCOD9247390
Probable space group: P 21/C
;
_chemical_formula_sum "Si O2"
_cell_formula_units_Z 24
_cell_length_a 14.600064
_cell_length_b 11.638946
_cell_length_c 16.670145
_cell_angle_alpha 90.000000
_cell_angle_beta 24.552128
_cell_angle_gamma 90.000000
_cell_volume 1177.065754
_symmetry_space_group_name_H-M "P 21/C"
_symmetry_group_IT_number 14
_symmetry_cell_setting 'monoclinic'
loop_
_space_group_symop_operation_xyz
x,y,z
-x,1/2+y,1/2-z
-x,-y,-z
x,1/2-y,1/2+z
loop_
_atom_site_type_symbol
_atom_site_label
_atom_site_fract_x
_atom_site_fract_y
_atom_site_fract_z
Si Si1 0.474726 0.078253 0.197207
Si Si2 0.726548 0.924542 0.240082
Si Si3 0.626712 0.248907 0.438695
Si Si4 0.096553 0.227364 0.517066
Si Si5 0.828765 0.110928 0.039149
Si Si6 0.257833 0.842972 0.316656
O O1 0.528346 0.155959 0.076928
O O2 0.698343 0.061824 0.068149
O O3 0.300081 0.154685 0.387243
O O4 0.361196 0.958815 0.266104
O O5 0.495607 0.870828 0.449057
O O6 0.732361 0.049216 0.196010
O O7 0.817733 0.840516 0.096338
O O8 0.911028 0.913041 0.162086
O O9 0.891701 0.242992 0.237171
O O10 0.593137 0.292520 0.374483
O O11 0.977661 0.149666 0.542196
O O12 0.779238 0.245978 0.086931
#
# Coordination Sequence:
#
# PCOD9247390 Si02
#       6
#     4   4   4   4   4   4
#     4  11  20  36  62  85 123 144 200 250 284 345
#     4   9  19  42  59  81 123 158 192 234 296 358
#     4   9  20  38  63  85 113 155 194 239 297 344
#     4   8  19  37  61  85 112 157 191 237 297 351
#     4  10  22  37  61  87 116 165 191 238 297 344
#     4   9  20  38  58  87 115 157 195 230 302 348
#
# _framework density 20.389685
#
# number of rings (size 3 to 8) (size 9 to 14) (size 15 to 20)
#    1.000    1.667    0.000    1.000    4.667    0.667 
#    3.000    0.000    0.000    0.000    0.000    0.000 
#    0.000    0.000    0.000    0.000    0.000    0.000 
#
# Total GULP energy -133723.044531 kJ/mol
# GULP energy per Si atom -5571.793522 kJ/mol
# Density = 2.034328 g / cm^3
# Si number density = 20.389685 Si / 1000 Ang^3
#
#
#
# Elastic Constant Matrix: (Units=GPa)
#
#
# Indices 1 2 3 4 5 6 
#
# 1 29.7416 6.6234 -5.7038 0.0000 -13.1902 0.0000
# 2 6.6234 59.5827 21.0625 0.0000 -8.2952 0.0000
# 3 -5.7038 21.0625 85.1751 0.0000 1.8454 0.0000
# 4 0.0000 0.0000 0.0000 26.8825 0.0000 -4.4219
# 5 -13.1902 -8.2952 1.8454 0.0000 16.0804 0.0000
# 6 0.0000 0.0000 0.0000 -4.4219 0.0000 10.4122
#
#
#
# Elastic Compliance Matrix: (Units=1/GPa)
#
#
# Indices 1 2 3 4 5 6 
#
# 1 0.053479 -0.000976 0.002890 0.000000 0.043032 0.000000
# 2 -0.000976 0.020179 -0.005277 0.000000 0.010215 0.000000
# 3 0.002890 -0.005277 0.013280 0.000000 -0.001875 0.000000
# 4 0.000000 0.000000 0.000000 0.039993 0.000000 0.016984
# 5 0.043032 0.010215 -0.001875 0.000000 0.102970 0.000000
# 6 0.000000 0.000000 0.000000 0.016984 0.000000 0.103254
#
#
# Mechanical properties :
#
#
# Convention : Reuss Voigt Hill
#
# Bulk Modulus (GPa) = 12.46676 24.27374 18.37025
# Shear Modulus (GPa) = 13.63826 20.84285 17.24056
#
# Velocity S-wave (km/s) = 2.58908 3.20069 2.91099
# Velocity P-wave (km/s) = 3.88140 5.05866 4.50862
#
# Compressibility (1/GPa) = 0.08021330
#
# Stress axis : x y z
#
# Youngs Moduli (GPa) = 18.69905 49.55571 75.30382
#
# Poissons Ratio (x) = 0.04834 -0.21764
# Poissons Ratio (y) = 0.01824 0.39736
# Poissons Ratio (z) = -0.05404 0.26149
#
# Static dielectric constant tensor:
#      x y z
#    x 1.726320 0.000000 -0.001570 
#    y 0.000000 1.727910 0.000000 
#    z -0.001570 0.000000 1.756090 
# 
# From -- ./inp_files/69200.got.cif
#   From: 2010.05.17/outbox.cif.g08.bks.cpg/sg14_35_cif.got.tgz:69200.got - 2010.06.03 17:49:19.
