data_PCOD9247831
_publ_section_title
;
Structure prediction by ZEFSAII (Michael W. Deem and Ramdas Pophale) SiO2 
 PCOD9247831
Probable space group: P 21/C
;
_chemical_formula_sum "Si O2"
_cell_formula_units_Z 32
_cell_length_a 22.545010
_cell_length_b 11.556457
_cell_length_c 17.623067
_cell_angle_alpha 90.000000
_cell_angle_beta 165.068989
_cell_angle_gamma 90.000000
_cell_volume 1183.032176
_symmetry_space_group_name_H-M "P 21/C"
_symmetry_group_IT_number 14
_symmetry_cell_setting 'monoclinic'
loop_
_space_group_symop_operation_xyz
x,y,z
-x,1/2+y,1/2-z
-x,-y,-z
x,1/2-y,1/2+z
loop_
_atom_site_type_symbol
_atom_site_label
_atom_site_fract_x
_atom_site_fract_y
_atom_site_fract_z
Si Si1 0.423517 0.782578 0.670144
Si Si2 0.804606 0.079665 0.196171
Si Si3 0.668331 0.212196 0.177540
Si Si4 0.788825 0.879162 0.776457
Si Si5 0.905434 0.661417 0.258064
Si Si6 0.683639 0.892270 0.156683
Si Si7 0.453019 0.417978 0.821172
Si Si8 0.955086 0.069779 0.748052
O O1 0.309946 0.658205 0.508963
O O2 0.422019 0.877506 0.600797
O O3 0.253860 0.841243 0.521626
O O4 0.688363 0.744214 0.996089
O O5 0.790847 0.159793 0.254701
O O6 0.072222 0.063359 0.507852
O O7 0.677836 0.964667 0.070456
O O8 0.861278 0.270479 0.467334
O O9 0.526988 0.113819 0.045549
O O10 0.503271 0.312757 0.941230
O O11 0.933756 0.892377 0.877772
O O12 0.712732 0.745372 0.680262
O O13 0.573055 0.966198 0.500830
O O14 0.927532 0.898303 0.025225
O O15 0.867469 0.561180 0.149976
O O16 0.178775 0.428757 0.470887
#
# Coordination Sequence:
#
# PCOD9247831 Si02
#       8
#     4   4   4   4   4   4   4   4
#     4  11  25  45  59  94 143 175 211 264 343 414
#     4  10  22  40  63  92 130 174 215 262 325 395
#     4  11  20  40  67  97 128 159 226 276 322 381
#     4  12  20  41  72 102 122 165 232 287 326 377
#     4  12  25  40  65 101 137 175 214 273 338 408
#     4  11  21  37  67  96 122 166 222 275 321 377
#     4  11  22  42  74 100 125 167 225 288 335 385
#     4  12  22  45  72  98 130 173 225 284 334 384
#
# _framework density 27.049137000000002
#
# number of rings (size 3 to 8) (size 9 to 14) (size 15 to 20)
#    0.000    0.750    6.250    2.625    0.000    1.000 
#    6.750    0.000    0.000    0.000    0.000    0.000 
#    0.000    0.000    0.000    0.000    0.000    0.000 
#
# Total GULP energy -179246.693954 kJ/mol
# GULP energy per Si atom -5601.459186 kJ/mol
# Density = 2.698757 g / cm^3
# Si number density = 27.049137 Si / 1000 Ang^3
#
#
#
# Elastic Constant Matrix: (Units=GPa)
#
#
# Indices 1 2 3 4 5 6 
#
# 1 55.6787 -1.3923 15.9353 0.0000 23.1814 0.0000
# 2 -1.3923 137.8052 28.7193 0.0000 8.9699 0.0000
# 3 15.9353 28.7193 140.7041 0.0000 38.4532 0.0000
# 4 0.0000 0.0000 0.0000 58.4759 0.0000 12.9659
# 5 23.1814 8.9699 38.4532 0.0000 41.6083 0.0000
# 6 0.0000 0.0000 0.0000 12.9659 0.0000 25.0911
#
#
#
# Elastic Compliance Matrix: (Units=1/GPa)
#
#
# Indices 1 2 3 4 5 6 
#
# 1 0.023662 0.000955 0.001049 0.000000 -0.014358 0.000000
# 2 0.000955 0.007620 -0.001430 0.000000 -0.000853 0.000000
# 3 0.001049 -0.001430 0.009841 0.000000 -0.009371 0.000000
# 4 0.000000 0.000000 0.000000 0.019314 0.000000 -0.009981
# 5 -0.014358 -0.000853 -0.009371 0.000000 0.040878 0.000000
# 6 0.000000 0.000000 0.000000 -0.009981 0.000000 0.045012
#
#
# Mechanical properties :
#
#
# Convention : Reuss Voigt Hill
#
# Bulk Modulus (GPa) = 23.65704 46.74584 35.20144
# Shear Modulus (GPa) = 31.39332 44.43010 37.91171
#
# Velocity S-wave (km/s) = 3.41046 4.05726 3.74784
# Velocity P-wave (km/s) = 4.92679 6.26640 5.63654
#
# Compressibility (1/GPa) = 0.04227071
#
# Stress axis : x y z
#
# Youngs Moduli (GPa) = 42.26235 131.23563 101.61232
#
# Poissons Ratio (x) = -0.12533 -0.10662
# Poissons Ratio (y) = -0.04036 0.14535
# Poissons Ratio (z) = -0.04435 0.18772
#
# Static dielectric constant tensor:
#      x y z
#    x 2.182420 0.000000 -0.053680 
#    y 0.000000 2.109820 0.000000 
#    z -0.053680 0.000000 2.177090 
# 
# From -- ./inp_files/75327.got.cif
#   From: 2010.05.17/outbox.cif.g08.bks.cpg/sg14_38_cif.got.tgz:75327.got - 2010.06.03 17:49:19.
