data_PCOD9247003
_publ_section_title
;
Structure prediction by ZEFSAII (Michael W. Deem and Ramdas Pophale) SiO2 
 PCOD9247003
Probable space group: P 21/C
;
_chemical_formula_sum "Si O2"
_cell_formula_units_Z 28
_cell_length_a 12.574130
_cell_length_b 9.928892
_cell_length_c 9.848498
_cell_angle_alpha 90.000000
_cell_angle_beta 69.291135
_cell_angle_gamma 90.000000
_cell_volume 1150.114675
_symmetry_space_group_name_H-M "P 21/C"
_symmetry_group_IT_number 14
_symmetry_cell_setting 'monoclinic'
loop_
_space_group_symop_operation_xyz
x,y,z
-x,1/2+y,1/2-z
-x,-y,-z
x,1/2-y,1/2+z
loop_
_atom_site_type_symbol
_atom_site_label
_atom_site_fract_x
_atom_site_fract_y
_atom_site_fract_z
Si Si1 0.388038 0.622736 0.309047
Si Si2 0.831344 0.257141 0.979875
Si Si3 0.959500 0.137069 0.677617
Si Si4 0.210531 0.417006 0.729844
Si Si5 0.320580 0.513197 0.057517
Si Si6 0.426691 0.578938 0.740907
Si Si7 0.790067 0.734200 0.005352
O O1 0.284128 0.672862 0.447848
O O2 0.341372 0.538265 0.203949
O O3 0.476955 0.526751 0.344848
O O4 0.439779 0.760855 0.219032
O O5 0.919815 0.185848 0.842459
O O6 0.789559 0.398156 0.935333
O O7 0.886905 0.281140 0.099816
O O8 0.088872 0.171134 0.592164
O O9 0.912473 0.984962 0.688166
O O10 0.307992 0.522987 0.731967
O O11 0.218935 0.374381 0.569341
O O12 0.221292 0.290137 0.828459
O O13 0.302798 0.360618 0.022683
O O14 0.416358 0.564499 0.909834
#
# Coordination Sequence:
#
# PCOD9247003 Si02
#       7
#     4   4   4   4   4   4   4
#     4  11  22  43  70 100 129 180 223 279 341 404
#     4  11  22  42  70  95 135 172 225 277 335 404
#     4  12  23  44  67  98 134 178 225 277 339 403
#     4  11  24  47  62 102 140 170 228 283 334 405
#     4  10  21  43  66  93 133 177 220 271 341 404
#     4  10  23  43  69  97 136 174 222 284 340 399
#     4  11  25  40  72  94 135 183 222 278 336 399
#
# _framework density 24.345397999999999
#
# number of rings (size 3 to 8) (size 9 to 14) (size 15 to 20)
#    0.000    1.143    5.714    1.714    4.000    1.143 
#    5.143    5.714    0.000    0.000    0.000    0.000 
#    0.000    0.000    0.000    0.000    0.000    0.000 
#
# Total GULP energy -156686.566234 kJ/mol
# GULP energy per Si atom -5595.948794 kJ/mol
# Density = 2.428999 g / cm^3
# Si number density = 24.345398 Si / 1000 Ang^3
#
#
#
# Elastic Constant Matrix: (Units=GPa)
#
#
# Indices 1 2 3 4 5 6 
#
# 1 59.0894 14.8546 1.7822 0.0000 -4.7194 0.0000
# 2 14.8546 71.4701 10.1644 0.0000 2.1587 0.0000
# 3 1.7822 10.1644 63.8052 0.0000 7.3686 0.0000
# 4 0.0000 0.0000 0.0000 43.0476 0.0000 -4.1868
# 5 -4.7194 2.1587 7.3686 0.0000 27.7054 0.0000
# 6 0.0000 0.0000 0.0000 -4.1868 0.0000 33.4563
#
#
#
# Elastic Compliance Matrix: (Units=1/GPa)
#
#
# Indices 1 2 3 4 5 6 
#
# 1 0.018175 -0.003840 -0.000297 0.000000 0.003474 0.000000
# 2 -0.003840 0.015135 -0.002158 0.000000 -0.001259 0.000000
# 3 -0.000297 -0.002158 0.016519 0.000000 -0.004276 0.000000
# 4 0.000000 0.000000 0.000000 0.023516 0.000000 0.002943
# 5 0.003474 -0.001259 -0.004276 0.000000 0.037921 0.000000
# 6 0.000000 0.000000 0.000000 0.002943 0.000000 0.030258
#
#
# Mechanical properties :
#
#
# Convention : Reuss Voigt Hill
#
# Bulk Modulus (GPa) = 26.85469 27.55190 27.20330
# Shear Modulus (GPa) = 30.02486 32.01275 31.01881
#
# Velocity S-wave (km/s) = 3.51563 3.63015 3.57335
# Velocity P-wave (km/s) = 5.24730 5.37701 5.31255
#
# Compressibility (1/GPa) = 0.03723744
#
# Stress axis : x y z
#
# Youngs Moduli (GPa) = 55.01951 66.07176 60.53771
#
# Poissons Ratio (x) = 0.25374 0.01799
# Poissons Ratio (y) = 0.21129 0.13066
# Poissons Ratio (z) = 0.01635 0.14261
#
# Static dielectric constant tensor:
#      x y z
#    x 1.956560 0.000000 -0.033240 
#    y 0.000000 2.001960 0.000000 
#    z -0.033240 0.000000 1.914350 
# 
# From -- ./inp_files/31513.got.cif
#   From: 2010.05.17/outbox.cif.g08.bks.cpg/sg14_16_cif.got.tgz:31513.got - 2010.06.03 17:49:19.
