data_PCOD9247084
_publ_section_title
;
Structure prediction by ZEFSAII (Michael W. Deem and Ramdas Pophale) SiO2 
 PCOD9247084
Probable space group: P 21/C
;
_chemical_formula_sum "Si O2"
_cell_formula_units_Z 22
_cell_length_a 11.556984
_cell_length_b 11.065277
_cell_length_c 12.575509
_cell_angle_alpha 90.000000
_cell_angle_beta 32.427216
_cell_angle_gamma 90.000000
_cell_volume 862.346288
_symmetry_space_group_name_H-M "P 21/C"
_symmetry_group_IT_number 14
_symmetry_cell_setting 'monoclinic'
loop_
_space_group_symop_operation_xyz
x,y,z
-x,1/2+y,1/2-z
-x,-y,-z
x,1/2-y,1/2+z
loop_
_atom_site_type_symbol
_atom_site_label
_atom_site_fract_x
_atom_site_fract_y
_atom_site_fract_z
Si Si1 0.333133 0.067823 0.303482
Si Si2 0.355797 0.433399 0.024071
Si Si3 0.125751 0.667845 0.910513
Si Si4 0.959672 0.405921 0.626599
Si Si5 0.159726 0.326620 0.669084
Si Si6 0.500000 0.000000 0.000000
O O1 0.316779 0.932374 0.257456
O O2 0.425326 0.058227 0.348101
O O3 0.089219 0.115156 0.481431
O O4 0.492861 0.120498 0.094044
O O5 0.142637 0.514388 0.201103
O O6 0.288839 0.296166 0.094461
O O7 0.500000 0.500000 0.000000
O O8 0.053002 0.682663 0.089858
O O9 0.175651 0.796565 0.820793
O O10 0.000000 0.500000 0.500000
O O11 0.140712 0.337655 0.555667
O O12 0.280802 0.444654 0.613188
#
# Coordination Sequence:
#
# PCOD9247084 Si02
#       6
#     4   4   4   4   4   2
#     4  10  22  45  68  96 138 186 232 286 357 420
#     4  12  27  45  69 108 144 183 234 302 359 422
#     4  10  21  43  72  97 132 187 239 286 352 431
#     4  12  25  44  73 104 139 186 240 292 359 432
#     4  11  24  48  67 102 143 183 242 297 353 436
#     4  10  26  42  70  98 136 190 230 292 358 416
#
# _framework density 25.511793999999998
#
# number of rings (size 3 to 8) (size 9 to 14) (size 15 to 20)
#    0.000    1.091    5.455    0.000    5.091    0.000 
#    3.273    0.000    0.000    0.000    0.000    0.000 
#    0.000    0.000    0.000    0.000    0.000    0.000 
#
# Total GULP energy -122491.306575 kJ/mol
# GULP energy per Si atom -5567.786663 kJ/mol
# Density = 2.545373 g / cm^3
# Si number density = 25.511794 Si / 1000 Ang^3
#
#
#
# Elastic Constant Matrix: (Units=GPa)
#
#
# Indices 1 2 3 4 5 6 
#
# 1 125.2542 38.2265 32.0465 0.0000 49.1278 0.0000
# 2 38.2265 139.8009 17.7121 0.0000 5.8566 0.0000
# 3 32.0465 17.7121 91.6438 0.0000 28.3078 0.0000
# 4 0.0000 0.0000 0.0000 27.5589 0.0000 2.3710
# 5 49.1278 5.8566 28.3078 0.0000 47.5514 0.0000
# 6 0.0000 0.0000 0.0000 2.3710 0.0000 42.1967
#
#
#
# Elastic Compliance Matrix: (Units=1/GPa)
#
#
# Indices 1 2 3 4 5 6 
#
# 1 0.014914 -0.003461 0.000100 0.000000 -0.015042 0.000000
# 2 -0.003461 0.008136 -0.001418 0.000000 0.003417 0.000000
# 3 0.000100 -0.001418 0.013636 0.000000 -0.008046 0.000000
# 4 0.000000 0.000000 0.000000 0.036462 0.000000 -0.002049
# 5 -0.015042 0.003417 -0.008046 0.000000 0.040940 0.000000
# 6 0.000000 0.000000 0.000000 -0.002049 0.000000 0.023814
#
#
# Mechanical properties :
#
#
# Convention : Reuss Voigt Hill
#
# Bulk Modulus (GPa) = 36.86087 59.18544 48.02316
# Shear Modulus (GPa) = 31.94850 41.37565 36.66207
#
# Velocity S-wave (km/s) = 3.54263 4.03156 3.79497
# Velocity P-wave (km/s) = 5.58691 6.70230 6.16986
#
# Compressibility (1/GPa) = 0.02712904
#
# Stress axis : x y z
#
# Youngs Moduli (GPa) = 67.05057 122.91432 73.33324
#
# Poissons Ratio (x) = 0.42535 -0.00732
# Poissons Ratio (y) = 0.23203 0.10398
# Poissons Ratio (z) = -0.00669 0.17428
#
# Static dielectric constant tensor:
#      x y z
#    x 2.300000 0.000000 0.321300 
#    y 0.000000 2.232900 0.000000 
#    z 0.321300 0.000000 3.766230 
# 
# From -- ./inp_files/23838.got.cif
#   From: 2010.05.17/outbox.cif.g08.bks.cpg/sg14_12_cif.got.tgz:23838.got - 2010.06.03 17:49:19.
