data_PCOD9247284
_publ_section_title
;
Structure prediction by ZEFSAII (Michael W. Deem and Ramdas Pophale) SiO2 
 PCOD9247284
Probable space group: P 21/C
;
_chemical_formula_sum "Si O2"
_cell_formula_units_Z 24
_cell_length_a 9.359472
_cell_length_b 8.592289
_cell_length_c 13.880882
_cell_angle_alpha 90.000000
_cell_angle_beta 47.235217
_cell_angle_gamma 90.000000
_cell_volume 819.521819
_symmetry_space_group_name_H-M "P 21/C"
_symmetry_group_IT_number 14
_symmetry_cell_setting 'monoclinic'
loop_
_space_group_symop_operation_xyz
x,y,z
-x,1/2+y,1/2-z
-x,-y,-z
x,1/2-y,1/2+z
loop_
_atom_site_type_symbol
_atom_site_label
_atom_site_fract_x
_atom_site_fract_y
_atom_site_fract_z
Si Si1 0.448853 0.584288 0.213964
Si Si2 0.553985 0.341742 0.415437
Si Si3 0.022525 0.184567 0.382286
Si Si4 0.016027 0.651367 0.868277
Si Si5 0.985607 0.482336 0.622848
Si Si6 0.517523 0.740273 0.853294
O O1 0.548913 0.735175 0.121159
O O2 0.244955 0.543444 0.256699
O O3 0.552920 0.420850 0.160918
O O4 0.412316 0.624183 0.341716
O O5 0.500000 0.500000 0.500000
O O6 0.762136 0.361923 0.270056
O O7 0.536956 0.224826 0.512025
O O8 0.945959 0.348276 0.373665
O O9 0.255840 0.211313 0.263316
O O10 0.988380 0.169709 0.513181
O O11 0.943163 0.022004 0.376318
O O12 0.928780 0.819947 0.876288
O O13 0.000000 0.500000 0.500000
#
# Coordination Sequence:
#
# PCOD9247284 Si02
#       6
#     4   4   4   4   4   4
#     4  10  22  35  57  86 115 157 193 245 299 351
#     4  11  20  35  57  84 115 149 194 240 292 350
#     4   9  17  31  53  80 106 149 185 234 282 350
#     4   9  17  31  54  78 109 143 191 227 290 339
#     4   8  16  31  52  80 104 142 190 230 278 344
#     4  11  21  36  57  83 118 148 198 243 296 352
#
# _framework density 29.28537
#
# number of rings (size 3 to 8) (size 9 to 14) (size 15 to 20)
#    0.000    2.333    1.667    1.500    2.333    0.000 
#    0.000    0.000    0.000   18.000    0.000    0.000 
#    0.000    0.000    0.000    0.000    0.000    0.000 
#
# Total GULP energy -134112.572939 kJ/mol
# GULP energy per Si atom -5588.023872 kJ/mol
# Density = 2.921872 g / cm^3
# Si number density = 29.285370 Si / 1000 Ang^3
#
#
#
# Elastic Constant Matrix: (Units=GPa)
#
#
# Indices 1 2 3 4 5 6 
#
# 1 76.9131 6.0992 37.1469 0.0000 -4.0120 0.0000
# 2 6.0992 294.7258 25.5339 0.0000 8.3875 0.0000
# 3 37.1469 25.5339 177.1333 0.0000 -18.2706 0.0000
# 4 0.0000 0.0000 0.0000 37.6143 0.0000 21.0297
# 5 -4.0120 8.3875 -18.2706 0.0000 53.6632 0.0000
# 6 0.0000 0.0000 0.0000 21.0297 0.0000 24.9398
#
#
#
# Elastic Compliance Matrix: (Units=1/GPa)
#
#
# Indices 1 2 3 4 5 6 
#
# 1 0.014468 -0.000039 -0.003022 0.000000 0.000059 0.000000
# 2 -0.000039 0.003464 -0.000567 0.000000 -0.000737 0.000000
# 3 -0.003022 -0.000567 0.006578 0.000000 0.002102 0.000000
# 4 0.000000 0.000000 0.000000 0.050298 0.000000 -0.042412
# 5 0.000059 -0.000737 0.002102 0.000000 0.019470 0.000000
# 6 0.000000 0.000000 0.000000 -0.042412 0.000000 0.075859
#
#
# Mechanical properties :
#
#
# Convention : Reuss Voigt Hill
#
# Bulk Modulus (GPa) = 57.96445 76.25914 67.11179
# Shear Modulus (GPa) = 27.30089 55.24294 41.27191
#
# Velocity S-wave (km/s) = 3.05657 4.34794 3.75814
# Velocity P-wave (km/s) = 5.68267 7.16259 6.46512
#
# Compressibility (1/GPa) = 0.01725195
#
# Stress axis : x y z
#
# Youngs Moduli (GPa) = 69.12025 288.69035 152.02490
#
# Poissons Ratio (x) = 0.01133 0.45946
# Poissons Ratio (y) = 0.00271 0.08622
# Poissons Ratio (z) = 0.20890 0.16373
#
# Static dielectric constant tensor:
#      x y z
#    x 2.267470 0.000000 -0.123710 
#    y 0.000000 2.477090 0.000000 
#    z -0.123710 0.000000 2.288260 
# 
# From -- ./inp_files/42813.got.cif
#   From: 2010.05.17/outbox.cif.g08.bks.cpg/sg14_22_cif.got.tgz:42813.got - 2010.06.03 17:49:19.
