data_PCOD9247841
_publ_section_title
;
Structure prediction by ZEFSAII (Michael W. Deem and Ramdas Pophale) SiO2 
 PCOD9247841
Probable space group: P 21/C
;
_chemical_formula_sum "Si O2"
_cell_formula_units_Z 24
_cell_length_a 8.845567
_cell_length_b 8.440684
_cell_length_c 14.646961
_cell_angle_alpha 90.000000
_cell_angle_beta 94.019056
_cell_angle_gamma 90.000000
_cell_volume 1090.891376
_symmetry_space_group_name_H-M "P 21/C"
_symmetry_group_IT_number 14
_symmetry_cell_setting 'monoclinic'
loop_
_space_group_symop_operation_xyz
x,y,z
-x,1/2+y,1/2-z
-x,-y,-z
x,1/2-y,1/2+z
loop_
_atom_site_type_symbol
_atom_site_label
_atom_site_fract_x
_atom_site_fract_y
_atom_site_fract_z
Si Si1 0.679265 0.786749 0.335036
Si Si2 0.117881 0.082238 0.255510
Si Si3 0.947515 0.544799 0.900228
Si Si4 0.655101 0.465295 0.450975
Si Si5 0.861831 0.133044 0.129135
Si Si6 0.654693 0.195919 0.758456
O O1 0.793897 0.744099 0.257890
O O2 0.767960 0.926825 0.388308
O O3 0.685910 0.631262 0.399778
O O4 0.513839 0.812964 0.289551
O O5 0.002312 0.027361 0.170524
O O6 0.250119 0.955587 0.270806
O O7 0.007848 0.089482 0.335875
O O8 0.043835 0.703686 0.881213
O O9 0.000000 0.500000 0.000000
O O10 0.500000 0.500000 0.500000
O O11 0.778288 0.420196 0.533546
O O12 0.647018 0.332692 0.368603
O O13 0.739444 0.162309 0.206142
#
# Coordination Sequence:
#
# PCOD9247841 Si02
#       6
#     4   4   4   4   4   4
#     4  10  22  42  64  93 129 166 214 265 319 385
#     4   9  22  40  61  89 129 169 205 265 318 372
#     4  10  23  41  62  94 124 167 214 265 325 372
#     4  11  23  40  69  97 124 173 217 262 321 386
#     4  10  22  44  64  95 129 165 219 262 321 390
#     4  10  22  40  63  95 129 162 212 267 317 374
#
# _framework density 22.000357999999999
#
# number of rings (size 3 to 8) (size 9 to 14) (size 15 to 20)
#    0.000    2.000    1.667    0.000    4.667    7.333 
#    3.000    1.667    0.000    0.000    0.000    0.000 
#    0.000    0.000    0.000    0.000    0.000    0.000 
#
# Total GULP energy -133728.199509 kJ/mol
# GULP energy per Si atom -5572.008313 kJ/mol
# Density = 2.195028 g / cm^3
# Si number density = 22.000358 Si / 1000 Ang^3
#
#
#
# Elastic Constant Matrix: (Units=GPa)
#
#
# Indices 1 2 3 4 5 6 
#
# 1 183.5145 33.4267 81.9183 0.0000 40.9566 0.0000
# 2 33.4267 33.6181 17.9501 0.0000 3.8431 0.0000
# 3 81.9183 17.9501 133.5512 0.0000 20.7157 0.0000
# 4 0.0000 0.0000 0.0000 29.6310 0.0000 8.1327
# 5 40.9566 3.8431 20.7157 0.0000 45.9950 0.0000
# 6 0.0000 0.0000 0.0000 8.1327 0.0000 21.8850
#
#
#
# Elastic Compliance Matrix: (Units=1/GPa)
#
#
# Indices 1 2 3 4 5 6 
#
# 1 0.010052 -0.007001 -0.004222 0.000000 -0.006464 0.000000
# 2 -0.007001 0.036949 -0.001247 0.000000 0.003709 0.000000
# 3 -0.004222 -0.001247 0.010370 0.000000 -0.000807 0.000000
# 4 0.000000 0.000000 0.000000 0.037581 0.000000 -0.013966
# 5 -0.006464 0.003709 -0.000807 0.000000 0.027551 0.000000
# 6 0.000000 0.000000 0.000000 -0.013966 0.000000 0.050883
#
#
# Mechanical properties :
#
#
# Convention : Reuss Voigt Hill
#
# Bulk Modulus (GPa) = 30.83496 68.58601 49.71048
# Shear Modulus (GPa) = 23.90775 33.99478 28.95126
#
# Velocity S-wave (km/s) = 3.30009 3.93516 3.63153
# Velocity P-wave (km/s) = 5.34480 7.20347 6.34259
#
# Compressibility (1/GPa) = 0.03243072
#
# Stress axis : x y z
#
# Youngs Moduli (GPa) = 99.48621 27.06427 96.43049
#
# Poissons Ratio (x) = 0.18948 0.40711
# Poissons Ratio (y) = 0.69653 0.12025
# Poissons Ratio (z) = 0.42001 0.03375
#
# Static dielectric constant tensor:
#      x y z
#    x 1.820880 0.000000 -0.045860 
#    y 0.000000 3.423150 0.000000 
#    z -0.045860 0.000000 1.877930 
# 
# From -- ./inp_files/38913.got.cif
#   From: 2010.05.17/outbox.cif.g08.bks.cpg/sg14_20_cif.got.tgz:38913.got - 2010.06.03 17:49:19.
