data_PCOD9247828
_publ_section_title
;
Structure prediction by ZEFSAII (Michael W. Deem and Ramdas Pophale) SiO2 
 PCOD9247828
Probable space group: P 21/C
;
_chemical_formula_sum "Si O2"
_cell_formula_units_Z 16
_cell_length_a 9.260492
_cell_length_b 8.679017
_cell_length_c 8.337677
_cell_angle_alpha 90.000000
_cell_angle_beta 57.011764
_cell_angle_gamma 90.000000
_cell_volume 562.081075
_symmetry_space_group_name_H-M "P 21/C"
_symmetry_group_IT_number 14
_symmetry_cell_setting 'monoclinic'
loop_
_space_group_symop_operation_xyz
x,y,z
-x,1/2+y,1/2-z
-x,-y,-z
x,1/2-y,1/2+z
loop_
_atom_site_type_symbol
_atom_site_label
_atom_site_fract_x
_atom_site_fract_y
_atom_site_fract_z
Si Si1 0.969606 0.696729 0.212747
Si Si2 0.550651 0.323293 0.773337
Si Si3 0.744396 0.097181 0.829623
Si Si4 0.762686 0.963995 0.388244
O O1 0.813711 0.574434 0.314260
O O2 0.880309 0.853047 0.204212
O O3 0.087195 0.786488 0.278436
O O4 0.116907 0.573671 0.076768
O O5 0.606841 0.148794 0.779158
O O6 0.634245 0.360766 0.554262
O O7 0.647522 0.432505 0.842961
O O8 0.351799 0.355330 0.929255
#
# Coordination Sequence:
#
# PCOD9247828 Si02
#       4
#     4   4   4   4
#     4   9  20  38  61  90 123 160 204 252 308 363
#     4  10  22  41  64  91 126 163 206 256 308 366
#     4  10  22  40  63  91 125 166 206 254 308 368
#     4   9  20  39  62  89 124 162 204 255 308 365
#
# _framework density 28.465644000000001
#
# number of rings (size 3 to 8) (size 9 to 14) (size 15 to 20)
#    0.000    2.500    0.000    0.000    0.000   17.000 
#    0.000   10.000    0.000    0.000    0.000    0.000 
#    0.000    0.000    0.000    0.000    0.000    0.000 
#
# Total GULP energy -89263.030150 kJ/mol
# GULP energy per Si atom -5578.939384 kJ/mol
# Density = 2.840085 g / cm^3
# Si number density = 28.465644 Si / 1000 Ang^3
#
#
#
# Elastic Constant Matrix: (Units=GPa)
#
#
# Indices 1 2 3 4 5 6 
#
# 1 68.0935 43.9185 29.5464 0.0000 -10.0516 0.0000
# 2 43.9185 185.1862 46.0710 0.0000 -30.4735 0.0000
# 3 29.5464 46.0710 100.6654 0.0000 -11.6799 0.0000
# 4 0.0000 0.0000 0.0000 32.2263 0.0000 -14.2602
# 5 -10.0516 -30.4735 -11.6799 0.0000 34.6328 0.0000
# 6 0.0000 0.0000 0.0000 -14.2602 0.0000 36.5679
#
#
#
# Elastic Compliance Matrix: (Units=1/GPa)
#
#
# Indices 1 2 3 4 5 6 
#
# 1 0.018636 -0.003261 -0.003833 0.000000 0.001247 0.000000
# 2 -0.003261 0.007461 -0.001879 0.000000 0.004985 0.000000
# 3 -0.003833 -0.001879 0.012070 0.000000 0.001305 0.000000
# 4 0.000000 0.000000 0.000000 0.037502 0.000000 0.014624
# 5 0.001247 0.004985 0.001305 0.000000 0.034062 0.000000
# 6 0.000000 0.000000 0.000000 0.014624 0.000000 0.033049
#
#
# Mechanical properties :
#
#
# Convention : Reuss Voigt Hill
#
# Bulk Modulus (GPa) = 49.45211 65.89076 57.67143
# Shear Modulus (GPa) = 29.85650 36.31269 33.08460
#
# Velocity S-wave (km/s) = 3.24213 3.57552 3.41290
# Velocity P-wave (km/s) = 5.60584 6.34378 5.98619
#
# Compressibility (1/GPa) = 0.02022159
#
# Stress axis : x y z
#
# Youngs Moduli (GPa) = 53.65937 134.02783 82.84807
#
# Poissons Ratio (x) = 0.43706 0.31754
# Poissons Ratio (y) = 0.17498 0.15569
# Poissons Ratio (z) = 0.20566 0.25186
#
# Static dielectric constant tensor:
#      x y z
#    x 2.236020 0.000000 0.026510 
#    y 0.000000 2.182510 0.000000 
#    z 0.026510 0.000000 2.337210 
# 
# From -- ./inp_files/17425.got.cif
#   From: 2010.05.17/outbox.cif.g08.bks.cpg/sg14_9_cif.got.tgz:17425.got - 2010.06.03 17:49:19.
