data_PCOD9247202
_publ_section_title
;
Structure prediction by ZEFSAII (Michael W. Deem and Ramdas Pophale) SiO2 
 PCOD9247202
Probable space group: P 21/C
;
_chemical_formula_sum "Si O2"
_cell_formula_units_Z 20
_cell_length_a 8.297170
_cell_length_b 12.723934
_cell_length_c 10.489673
_cell_angle_alpha 90.000000
_cell_angle_beta 60.925677
_cell_angle_gamma 90.000000
_cell_volume 967.876292
_symmetry_space_group_name_H-M "P 21/C"
_symmetry_group_IT_number 14
_symmetry_cell_setting 'monoclinic'
loop_
_space_group_symop_operation_xyz
x,y,z
-x,1/2+y,1/2-z
-x,-y,-z
x,1/2-y,1/2+z
loop_
_atom_site_type_symbol
_atom_site_label
_atom_site_fract_x
_atom_site_fract_y
_atom_site_fract_z
Si Si1 0.636817 0.463655 0.834843
Si Si2 0.803989 0.253004 0.883780
Si Si3 0.490925 0.590301 0.395235
Si Si4 0.863155 0.621711 0.141333
Si Si5 0.060243 0.087731 0.657384
O O1 0.704262 0.346805 0.846855
O O2 0.558214 0.462037 0.722445
O O3 0.812360 0.541754 0.779952
O O4 0.500000 0.500000 0.000000
O O5 0.956395 0.306668 0.915630
O O6 0.928856 0.181531 0.745520
O O7 0.659793 0.177123 0.008977
O O8 0.500000 0.500000 0.500000
O O9 0.688256 0.646749 0.296027
O O10 0.929869 0.506955 0.160422
O O11 0.814116 0.618374 0.011546
#
# Coordination Sequence:
#
# PCOD9247202 Si02
#       5
#     4   4   4   4   4
#     4  11  25  45  71  99 139 184 224 277 349 407
#     4  11  25  43  68 105 135 178 236 280 341 408
#     4  12  25  45  72 105 136 179 236 289 330 410
#     4  10  22  42  69  94 137 180 218 284 347 398
#     4  10  21  45  66  94 136 179 222 279 345 409
#
# _framework density 20.663798
#
# number of rings (size 3 to 8) (size 9 to 14) (size 15 to 20)
#    0.000    1.200    4.000    1.200    2.800    2.400 
#    3.600    0.000    0.000    0.000    0.000    0.000 
#    0.000    0.000    0.000    0.000    0.000    0.000 
#
# Total GULP energy -111712.993340 kJ/mol
# GULP energy per Si atom -5585.649667 kJ/mol
# Density = 2.061677 g / cm^3
# Si number density = 20.663798 Si / 1000 Ang^3
#
#
#
# Elastic Constant Matrix: (Units=GPa)
#
#
# Indices 1 2 3 4 5 6 
#
# 1 94.9761 43.3033 52.8691 0.0000 17.2852 0.0000
# 2 43.3033 115.0495 52.2306 0.0000 -3.3504 0.0000
# 3 52.8691 52.2306 116.6332 0.0000 4.6288 0.0000
# 4 0.0000 0.0000 0.0000 29.1038 0.0000 -28.4150
# 5 17.2852 -3.3504 4.6288 0.0000 34.3973 0.0000
# 6 0.0000 0.0000 0.0000 -28.4150 0.0000 27.2748
#
#
#
# Elastic Compliance Matrix: (Units=1/GPa)
#
#
# Indices 1 2 3 4 5 6 
#
# 1 0.016972 -0.004119 -0.005524 0.000000 -0.008186 0.000000
# 2 -0.004119 0.012013 -0.003661 0.000000 0.003732 0.000000
# 3 -0.005524 -0.003661 0.012689 0.000000 0.000712 0.000000
# 4 0.000000 0.000000 0.000000 -2.003865 0.000000 -2.087637
# 5 -0.008186 0.003732 0.000712 0.000000 0.033454 0.000000
# 6 0.000000 0.000000 0.000000 -2.087637 0.000000 -2.138247
#
#
# Mechanical properties :
#
#
# Convention : Reuss Voigt Hill
#
# Bulk Modulus (GPa) = 66.37063 69.27384 67.82224
# Shear Modulus (GPa) = -1.23905 30.03890 14.39993
#
# Velocity S-wave (km/s) = -0.77519 3.81687 2.64269
# Velocity P-wave (km/s) = 5.60248 7.28160 6.49652
#
# Compressibility (1/GPa) = 0.01506690
#
# Stress axis : x y z
#
# Youngs Moduli (GPa) = 58.92224 83.24530 78.80903
#
# Poissons Ratio (x) = 0.34285 0.43533
# Poissons Ratio (y) = 0.24267 0.28850
# Poissons Ratio (z) = 0.32548 0.30474
#
# Static dielectric constant tensor:
#      x y z
#    x 1.792310 0.000000 -0.000160 
#    y 0.000000 1.752250 0.000000 
#    z -0.000160 0.000000 1.741020 
# 
# From -- ./inp_files/23742.got.cif
#   From: 2010.05.17/outbox.cif.g08.bks.cpg/sg14_12_cif.got.tgz:23742.got - 2010.06.03 17:49:19.
