data_PCOD9247927
_publ_section_title
;
Structure prediction by ZEFSAII (Michael W. Deem and Ramdas Pophale) SiO2 
 PCOD9247927
Probable space group: P 21/C
;
_chemical_formula_sum "Si O2"
_cell_formula_units_Z 30
_cell_length_a 6.624957
_cell_length_b 11.380076
_cell_length_c 19.565160
_cell_angle_alpha 90.000000
_cell_angle_beta 71.765910
_cell_angle_gamma 90.000000
_cell_volume 1400.997681
_symmetry_space_group_name_H-M "P 21/C"
_symmetry_group_IT_number 14
_symmetry_cell_setting 'monoclinic'
loop_
_space_group_symop_operation_xyz
x,y,z
-x,1/2+y,1/2-z
-x,-y,-z
x,1/2-y,1/2+z
loop_
_atom_site_type_symbol
_atom_site_label
_atom_site_fract_x
_atom_site_fract_y
_atom_site_fract_z
Si Si1 0.717159 0.811586 0.346396
Si Si2 0.640204 0.140209 0.078753
Si Si3 0.898110 0.250506 0.793784
Si Si4 0.194915 0.278219 0.884332
Si Si5 0.527245 0.428191 0.329303
Si Si6 0.443234 0.947489 0.695673
Si Si7 0.500000 0.000000 0.000000
Si Si8 0.116353 0.315421 0.541935
O O1 0.504736 0.732262 0.366964
O O2 0.812592 0.779978 0.409763
O O3 0.895952 0.769857 0.274641
O O4 0.648385 0.942957 0.336835
O O5 0.875234 0.144457 0.080401
O O6 0.525706 0.009927 0.098928
O O7 0.619754 0.135615 0.999700
O O8 0.753975 0.133310 0.811379
O O9 0.741514 0.350125 0.781390
O O10 0.993381 0.287082 0.856450
O O11 0.345347 0.169843 0.844177
O O12 0.349218 0.390192 0.860691
O O13 0.129705 0.246600 0.967402
O O14 0.507066 0.507958 0.264434
O O15 0.263179 0.070154 0.028683
#
# Coordination Sequence:
#
# PCOD9247927 Si02
#       8
#     4   4   4   4   4   4   2   4
#     4  11  26  43  70 102 137 189 232 286 352 423
#     4  11  24  40  69 102 139 177 228 292 351 409
#     4  11  26  45  73 100 137 186 235 288 357 418
#     4  11  25  44  69 105 135 186 229 288 352 418
#     4  11  24  42  73 100 138 173 235 299 346 413
#     4  11  26  45  68 103 140 177 244 289 347 419
#     4  10  22  40  66  98 136 178 224 276 344 412
#     4  11  25  44  69 104 147 186 232 286 357 418
#
# _framework density 21.413311
#
# number of rings (size 3 to 8) (size 9 to 14) (size 15 to 20)
#    0.000    1.067    2.667    2.000    9.333    2.667 
#    0.000    1.333    0.000    0.000    0.000    0.000 
#    0.000    0.000    0.000    0.000    0.000    0.000 
#
# Total GULP energy -167431.548436 kJ/mol
# GULP energy per Si atom -5581.051615 kJ/mol
# Density = 2.136457 g / cm^3
# Si number density = 21.413311 Si / 1000 Ang^3
#
#
#
# Elastic Constant Matrix: (Units=GPa)
#
#
# Indices 1 2 3 4 5 6 
#
# 1 175.2592 62.7530 61.9591 0.0000 -8.9565 0.0000
# 2 62.7530 112.6660 53.7958 0.0000 -9.8841 0.0000
# 3 61.9591 53.7958 111.8550 0.0000 2.6450 0.0000
# 4 0.0000 0.0000 0.0000 34.1254 0.0000 5.0582
# 5 -8.9565 -9.8841 2.6450 0.0000 25.7203 0.0000
# 6 0.0000 0.0000 0.0000 5.0582 0.0000 37.0700
#
#
#
# Elastic Compliance Matrix: (Units=1/GPa)
#
#
# Indices 1 2 3 4 5 6 
#
# 1 0.007884 -0.002735 -0.003099 0.000000 0.002013 0.000000
# 2 -0.002735 0.013152 -0.004920 0.000000 0.004608 0.000000
# 3 -0.003099 -0.004920 0.013125 0.000000 -0.004320 0.000000
# 4 0.000000 0.000000 0.000000 0.029909 0.000000 -0.004081
# 5 0.002013 0.004608 -0.004320 0.000000 0.041796 0.000000
# 6 0.000000 0.000000 0.000000 -0.004081 0.000000 0.027533
#
#
# Mechanical properties :
#
#
# Convention : Reuss Voigt Hill
#
# Bulk Modulus (GPa) = 79.02758 84.08843 81.55801
# Shear Modulus (GPa) = 31.42223 34.13464 32.77844
#
# Velocity S-wave (km/s) = 3.83484 3.99693 3.91673
# Velocity P-wave (km/s) = 7.52290 7.78814 7.65667
#
# Compressibility (1/GPa) = 0.01265381
#
# Stress axis : x y z
#
# Youngs Moduli (GPa) = 126.84670 76.03307 76.18950
#
# Poissons Ratio (x) = 0.20791 0.23614
# Poissons Ratio (y) = 0.34686 0.37483
# Poissons Ratio (z) = 0.39314 0.37406
#
# Static dielectric constant tensor:
#      x y z
#    x 1.832100 0.000000 0.170410 
#    y 0.000000 1.776410 0.000000 
#    z 0.170410 0.000000 2.154970 
# 
# From -- ./inp_files/63504.got.cif
#   From: 2010.05.17/outbox.cif.g08.bks.cpg/sg14_32_cif.got.tgz:63504.got - 2010.06.03 17:49:19.
