data_PCOD9247027
_publ_section_title
;
Structure prediction by ZEFSAII (Michael W. Deem and Ramdas Pophale) SiO2 
 PCOD9247027
Probable space group: P 21/C
;
_chemical_formula_sum "Si O2"
_cell_formula_units_Z 28
_cell_length_a 12.682592
_cell_length_b 9.290526
_cell_length_c 18.528231
_cell_angle_alpha 90.000000
_cell_angle_beta 144.546965
_cell_angle_gamma 90.000000
_cell_volume 1266.300584
_symmetry_space_group_name_H-M "P 21/C"
_symmetry_group_IT_number 14
_symmetry_cell_setting 'monoclinic'
loop_
_space_group_symop_operation_xyz
x,y,z
-x,1/2+y,1/2-z
-x,-y,-z
x,1/2-y,1/2+z
loop_
_atom_site_type_symbol
_atom_site_label
_atom_site_fract_x
_atom_site_fract_y
_atom_site_fract_z
Si Si1 0.599937 0.842790 0.256933
Si Si2 0.102174 0.349276 0.336217
Si Si3 0.764311 0.338147 0.255767
Si Si4 0.531587 0.457915 0.858771
Si Si5 0.502539 0.430174 0.580398
Si Si6 0.024607 0.159113 0.481686
Si Si7 0.114632 0.451836 0.873378
O O1 0.477809 0.703573 0.175612
O O2 0.803569 0.781184 0.379885
O O3 0.562853 0.932636 0.309228
O O4 0.578166 0.955542 0.179969
O O5 0.291135 0.393219 0.478880
O O6 0.124403 0.183523 0.325586
O O7 0.923998 0.367019 0.287206
O O8 0.051682 0.447640 0.240343
O O9 0.650987 0.481420 0.207265
O O10 0.624335 0.214060 0.151081
O O11 0.858267 0.268796 0.379962
O O12 0.695869 0.469435 0.007647
O O13 0.500000 0.500000 0.500000
O O14 0.074680 0.125080 0.426958
O O15 0.000000 0.000000 0.500000
#
# Coordination Sequence:
#
# PCOD9247027 Si02
#       7
#     4   4   4   4   4   4   4
#     4  11  26  43  70  99 137 186 238 288 352 419
#     4  11  25  45  68 103 142 179 237 284 350 421
#     4  11  24  45  69  99 144 181 228 299 348 411
#     4  11  25  46  69 101 140 183 239 294 353 413
#     4  12  25  46  72 101 142 190 231 287 357 420
#     4  10  21  43  67  97 133 177 235 284 345 415
#     4  10  24  43  68  97 140 181 228 291 345 413
#
# _framework density 22.111654000000001
#
# number of rings (size 3 to 8) (size 9 to 14) (size 15 to 20)
#    0.000    1.143    2.857    2.571   10.000    2.286 
#    0.000    0.000    0.000    0.000    0.000    0.000 
#    0.000    0.000    0.000    0.000    0.000    0.000 
#
# Total GULP energy -156438.814086 kJ/mol
# GULP energy per Si atom -5587.100503 kJ/mol
# Density = 2.206133 g / cm^3
# Si number density = 22.111654 Si / 1000 Ang^3
#
#
#
# Elastic Constant Matrix: (Units=GPa)
#
#
# Indices 1 2 3 4 5 6 
#
# 1 58.1317 0.7914 20.5531 0.0000 11.5792 0.0000
# 2 0.7914 76.5475 19.4846 0.0000 -9.0921 0.0000
# 3 20.5531 19.4846 128.1739 0.0000 8.0400 0.0000
# 4 0.0000 0.0000 0.0000 27.7235 0.0000 10.8802
# 5 11.5792 -9.0921 8.0400 0.0000 24.5415 0.0000
# 6 0.0000 0.0000 0.0000 10.8802 0.0000 19.9858
#
#
#
# Elastic Compliance Matrix: (Units=1/GPa)
#
#
# Indices 1 2 3 4 5 6 
#
# 1 0.019854 -0.000598 -0.002544 0.000000 -0.008756 0.000000
# 2 -0.000598 0.014477 -0.002511 0.000000 0.006468 0.000000
# 3 -0.002544 -0.002511 0.008754 0.000000 -0.002598 0.000000
# 4 0.000000 0.000000 0.000000 0.045871 0.000000 -0.024972
# 5 -0.008756 0.006468 -0.002598 0.000000 0.048126 0.000000
# 6 0.000000 0.000000 0.000000 -0.024972 0.000000 0.063630
#
#
# Mechanical properties :
#
#
# Convention : Reuss Voigt Hill
#
# Bulk Modulus (GPa) = 31.46481 38.27903 34.87192
# Shear Modulus (GPa) = 22.46081 29.25176 25.85628
#
# Velocity S-wave (km/s) = 3.19060 3.64113 3.42329
# Velocity P-wave (km/s) = 5.27581 5.91831 5.60627
#
# Compressibility (1/GPa) = 0.03178153
#
# Stress axis : x y z
#
# Youngs Moduli (GPa) = 50.36823 69.07370 114.22833
#
# Poissons Ratio (x) = 0.04129 0.29054
# Poissons Ratio (y) = 0.03011 0.28679
# Poissons Ratio (z) = 0.12811 0.17342
#
# Static dielectric constant tensor:
#      x y z
#    x 1.926880 0.000000 0.014600 
#    y 0.000000 1.876240 0.000000 
#    z 0.014600 0.000000 1.848520 
# 
# From -- ./inp_files/68311.got.cif
#   From: 2010.05.17/outbox.cif.g08.bks.cpg/sg14_35_cif.got.tgz:68311.got - 2010.06.03 17:49:19.
