data_PCOD9247245
_publ_section_title
;
Structure prediction by ZEFSAII (Michael W. Deem and Ramdas Pophale) SiO2 
 PCOD9247245
Probable space group: P 21/C
;
_chemical_formula_sum "Si O2"
_cell_formula_units_Z 30
_cell_length_a 5.416748
_cell_length_b 18.153299
_cell_length_c 13.523185
_cell_angle_alpha 90.000000
_cell_angle_beta 119.368429
_cell_angle_gamma 90.000000
_cell_volume 1158.864576
_symmetry_space_group_name_H-M "P 21/C"
_symmetry_group_IT_number 14
_symmetry_cell_setting 'monoclinic'
loop_
_space_group_symop_operation_xyz
x,y,z
-x,1/2+y,1/2-z
-x,-y,-z
x,1/2-y,1/2+z
loop_
_atom_site_type_symbol
_atom_site_label
_atom_site_fract_x
_atom_site_fract_y
_atom_site_fract_z
Si Si1 0.915750 0.927129 0.874635
Si Si2 0.659296 0.347893 0.157330
Si Si3 0.543631 0.792379 0.563662
Si Si4 0.500000 0.000000 0.000000
Si Si5 0.449645 0.296517 0.697557
Si Si6 0.246958 0.134902 0.867472
Si Si7 0.435650 0.027376 0.730775
Si Si8 0.962882 0.102658 0.316448
O O1 0.817790 0.845674 0.883347
O O2 0.241214 0.939809 0.960034
O O3 0.890794 0.933440 0.749971
O O4 0.656662 0.983786 0.847416
O O5 0.449149 0.283757 0.152614
O O6 0.552022 0.429921 0.158778
O O7 0.933418 0.337790 0.279520
O O8 0.704173 0.327106 0.051490
O O9 0.524482 0.796829 0.678194
O O10 0.591723 0.705636 0.559195
O O11 0.809844 0.845193 0.586711
O O12 0.255687 0.065468 0.940915
O O13 0.729265 0.342241 0.724433
O O14 0.339559 0.094352 0.783335
O O15 0.201102 0.964689 0.663148
#
# Coordination Sequence:
#
# PCOD9247245 Si02
#       8
#     4   4   4   2   4   4   4   4
#     4  10  23  43  73 109 147 196 246 316 376 457
#     4  12  25  47  73 107 153 196 255 323 366 464
#     4  11  26  44  74 108 144 203 252 306 390 446
#     4  12  24  44  74 108 150 194 246 320 390 442
#     4  10  23  46  72 106 152 194 254 311 379 450
#     4  12  26  46  70 113 152 188 261 318 371 466
#     4  11  22  46  72 103 153 196 242 320 378 438
#     4  10  21  46  69 103 149 190 251 312 364 460
#
# _framework density 25.887409999999999
#
# number of rings (size 3 to 8) (size 9 to 14) (size 15 to 20)
#    0.000    1.067    5.333    0.000    1.867    2.133 
#    4.800    9.333    0.000    0.000    0.000    0.000 
#    0.000    0.000    0.000    0.000    0.000    0.000 
#
# Total GULP energy -167317.885322 kJ/mol
# GULP energy per Si atom -5577.262844 kJ/mol
# Density = 2.582849 g / cm^3
# Si number density = 25.887410 Si / 1000 Ang^3
#
#
#
# Elastic Constant Matrix: (Units=GPa)
#
#
# Indices 1 2 3 4 5 6 
#
# 1 25.0720 19.9678 6.6817 0.0000 20.8688 0.0000
# 2 19.9678 135.5988 38.9913 0.0000 7.5862 0.0000
# 3 6.6817 38.9913 85.3947 0.0000 0.2493 0.0000
# 4 0.0000 0.0000 0.0000 40.7852 0.0000 4.4193
# 5 20.8688 7.5862 0.2493 0.0000 35.6374 0.0000
# 6 0.0000 0.0000 0.0000 4.4193 0.0000 37.6318
#
#
#
# Elastic Compliance Matrix: (Units=1/GPa)
#
#
# Indices 1 2 3 4 5 6 
#
# 1 0.090932 -0.009815 -0.002484 0.000000 -0.051142 0.000000
# 2 -0.009815 0.009663 -0.003655 0.000000 0.003716 0.000000
# 3 -0.002484 -0.003655 0.013567 0.000000 0.002138 0.000000
# 4 0.000000 0.000000 0.000000 0.024835 0.000000 -0.002917
# 5 -0.051142 0.003716 0.002138 0.000000 0.057203 0.000000
# 6 0.000000 0.000000 0.000000 -0.002917 0.000000 0.026916
#
#
# Mechanical properties :
#
#
# Convention : Reuss Voigt Hill
#
# Bulk Modulus (GPa) = 12.15738 41.92747 27.04242
# Shear Modulus (GPa) = 17.70272 34.83918 26.27095
#
# Velocity S-wave (km/s) = 2.61786 3.67249 3.18907
# Velocity P-wave (km/s) = 3.72076 5.84929 4.90195
#
# Compressibility (1/GPa) = 0.08225457
#
# Stress axis : x y z
#
# Youngs Moduli (GPa) = 10.99718 103.48624 73.70619
#
# Poissons Ratio (x) = 1.01570 0.18310
# Poissons Ratio (y) = 0.10794 0.26940
# Poissons Ratio (z) = 0.02732 0.37825
#
# Static dielectric constant tensor:
#      x y z
#    x 2.781670 0.000000 -0.549400 
#    y 0.000000 2.000000 0.000000 
#    z -0.549400 0.000000 2.421590 
# 
# From -- ./inp_files/37937.got.cif
#   From: 2010.05.17/outbox.cif.g08.bks.cpg/sg14_19_cif.got.tgz:37937.got - 2010.06.03 17:49:19.
