data_PCOD9247924
_publ_section_title
;
Structure prediction by ZEFSAII (Michael W. Deem and Ramdas Pophale) SiO2 
 PCOD9247924
Probable space group: P 21/C
;
_chemical_formula_sum "Si O2"
_cell_formula_units_Z 26
_cell_length_a 10.697790
_cell_length_b 21.397889
_cell_length_c 12.734019
_cell_angle_alpha 90.000000
_cell_angle_beta 157.713700
_cell_angle_gamma 90.000000
_cell_volume 1105.449263
_symmetry_space_group_name_H-M "P 21/C"
_symmetry_group_IT_number 14
_symmetry_cell_setting 'monoclinic'
loop_
_space_group_symop_operation_xyz
x,y,z
-x,1/2+y,1/2-z
-x,-y,-z
x,1/2-y,1/2+z
loop_
_atom_site_type_symbol
_atom_site_label
_atom_site_fract_x
_atom_site_fract_y
_atom_site_fract_z
Si Si1 0.985402 0.019196 0.301128
Si Si2 0.429036 0.396565 0.464831
Si Si3 0.500000 0.000000 0.500000
Si Si4 0.697077 0.446084 0.374670
Si Si5 0.570778 0.359005 0.978141
Si Si6 0.166346 0.683915 0.595950
Si Si7 0.826118 0.326388 0.951545
O O1 0.190107 0.045179 0.807389
O O2 0.337579 0.027902 0.630309
O O3 0.736679 0.073939 0.141575
O O4 0.998429 0.027958 0.182466
O O5 0.582219 0.365492 0.687567
O O6 0.203875 0.347939 0.225839
O O7 0.305331 0.965751 0.247579
O O8 0.477962 0.933011 0.550480
O O9 0.698300 0.371044 0.374512
O O10 0.770247 0.343011 0.029254
O O11 0.219074 0.327034 0.698213
O O12 0.716977 0.329944 0.196539
O O13 0.239253 0.753713 0.617473
#
# Coordination Sequence:
#
# PCOD9247924 Si02
#       7
#     4   4   2   4   4   4   4
#     4  11  23  41  65  97 128 164 212 266 330 379
#     4  11  24  41  66  97 128 165 216 265 314 394
#     4  10  22  40  66  98 126 164 222 276 334 384
#     4  11  23  40  66  93 130 169 211 273 331 382
#     4  11  24  43  69  95 131 170 217 279 326 387
#     4  11  26  43  61  96 128 167 219 258 315 398
#     4  12  25  44  68  94 132 178 216 262 329 393
#
# _framework density 23.519849000000001
#
# number of rings (size 3 to 8) (size 9 to 14) (size 15 to 20)
#    0.000    0.923    0.000    7.385    0.000   12.923 
#    0.000    1.538    0.000    0.000    0.000    0.000 
#    0.000    0.000    0.000    0.000    0.000    0.000 
#
# Total GULP energy -145296.071188 kJ/mol
# GULP energy per Si atom -5588.310430 kJ/mol
# Density = 2.346632 g / cm^3
# Si number density = 23.519849 Si / 1000 Ang^3
#
#
#
# Elastic Constant Matrix: (Units=GPa)
#
#
# Indices 1 2 3 4 5 6 
#
# 1 45.1132 14.0296 -24.6952 0.0000 -7.0224 0.0000
# 2 14.0296 126.1722 -14.6660 0.0000 -13.9913 0.0000
# 3 -24.6952 -14.6660 119.0992 0.0000 0.4335 0.0000
# 4 0.0000 0.0000 0.0000 40.8927 0.0000 -7.6021
# 5 -7.0224 -13.9913 0.4335 0.0000 33.9602 0.0000
# 6 0.0000 0.0000 0.0000 -7.6021 0.0000 8.4769
#
#
#
# Elastic Compliance Matrix: (Units=1/GPa)
#
#
# Indices 1 2 3 4 5 6 
#
# 1 0.026303 -0.001805 0.005215 0.000000 0.004629 0.000000
# 2 -0.001805 0.008552 0.000667 0.000000 0.003142 0.000000
# 3 0.005215 0.000667 0.009555 0.000000 0.001231 0.000000
# 4 0.000000 0.000000 0.000000 0.029347 0.000000 0.026319
# 5 0.004629 0.003142 0.001231 0.000000 0.031682 0.000000
# 6 0.000000 0.000000 0.000000 0.026319 0.000000 0.141571
#
#
# Mechanical properties :
#
#
# Convention : Reuss Voigt Hill
#
# Bulk Modulus (GPa) = 19.02429 26.63571 22.83000
# Shear Modulus (GPa) = 19.50242 37.71372 28.60807
#
# Velocity S-wave (km/s) = 2.88269 4.00870 3.49139
# Velocity P-wave (km/s) = 4.38019 5.72500 5.09714
#
# Compressibility (1/GPa) = 0.05256439
#
# Stress axis : x y z
#
# Youngs Moduli (GPa) = 38.01847 116.92667 104.65355
#
# Poissons Ratio (x) = 0.21109 -0.54574
# Poissons Ratio (y) = 0.06863 -0.06984
# Poissons Ratio (z) = -0.19826 -0.07804
#
# Static dielectric constant tensor:
#      x y z
#    x 1.883480 0.000000 -0.005030 
#    y 0.000000 1.875380 0.000000 
#    z -0.005030 0.000000 1.833070 
# 
# From -- ./inp_files/30877.got.cif
#   From: 2010.05.17/outbox.cif.g08.bks.cpg/sg14_16_cif.got.tgz:30877.got - 2010.06.03 17:49:19.
