data_PCOD9247813
_publ_section_title
;
Structure prediction by ZEFSAII (Michael W. Deem and Ramdas Pophale) SiO2 
 PCOD9247813
Probable space group: P 21/C
;
_chemical_formula_sum "Si O2"
_cell_formula_units_Z 28
_cell_length_a 19.995170
_cell_length_b 13.066399
_cell_length_c 13.881517
_cell_angle_alpha 90.000000
_cell_angle_beta 20.190985
_cell_angle_gamma 90.000000
_cell_volume 1251.775628
_symmetry_space_group_name_H-M "P 21/C"
_symmetry_group_IT_number 14
_symmetry_cell_setting 'monoclinic'
loop_
_space_group_symop_operation_xyz
x,y,z
-x,1/2+y,1/2-z
-x,-y,-z
x,1/2-y,1/2+z
loop_
_atom_site_type_symbol
_atom_site_label
_atom_site_fract_x
_atom_site_fract_y
_atom_site_fract_z
Si Si1 0.611164 0.642846 0.160038
Si Si2 0.020659 0.891913 0.027561
Si Si3 0.982350 0.734249 0.401562
Si Si4 0.092990 0.024641 0.109405
Si Si5 0.342231 0.544245 0.785342
Si Si6 0.326698 0.873475 0.871559
Si Si7 0.439737 0.234052 0.058730
O O1 0.625380 0.520923 0.163046
O O2 0.446882 0.655233 0.304043
O O3 0.575168 0.703675 0.308394
O O4 0.822487 0.661905 0.830902
O O5 0.115117 0.935379 0.997730
O O6 0.086643 0.812428 0.855791
O O7 0.000000 0.000000 0.000000
O O8 0.771299 0.784924 0.702185
O O9 0.916086 0.635553 0.427499
O O10 0.125314 0.810730 0.154249
O O11 0.261696 0.992262 0.953393
O O12 0.877814 0.020504 0.446066
O O13 0.500000 0.500000 0.500000
O O14 0.398837 0.661691 0.709895
O O15 0.474053 0.843826 0.585957
#
# Coordination Sequence:
#
# PCOD9247813 Si02
#       7
#     4   4   4   4   4   4   4
#     4  10  22  42  63  97 128 170 222 270 328 393
#     4   9  19  39  65  88 124 169 213 259 336 390
#     4  11  22  42  65  94 131 171 218 271 331 391
#     4  10  22  40  62  94 130 170 214 274 324 394
#     4   9  18  41  65  84 125 174 209 262 336 381
#     4  12  24  41  66 100 131 170 230 268 327 394
#     4  11  23  43  67  92 133 176 213 274 335 400
#
# _framework density 22.368226
#
# number of rings (size 3 to 8) (size 9 to 14) (size 15 to 20)
#    0.000    1.714    2.857    2.571    2.000    0.571 
#    2.571    6.429    0.000    0.000    0.000    0.000 
#    0.000    0.000    0.000    0.000    0.000    0.000 
#
# Total GULP energy -155928.444853 kJ/mol
# GULP energy per Si atom -5568.873030 kJ/mol
# Density = 2.231731 g / cm^3
# Si number density = 22.368226 Si / 1000 Ang^3
#
#
#
# Elastic Constant Matrix: (Units=GPa)
#
#
# Indices 1 2 3 4 5 6 
#
# 1 51.5940 1.3372 -4.2490 0.0000 5.7268 0.0000
# 2 1.3372 22.1327 -3.5629 0.0000 7.3626 0.0000
# 3 -4.2490 -3.5629 61.6950 0.0000 6.0604 0.0000
# 4 0.0000 0.0000 0.0000 35.2244 0.0000 1.6152
# 5 5.7268 7.3626 6.0604 0.0000 32.2484 0.0000
# 6 0.0000 0.0000 0.0000 1.6152 0.0000 22.9496
#
#
#
# Elastic Compliance Matrix: (Units=1/GPa)
#
#
# Indices 1 2 3 4 5 6 
#
# 1 0.019960 0.000404 0.001788 0.000000 -0.003973 0.000000
# 2 0.000404 0.049889 0.004111 0.000000 -0.012234 0.000000
# 3 0.001788 0.004111 0.017007 0.000000 -0.004452 0.000000
# 4 0.000000 0.000000 0.000000 0.028481 0.000000 -0.002005
# 5 -0.003973 -0.012234 -0.004452 0.000000 0.035345 0.000000
# 6 0.000000 0.000000 0.000000 -0.002005 0.000000 0.043715
#
#
# Mechanical properties :
#
#
# Convention : Reuss Voigt Hill
#
# Bulk Modulus (GPa) = 10.05425 13.60801 11.83113
# Shear Modulus (GPa) = 23.26176 27.54424 25.40300
#
# Velocity S-wave (km/s) = 3.22832 3.51294 3.37363
# Velocity P-wave (km/s) = 4.28960 4.74881 4.52503
#
# Compressibility (1/GPa) = 0.09946042
#
# Stress axis : x y z
#
# Youngs Moduli (GPa) = 50.10048 20.04448 58.80047
#
# Poissons Ratio (x) = -0.00809 -0.10515
# Poissons Ratio (y) = -0.02022 -0.24171
# Poissons Ratio (z) = -0.08959 -0.08240
#
# Static dielectric constant tensor:
#      x y z
#    x 1.896300 0.000000 0.019300 
#    y 0.000000 1.918490 0.000000 
#    z 0.019300 0.000000 1.858170 
# 
# From -- ./inp_files/50563.got.cif
#   From: 2010.05.17/outbox.cif.g08.bks.cpg/sg14_26_cif.got.tgz:50563.got - 2010.06.03 17:49:19.
