data_PCOD9247490
_publ_section_title
;
Structure prediction by ZEFSAII (Michael W. Deem and Ramdas Pophale) SiO2 
 PCOD9247490
Probable space group: P 21/C
;
_chemical_formula_sum "Si O2"
_cell_formula_units_Z 28
_cell_length_a 18.557142
_cell_length_b 7.453472
_cell_length_c 10.754727
_cell_angle_alpha 90.000000
_cell_angle_beta 47.809537
_cell_angle_gamma 90.000000
_cell_volume 1102.143925
_symmetry_space_group_name_H-M "P 21/C"
_symmetry_group_IT_number 14
_symmetry_cell_setting 'monoclinic'
loop_
_space_group_symop_operation_xyz
x,y,z
-x,1/2+y,1/2-z
-x,-y,-z
x,1/2-y,1/2+z
loop_
_atom_site_type_symbol
_atom_site_label
_atom_site_fract_x
_atom_site_fract_y
_atom_site_fract_z
Si Si1 0.206897 0.108810 0.896695
Si Si2 0.130412 0.647051 0.839870
Si Si3 0.483030 0.703584 0.154529
Si Si4 0.270973 0.801828 0.367554
Si Si5 0.410609 0.208429 0.718107
Si Si6 0.966005 0.626269 0.856730
Si Si7 0.848432 0.506825 0.780381
O O1 0.293609 0.225124 0.856608
O O2 0.100769 0.197748 0.040594
O O3 0.236474 0.907563 0.905518
O O4 0.216419 0.125034 0.735274
O O5 0.240547 0.631349 0.763064
O O6 0.076991 0.529900 0.005129
O O7 0.111512 0.859151 0.862125
O O8 0.078035 0.612766 0.768495
O O9 0.383836 0.817115 0.264665
O O10 0.538420 0.710367 0.220583
O O11 0.443839 0.500872 0.182387
O O12 0.549062 0.767043 0.962898
O O13 0.214185 0.904147 0.543051
O O14 0.937595 0.593521 0.748304
#
# Coordination Sequence:
#
# PCOD9247490 Si02
#       7
#     4   4   4   4   4   4   4
#     4  10  23  40  61  94 124 162 214 266 319 373
#     4   9  21  40  60  89 122 165 207 250 323 384
#     4  10  23  41  67  93 132 166 217 261 327 382
#     4   9  21  39  61  88 124 167 206 261 319 388
#     4  10  24  42  65  96 128 170 211 271 318 387
#     4  10  22  39  63  93 125 159 212 267 310 379
#     4  10  22  38  63  85 129 169 204 258 326 382
#
# _framework density 25.40503
#
# number of rings (size 3 to 8) (size 9 to 14) (size 15 to 20)
#    0.000    2.286    0.000    0.000   10.000    9.714 
#    2.571    0.000    0.000    0.000    0.000    0.000 
#    0.000    0.000    0.000    0.000    0.000    0.000 
#
# Total GULP energy -156153.768061 kJ/mol
# GULP energy per Si atom -5576.920288 kJ/mol
# Density = 2.534721 g / cm^3
# Si number density = 25.405030 Si / 1000 Ang^3
#
#
#
# Elastic Constant Matrix: (Units=GPa)
#
#
# Indices 1 2 3 4 5 6 
#
# 1 224.8097 40.5821 52.8887 0.0000 11.1962 0.0000
# 2 40.5821 49.8504 23.9915 0.0000 7.3395 0.0000
# 3 52.8887 23.9915 73.2667 0.0000 10.2158 0.0000
# 4 0.0000 0.0000 0.0000 27.0514 0.0000 10.9533
# 5 11.1962 7.3395 10.2158 0.0000 24.2612 0.0000
# 6 0.0000 0.0000 0.0000 10.9533 0.0000 44.0468
#
#
#
# Elastic Compliance Matrix: (Units=1/GPa)
#
#
# Indices 1 2 3 4 5 6 
#
# 1 0.005759 -0.003151 -0.003068 0.000000 -0.000413 0.000000
# 2 -0.003151 0.025940 -0.005660 0.000000 -0.004010 0.000000
# 3 -0.003068 -0.005660 0.018359 0.000000 -0.004602 0.000000
# 4 0.000000 0.000000 0.000000 0.041106 0.000000 -0.010222
# 5 -0.000413 -0.004010 -0.004602 0.000000 0.044559 0.000000
# 6 0.000000 0.000000 0.000000 -0.010222 0.000000 0.025245
#
#
# Mechanical properties :
#
#
# Convention : Reuss Voigt Hill
#
# Bulk Modulus (GPa) = 38.02460 64.76125 51.39292
# Shear Modulus (GPa) = 25.84067 34.43619 30.13843
#
# Velocity S-wave (km/s) = 3.19274 3.68569 3.44803
# Velocity P-wave (km/s) = 5.34708 6.60751 6.01043
#
# Compressibility (1/GPa) = 0.02629877
#
# Stress axis : x y z
#
# Youngs Moduli (GPa) = 173.62865 38.55072 54.47016
#
# Poissons Ratio (x) = 0.12148 0.16712
# Poissons Ratio (y) = 0.54715 0.30831
# Poissons Ratio (z) = 0.53271 0.21821
#
# Static dielectric constant tensor:
#      x y z
#    x 2.100570 0.000000 0.021500 
#    y 0.000000 2.138600 0.000000 
#    z 0.021500 0.000000 1.996980 
# 
# From -- ./inp_files/31705.got.cif
#   From: 2010.05.17/outbox.cif.g08.bks.cpg/sg14_16_cif.got.tgz:31705.got - 2010.06.03 17:49:19.
