data_PCOD9247780
_publ_section_title
;
Structure prediction by ZEFSAII (Michael W. Deem and Ramdas Pophale) SiO2 
 PCOD9247780
Probable space group: P 21/C
;
_chemical_formula_sum "Si O2"
_cell_formula_units_Z 28
_cell_length_a 17.662822
_cell_length_b 5.068274
_cell_length_c 13.606074
_cell_angle_alpha 90.000000
_cell_angle_beta 96.293216
_cell_angle_gamma 90.000000
_cell_volume 1210.676201
_symmetry_space_group_name_H-M "P 21/C"
_symmetry_group_IT_number 14
_symmetry_cell_setting 'monoclinic'
loop_
_space_group_symop_operation_xyz
x,y,z
-x,1/2+y,1/2-z
-x,-y,-z
x,1/2-y,1/2+z
loop_
_atom_site_type_symbol
_atom_site_label
_atom_site_fract_x
_atom_site_fract_y
_atom_site_fract_z
Si Si1 0.505673 0.749139 0.428796
Si Si2 0.667301 0.771754 0.981153
Si Si3 0.166841 0.372274 0.000499
Si Si4 0.657158 0.225891 0.617555
Si Si5 0.179793 0.672754 0.797625
Si Si6 0.900139 0.114096 0.913545
Si Si7 0.031973 0.521787 0.305338
O O1 0.500000 0.500000 0.500000
O O2 0.592241 0.745972 0.402118
O O3 0.428637 0.736011 0.353548
O O4 0.500000 0.000000 0.500000
O O5 0.747295 0.679903 0.948827
O O6 0.656449 0.564248 0.069092
O O7 0.670933 0.060980 0.031499
O O8 0.122718 0.598364 0.052741
O O9 0.125742 0.098113 0.011597
O O10 0.171580 0.476249 0.889285
O O11 0.731543 0.250033 0.695387
O O12 0.149052 0.557325 0.691828
O O13 0.120838 0.911349 0.810647
O O14 0.987182 0.090195 0.892737
O O15 0.992109 0.805291 0.278956
#
# Coordination Sequence:
#
# PCOD9247780 Si02
#       7
#     4   4   4   4   4   4   4
#     4   8  14  26  47  77 110 142 183 230 277 340
#     4   9  17  31  51  81 116 145 186 236 281 343
#     4  11  23  38  61  89 115 156 198 237 299 355
#     4   9  17  30  54  82 107 149 192 228 289 344
#     4  10  23  41  63  85 120 154 197 254 294 358
#     4  11  24  40  59  87 119 153 197 245 299 355
#     4  10  22  40  61  85 117 158 198 247 308 357
#
# _framework density 23.127571
#
# number of rings (size 3 to 8) (size 9 to 14) (size 15 to 20)
#    0.000    2.286    0.000    3.429    0.000   11.429 
#    0.000    0.000    0.000    1.714    0.000    0.000 
#    0.000    0.000    0.000    0.000    0.000    0.000 
#
# Total GULP energy -156268.749392 kJ/mol
# GULP energy per Si atom -5581.026764 kJ/mol
# Density = 2.307493 g / cm^3
# Si number density = 23.127571 Si / 1000 Ang^3
#
#
#
# Elastic Constant Matrix: (Units=GPa)
#
#
# Indices 1 2 3 4 5 6 
#
# 1 156.0269 12.9303 38.1992 0.0000 63.5004 0.0000
# 2 12.9303 84.5191 2.8357 0.0000 0.3714 0.0000
# 3 38.1992 2.8357 68.5594 0.0000 20.3098 0.0000
# 4 0.0000 0.0000 0.0000 21.5616 0.0000 -3.0160
# 5 63.5004 0.3714 20.3098 0.0000 41.9748 0.0000
# 6 0.0000 0.0000 0.0000 -3.0160 0.0000 29.4039
#
#
#
# Elastic Compliance Matrix: (Units=1/GPa)
#
#
# Indices 1 2 3 4 5 6 
#
# 1 0.017453 -0.002488 -0.002109 0.000000 -0.025361 0.000000
# 2 -0.002488 0.012204 -0.000235 0.000000 0.003770 0.000000
# 3 -0.002109 -0.000235 0.017305 0.000000 -0.005181 0.000000
# 4 0.000000 0.000000 0.000000 0.047054 0.000000 0.004826
# 5 -0.025361 0.003770 -0.005181 0.000000 0.064665 0.000000
# 6 0.000000 0.000000 0.000000 0.004826 0.000000 0.034504
#
#
# Mechanical properties :
#
#
# Convention : Reuss Voigt Hill
#
# Bulk Modulus (GPa) = 26.81057 46.33730 36.57394
# Shear Modulus (GPa) = 23.22546 35.59741 29.41143
#
# Velocity S-wave (km/s) = 3.17240 3.92749 3.56997
# Velocity P-wave (km/s) = 5.00365 6.37542 5.73072
#
# Compressibility (1/GPa) = 0.03729872
#
# Stress axis : x y z
#
# Youngs Moduli (GPa) = 57.29620 81.94307 57.78558
#
# Poissons Ratio (x) = 0.20387 0.12184
# Poissons Ratio (y) = 0.14255 0.01359
# Poissons Ratio (z) = 0.12081 0.01928
#
# Static dielectric constant tensor:
#      x y z
#    x 1.952190 0.000000 0.053080 
#    y 0.000000 1.831930 0.000000 
#    z 0.053080 0.000000 1.945790 
# 
# From -- ./inp_files/48005.got.cif
#   From: 2010.05.17/outbox.cif.g08.bks.cpg/sg14_25_cif.got.tgz:48005.got - 2010.06.03 17:49:19.
