data_PCOD9247591
_publ_section_title
;
Structure prediction by ZEFSAII (Michael W. Deem and Ramdas Pophale) SiO2 
 PCOD9247591
Probable space group: P 21/C
;
_chemical_formula_sum "Si O2"
_cell_formula_units_Z 28
_cell_length_a 12.675276
_cell_length_b 7.314046
_cell_length_c 19.263973
_cell_angle_alpha 90.000000
_cell_angle_beta 35.453084
_cell_angle_gamma 90.000000
_cell_volume 1035.895677
_symmetry_space_group_name_H-M "P 21/C"
_symmetry_group_IT_number 14
_symmetry_cell_setting 'monoclinic'
loop_
_space_group_symop_operation_xyz
x,y,z
-x,1/2+y,1/2-z
-x,-y,-z
x,1/2-y,1/2+z
loop_
_atom_site_type_symbol
_atom_site_label
_atom_site_fract_x
_atom_site_fract_y
_atom_site_fract_z
Si Si1 0.044856 0.843247 0.370642
Si Si2 0.028929 0.963864 0.135278
Si Si3 0.284690 0.095642 0.609077
Si Si4 0.566172 0.281749 0.873073
Si Si5 0.768196 0.145333 0.496879
Si Si6 0.478224 0.440394 0.773625
Si Si7 0.810800 0.683068 0.618862
O O1 0.958697 0.681124 0.369177
O O2 0.255253 0.837339 0.237005
O O3 0.967140 0.768192 0.485856
O O4 0.958880 0.041973 0.409314
O O5 0.920755 0.876602 0.257418
O O6 0.912810 0.905391 0.129157
O O7 0.214822 0.855716 0.029804
O O8 0.412533 0.259852 0.513504
O O9 0.357395 0.973309 0.634756
O O10 0.289383 0.959993 0.541166
O O11 0.484622 0.313196 0.840028
O O12 0.642066 0.108329 0.630353
O O13 0.681253 0.520935 0.657005
O O14 0.342026 0.343627 0.792141
#
# Coordination Sequence:
#
# PCOD9247591 Si02
#       7
#     4   4   4   4   4   4   4
#     4  10  22  40  63  89 124 158 203 249 304 360
#     4  11  23  40  65  89 121 162 203 251 306 365
#     4   9  19  38  62  89 119 158 205 241 305 365
#     4   9  18  38  63  80 122 163 190 254 304 345
#     4  10  24  39  61  95 122 161 206 249 305 359
#     4  10  22  39  60  88 125 159 200 253 301 361
#     4  11  23  39  60  94 120 161 207 246 308 364
#
# _framework density 27.02975
#
# number of rings (size 3 to 8) (size 9 to 14) (size 15 to 20)
#    0.000    2.000    2.857    0.429    6.000    3.429 
#    0.000    0.714    0.000    0.000    0.000    0.000 
#    0.000    0.000    0.000    0.000    0.000    0.000 
#
# Total GULP energy -156287.886056 kJ/mol
# GULP energy per Si atom -5581.710216 kJ/mol
# Density = 2.696823 g / cm^3
# Si number density = 27.029750 Si / 1000 Ang^3
#
#
#
# Elastic Constant Matrix: (Units=GPa)
#
#
# Indices 1 2 3 4 5 6 
#
# 1 77.9036 13.3263 -6.8213 0.0000 8.4452 0.0000
# 2 13.3263 72.7247 11.1370 0.0000 4.5522 0.0000
# 3 -6.8213 11.1370 103.8059 0.0000 10.9737 0.0000
# 4 0.0000 0.0000 0.0000 29.8787 0.0000 -8.0110
# 5 8.4452 4.5522 10.9737 0.0000 30.3507 0.0000
# 6 0.0000 0.0000 0.0000 -8.0110 0.0000 40.4919
#
#
#
# Elastic Compliance Matrix: (Units=1/GPa)
#
#
# Indices 1 2 3 4 5 6 
#
# 1 0.013850 -0.002531 0.001610 0.000000 -0.004057 0.000000
# 2 -0.002531 0.014519 -0.001631 0.000000 -0.000884 0.000000
# 3 0.001610 -0.001631 0.010331 0.000000 -0.003939 0.000000
# 4 0.000000 0.000000 0.000000 0.035343 0.000000 0.006992
# 5 -0.004057 -0.000884 -0.003939 0.000000 0.035634 0.000000
# 6 0.000000 0.000000 0.000000 0.006992 0.000000 0.026080
#
#
# Mechanical properties :
#
#
# Convention : Reuss Voigt Hill
#
# Bulk Modulus (GPa) = 29.76341 32.19092 30.97717
# Shear Modulus (GPa) = 32.88231 35.93040 34.40635
#
# Velocity S-wave (km/s) = 3.49165 3.64990 3.57165
# Velocity P-wave (km/s) = 5.22406 5.44955 5.33800
#
# Compressibility (1/GPa) = 0.03359830
#
# Stress axis : x y z
#
# Youngs Moduli (GPa) = 72.20194 68.87411 96.80069
#
# Poissons Ratio (x) = 0.17430 -0.15589
# Poissons Ratio (y) = 0.18272 0.15784
# Poissons Ratio (z) = -0.11628 0.11230
#
# Static dielectric constant tensor:
#      x y z
#    x 2.171250 0.000000 -0.077130 
#    y 0.000000 2.149100 0.000000 
#    z -0.077130 0.000000 2.215070 
# 
# From -- ./inp_files/73644.got.cif
#   From: 2010.05.17/outbox.cif.g08.bks.cpg/sg14_37_cif.got.tgz:73644.got - 2010.06.03 17:49:19.
