data_PCOD9247812
_publ_section_title
;
Structure prediction by ZEFSAII (Michael W. Deem and Ramdas Pophale) SiO2 
 PCOD9247812
Probable space group: P 21/C
;
_chemical_formula_sum "Si O2"
_cell_formula_units_Z 20
_cell_length_a 7.166766
_cell_length_b 27.699098
_cell_length_c 5.613914
_cell_angle_alpha 90.000000
_cell_angle_beta 137.177381
_cell_angle_gamma 90.000000
_cell_volume 757.515679
_symmetry_space_group_name_H-M "P 21/C"
_symmetry_group_IT_number 14
_symmetry_cell_setting 'monoclinic'
loop_
_space_group_symop_operation_xyz
x,y,z
-x,1/2+y,1/2-z
-x,-y,-z
x,1/2-y,1/2+z
loop_
_atom_site_type_symbol
_atom_site_label
_atom_site_fract_x
_atom_site_fract_y
_atom_site_fract_z
Si Si1 0.701090 0.964203 0.463841
Si Si2 0.594426 0.886624 0.714563
Si Si3 0.213525 0.561406 0.181970
Si Si4 0.882935 0.328997 0.418689
Si Si5 0.874265 0.761517 0.524492
O O1 0.676960 0.939235 0.694289
O O2 0.914540 0.931799 0.510619
O O3 0.806267 0.018604 0.533074
O O4 0.402327 0.960587 0.067081
O O5 0.389988 0.895036 0.741967
O O6 0.398240 0.857737 0.346477
O O7 0.877904 0.858490 0.991425
O O8 0.000753 0.312993 0.786695
O O9 0.880371 0.277575 0.281857
O O10 0.727830 0.756371 0.132068
#
# Coordination Sequence:
#
# PCOD9247812 Si02
#       5
#     4   4   4   4   4
#     4  10  22  40  62  93 135 176 216 271 334 400
#     4  12  23  40  66 102 124 178 222 286 325 410
#     4  10  22  40  62  93 135 176 216 271 334 400
#     4  10  24  40  67  94 132 174 229 282 346 406
#     4   8  20  46  64  96 130 180 224 280 348 414
#
# _framework density 26.402090999999999
#
# number of rings (size 3 to 8) (size 9 to 14) (size 15 to 20)
#    1.200    0.800    0.000    3.000    0.000    6.400 
#    0.000    8.000    0.000    0.000    0.000    0.000 
#    0.000    0.000    0.000    0.000    0.000    0.000 
#
# Total GULP energy -111698.334457 kJ/mol
# GULP energy per Si atom -5584.916723 kJ/mol
# Density = 2.634200 g / cm^3
# Si number density = 26.402091 Si / 1000 Ang^3
#
#
#
# Elastic Constant Matrix: (Units=GPa)
#
#
# Indices 1 2 3 4 5 6 
#
# 1 126.3679 26.1467 47.1771 0.0000 12.4090 0.0000
# 2 26.1467 51.3156 17.4863 0.0000 4.5424 0.0000
# 3 47.1771 17.4863 66.1857 0.0000 12.3079 0.0000
# 4 0.0000 0.0000 0.0000 21.3779 0.0000 -18.0551
# 5 12.4090 4.5424 12.3079 0.0000 53.0736 0.0000
# 6 0.0000 0.0000 0.0000 -18.0551 0.0000 -0.7142
#
#
#
# Elastic Compliance Matrix: (Units=1/GPa)
#
#
# Indices 1 2 3 4 5 6 
#
# 1 0.011297 -0.003290 -0.007048 0.000000 -0.000725 0.000000
# 2 -0.003290 0.022388 -0.003508 0.000000 -0.000333 0.000000
# 3 -0.007048 -0.003508 0.021630 0.000000 -0.003068 0.000000
# 4 0.000000 0.000000 0.000000 0.002093 0.000000 -0.052908
# 5 -0.000725 -0.000333 -0.003068 0.000000 0.019751 0.000000
# 6 0.000000 0.000000 0.000000 -0.052908 0.000000 -0.062645
#
#
# Mechanical properties :
#
#
# Convention : Reuss Voigt Hill
#
# Bulk Modulus (GPa) = 36.20150 47.27660 41.73905
# Shear Modulus (GPa) = 97.24846 24.95140 61.09993
#
# Velocity S-wave (km/s) = 6.07565 3.07751 4.81584
# Velocity P-wave (km/s) = 7.93470 5.52932 6.83860
#
# Compressibility (1/GPa) = 0.02762317
#
# Stress axis : x y z
#
# Youngs Moduli (GPa) = 88.52179 44.66580 46.23154
#
# Poissons Ratio (x) = 0.14695 0.32585
# Poissons Ratio (y) = 0.29124 0.16218
# Poissons Ratio (z) = 0.62392 0.15668
#
# Static dielectric constant tensor:
#      x y z
#    x 2.024020 0.000000 -0.109230 
#    y 0.000000 2.120580 0.000000 
#    z -0.109230 0.000000 2.109520 
# 
# From -- ./inp_files/1855.got.cif
#   From: 2010.05.17/outbox.cif.g08.bks.cpg/sg14_1_cif.got.tgz:1855.got - 2010.06.03 17:49:19.
