data_PCOD9247457
_publ_section_title
;
Structure prediction by ZEFSAII (Michael W. Deem and Ramdas Pophale) SiO2 
 PCOD9247457
Probable space group: P 21/C
;
_chemical_formula_sum "Si O2"
_cell_formula_units_Z 28
_cell_length_a 8.504816
_cell_length_b 11.980929
_cell_length_c 19.090754
_cell_angle_alpha 90.000000
_cell_angle_beta 38.207443
_cell_angle_gamma 90.000000
_cell_volume 1203.166021
_symmetry_space_group_name_H-M "P 21/C"
_symmetry_group_IT_number 14
_symmetry_cell_setting 'monoclinic'
loop_
_space_group_symop_operation_xyz
x,y,z
-x,1/2+y,1/2-z
-x,-y,-z
x,1/2-y,1/2+z
loop_
_atom_site_type_symbol
_atom_site_label
_atom_site_fract_x
_atom_site_fract_y
_atom_site_fract_z
Si Si1 0.423752 0.774618 0.183351
Si Si2 0.910405 0.451835 0.243186
Si Si3 0.557021 0.619266 0.902057
Si Si4 0.136386 0.143434 0.887869
Si Si5 0.294247 0.095256 0.497030
Si Si6 0.698731 0.674772 0.266757
Si Si7 0.791955 0.108665 0.142870
O O1 0.311788 0.862835 0.167766
O O2 0.568648 0.843024 0.192520
O O3 0.640174 0.694288 0.076728
O O4 0.212655 0.692624 0.290081
O O5 0.827140 0.579010 0.268114
O O6 0.153562 0.426365 0.205180
O O7 0.019029 0.419694 0.127351
O O8 0.374354 0.523681 0.937536
O O9 0.549307 0.737367 0.867946
O O10 0.526218 0.620377 0.997263
O O11 0.105664 0.247235 0.845660
O O12 0.116941 0.015424 0.869707
O O13 0.962785 0.147627 0.017650
O O14 0.496900 0.615108 0.285961
#
# Coordination Sequence:
#
# PCOD9247457 Si02
#       7
#     4   4   4   4   4   4   4
#     4  11  20  39  62  85 114 158 193 247 293 347
#     4  10  22  38  60  88 120 149 206 242 283 367
#     4   9  22  38  61  86 118 155 195 243 294 348
#     4  10  22  39  59  86 120 154 190 250 293 347
#     4   9  21  39  60  86 118 152 199 241 290 352
#     4  11  22  40  61  89 118 158 195 245 299 350
#     4  10  22  39  59  86 119 151 199 240 296 351
#
# _framework density 23.271934000000002
#
# number of rings (size 3 to 8) (size 9 to 14) (size 15 to 20)
#    0.857    1.143    1.429    1.714    4.000    0.000 
#    0.000    2.857    0.000    0.000    0.000    0.000 
#    0.000    0.000    0.000    0.000    0.000    0.000 
#
# Total GULP energy -156179.631250 kJ/mol
# GULP energy per Si atom -5577.843973 kJ/mol
# Density = 2.321897 g / cm^3
# Si number density = 23.271934 Si / 1000 Ang^3
#
#
#
# Elastic Constant Matrix: (Units=GPa)
#
#
# Indices 1 2 3 4 5 6 
#
# 1 16.7040 5.3717 -8.2933 0.0000 0.8402 0.0000
# 2 5.3717 146.4752 35.0892 0.0000 6.4923 0.0000
# 3 -8.2933 35.0892 66.2237 0.0000 10.5235 0.0000
# 4 0.0000 0.0000 0.0000 12.4835 0.0000 5.3474
# 5 0.8402 6.4923 10.5235 0.0000 25.6653 0.0000
# 6 0.0000 0.0000 0.0000 5.3474 0.0000 22.2445
#
#
#
# Elastic Compliance Matrix: (Units=1/GPa)
#
#
# Indices 1 2 3 4 5 6 
#
# 1 0.067853 -0.005139 0.012159 0.000000 -0.005907 0.000000
# 2 -0.005139 0.008211 -0.005018 0.000000 0.000149 0.000000
# 3 0.012159 -0.005018 0.020478 0.000000 -0.007525 0.000000
# 4 0.000000 0.000000 0.000000 0.089301 0.000000 -0.021467
# 5 -0.005907 0.000149 -0.007525 0.000000 0.042204 0.000000
# 6 0.000000 0.000000 0.000000 -0.021467 0.000000 0.050115
#
#
# Mechanical properties :
#
#
# Convention : Reuss Voigt Hill
#
# Bulk Modulus (GPa) = 9.94583 32.63760 21.29172
# Shear Modulus (GPa) = 16.25098 25.22770 20.73934
#
# Velocity S-wave (km/s) = 2.64542 3.29605 2.98849
# Velocity P-wave (km/s) = 3.68972 5.34230 4.59098
#
# Compressibility (1/GPa) = 0.10054465
#
# Stress axis : x y z
#
# Youngs Moduli (GPa) = 14.73784 121.78687 48.83381
#
# Poissons Ratio (x) = 0.62591 -0.59377
# Poissons Ratio (y) = 0.07574 0.24505
# Poissons Ratio (z) = -0.17920 0.61112
#
# Static dielectric constant tensor:
#      x y z
#    x 1.862620 0.000000 0.035610 
#    y 0.000000 1.876950 0.000000 
#    z 0.035610 0.000000 1.913020 
# 
# From -- ./inp_files/73237.got.cif
#   From: 2010.05.17/outbox.cif.g08.bks.cpg/sg14_37_cif.got.tgz:73237.got - 2010.06.03 17:49:19.
