data_PCOD9247289
_publ_section_title
;
Structure prediction by ZEFSAII (Michael W. Deem and Ramdas Pophale) SiO2 
 PCOD9247289
Probable space group: P 21/C
;
_chemical_formula_sum "Si O2"
_cell_formula_units_Z 28
_cell_length_a 11.649486
_cell_length_b 21.154738
_cell_length_c 17.559796
_cell_angle_alpha 90.000000
_cell_angle_beta 20.862527
_cell_angle_gamma 90.000000
_cell_volume 1541.127941
_symmetry_space_group_name_H-M "P 21/C"
_symmetry_group_IT_number 14
_symmetry_cell_setting 'monoclinic'
loop_
_space_group_symop_operation_xyz
x,y,z
-x,1/2+y,1/2-z
-x,-y,-z
x,1/2-y,1/2+z
loop_
_atom_site_type_symbol
_atom_site_label
_atom_site_fract_x
_atom_site_fract_y
_atom_site_fract_z
Si Si1 0.256521 0.247419 0.419386
Si Si2 0.797040 0.564007 0.123513
Si Si3 0.072784 0.809323 0.502754
Si Si4 0.170984 0.309099 0.681110
Si Si5 0.435807 0.930667 0.005668
Si Si6 0.754789 0.883040 0.485356
Si Si7 0.678869 0.307630 0.846051
O O1 0.587700 0.280847 0.232431
O O2 0.188975 0.187655 0.515646
O O3 0.236639 0.221442 0.346540
O O4 0.953014 0.292670 0.614261
O O5 0.534714 0.567492 0.354652
O O6 0.673957 0.578269 0.113458
O O7 0.000000 0.500000 0.000000
O O8 0.049715 0.618823 0.990038
O O9 0.026470 0.798159 0.619590
O O10 0.357496 0.375256 0.580749
O O11 0.426691 0.251280 0.511124
O O12 0.903915 0.314125 0.780763
O O13 0.070220 0.912122 0.251451
O O14 0.500000 0.000000 0.000000
O O15 0.502601 0.869118 0.574014
#
# Coordination Sequence:
#
# PCOD9247289 Si02
#       7
#     4   4   4   4   4   4   4
#     4  11  19  36  56  88 121 157 195 250 317 369
#     4  10  22  40  66  91 120 165 219 254 300 378
#     4  10  22  35  59  88 121 156 205 256 315 367
#     4  11  22  38  58  93 123 166 203 265 313 380
#     4  11  22  41  69  89 122 169 220 258 307 376
#     4  11  22  38  63  94 120 163 205 257 314 368
#     4  12  21  36  61  87 129 155 205 250 326 375
#
# _framework density 18.168512
#
# number of rings (size 3 to 8) (size 9 to 14) (size 15 to 20)
#    0.000    1.143    5.714    0.857    2.000    2.286 
#    2.571    0.714    0.000    1.714    0.000    0.000 
#    0.000    0.000    0.000    0.000    0.000    0.000 
#
# Total GULP energy -155947.684605 kJ/mol
# GULP energy per Si atom -5569.560164 kJ/mol
# Density = 1.812716 g / cm^3
# Si number density = 18.168512 Si / 1000 Ang^3
#
#
#
# Elastic Constant Matrix: (Units=GPa)
#
#
# Indices 1 2 3 4 5 6 
#
# 1 128.1954 22.4670 37.9373 0.0000 4.2189 0.0000
# 2 22.4670 58.4922 24.7931 0.0000 9.2826 0.0000
# 3 37.9373 24.7931 76.9993 0.0000 5.5922 0.0000
# 4 0.0000 0.0000 0.0000 26.5963 0.0000 1.2102
# 5 4.2189 9.2826 5.5922 0.0000 25.0694 0.0000
# 6 0.0000 0.0000 0.0000 1.2102 0.0000 21.2280
#
#
#
# Elastic Compliance Matrix: (Units=1/GPa)
#
#
# Indices 1 2 3 4 5 6 
#
# 1 0.009309 -0.001893 -0.003979 0.000000 0.000022 0.000000
# 2 -0.001893 0.021115 -0.005409 0.000000 -0.006293 0.000000
# 3 -0.003979 -0.005409 0.016767 0.000000 -0.001068 0.000000
# 4 0.000000 0.000000 0.000000 0.037697 0.000000 -0.002149
# 5 0.000022 -0.006293 -0.001068 0.000000 0.042454 0.000000
# 6 0.000000 0.000000 0.000000 -0.002149 0.000000 0.047230
#
#
# Mechanical properties :
#
#
# Convention : Reuss Voigt Hill
#
# Bulk Modulus (GPa) = 40.60190 48.23130 44.41660
# Shear Modulus (GPa) = 24.34959 26.47805 25.41382
#
# Velocity S-wave (km/s) = 3.66486 3.82168 3.74409
# Velocity P-wave (km/s) = 6.34855 6.78807 6.57199
#
# Compressibility (1/GPa) = 0.02462939
#
# Stress axis : x y z
#
# Youngs Moduli (GPa) = 107.42303 47.36021 59.64213
#
# Poissons Ratio (x) = 0.08963 0.23730
# Poissons Ratio (y) = 0.20331 0.32262
# Poissons Ratio (z) = 0.42740 0.25618
#
# Static dielectric constant tensor:
#      x y z
#    x 1.695430 0.000000 0.020530 
#    y 0.000000 1.641620 0.000000 
#    z 0.020530 0.000000 1.617490 
# 
# From -- ./inp_files/9875.got.cif
#   From: 2010.05.17/outbox.cif.g08.bks.cpg/sg14_5_cif.got.tgz:9875.got - 2010.06.03 17:49:19.
