data_PCOD9247009
_publ_section_title
;
Structure prediction by ZEFSAII (Michael W. Deem and Ramdas Pophale) SiO2 
 PCOD9247009
Probable space group: P 21/C
;
_chemical_formula_sum "Si O2"
_cell_formula_units_Z 32
_cell_length_a 7.159157
_cell_length_b 23.652705
_cell_length_c 10.832433
_cell_angle_alpha 90.000000
_cell_angle_beta 137.694478
_cell_angle_gamma 90.000000
_cell_volume 1234.632905
_symmetry_space_group_name_H-M "P 21/C"
_symmetry_group_IT_number 14
_symmetry_cell_setting 'monoclinic'
loop_
_space_group_symop_operation_xyz
x,y,z
-x,1/2+y,1/2-z
-x,-y,-z
x,1/2-y,1/2+z
loop_
_atom_site_type_symbol
_atom_site_label
_atom_site_fract_x
_atom_site_fract_y
_atom_site_fract_z
Si Si1 0.351025 0.545024 0.017174
Si Si2 0.273699 0.421651 0.583699
Si Si3 0.161667 0.998488 0.835191
Si Si4 0.572567 0.169314 0.553559
Si Si5 0.205349 0.877623 0.784520
Si Si6 0.091887 0.196207 0.978497
Si Si7 0.502438 0.288065 0.461156
Si Si8 0.137661 0.319252 0.061536
O O1 0.388190 0.608306 0.984651
O O2 0.024345 0.528691 0.860462
O O3 0.500000 0.500000 0.000000
O O4 0.521574 0.545020 0.226891
O O5 0.081163 0.466192 0.418468
O O6 0.474064 0.395418 0.576286
O O7 0.136261 0.364048 0.567373
O O8 0.075567 0.932696 0.784174
O O9 0.500000 0.000000 0.000000
O O10 0.525081 0.222041 0.437865
O O11 0.332181 0.168516 0.538128
O O12 0.848485 0.184803 0.762856
O O13 0.213611 0.821523 0.872133
O O14 0.104080 0.862038 0.596767
O O15 0.355402 0.213209 0.023096
O O16 0.026435 0.254888 0.013669
O O17 0.324343 0.322738 0.274426
#
# Coordination Sequence:
#
# PCOD9247009 Si02
#       8
#     4   4   4   4   4   4   4   4
#     4  12  26  44  68  97 136 182 230 282 342 408
#     4  10  23  43  70  89 128 183 228 272 341 401
#     4  10  23  43  66  95 131 171 226 283 326 404
#     4  11  23  43  65  99 135 170 224 276 336 408
#     4  10  22  40  64 100 128 164 227 272 327 405
#     4  10  21  43  66  96 132 172 224 272 333 410
#     4  10  23  41  68  96 131 174 215 275 331 404
#     4  11  23  40  65 100 135 170 215 281 344 395
#
# _framework density 25.918638000000001
#
# number of rings (size 3 to 8) (size 9 to 14) (size 15 to 20)
#    0.000    1.500    2.500    1.500    1.750    5.500 
#    4.500    0.000    0.000    0.000    0.000    0.000 
#    0.000    0.000    0.000    0.000    0.000    0.000 
#
# Total GULP energy -178776.190109 kJ/mol
# GULP energy per Si atom -5586.755941 kJ/mol
# Density = 2.585965 g / cm^3
# Si number density = 25.918638 Si / 1000 Ang^3
#
#
#
# Elastic Constant Matrix: (Units=GPa)
#
#
# Indices 1 2 3 4 5 6 
#
# 1 67.4607 17.8874 -10.4097 0.0000 0.7198 0.0000
# 2 17.8874 165.5847 55.1801 0.0000 -8.3521 0.0000
# 3 -10.4097 55.1801 152.8732 0.0000 -2.8250 0.0000
# 4 0.0000 0.0000 0.0000 61.5236 0.0000 -2.0169
# 5 0.7198 -8.3521 -2.8250 0.0000 26.8583 0.0000
# 6 0.0000 0.0000 0.0000 -2.0169 0.0000 25.6396
#
#
#
# Elastic Compliance Matrix: (Units=1/GPa)
#
#
# Indices 1 2 3 4 5 6 
#
# 1 0.015764 -0.002391 0.001919 0.000000 -0.000964 0.000000
# 2 -0.002391 0.007323 -0.002768 0.000000 0.002050 0.000000
# 3 0.001919 -0.002768 0.007669 0.000000 -0.000106 0.000000
# 4 0.000000 0.000000 0.000000 0.016296 0.000000 0.001282
# 5 -0.000964 0.002050 -0.000106 0.000000 0.037885 0.000000
# 6 0.000000 0.000000 0.000000 0.001282 0.000000 0.039103
#
#
# Mechanical properties :
#
#
# Convention : Reuss Voigt Hill
#
# Bulk Modulus (GPa) = 41.19427 56.80379 48.99903
# Shear Modulus (GPa) = 36.07162 44.35503 40.21332
#
# Velocity S-wave (km/s) = 3.73463 4.14130 3.94321
# Velocity P-wave (km/s) = 5.87578 6.69559 6.29904
#
# Compressibility (1/GPa) = 0.02427522
#
# Stress axis : x y z
#
# Youngs Moduli (GPa) = 63.43674 136.54816 130.39008
#
# Poissons Ratio (x) = 0.32647 -0.25016
# Poissons Ratio (y) = 0.15167 0.36096
# Poissons Ratio (z) = -0.12171 0.37801
#
# Static dielectric constant tensor:
#      x y z
#    x 2.212820 0.000000 0.101060 
#    y 0.000000 2.112790 0.000000 
#    z 0.101060 0.000000 2.044830 
# 
# From -- ./inp_files/27031.got.cif
#   From: 2010.05.17/outbox.cif.g08.bks.cpg/sg14_14_cif.got.tgz:27031.got - 2010.06.03 17:49:19.
