data_PCOD9247795
_publ_section_title
;
Structure prediction by ZEFSAII (Michael W. Deem and Ramdas Pophale) SiO2 
 PCOD9247795
Probable space group: P 21/C
;
_chemical_formula_sum "Si O2"
_cell_formula_units_Z 18
_cell_length_a 21.337436
_cell_length_b 4.980568
_cell_length_c 9.936752
_cell_angle_alpha 90.000000
_cell_angle_beta 137.490656
_cell_angle_gamma 90.000000
_cell_volume 713.552912
_symmetry_space_group_name_H-M "P 21/C"
_symmetry_group_IT_number 14
_symmetry_cell_setting 'monoclinic'
loop_
_space_group_symop_operation_xyz
x,y,z
-x,1/2+y,1/2-z
-x,-y,-z
x,1/2-y,1/2+z
loop_
_atom_site_type_symbol
_atom_site_label
_atom_site_fract_x
_atom_site_fract_y
_atom_site_fract_z
Si Si1 0.191702 0.296080 0.022492
Si Si2 0.500000 0.000000 0.000000
Si Si3 0.316282 0.692970 0.780096
Si Si4 0.439061 0.131492 0.671675
Si Si5 0.934576 0.745351 0.426534
O O1 0.252085 0.539958 0.181406
O O2 0.105082 0.260433 0.986030
O O3 0.251264 0.026837 0.112730
O O4 0.152177 0.314524 0.809671
O O5 0.590256 0.209109 0.140390
O O6 0.568369 0.773316 0.189125
O O7 0.357871 0.535248 0.977752
O O8 0.520625 0.897719 0.840495
O O9 0.000000 0.500000 0.500000
O O10 0.000000 0.000000 0.500000
#
# Coordination Sequence:
#
# PCOD9247795 Si02
#       5
#     4   2   4   4   4
#     4  12  27  44  77 109 144 184 243 302 354 443
#     4  10  24  42  70  90 148 196 236 290 352 412
#     4  11  25  43  66 107 142 191 245 295 350 422
#     4  10  22  40  61  93 129 186 238 287 342 406
#     4  12  26  50  77 107 144 186 232 301 387 451
#
# _framework density 25.225878000000002
#
# number of rings (size 3 to 8) (size 9 to 14) (size 15 to 20)
#    0.000    0.889    0.000    6.667    6.222    8.000 
#    0.000    0.000    0.000    0.000    0.000    0.000 
#    0.000    0.000    0.000    0.000    0.000    0.000 
#
# Total GULP energy -100245.803082 kJ/mol
# GULP energy per Si atom -5569.211282 kJ/mol
# Density = 2.516846 g / cm^3
# Si number density = 25.225878 Si / 1000 Ang^3
#
#
#
# Elastic Constant Matrix: (Units=GPa)
#
#
# Indices 1 2 3 4 5 6 
#
# 1 59.4920 23.7162 -13.2986 0.0000 14.2323 0.0000
# 2 23.7162 199.8657 37.0082 0.0000 30.5320 0.0000
# 3 -13.2986 37.0082 69.9314 0.0000 -5.1503 0.0000
# 4 0.0000 0.0000 0.0000 63.7729 0.0000 20.9648
# 5 14.2323 30.5320 -5.1503 0.0000 45.7055 0.0000
# 6 0.0000 0.0000 0.0000 20.9648 0.0000 36.4044
#
#
#
# Elastic Compliance Matrix: (Units=1/GPa)
#
#
# Indices 1 2 3 4 5 6 
#
# 1 0.019900 -0.002685 0.004922 0.000000 -0.003849 0.000000
# 2 -0.002685 0.006777 -0.004406 0.000000 -0.004188 0.000000
# 3 0.004922 -0.004406 0.017819 0.000000 0.003418 0.000000
# 4 0.000000 0.000000 0.000000 0.019343 0.000000 -0.011139
# 5 -0.003849 -0.004188 0.003418 0.000000 0.026260 0.000000
# 6 0.000000 0.000000 0.000000 -0.011139 0.000000 0.033884
#
#
# Mechanical properties :
#
#
# Convention : Reuss Voigt Hill
#
# Bulk Modulus (GPa) = 24.90095 47.12673 36.01384
# Shear Modulus (GPa) = 35.28398 47.96745 41.62571
#
# Velocity S-wave (km/s) = 3.74401 4.36537 4.06657
# Velocity P-wave (km/s) = 5.34628 6.64312 6.02967
#
# Compressibility (1/GPa) = 0.04015911
#
# Stress axis : x y z
#
# Youngs Moduli (GPa) = 50.25084 147.54785 56.12006
#
# Poissons Ratio (x) = 0.39613 -0.27621
# Poissons Ratio (y) = 0.13491 0.24725
# Poissons Ratio (z) = -0.24732 0.65005
#
# Static dielectric constant tensor:
#      x y z
#    x 3.903320 0.000000 -0.578590 
#    y 0.000000 2.029670 0.000000 
#    z -0.578590 0.000000 2.398700 
# 
# From -- ./inp_files/27424.got.cif
#   From: 2010.05.17/outbox.cif.g08.bks.cpg/sg14_14_cif.got.tgz:27424.got - 2010.06.03 17:49:19.
