data_PCOD9247083
_publ_section_title
;
Structure prediction by ZEFSAII (Michael W. Deem and Ramdas Pophale) SiO2 
 PCOD9247083
Probable space group: P 21/C
;
_chemical_formula_sum "Si O2"
_cell_formula_units_Z 20
_cell_length_a 16.344771
_cell_length_b 13.187364
_cell_length_c 10.769449
_cell_angle_alpha 90.000000
_cell_angle_beta 22.598253
_cell_angle_gamma 90.000000
_cell_volume 891.997430
_symmetry_space_group_name_H-M "P 21/C"
_symmetry_group_IT_number 14
_symmetry_cell_setting 'monoclinic'
loop_
_space_group_symop_operation_xyz
x,y,z
-x,1/2+y,1/2-z
-x,-y,-z
x,1/2-y,1/2+z
loop_
_atom_site_type_symbol
_atom_site_label
_atom_site_fract_x
_atom_site_fract_y
_atom_site_fract_z
Si Si1 0.936623 0.275517 0.171611
Si Si2 0.523776 0.114701 0.212180
Si Si3 0.788519 0.070173 0.319907
Si Si4 0.815915 0.757145 0.430945
Si Si5 0.490690 0.381565 0.034174
O O1 0.774656 0.364297 0.356411
O O2 0.833596 0.164283 0.346800
O O3 0.056739 0.302031 0.130816
O O4 0.077279 0.249968 0.853102
O O5 0.401004 0.179287 0.282176
O O6 0.480357 0.162108 0.410607
O O7 0.405656 0.005579 0.372742
O O8 0.700523 0.131717 0.322602
O O9 0.000000 0.000000 0.000000
O O10 0.725062 0.647907 0.595706
O O11 0.500000 0.500000 0.000000
#
# Coordination Sequence:
#
# PCOD9247083 Si02
#       5
#     4   4   4   4   4
#     4  12  25  42  72 101 142 183 237 301 359 425
#     4  11  24  42  70 105 136 189 239 294 352 429
#     4  11  21  42  69 103 136 188 236 284 356 428
#     4  12  23  44  70 105 139 185 241 289 362 421
#     4  10  21  43  72  95 138 188 235 284 354 432
#
# _framework density 22.421589000000001
#
# number of rings (size 3 to 8) (size 9 to 14) (size 15 to 20)
#    0.000    0.800    6.000    2.400    0.000    0.000 
#    0.000    5.000    0.000    0.000    0.000    0.000 
#    0.000    0.000    0.000    0.000    0.000    0.000 
#
# Total GULP energy -111363.983253 kJ/mol
# GULP energy per Si atom -5568.199163 kJ/mol
# Density = 2.237056 g / cm^3
# Si number density = 22.421589 Si / 1000 Ang^3
#
#
#
# Elastic Constant Matrix: (Units=GPa)
#
#
# Indices 1 2 3 4 5 6 
#
# 1 128.3533 -7.9018 16.5004 0.0000 -34.3922 0.0000
# 2 -7.9018 55.3438 7.0762 0.0000 -8.2428 0.0000
# 3 16.5004 7.0762 44.8710 0.0000 -10.8649 0.0000
# 4 0.0000 0.0000 0.0000 47.2143 0.0000 -7.1574
# 5 -34.3922 -8.2428 -10.8649 0.0000 38.3748 0.0000
# 6 0.0000 0.0000 0.0000 -7.1574 0.0000 21.6354
#
#
#
# Elastic Compliance Matrix: (Units=1/GPa)
#
#
# Indices 1 2 3 4 5 6 
#
# 1 0.010920 0.003306 -0.002142 0.000000 0.009890 0.000000
# 2 0.003306 0.019856 -0.002788 0.000000 0.006439 0.000000
# 3 -0.002142 -0.002788 0.024589 0.000000 0.004443 0.000000
# 4 0.000000 0.000000 0.000000 0.022298 0.000000 0.007377
# 5 0.009890 0.006439 0.004443 0.000000 0.037564 0.000000
# 6 0.000000 0.000000 0.000000 0.007377 0.000000 0.048661
#
#
# Mechanical properties :
#
#
# Convention : Reuss Voigt Hill
#
# Bulk Modulus (GPa) = 19.18743 28.87975 24.03359
# Shear Modulus (GPa) = 27.09888 35.63778 31.36833
#
# Velocity S-wave (km/s) = 3.48027 3.99110 3.74441
# Velocity P-wave (km/s) = 4.97251 5.84353 5.42553
#
# Compressibility (1/GPa) = 0.05211746
#
# Stress axis : x y z
#
# Youngs Moduli (GPa) = 91.57480 50.36171 40.66796
#
# Poissons Ratio (x) = -0.16650 0.08712
# Poissons Ratio (y) = -0.30275 0.11338
# Poissons Ratio (z) = 0.19617 0.14041
#
# Static dielectric constant tensor:
#      x y z
#    x 1.970980 0.000000 -0.001340 
#    y 0.000000 1.954180 0.000000 
#    z -0.001340 0.000000 1.759750 
# 
# From -- ./inp_files/34069.got.cif
#   From: 2010.05.17/outbox.cif.g08.bks.cpg/sg14_18_cif.got.tgz:34069.got - 2010.06.03 17:49:19.
