data_PCOD9247683
_publ_section_title
;
Structure prediction by ZEFSAII (Michael W. Deem and Ramdas Pophale) SiO2 
 PCOD9247683
Probable space group: P 21/C
;
_chemical_formula_sum "Si O2"
_cell_formula_units_Z 28
_cell_length_a 5.373722
_cell_length_b 10.495255
_cell_length_c 20.820905
_cell_angle_alpha 90.000000
_cell_angle_beta 99.120208
_cell_angle_gamma 90.000000
_cell_volume 1159.424374
_symmetry_space_group_name_H-M "P 21/C"
_symmetry_group_IT_number 14
_symmetry_cell_setting 'monoclinic'
loop_
_space_group_symop_operation_xyz
x,y,z
-x,1/2+y,1/2-z
-x,-y,-z
x,1/2-y,1/2+z
loop_
_atom_site_type_symbol
_atom_site_label
_atom_site_fract_x
_atom_site_fract_y
_atom_site_fract_z
Si Si1 0.179826 0.373070 0.260588
Si Si2 0.233169 0.298622 0.120376
Si Si3 0.303381 0.639353 0.955432
Si Si4 0.437185 0.377787 0.807070
Si Si5 0.856250 0.278532 0.362667
Si Si6 0.727865 0.644625 0.061539
Si Si7 0.581006 0.976586 0.826312
O O1 0.161415 0.374425 0.183296
O O2 0.393124 0.263411 0.276922
O O3 0.281635 0.497842 0.302585
O O4 0.968610 0.313656 0.297085
O O5 0.477932 0.353939 0.091905
O O6 0.964700 0.297862 0.072346
O O7 0.324873 0.155441 0.141120
O O8 0.236115 0.492392 0.969212
O O9 0.464147 0.693830 0.021969
O O10 0.714976 0.355644 0.846089
O O11 0.280532 0.393882 0.864227
O O12 0.354736 0.471388 0.747755
O O13 0.692187 0.404739 0.369713
O O14 0.063221 0.253304 0.425999
#
# Coordination Sequence:
#
# PCOD9247683 Si02
#       7
#     4   4   4   4   4   4   4
#     4   9  21  36  62  95 131 172 210 266 338 396
#     4  11  26  43  67 101 139 170 226 277 335 398
#     4  11  27  44  68  98 131 183 226 279 322 393
#     4   9  20  37  61  94 128 166 217 268 329 397
#     4  10  22  39  67  94 132 175 219 276 336 407
#     4  10  24  43  68  92 130 177 230 276 328 396
#     4  10  22  39  65 100 136 169 216 277 348 401
#
# _framework density 24.149916999999999
#
# number of rings (size 3 to 8) (size 9 to 14) (size 15 to 20)
#    0.000    2.000    0.000    0.857   16.000    2.286 
#    0.000    1.429    0.000    0.000    0.000    0.000 
#    0.000    0.000    0.000    0.000    0.000    0.000 
#
# Total GULP energy -155883.258867 kJ/mol
# GULP energy per Si atom -5567.259245 kJ/mol
# Density = 2.409495 g / cm^3
# Si number density = 24.149917 Si / 1000 Ang^3
#
#
#
# Elastic Constant Matrix: (Units=GPa)
#
#
# Indices 1 2 3 4 5 6 
#
# 1 109.1960 19.5075 34.7991 0.0000 16.0501 0.0000
# 2 19.5075 94.4484 36.8588 0.0000 39.0940 0.0000
# 3 34.7991 36.8588 93.7678 0.0000 17.7337 0.0000
# 4 0.0000 0.0000 0.0000 32.6181 0.0000 16.6243
# 5 16.0501 39.0940 17.7337 0.0000 39.6915 0.0000
# 6 0.0000 0.0000 0.0000 16.6243 0.0000 25.3418
#
#
#
# Elastic Compliance Matrix: (Units=1/GPa)
#
#
# Indices 1 2 3 4 5 6 
#
# 1 0.010674 0.000526 -0.003554 0.000000 -0.003247 0.000000
# 2 0.000526 0.019420 -0.004556 0.000000 -0.017305 0.000000
# 3 -0.003554 -0.004556 0.013822 0.000000 -0.000251 0.000000
# 4 0.000000 0.000000 0.000000 0.046056 0.000000 -0.030213
# 5 -0.003247 -0.017305 -0.000251 0.000000 0.043663 0.000000
# 6 0.000000 0.000000 0.000000 -0.030213 0.000000 0.059280
#
#
# Mechanical properties :
#
#
# Convention : Reuss Voigt Hill
#
# Bulk Modulus (GPa) = 34.78572 53.30477 44.04525
# Shear Modulus (GPa) = 22.97093 33.28006 28.12549
#
# Velocity S-wave (km/s) = 3.08747 3.71625 3.41636
# Velocity P-wave (km/s) = 5.21011 6.36666 5.81720
#
# Compressibility (1/GPa) = 0.02874743
#
# Stress axis : x y z
#
# Youngs Moduli (GPa) = 93.68869 51.49343 72.34821
#
# Poissons Ratio (x) = -0.02710 0.25713
# Poissons Ratio (y) = -0.04930 0.32964
# Poissons Ratio (z) = 0.33297 0.23462
#
# Static dielectric constant tensor:
#      x y z
#    x 2.093540 0.000000 0.021110 
#    y 0.000000 1.964790 0.000000 
#    z 0.021110 0.000000 1.996940 
# 
# From -- ./inp_files/63539.got.cif
#   From: 2010.05.17/outbox.cif.g08.bks.cpg/sg14_32_cif.got.tgz:63539.got - 2010.06.03 17:49:19.
