data_PCOD9247227
_publ_section_title
;
Structure prediction by ZEFSAII (Michael W. Deem and Ramdas Pophale) SiO2 
 PCOD9247227
Probable space group: P 21/C
;
_chemical_formula_sum "Si O2"
_cell_formula_units_Z 28
_cell_length_a 11.330532
_cell_length_b 10.410587
_cell_length_c 19.313578
_cell_angle_alpha 90.000000
_cell_angle_beta 29.179964
_cell_angle_gamma 90.000000
_cell_volume 1110.737192
_symmetry_space_group_name_H-M "P 21/C"
_symmetry_group_IT_number 14
_symmetry_cell_setting 'monoclinic'
loop_
_space_group_symop_operation_xyz
x,y,z
-x,1/2+y,1/2-z
-x,-y,-z
x,1/2-y,1/2+z
loop_
_atom_site_type_symbol
_atom_site_label
_atom_site_fract_x
_atom_site_fract_y
_atom_site_fract_z
Si Si1 0.217638 0.150265 0.837627
Si Si2 0.304837 0.343242 0.997161
Si Si3 0.052878 0.680240 0.928142
Si Si4 0.537230 0.301969 0.579723
Si Si5 0.035617 0.222085 0.250048
Si Si6 0.550741 0.571742 0.643010
Si Si7 0.170480 0.923095 0.765966
O O1 0.460851 0.215386 0.684380
O O2 0.283654 0.073500 0.873482
O O3 0.117343 0.055282 0.831380
O O4 0.034135 0.261163 0.955223
O O5 0.390413 0.197979 0.933139
O O6 0.542103 0.420881 0.894567
O O7 0.171377 0.386919 0.995940
O O8 0.113286 0.334991 0.156905
O O9 0.279687 0.588938 0.809379
O O10 0.120771 0.804506 0.844667
O O11 0.284582 0.299564 0.664754
O O12 0.573946 0.446007 0.586369
O O13 0.781684 0.252472 0.417863
O O14 0.971777 0.105313 0.230927
#
# Coordination Sequence:
#
# PCOD9247227 Si02
#       7
#     4   4   4   4   4   4   4
#     4  11  26  44  75 110 152 194 250 330 389 456
#     4   9  20  46  73 106 146 198 252 314 376 460
#     4   9  21  42  74 108 142 193 257 309 384 456
#     4  12  29  48  74 116 154 203 259 321 382 465
#     4  11  25  50  71 110 157 196 264 311 381 469
#     4  10  25  47  77 109 149 205 251 322 385 461
#     4  10  21  45  73 104 145 201 245 314 390 451
#
# _framework density 25.208483000000001
#
# number of rings (size 3 to 8) (size 9 to 14) (size 15 to 20)
#    0.000    1.714    1.429    0.429    8.000    6.286 
#   10.286    0.000    0.000    0.000    0.000    0.000 
#    0.000    0.000    0.000    0.000    0.000    0.000 
#
# Total GULP energy -156829.345576 kJ/mol
# GULP energy per Si atom -5601.048056 kJ/mol
# Density = 2.515111 g / cm^3
# Si number density = 25.208483 Si / 1000 Ang^3
#
#
#
# Elastic Constant Matrix: (Units=GPa)
#
#
# Indices 1 2 3 4 5 6 
#
# 1 98.4297 49.8520 71.7398 0.0000 -14.4205 0.0000
# 2 49.8520 57.3326 46.8752 0.0000 0.2027 0.0000
# 3 71.7398 46.8752 223.0952 0.0000 -6.0506 0.0000
# 4 0.0000 0.0000 0.0000 14.0262 0.0000 5.9401
# 5 -14.4205 0.2027 -6.0506 0.0000 45.6683 0.0000
# 6 0.0000 0.0000 0.0000 5.9401 0.0000 20.2898
#
#
#
# Elastic Compliance Matrix: (Units=1/GPa)
#
#
# Indices 1 2 3 4 5 6 
#
# 1 0.021812 -0.016178 -0.003438 0.000000 0.006504 0.000000
# 2 -0.016178 0.033080 -0.001898 0.000000 -0.005507 0.000000
# 3 -0.003438 -0.001898 0.005979 0.000000 -0.000285 0.000000
# 4 0.000000 0.000000 0.000000 0.081386 0.000000 -0.023827
# 5 0.006504 -0.005507 -0.000285 0.000000 0.023937 0.000000
# 6 0.000000 0.000000 0.000000 -0.023827 0.000000 0.056261
#
#
# Mechanical properties :
#
#
# Convention : Reuss Voigt Hill
#
# Bulk Modulus (GPa) = 56.04331 79.53239 67.78785
# Shear Modulus (GPa) = 18.42085 30.02289 24.22187
#
# Velocity S-wave (km/s) = 2.70615 3.45481 3.10314
# Velocity P-wave (km/s) = 5.66079 6.89439 6.30782
#
# Compressibility (1/GPa) = 0.01784334
#
# Stress axis : x y z
#
# Youngs Moduli (GPa) = 45.84606 30.22966 167.24994
#
# Poissons Ratio (x) = 0.48905 0.57508
# Poissons Ratio (y) = 0.74169 0.31738
# Poissons Ratio (z) = 0.15764 0.05737
#
# Static dielectric constant tensor:
#      x y z
#    x 2.018190 0.000000 -0.021650 
#    y 0.000000 1.975630 0.000000 
#    z -0.021650 0.000000 2.023250 
# 
# From -- ./inp_files/67311.got.cif
#   From: 2010.05.17/outbox.cif.g08.bks.cpg/sg14_34_cif.got.tgz:67311.got - 2010.06.03 17:49:19.
