data_PCOD9247465
_publ_section_title
;
Structure prediction by ZEFSAII (Michael W. Deem and Ramdas Pophale) SiO2 
 PCOD9247465
Probable space group: P 21/C
;
_chemical_formula_sum "Si O2"
_cell_formula_units_Z 22
_cell_length_a 23.055661
_cell_length_b 5.258809
_cell_length_c 23.252998
_cell_angle_alpha 90.000000
_cell_angle_beta 158.800106
_cell_angle_gamma 90.000000
_cell_volume 1019.529481
_symmetry_space_group_name_H-M "P 21/C"
_symmetry_group_IT_number 14
_symmetry_cell_setting 'monoclinic'
loop_
_space_group_symop_operation_xyz
x,y,z
-x,1/2+y,1/2-z
-x,-y,-z
x,1/2-y,1/2+z
loop_
_atom_site_type_symbol
_atom_site_label
_atom_site_fract_x
_atom_site_fract_y
_atom_site_fract_z
Si Si1 0.973267 0.126671 0.149309
Si Si2 0.318638 0.720234 0.315073
Si Si3 0.000000 0.000000 0.500000
Si Si4 0.810423 0.894279 0.891662
Si Si5 0.830681 0.375930 0.640952
Si Si6 0.484256 0.867983 0.081291
O O1 0.854124 0.112947 0.093865
O O2 0.062828 0.394627 0.235442
O O3 0.098495 0.894920 0.273360
O O4 0.879925 0.079221 0.004178
O O5 0.186206 0.499188 0.199211
O O6 0.448028 0.618605 0.388461
O O7 0.402919 0.782683 0.452588
O O8 0.214450 0.937220 0.188464
O O9 0.064748 0.173698 0.506566
O O10 0.638539 0.777311 0.748060
O O11 0.650701 0.410761 0.496494
#
# Coordination Sequence:
#
# PCOD9247465 Si02
#       6
#     4   4   2   4   4   4
#     4  10  24  44  72  94 135 170 241 266 344 393
#     4  10  22  39  61  93 132 175 216 273 336 404
#     4  10  22  38  60  94 124 166 228 258 334 396
#     4  11  23  40  64  98 130 180 215 288 326 421
#     4  10  23  47  68  99 127 185 218 292 323 410
#     4  10  23  40  62  94 135 167 223 269 347 390
#
# _framework density 21.578581
#
# number of rings (size 3 to 8) (size 9 to 14) (size 15 to 20)
#    0.000    1.818    0.000    2.182   10.182    0.000 
#    6.545    0.000    0.000    0.000    0.000    0.000 
#    0.000    0.000    0.000    0.000    0.000    0.000 
#
# Total GULP energy -122515.870824 kJ/mol
# GULP energy per Si atom -5568.903219 kJ/mol
# Density = 2.152947 g / cm^3
# Si number density = 21.578581 Si / 1000 Ang^3
#
#
#
# Elastic Constant Matrix: (Units=GPa)
#
#
# Indices 1 2 3 4 5 6 
#
# 1 73.6584 23.9983 42.0995 0.0000 33.6220 0.0000
# 2 23.9983 38.7118 13.5887 0.0000 -38.1724 0.0000
# 3 42.0995 13.5887 63.2070 0.0000 31.7553 0.0000
# 4 0.0000 0.0000 0.0000 24.7697 0.0000 -8.0961
# 5 33.6220 -38.1724 31.7553 0.0000 -1.4021 0.0000
# 6 0.0000 0.0000 0.0000 -8.0961 0.0000 25.1799
#
#
#
# Elastic Compliance Matrix: (Units=1/GPa)
#
#
# Indices 1 2 3 4 5 6 
#
# 1 0.019013 0.002168 -0.017169 0.000000 0.008040 0.000000
# 2 0.002168 0.006806 0.005176 0.000000 -0.016089 0.000000
# 3 -0.017169 0.005176 0.024541 0.000000 0.003191 0.000000
# 4 0.000000 0.000000 0.000000 0.045113 0.000000 0.014505
# 5 0.008040 -0.016089 0.003191 0.000000 -0.010126 0.000000
# 6 0.000000 0.000000 0.000000 0.014505 0.000000 0.044378
#
#
# Mechanical properties :
#
#
# Convention : Reuss Voigt Hill
#
# Bulk Modulus (GPa) = 32.56319 37.21668 34.88994
# Shear Modulus (GPa) = 31.32591 16.10220 23.71405
#
# Velocity S-wave (km/s) = 3.81427 2.73465 3.31866
# Velocity P-wave (km/s) = 5.87550 5.22069 5.55774
#
# Compressibility (1/GPa) = 0.03070952
#
# Stress axis : x y z
#
# Youngs Moduli (GPa) = 52.59603 146.92221 40.74850
#
# Poissons Ratio (x) = -0.31856 0.69961
# Poissons Ratio (y) = -0.11404 -0.21090
# Poissons Ratio (z) = 0.90303 -0.76042
#
# Static dielectric constant tensor:
#      x y z
#    x 1.888750 0.000000 -0.010800 
#    y 0.000000 1.995630 0.000000 
#    z -0.010800 0.000000 1.795810 
# 
# From -- ./inp_files/64131.got.cif
#   From: 2010.05.17/outbox.cif.g08.bks.cpg/sg14_33_cif.got.tgz:64131.got - 2010.06.03 17:49:19.
