data_PCOD9247070
_publ_section_title
;
Structure prediction by ZEFSAII (Michael W. Deem and Ramdas Pophale) SiO2 
 PCOD9247070
Probable space group: P 21/C
;
_chemical_formula_sum "Si O2"
_cell_formula_units_Z 32
_cell_length_a 6.662743
_cell_length_b 8.179312
_cell_length_c 28.334871
_cell_angle_alpha 90.000000
_cell_angle_beta 96.944711
_cell_angle_gamma 90.000000
_cell_volume 1532.826633
_symmetry_space_group_name_H-M "P 21/C"
_symmetry_group_IT_number 14
_symmetry_cell_setting 'monoclinic'
loop_
_space_group_symop_operation_xyz
x,y,z
-x,1/2+y,1/2-z
-x,-y,-z
x,1/2-y,1/2+z
loop_
_atom_site_type_symbol
_atom_site_label
_atom_site_fract_x
_atom_site_fract_y
_atom_site_fract_z
Si Si1 0.515784 0.692063 0.507776
Si Si2 0.088238 0.125227 0.463220
Si Si3 0.367279 0.780758 0.274599
Si Si4 0.632929 0.552334 0.851005
Si Si5 0.660237 0.016180 0.814851
Si Si6 0.700378 0.156371 0.585129
Si Si7 0.993997 0.222933 0.169407
Si Si8 0.289051 0.721234 0.595869
O O1 0.500000 0.500000 0.500000
O O2 0.735175 0.770425 0.507456
O O3 0.362671 0.772589 0.466731
O O4 0.450829 0.731092 0.558989
O O5 0.925069 0.250139 0.436396
O O6 0.181180 0.011098 0.424129
O O7 0.000000 0.000000 0.500000
O O8 0.477324 0.932683 0.303581
O O9 0.368472 0.828690 0.220100
O O10 0.494912 0.621485 0.295300
O O11 0.143975 0.769560 0.290024
O O12 0.504417 0.628380 0.890797
O O13 0.691752 0.374871 0.869283
O O14 0.830800 0.650567 0.840647
O O15 0.662938 0.065843 0.869980
O O16 0.882991 0.939498 0.814495
O O17 0.841656 0.274331 0.620519
#
# Coordination Sequence:
#
# PCOD9247070 Si02
#       8
#     4   4   4   4   4   4   4   4
#     4  12  29  41  66 100 143 188 231 288 344 400
#     4  12  24  44  68  99 133 187 238 283 338 410
#     4  10  24  47  70 101 136 177 216 282 347 417
#     4  10  21  43  70  98 132 176 227 277 345 405
#     4  11  26  44  70 101 137 173 225 280 350 407
#     4  11  22  43  69  94 135 181 229 275 339 407
#     4  10  24  42  71 101 130 175 223 279 337 411
#     4  12  25  42  67 101 135 180 235 285 339 410
#
# _framework density 20.876465
#
# number of rings (size 3 to 8) (size 9 to 14) (size 15 to 20)
#    0.000    1.000    3.750    1.875    7.000    3.500 
#    0.000    0.000    0.000    0.000    0.000    0.000 
#    0.000    0.000    0.000    0.000    0.000    0.000 
#
# Total GULP energy -178655.203737 kJ/mol
# GULP energy per Si atom -5582.975117 kJ/mol
# Density = 2.082895 g / cm^3
# Si number density = 20.876465 Si / 1000 Ang^3
#
#
#
# Elastic Constant Matrix: (Units=GPa)
#
#
# Indices 1 2 3 4 5 6 
#
# 1 97.8825 33.3937 14.9842 0.0000 -10.1987 0.0000
# 2 33.3937 65.2760 16.4440 0.0000 9.4564 0.0000
# 3 14.9842 16.4440 83.4301 0.0000 -5.5870 0.0000
# 4 0.0000 0.0000 0.0000 37.1424 0.0000 11.7513
# 5 -10.1987 9.4564 -5.5870 0.0000 22.1976 0.0000
# 6 0.0000 0.0000 0.0000 11.7513 0.0000 26.9863
#
#
#
# Elastic Compliance Matrix: (Units=1/GPa)
#
#
# Indices 1 2 3 4 5 6 
#
# 1 0.014299 -0.008763 -0.000154 0.000000 0.010264 0.000000
# 2 -0.008763 0.022937 -0.003937 0.000000 -0.014789 0.000000
# 3 -0.000154 -0.003937 0.013118 0.000000 0.004909 0.000000
# 4 0.000000 0.000000 0.000000 0.031225 0.000000 -0.013597
# 5 0.010264 -0.014789 0.004909 0.000000 0.057301 0.000000
# 6 0.000000 0.000000 0.000000 -0.013597 0.000000 0.042977
#
#
# Mechanical properties :
#
#
# Convention : Reuss Voigt Hill
#
# Bulk Modulus (GPa) = 40.57440 41.80359 41.18899
# Shear Modulus (GPa) = 23.17158 29.38305 26.27731
#
# Velocity S-wave (km/s) = 3.33519 3.75570 3.55167
# Velocity P-wave (km/s) = 5.85739 6.23496 6.04912
#
# Compressibility (1/GPa) = 0.02464609
#
# Stress axis : x y z
#
# Youngs Moduli (GPa) = 69.93488 43.59771 76.22880
#
# Poissons Ratio (x) = 0.38206 0.01170
# Poissons Ratio (y) = 0.61286 0.30014
# Poissons Ratio (z) = 0.01074 0.17166
#
# Static dielectric constant tensor:
#      x y z
#    x 1.821170 0.000000 -0.010460 
#    y 0.000000 1.789530 0.000000 
#    z -0.010460 0.000000 1.764650 
# 
# From -- ./inp_files/78820.got.cif
#   From: 2010.05.17/outbox.cif.g08.bks.cpg/sg14_40_cif.got.tgz:78820.got - 2010.06.03 17:49:19.
