data_PCOD9247028
_publ_section_title
;
Structure prediction by ZEFSAII (Michael W. Deem and Ramdas Pophale) SiO2 
 PCOD9247028
Probable space group: P 21/C
;
_chemical_formula_sum "Si O2"
_cell_formula_units_Z 32
_cell_length_a 17.559447
_cell_length_b 11.712960
_cell_length_c 13.908232
_cell_angle_alpha 90.000000
_cell_angle_beta 150.706034
_cell_angle_gamma 90.000000
_cell_volume 1399.639857
_symmetry_space_group_name_H-M "P 21/C"
_symmetry_group_IT_number 14
_symmetry_cell_setting 'monoclinic'
loop_
_space_group_symop_operation_xyz
x,y,z
-x,1/2+y,1/2-z
-x,-y,-z
x,1/2-y,1/2+z
loop_
_atom_site_type_symbol
_atom_site_label
_atom_site_fract_x
_atom_site_fract_y
_atom_site_fract_z
Si Si1 0.222962 0.168562 0.962493
Si Si2 0.578987 0.279017 0.137972
Si Si3 0.212451 0.592907 0.774386
Si Si4 0.249153 0.161859 0.337882
Si Si5 0.075106 0.248097 0.985529
Si Si6 0.454410 0.918336 0.038054
Si Si7 0.423549 0.901312 0.697040
Si Si8 0.903112 0.031349 0.298445
O O1 0.205025 0.291516 0.892779
O O2 0.174599 0.180226 0.018047
O O3 0.115339 0.074078 0.793360
O O4 0.400929 0.133934 0.138394
O O5 0.704998 0.364333 0.232540
O O6 0.525240 0.206391 0.984529
O O7 0.628959 0.187238 0.275707
O O8 0.433442 0.345146 0.022932
O O9 0.177371 0.458838 0.732031
O O10 0.067993 0.674035 0.634209
O O11 0.319763 0.604191 0.988262
O O12 0.187973 0.263003 0.200755
O O13 0.999688 0.363088 0.862142
O O14 0.272588 0.931114 0.865934
O O15 0.500000 0.000000 0.000000
O O16 0.557658 0.971014 0.237655
O O17 0.000000 0.000000 0.500000
#
# Coordination Sequence:
#
# PCOD9247028 Si02
#       8
#     4   4   4   4   4   4   4   4
#     4  10  24  45  66  99 130 174 226 266 330 389
#     4  10  21  43  67  98 126 170 226 274 324 385
#     4  12  25  42  64 100 134 176 216 265 342 389
#     4  11  25  46  66  93 140 179 210 266 336 400
#     4  12  26  43  66  99 135 173 218 272 325 397
#     4   9  19  38  66  98 122 160 221 280 318 373
#     4   9  22  42  66  96 131 171 223 276 321 387
#     4  11  22  44  72  93 129 173 222 278 322 384
#
# _framework density 22.863025
#
# number of rings (size 3 to 8) (size 9 to 14) (size 15 to 20)
#    0.000    1.500    2.500    2.250    1.750    6.000 
#    2.250    0.000    0.000    0.000    0.000    0.000 
#    0.000    0.000    0.000    0.000    0.000    0.000 
#
# Total GULP energy -178894.783908 kJ/mol
# GULP energy per Si atom -5590.461997 kJ/mol
# Density = 2.281099 g / cm^3
# Si number density = 22.863025 Si / 1000 Ang^3
#
#
#
# Elastic Constant Matrix: (Units=GPa)
#
#
# Indices 1 2 3 4 5 6 
#
# 1 77.5843 3.1858 14.1936 0.0000 -3.5489 0.0000
# 2 3.1858 77.8618 2.1808 0.0000 6.6867 0.0000
# 3 14.1936 2.1808 68.4392 0.0000 -14.9935 0.0000
# 4 0.0000 0.0000 0.0000 27.0736 0.0000 -3.6932
# 5 -3.5489 6.6867 -14.9935 0.0000 18.9049 0.0000
# 6 0.0000 0.0000 0.0000 -3.6932 0.0000 22.0784
#
#
#
# Elastic Compliance Matrix: (Units=1/GPa)
#
#
# Indices 1 2 3 4 5 6 
#
# 1 0.013421 -0.000529 -0.002631 0.000000 0.000620 0.000000
# 2 -0.000529 0.013443 -0.001673 0.000000 -0.006180 0.000000
# 3 -0.002631 -0.001673 0.018435 0.000000 0.014718 0.000000
# 4 0.000000 0.000000 0.000000 0.037799 0.000000 0.006323
# 5 0.000620 -0.006180 0.014718 0.000000 0.066872 0.000000
# 6 0.000000 0.000000 0.000000 0.006323 0.000000 0.046351
#
#
# Mechanical properties :
#
#
# Convention : Reuss Voigt Hill
#
# Bulk Modulus (GPa) = 28.06315 29.22285 28.64300
# Shear Modulus (GPa) = 22.95038 27.23307 25.09172
#
# Velocity S-wave (km/s) = 3.17175 3.45503 3.31642
# Velocity P-wave (km/s) = 5.07094 5.35965 5.21729
#
# Compressibility (1/GPa) = 0.03563392
#
# Stress axis : x y z
#
# Youngs Moduli (GPa) = 74.51272 74.39075 54.24509
#
# Poissons Ratio (x) = 0.03933 0.14270
# Poissons Ratio (y) = 0.03939 0.09074
# Poissons Ratio (z) = 0.19601 0.12443
#
# Static dielectric constant tensor:
#      x y z
#    x 1.797480 0.000000 -0.006530 
#    y 0.000000 1.934020 0.000000 
#    z -0.006530 0.000000 1.835930 
# 
# From -- ./inp_files/48945.got.cif
#   From: 2010.05.17/outbox.cif.g08.bks.cpg/sg14_25_cif.got.tgz:48945.got - 2010.06.03 17:49:19.
