data_PCOD9247487
_publ_section_title
;
Structure prediction by ZEFSAII (Michael W. Deem and Ramdas Pophale) SiO2 
 PCOD9247487
Probable space group: P 21/C
;
_chemical_formula_sum "Si O2"
_cell_formula_units_Z 32
_cell_length_a 13.509422
_cell_length_b 12.143331
_cell_length_c 8.717583
_cell_angle_alpha 90.000000
_cell_angle_beta 92.221593
_cell_angle_gamma 90.000000
_cell_volume 1429.039207
_symmetry_space_group_name_H-M "P 21/C"
_symmetry_group_IT_number 14
_symmetry_cell_setting 'monoclinic'
loop_
_space_group_symop_operation_xyz
x,y,z
-x,1/2+y,1/2-z
-x,-y,-z
x,1/2-y,1/2+z
loop_
_atom_site_type_symbol
_atom_site_label
_atom_site_fract_x
_atom_site_fract_y
_atom_site_fract_z
Si Si1 0.672624 0.702777 0.610561
Si Si2 0.559404 0.937623 0.870415
Si Si3 0.899148 0.639029 0.554384
Si Si4 0.887228 0.470023 0.017813
Si Si5 0.698095 0.959390 0.640853
Si Si6 0.827071 0.062805 0.190723
Si Si7 0.630967 0.487909 0.800327
Si Si8 0.033419 0.737350 0.826696
O O1 0.607821 0.665779 0.460115
O O2 0.789201 0.684034 0.582413
O O3 0.665855 0.831757 0.641275
O O4 0.639953 0.615291 0.740852
O O5 0.649276 0.003418 0.793903
O O6 0.474960 0.932513 0.735300
O O7 0.500000 0.000000 0.000000
O O8 0.877219 0.508026 0.559166
O O9 0.978643 0.669648 0.690859
O O10 0.946525 0.697954 0.411082
O O11 0.816812 0.528237 0.137273
O O12 0.899188 0.343620 0.067099
O O13 0.841355 0.502796 0.851504
O O14 0.000000 0.500000 0.000000
O O15 0.657338 0.015073 0.482366
O O16 0.709277 0.073563 0.190563
O O17 0.889610 0.171063 0.221770
#
# Coordination Sequence:
#
# PCOD9247487 Si02
#       8
#     4   4   4   4   4   4   4   4
#     4  10  22  38  63 100 125 164 216 276 327 394
#     4  10  22  43  63  92 128 165 217 278 329 385
#     4  11  24  37  65  93 135 169 222 274 322 389
#     4  11  22  39  63  94 135 170 211 269 323 397
#     4  11  22  38  70  97 127 171 219 264 338 391
#     4  10  22  41  59  92 129 175 219 269 323 397
#     4   9  21  42  63  89 133 166 214 277 328 388
#     4  12  23  41  61  94 132 179 219 261 333 392
#
# _framework density 22.392665999999998
#
# number of rings (size 3 to 8) (size 9 to 14) (size 15 to 20)
#    0.000    1.500    2.500    2.250    5.250    0.000 
#    6.750    6.250    0.000    1.500    0.000    0.000 
#    0.000    0.000    0.000    0.000    0.000    0.000 
#
# Total GULP energy -178406.472142 kJ/mol
# GULP energy per Si atom -5575.202254 kJ/mol
# Density = 2.234170 g / cm^3
# Si number density = 22.392666 Si / 1000 Ang^3
#
#
#
# Elastic Constant Matrix: (Units=GPa)
#
#
# Indices 1 2 3 4 5 6 
#
# 1 118.9498 36.7133 24.3017 0.0000 -19.2688 0.0000
# 2 36.7133 59.0564 9.5116 0.0000 -6.7802 0.0000
# 3 24.3017 9.5116 67.7721 0.0000 -17.8659 0.0000
# 4 0.0000 0.0000 0.0000 17.4187 0.0000 2.6597
# 5 -19.2688 -6.7802 -17.8659 0.0000 38.7429 0.0000
# 6 0.0000 0.0000 0.0000 2.6597 0.0000 25.4444
#
#
#
# Elastic Compliance Matrix: (Units=1/GPa)
#
#
# Indices 1 2 3 4 5 6 
#
# 1 0.011388 -0.006310 -0.002272 0.000000 0.003512 0.000000
# 2 -0.006310 0.020984 -0.000616 0.000000 0.000250 0.000000
# 3 -0.002272 -0.000616 0.017452 0.000000 0.006810 0.000000
# 4 0.000000 0.000000 0.000000 0.058341 0.000000 -0.006098
# 5 0.003512 0.000250 0.006810 0.000000 0.030742 0.000000
# 6 0.000000 0.000000 0.000000 -0.006098 0.000000 0.039939
#
#
# Mechanical properties :
#
#
# Convention : Reuss Voigt Hill
#
# Bulk Modulus (GPa) = 31.82114 42.98128 37.40121
# Shear Modulus (GPa) = 24.07125 28.00466 26.03795
#
# Velocity S-wave (km/s) = 3.28222 3.54024 3.41367
# Velocity P-wave (km/s) = 5.34839 5.99559 5.68122
#
# Compressibility (1/GPa) = 0.03142565
#
# Stress axis : x y z
#
# Youngs Moduli (GPa) = 87.81547 47.65603 57.30091
#
# Poissons Ratio (x) = 0.30072 0.13019
# Poissons Ratio (y) = 0.55413 0.03533
# Poissons Ratio (z) = 0.19952 0.02938
#
# Static dielectric constant tensor:
#      x y z
#    x 1.974170 0.000000 -0.034210 
#    y 0.000000 1.579390 0.000000 
#    z -0.034210 0.000000 1.841750 
# 
# From -- ./inp_files/15808.got.cif
#   From: 2010.05.17/outbox.cif.g08.bks.cpg/sg14_8_cif.got.tgz:15808.got - 2010.06.03 17:49:19.
