data_PCOD9247778
_publ_section_title
;
Structure prediction by ZEFSAII (Michael W. Deem and Ramdas Pophale) SiO2 
 PCOD9247778
Probable space group: P 21/C
;
_chemical_formula_sum "Si O2"
_cell_formula_units_Z 24
_cell_length_a 15.350696
_cell_length_b 9.905856
_cell_length_c 20.665459
_cell_angle_alpha 90.000000
_cell_angle_beta 156.108074
_cell_angle_gamma 90.000000
_cell_volume 1272.722818
_symmetry_space_group_name_H-M "P 21/C"
_symmetry_group_IT_number 14
_symmetry_cell_setting 'monoclinic'
loop_
_space_group_symop_operation_xyz
x,y,z
-x,1/2+y,1/2-z
-x,-y,-z
x,1/2-y,1/2+z
loop_
_atom_site_type_symbol
_atom_site_label
_atom_site_fract_x
_atom_site_fract_y
_atom_site_fract_z
Si Si1 0.230769 0.188954 0.051789
Si Si2 0.287266 0.809803 0.574804
Si Si3 0.635228 0.004580 0.156850
Si Si4 0.039521 0.071129 0.354229
Si Si5 0.058317 0.156628 0.558698
Si Si6 0.770692 0.463508 0.540639
O O1 0.474452 0.160509 0.238737
O O2 0.125309 0.251715 0.044509
O O3 0.196811 0.303971 0.973966
O O4 0.138196 0.055223 0.955336
O O5 0.171539 0.936987 0.462301
O O6 0.286023 0.681940 0.526872
O O7 0.140977 0.782790 0.538307
O O8 0.744679 0.867228 0.257541
O O9 0.841374 0.088614 0.271153
O O10 0.451807 0.034952 0.085563
O O11 0.500000 0.000000 0.000000
O O12 0.931617 0.055211 0.210552
O O13 0.000000 0.000000 0.500000
#
# Coordination Sequence:
#
# PCOD9247778 Si02
#       6
#     4   4   4   4   4   4
#     4  12  22  36  64  89 117 156 200 249 289 349
#     4  11  22  37  63  87 119 154 198 248 291 349
#     4   9  18  36  61  84 112 156 199 234 283 357
#     4  10  22  40  61  84 120 163 199 238 290 361
#     4  11  20  39  61  86 116 155 203 237 290 359
#     4  11  22  37  60  93 120 151 197 249 304 339
#
# _framework density 18.857209999999998
#
# number of rings (size 3 to 8) (size 9 to 14) (size 15 to 20)
#    0.000    1.333    5.000    3.000    0.000    0.667 
#    0.000    0.000    0.000    2.000    0.000    0.000 
#    0.000    0.000    0.000    0.000    0.000    0.000 
#
# Total GULP energy -133606.670708 kJ/mol
# GULP energy per Si atom -5566.944613 kJ/mol
# Density = 1.881429 g / cm^3
# Si number density = 18.857210 Si / 1000 Ang^3
#
#
#
# Elastic Constant Matrix: (Units=GPa)
#
#
# Indices 1 2 3 4 5 6 
#
# 1 68.9420 -1.0472 32.3678 0.0000 -4.3218 0.0000
# 2 -1.0472 50.4611 12.8838 0.0000 -9.0110 0.0000
# 3 32.3678 12.8838 102.3290 0.0000 -18.0154 0.0000
# 4 0.0000 0.0000 0.0000 25.4741 0.0000 -7.0770
# 5 -4.3218 -9.0110 -18.0154 0.0000 32.1971 0.0000
# 6 0.0000 0.0000 0.0000 -7.0770 0.0000 25.3430
#
#
#
# Elastic Compliance Matrix: (Units=1/GPa)
#
#
# Indices 1 2 3 4 5 6 
#
# 1 0.017197 0.001747 -0.005732 0.000000 -0.000410 0.000000
# 2 0.001747 0.021331 -0.002381 0.000000 0.004873 0.000000
# 3 -0.005732 -0.002381 0.012903 0.000000 0.005784 0.000000
# 4 0.000000 0.000000 0.000000 0.042557 0.000000 0.011884
# 5 -0.000410 0.004873 0.005784 0.000000 0.035604 0.000000
# 6 0.000000 0.000000 0.000000 0.011884 0.000000 0.042777
#
#
# Mechanical properties :
#
#
# Convention : Reuss Voigt Hill
#
# Bulk Modulus (GPa) = 25.83880 34.46011 30.14945
# Shear Modulus (GPa) = 25.25245 28.43801 26.84523
#
# Velocity S-wave (km/s) = 3.66340 3.88760 3.77716
# Velocity P-wave (km/s) = 5.62371 6.20203 5.91993
#
# Compressibility (1/GPa) = 0.03870149
#
# Stress axis : x y z
#
# Youngs Moduli (GPa) = 58.15041 46.87920 77.49855
#
# Poissons Ratio (x) = -0.08190 0.44420
# Poissons Ratio (y) = -0.10160 0.18449
# Poissons Ratio (z) = 0.33330 0.11160
#
# Static dielectric constant tensor:
#      x y z
#    x 1.737650 0.000000 0.051300 
#    y 0.000000 1.669810 0.000000 
#    z 0.051300 0.000000 1.747900 
# 
# From -- ./inp_files/74199.got.cif
#   From: 2010.05.17/outbox.cif.g08.bks.cpg/sg14_38_cif.got.tgz:74199.got - 2010.06.03 17:49:19.
