data_PCOD9247334
_publ_section_title
;
Structure prediction by ZEFSAII (Michael W. Deem and Ramdas Pophale) SiO2 
 PCOD9247334
Probable space group: P 21/C
;
_chemical_formula_sum "Si O2"
_cell_formula_units_Z 24
_cell_length_a 14.519483
_cell_length_b 9.168093
_cell_length_c 14.294621
_cell_angle_alpha 90.000000
_cell_angle_beta 148.864161
_cell_angle_gamma 90.000000
_cell_volume 983.900466
_symmetry_space_group_name_H-M "P 21/C"
_symmetry_group_IT_number 14
_symmetry_cell_setting 'monoclinic'
loop_
_space_group_symop_operation_xyz
x,y,z
-x,1/2+y,1/2-z
-x,-y,-z
x,1/2-y,1/2+z
loop_
_atom_site_type_symbol
_atom_site_label
_atom_site_fract_x
_atom_site_fract_y
_atom_site_fract_z
Si Si1 0.804634 0.428842 0.826584
Si Si2 0.462545 0.452751 0.791867
Si Si3 0.821830 0.409183 0.322926
Si Si4 0.218534 0.966461 0.906398
Si Si5 0.032814 0.689156 0.738255
Si Si6 0.325168 0.348392 0.138674
O O1 0.816001 0.256441 0.856497
O O2 0.730256 0.445822 0.656322
O O3 0.693407 0.524390 0.801759
O O4 0.000000 0.500000 0.000000
O O5 0.343577 0.505491 0.775832
O O6 0.355627 0.476600 0.601045
O O7 0.619728 0.568920 0.909026
O O8 0.465330 0.276219 0.794286
O O9 0.000000 0.500000 0.500000
O O10 0.839671 0.385897 0.227096
O O11 0.140988 0.816939 0.879280
O O12 0.053690 0.078690 0.765644
O O13 0.866429 0.767430 0.539553
#
# Coordination Sequence:
#
# PCOD9247334 Si02
#       6
#     4   4   4   4   4   4
#     4  11  21  37  64  90 120 163 206 252 313 369
#     4  11  24  39  65  90 126 165 206 260 307 374
#     4  11  19  39  62  91 121 162 206 248 310 372
#     4  10  22  36  61  95 118 160 207 265 296 368
#     4  10  22  38  63  92 124 158 216 248 311 369
#     4  11  22  42  59  93 122 168 205 250 319 369
#
# _framework density 24.392712
#
# number of rings (size 3 to 8) (size 9 to 14) (size 15 to 20)
#    0.000    1.333    6.667    1.000    2.333    3.333 
#    0.000    1.667    0.000    9.000    0.000    0.000 
#    0.000    0.000    0.000    0.000    0.000    0.000 
#
# Total GULP energy -134188.695248 kJ/mol
# GULP energy per Si atom -5591.195635 kJ/mol
# Density = 2.433719 g / cm^3
# Si number density = 24.392712 Si / 1000 Ang^3
#
#
#
# Elastic Constant Matrix: (Units=GPa)
#
#
# Indices 1 2 3 4 5 6 
#
# 1 135.9248 56.4081 12.7692 0.0000 16.9478 0.0000
# 2 56.4081 179.7383 12.3809 0.0000 4.4955 0.0000
# 3 12.7692 12.3809 52.4679 0.0000 -4.2001 0.0000
# 4 0.0000 0.0000 0.0000 20.9360 0.0000 -7.8425
# 5 16.9478 4.4955 -4.2001 0.0000 25.7136 0.0000
# 6 0.0000 0.0000 0.0000 -7.8425 0.0000 51.9634
#
#
#
# Elastic Compliance Matrix: (Units=1/GPa)
#
#
# Indices 1 2 3 4 5 6 
#
# 1 0.009422 -0.002656 -0.002154 0.000000 -0.006098 0.000000
# 2 -0.002656 0.006442 -0.000835 0.000000 0.000488 0.000000
# 3 -0.002154 -0.000835 0.020170 0.000000 0.004860 0.000000
# 4 0.000000 0.000000 0.000000 0.050627 0.000000 0.007641
# 5 -0.006098 0.000488 0.004860 0.000000 0.043617 0.000000
# 6 0.000000 0.000000 0.000000 0.007641 0.000000 0.020397
#
#
# Mechanical properties :
#
#
# Convention : Reuss Voigt Hill
#
# Bulk Modulus (GPa) = 40.41439 59.02748 49.72094
# Shear Modulus (GPa) = 29.37481 38.82747 34.10114
#
# Velocity S-wave (km/s) = 3.47399 3.99402 3.74305
# Velocity P-wave (km/s) = 5.71801 6.74692 6.25366
#
# Compressibility (1/GPa) = 0.02474366
#
# Stress axis : x y z
#
# Youngs Moduli (GPa) = 106.13571 155.21942 49.57941
#
# Poissons Ratio (x) = 0.41226 0.10681
# Poissons Ratio (y) = 0.28190 0.04139
# Poissons Ratio (z) = 0.22866 0.12958
#
# Static dielectric constant tensor:
#      x y z
#    x 1.928200 0.000000 0.069870 
#    y 0.000000 1.733990 0.000000 
#    z 0.069870 0.000000 2.020790 
# 
# From -- ./inp_files/46602.got.cif
#   From: 2010.05.17/outbox.cif.g08.bks.cpg/sg14_24_cif.got.tgz:46602.got - 2010.06.03 17:49:19.
