data_PCOD9247130
_publ_section_title
;
Structure prediction by ZEFSAII (Michael W. Deem and Ramdas Pophale) SiO2 
 PCOD9247130
Probable space group: P 21/C
;
_chemical_formula_sum "Si O2"
_cell_formula_units_Z 30
_cell_length_a 12.215349
_cell_length_b 8.326465
_cell_length_c 14.709487
_cell_angle_alpha 90.000000
_cell_angle_beta 104.018603
_cell_angle_gamma 90.000000
_cell_volume 1451.553355
_symmetry_space_group_name_H-M "P 21/C"
_symmetry_group_IT_number 14
_symmetry_cell_setting 'monoclinic'
loop_
_space_group_symop_operation_xyz
x,y,z
-x,1/2+y,1/2-z
-x,-y,-z
x,1/2-y,1/2+z
loop_
_atom_site_type_symbol
_atom_site_label
_atom_site_fract_x
_atom_site_fract_y
_atom_site_fract_z
Si Si1 0.229098 0.168679 0.687039
Si Si2 0.980350 0.445289 0.894280
Si Si3 0.969813 0.926196 0.091425
Si Si4 0.333574 0.618221 0.704322
Si Si5 0.500000 0.500000 0.500000
Si Si6 0.860740 0.963829 0.731056
Si Si7 0.267181 0.087818 0.027926
Si Si8 0.562319 0.043919 0.224564
O O1 0.193357 0.291198 0.759321
O O2 0.235569 0.273892 0.594980
O O3 0.133685 0.031662 0.661261
O O4 0.350259 0.093004 0.728702
O O5 0.980719 0.252788 0.889576
O O6 0.088627 0.495618 0.856603
O O7 0.000000 0.500000 0.000000
O O8 0.030802 0.027810 0.180810
O O9 0.835037 0.925790 0.062754
O O10 0.000000 0.000000 0.000000
O O11 0.234188 0.587882 0.755551
O O12 0.283642 0.572129 0.594771
O O13 0.387381 0.791858 0.725842
O O14 0.437596 0.494677 0.737651
O O15 0.614770 0.604434 0.498656
O O16 0.450546 0.541974 0.386913
#
# Coordination Sequence:
#
# PCOD9247130 Si02
#       8
#     4   4   4   4   2   4   4   4
#     4  11  23  42  69  96 135 182 224 281 335 402
#     4  12  25  42  65 103 134 180 227 273 338 405
#     4  12  22  43  69  95 143 177 224 280 336 406
#     4  10  21  44  66  98 131 176 224 272 340 403
#     4  10  24  40  66  96 124 172 228 270 336 386
#     4  11  24  42  66  99 139 180 225 277 343 400
#     4  10  22  43  66  97 133 175 219 280 334 402
#     4  11  23  42  70  95 130 178 229 277 339 400
#
# _framework density 20.667513
#
# number of rings (size 3 to 8) (size 9 to 14) (size 15 to 20)
#    0.000    1.067    4.000    4.000    3.733    0.000 
#    2.400    0.000    0.000   13.600    0.000    0.000 
#    0.000    0.000    0.000    0.000    0.000    0.000 
#
# Total GULP energy -167119.682143 kJ/mol
# GULP energy per Si atom -5570.656071 kJ/mol
# Density = 2.062047 g / cm^3
# Si number density = 20.667513 Si / 1000 Ang^3
#
#
#
# Elastic Constant Matrix: (Units=GPa)
#
#
# Indices 1 2 3 4 5 6 
#
# 1 140.1346 31.7512 39.9819 0.0000 14.9446 0.0000
# 2 31.7512 70.4724 23.0821 0.0000 11.2244 0.0000
# 3 39.9819 23.0821 62.7887 0.0000 -0.3069 0.0000
# 4 0.0000 0.0000 0.0000 23.5080 0.0000 12.1721
# 5 14.9446 11.2244 -0.3069 0.0000 32.9128 0.0000
# 6 0.0000 0.0000 0.0000 12.1721 0.0000 37.7520
#
#
#
# Elastic Compliance Matrix: (Units=1/GPa)
#
#
# Indices 1 2 3 4 5 6 
#
# 1 0.009497 -0.001936 -0.005354 0.000000 -0.003702 0.000000
# 2 -0.001936 0.017612 -0.005267 0.000000 -0.005176 0.000000
# 3 -0.005354 -0.005267 0.021293 0.000000 0.004426 0.000000
# 4 0.000000 0.000000 0.000000 0.051064 0.000000 -0.016464
# 5 -0.003702 -0.005176 0.004426 0.000000 0.033871 0.000000
# 6 0.000000 0.000000 0.000000 -0.016464 0.000000 0.031797
#
#
# Mechanical properties :
#
#
# Convention : Reuss Voigt Hill
#
# Bulk Modulus (GPa) = 42.93885 51.44735 47.19310
# Shear Modulus (GPa) = 25.25132 30.73994 27.99563
#
# Velocity S-wave (km/s) = 3.49920 3.86081 3.68444
# Velocity P-wave (km/s) = 6.09483 6.69488 6.40189
#
# Compressibility (1/GPa) = 0.02328893
#
# Stress axis : x y z
#
# Youngs Moduli (GPa) = 105.29785 56.78060 46.96273
#
# Poissons Ratio (x) = 0.10990 0.25143
# Poissons Ratio (y) = 0.20381 0.24736
# Poissons Ratio (z) = 0.56375 0.29907
#
# Static dielectric constant tensor:
#      x y z
#    x 1.764600 0.000000 -0.010900 
#    y 0.000000 1.771160 0.000000 
#    z -0.010900 0.000000 1.734140 
# 
# From -- ./inp_files/43502.got.cif
#   From: 2010.05.17/outbox.cif.g08.bks.cpg/sg14_22_cif.got.tgz:43502.got - 2010.06.03 17:49:19.
