data_PCOD9247141
_publ_section_title
;
Structure prediction by ZEFSAII (Michael W. Deem and Ramdas Pophale) SiO2 
 PCOD9247141
Probable space group: P 21/C
;
_chemical_formula_sum "Si O2"
_cell_formula_units_Z 24
_cell_length_a 14.406068
_cell_length_b 4.958748
_cell_length_c 24.411359
_cell_angle_alpha 90.000000
_cell_angle_beta 141.706757
_cell_angle_gamma 90.000000
_cell_volume 1080.641086
_symmetry_space_group_name_H-M "P 21/C"
_symmetry_group_IT_number 14
_symmetry_cell_setting 'monoclinic'
loop_
_space_group_symop_operation_xyz
x,y,z
-x,1/2+y,1/2-z
-x,-y,-z
x,1/2-y,1/2+z
loop_
_atom_site_type_symbol
_atom_site_label
_atom_site_fract_x
_atom_site_fract_y
_atom_site_fract_z
Si Si1 0.638048 0.692668 0.050903
Si Si2 0.120120 0.157916 0.421702
Si Si3 0.165126 0.405443 0.598001
Si Si4 0.737399 0.321185 0.461595
Si Si5 0.199800 0.608096 0.188708
Si Si6 0.448431 0.076873 0.883513
O O1 0.783935 0.583235 0.087747
O O2 0.666143 0.808252 0.124332
O O3 0.500000 0.500000 0.000000
O O4 0.559042 0.894663 0.971584
O O5 0.176929 0.962619 0.497167
O O6 0.163420 0.466670 0.456285
O O7 0.945059 0.101090 0.338973
O O8 0.273160 0.514589 0.599859
O O9 0.200639 0.592744 0.665794
O O10 0.000000 0.500000 0.500000
O O11 0.177865 0.104067 0.628051
O O12 0.574158 0.249522 0.410401
O O13 0.349690 0.556850 0.291415
#
# Coordination Sequence:
#
# PCOD9247141 Si02
#       6
#     4   4   4   4   4   4
#     4  10  21  44  68  84 129 173 208 252 337 382
#     4  11  21  40  66  94 121 173 210 258 313 392
#     4  12  23  41  67  93 131 175 208 259 325 384
#     4  11  22  40  67  90 128 173 213 244 327 386
#     4  12  25  41  65 100 131 159 222 272 307 372
#     4  10  25  42  63  99 127 165 215 275 311 382
#
# _framework density 22.209040000000002
#
# number of rings (size 3 to 8) (size 9 to 14) (size 15 to 20)
#    0.000    1.000    5.000    1.500    2.333    1.333 
#    3.000    0.000    0.000    0.000    0.000    0.000 
#    0.000    0.000    0.000    0.000    0.000    0.000 
#
# Total GULP energy -133805.604910 kJ/mol
# GULP energy per Si atom -5575.233538 kJ/mol
# Density = 2.215849 g / cm^3
# Si number density = 22.209040 Si / 1000 Ang^3
#
#
#
# Elastic Constant Matrix: (Units=GPa)
#
#
# Indices 1 2 3 4 5 6 
#
# 1 97.5858 -11.9691 0.4369 0.0000 9.6668 0.0000
# 2 -11.9691 52.2247 -16.7656 0.0000 3.0640 0.0000
# 3 0.4369 -16.7656 61.5891 0.0000 0.5725 0.0000
# 4 0.0000 0.0000 0.0000 8.4937 0.0000 2.8280
# 5 9.6668 3.0640 0.5725 0.0000 21.4339 0.0000
# 6 0.0000 0.0000 0.0000 2.8280 0.0000 29.1818
#
#
#
# Elastic Compliance Matrix: (Units=1/GPa)
#
#
# Indices 1 2 3 4 5 6 
#
# 1 0.011176 0.003151 0.000830 0.000000 -0.005513 0.000000
# 2 0.003151 0.022085 0.006034 0.000000 -0.004740 0.000000
# 3 0.000830 0.006034 0.017889 0.000000 -0.001715 0.000000
# 4 0.000000 0.000000 0.000000 0.121660 0.000000 -0.011790
# 5 -0.005513 -0.004740 -0.001715 0.000000 0.049865 0.000000
# 6 0.000000 0.000000 0.000000 -0.011790 0.000000 0.035410
#
#
# Mechanical properties :
#
#
# Convention : Reuss Voigt Hill
#
# Bulk Modulus (GPa) = 14.04881 17.20044 15.62463
# Shear Modulus (GPa) = 19.09979 27.80171 23.45075
#
# Velocity S-wave (km/s) = 2.93576 3.54194 3.25300
# Velocity P-wave (km/s) = 4.22268 4.94861 4.59999
#
# Compressibility (1/GPa) = 0.07118042
#
# Stress axis : x y z
#
# Youngs Moduli (GPa) = 89.47478 45.27899 55.89973
#
# Poissons Ratio (x) = -0.14269 -0.04639
# Poissons Ratio (y) = -0.28196 -0.33728
# Poissons Ratio (z) = -0.07425 -0.27320
#
# Static dielectric constant tensor:
#      x y z
#    x 1.907720 0.000000 -0.025690 
#    y 0.000000 1.863790 0.000000 
#    z -0.025690 0.000000 1.809930 
# 
# From -- ./inp_files/77445.got.cif
#   From: 2010.05.17/outbox.cif.g08.bks.cpg/sg14_39_cif.got.tgz:77445.got - 2010.06.03 17:49:19.
