data_PCOD9247231
_publ_section_title
;
Structure prediction by ZEFSAII (Michael W. Deem and Ramdas Pophale) SiO2 
 PCOD9247231
Probable space group: P 21/C
;
_chemical_formula_sum "Si O2"
_cell_formula_units_Z 20
_cell_length_a 7.711010
_cell_length_b 7.520891
_cell_length_c 15.475164
_cell_angle_alpha 90.000000
_cell_angle_beta 117.814846
_cell_angle_gamma 90.000000
_cell_volume 793.768877
_symmetry_space_group_name_H-M "P 21/C"
_symmetry_group_IT_number 14
_symmetry_cell_setting 'monoclinic'
loop_
_space_group_symop_operation_xyz
x,y,z
-x,1/2+y,1/2-z
-x,-y,-z
x,1/2-y,1/2+z
loop_
_atom_site_type_symbol
_atom_site_label
_atom_site_fract_x
_atom_site_fract_y
_atom_site_fract_z
Si Si1 0.770702 0.348968 0.706339
Si Si2 0.157984 0.466772 0.111097
Si Si3 0.493931 0.610079 0.587877
Si Si4 0.931264 0.375502 0.562098
Si Si5 0.569583 0.989639 0.615633
O O1 0.563310 0.456340 0.668368
O O2 0.871938 0.437029 0.645254
O O3 0.275148 0.644410 0.826552
O O4 0.876499 0.393600 0.819669
O O5 0.096935 0.267623 0.121495
O O6 0.378621 0.470638 0.128532
O O7 0.000000 0.500000 0.000000
O O8 0.500000 0.500000 0.500000
O O9 0.274739 0.688356 0.529374
O O10 0.626253 0.782523 0.636656
O O11 0.000000 0.500000 0.500000
O O12 0.500000 0.000000 0.500000
#
# Coordination Sequence:
#
# PCOD9247231 Si02
#       5
#     4   4   4   4   4
#     4  11  27  49  75 114 150 203 260 309 387 475
#     4  12  27  48  71 111 157 198 256 315 382 449
#     4  10  21  45  77 107 145 194 255 311 387 454
#     4  11  24  48  74 111 154 199 248 331 391 453
#     4  12  23  48  81 104 151 202 257 318 382 457
#
# _framework density 25.196251
#
# number of rings (size 3 to 8) (size 9 to 14) (size 15 to 20)
#    0.000    0.800    6.000    1.200    5.600    1.600 
#    7.200    0.000    0.000    0.000    0.000    0.000 
#    0.000    0.000    0.000    0.000    0.000    0.000 
#
# Total GULP energy -111619.359386 kJ/mol
# GULP energy per Si atom -5580.967969 kJ/mol
# Density = 2.513890 g / cm^3
# Si number density = 25.196251 Si / 1000 Ang^3
#
#
#
# Elastic Constant Matrix: (Units=GPa)
#
#
# Indices 1 2 3 4 5 6 
#
# 1 67.5013 45.4872 50.2038 0.0000 -26.2226 0.0000
# 2 45.4872 179.6382 51.8481 0.0000 2.2235 0.0000
# 3 50.2038 51.8481 194.7539 0.0000 -2.0285 0.0000
# 4 0.0000 0.0000 0.0000 38.7406 0.0000 6.4388
# 5 -26.2226 2.2235 -2.0285 0.0000 36.6676 0.0000
# 6 0.0000 0.0000 0.0000 6.4388 0.0000 46.4529
#
#
#
# Elastic Compliance Matrix: (Units=1/GPa)
#
#
# Indices 1 2 3 4 5 6 
#
# 1 0.033861 -0.006963 -0.006622 0.000000 0.024271 0.000000
# 2 -0.006963 0.007470 -0.000250 0.000000 -0.005446 0.000000
# 3 -0.006622 -0.000250 0.006863 0.000000 -0.004341 0.000000
# 4 0.000000 0.000000 0.000000 0.026421 0.000000 -0.003662
# 5 0.024271 -0.005446 -0.004341 0.000000 0.044720 0.000000
# 6 0.000000 0.000000 0.000000 -0.003662 0.000000 0.022035
#
#
# Mechanical properties :
#
#
# Convention : Reuss Voigt Hill
#
# Bulk Modulus (GPa) = 48.72755 81.88574 65.30665
# Shear Modulus (GPa) = 28.42828 43.99584 36.21206
#
# Velocity S-wave (km/s) = 3.36262 4.18320 3.79516
# Velocity P-wave (km/s) = 5.87005 7.47676 6.72159
#
# Compressibility (1/GPa) = 0.02052227
#
# Stress axis : x y z
#
# Youngs Moduli (GPa) = 29.53273 133.87590 145.70539
#
# Poissons Ratio (x) = 0.93220 0.96487
# Poissons Ratio (y) = 0.20564 0.03647
# Poissons Ratio (z) = 0.19557 0.03351
#
# Static dielectric constant tensor:
#      x y z
#    x 2.170950 0.000000 0.046740 
#    y 0.000000 2.830250 0.000000 
#    z 0.046740 0.000000 1.893290 
# 
# From -- ./inp_files/22798.got.cif
#   From: 2010.05.17/outbox.cif.g08.bks.cpg/sg14_12_cif.got.tgz:22798.got - 2010.06.03 17:49:19.
