data_PCOD9247536
_publ_section_title
;
Structure prediction by ZEFSAII (Michael W. Deem and Ramdas Pophale) SiO2 
 PCOD9247536
Probable space group: P 21/C
;
_chemical_formula_sum "Si O2"
_cell_formula_units_Z 32
_cell_length_a 18.042118
_cell_length_b 5.514266
_cell_length_c 14.400949
_cell_angle_alpha 90.000000
_cell_angle_beta 117.585375
_cell_angle_gamma 90.000000
_cell_volume 1269.865659
_symmetry_space_group_name_H-M "P 21/C"
_symmetry_group_IT_number 14
_symmetry_cell_setting 'monoclinic'
loop_
_space_group_symop_operation_xyz
x,y,z
-x,1/2+y,1/2-z
-x,-y,-z
x,1/2-y,1/2+z
loop_
_atom_site_type_symbol
_atom_site_label
_atom_site_fract_x
_atom_site_fract_y
_atom_site_fract_z
Si Si1 0.826742 0.392681 0.978557
Si Si2 0.464667 0.585909 0.274921
Si Si3 0.417246 0.313228 0.501926
Si Si4 0.727864 0.305127 0.585274
Si Si5 0.996931 0.313831 0.188623
Si Si6 0.681363 0.820557 0.379774
Si Si7 0.676140 0.911486 0.704732
Si Si8 0.167612 0.454985 0.214866
O O1 0.780399 0.657044 0.955133
O O2 0.834055 0.358469 0.872470
O O3 0.756733 0.259450 0.998939
O O4 0.914344 0.356877 0.078902
O O5 0.493720 0.829942 0.236847
O O6 0.495069 0.633068 0.398545
O O7 0.366336 0.528505 0.208337
O O8 0.356638 0.543482 0.466192
O O9 0.367009 0.159876 0.551226
O O10 0.406622 0.181405 0.397759
O O11 0.810942 0.430801 0.673980
O O12 0.710021 0.114383 0.656432
O O13 0.079313 0.323616 0.171597
O O14 0.998205 0.053568 0.241798
O O15 0.661307 0.582946 0.306186
O O16 0.752292 0.718461 0.748790
#
# Coordination Sequence:
#
# PCOD9247536 Si02
#       8
#     4   4   4   4   4   4   4   4
#     4  11  22  42  70  92 132 178 219 273 341 391
#     4  10  22  42  65  99 136 177 225 274 331 397
#     4  10  22  38  66  91 134 176 216 277 338 386
#     4  11  21  40  65  94 132 171 226 276 329 396
#     4  12  26  46  70 101 139 175 221 278 335 397
#     4  10  22  41  67  97 129 175 225 273 332 404
#     4  10  22  41  65  97 131 172 230 271 331 399
#     4  10  24  42  62 100 131 174 226 274 328 407
#
# _framework density 25.199514000000001
#
# number of rings (size 3 to 8) (size 9 to 14) (size 15 to 20)
#    0.000    1.500    2.500    1.875    5.250    0.500 
#    9.000    1.875    0.000    0.000    0.000    0.000 
#    0.000    0.000    0.000    0.000    0.000    0.000 
#
# Total GULP energy -178527.949348 kJ/mol
# GULP energy per Si atom -5578.998417 kJ/mol
# Density = 2.514216 g / cm^3
# Si number density = 25.199514 Si / 1000 Ang^3
#
#
#
# Elastic Constant Matrix: (Units=GPa)
#
#
# Indices 1 2 3 4 5 6 
#
# 1 98.3649 12.7379 15.8426 0.0000 15.2659 0.0000
# 2 12.7379 75.0222 29.8370 0.0000 2.1789 0.0000
# 3 15.8426 29.8370 150.1788 0.0000 23.5610 0.0000
# 4 0.0000 0.0000 0.0000 24.2579 0.0000 -5.1698
# 5 15.2659 2.1789 23.5610 0.0000 36.2315 0.0000
# 6 0.0000 0.0000 0.0000 -5.1698 0.0000 10.6456
#
#
#
# Elastic Compliance Matrix: (Units=1/GPa)
#
#
# Indices 1 2 3 4 5 6 
#
# 1 0.011105 -0.001704 -0.000128 0.000000 -0.004493 0.000000
# 2 -0.001704 0.014775 -0.003039 0.000000 0.001806 0.000000
# 3 -0.000128 -0.003039 0.008061 0.000000 -0.005005 0.000000
# 4 0.000000 0.000000 0.000000 0.045983 0.000000 0.022330
# 5 -0.004493 0.001806 -0.005005 0.000000 0.032640 0.000000
# 6 0.000000 0.000000 0.000000 0.022330 0.000000 0.104780
#
#
# Mechanical properties :
#
#
# Convention : Reuss Voigt Hill
#
# Bulk Modulus (GPa) = 41.32396 48.93344 45.12870
# Shear Modulus (GPa) = 21.26286 31.90356 26.58321
#
# Velocity S-wave (km/s) = 2.90794 3.56200 3.25146
# Velocity P-wave (km/s) = 5.26395 6.03139 5.66069
#
# Compressibility (1/GPa) = 0.02419904
#
# Stress axis : x y z
#
# Youngs Moduli (GPa) = 90.05070 67.68240 124.04968
#
# Poissons Ratio (x) = 0.11534 0.01588
# Poissons Ratio (y) = 0.15345 0.37698
# Poissons Ratio (z) = 0.01152 0.20568
#
# Static dielectric constant tensor:
#      x y z
#    x 2.072820 0.000000 -0.108160 
#    y 0.000000 2.127750 0.000000 
#    z -0.108160 0.000000 2.048470 
# 
# From -- ./inp_files/49699.got.cif
#   From: 2010.05.17/outbox.cif.g08.bks.cpg/sg14_25_cif.got.tgz:49699.got - 2010.06.03 17:49:19.
