data_PCOD9247817
_publ_section_title
;
Structure prediction by ZEFSAII (Michael W. Deem and Ramdas Pophale) SiO2 
 PCOD9247817
Probable space group: P 21/C
;
_chemical_formula_sum "Si O2"
_cell_formula_units_Z 20
_cell_length_a 22.968296
_cell_length_b 5.288462
_cell_length_c 14.895689
_cell_angle_alpha 90.000000
_cell_angle_beta 27.276541
_cell_angle_gamma 90.000000
_cell_volume 829.191900
_symmetry_space_group_name_H-M "P 21/C"
_symmetry_group_IT_number 14
_symmetry_cell_setting 'monoclinic'
loop_
_space_group_symop_operation_xyz
x,y,z
-x,1/2+y,1/2-z
-x,-y,-z
x,1/2-y,1/2+z
loop_
_atom_site_type_symbol
_atom_site_label
_atom_site_fract_x
_atom_site_fract_y
_atom_site_fract_z
Si Si1 0.706084 0.493529 0.088616
Si Si2 0.109513 0.611925 0.999211
Si Si3 0.044957 0.388589 0.533446
Si Si4 0.266162 0.576498 0.151027
Si Si5 0.542955 0.994915 0.337794
O O1 0.641401 0.767732 0.185418
O O2 0.500000 0.000000 0.500000
O O3 0.603458 0.267059 0.235041
O O4 0.768045 0.457851 0.905893
O O5 0.011455 0.391332 0.107720
O O6 0.037186 0.879344 0.112699
O O7 0.196288 0.547310 0.964403
O O8 0.198272 0.136368 0.805133
O O9 0.202401 0.817635 0.287240
O O10 0.000000 0.500000 0.500000
O O11 0.416372 0.561067 0.954553
#
# Coordination Sequence:
#
# PCOD9247817 Si02
#       5
#     4   4   4   4   4
#     4  12  24  39  61  94 128 166 205 253 304 378
#     4  10  22  40  63  87 125 156 208 251 316 358
#     4  10  22  43  65  87 119 161 206 265 313 360
#     4  10  25  37  64  91 125 164 211 251 306 374
#     4  12  23  39  61  89 131 167 203 249 310 366
#
# _framework density 24.119869999999999
#
# number of rings (size 3 to 8) (size 9 to 14) (size 15 to 20)
#    1.200    0.000    2.000    4.800    5.600    0.000 
#    0.000    2.000    0.000    0.000    0.000    0.000 
#    0.000    0.000    0.000    0.000    0.000    0.000 
#
# Total GULP energy -111735.388887 kJ/mol
# GULP energy per Si atom -5586.769444 kJ/mol
# Density = 2.406497 g / cm^3
# Si number density = 24.119870 Si / 1000 Ang^3
#
#
#
# Elastic Constant Matrix: (Units=GPa)
#
#
# Indices 1 2 3 4 5 6 
#
# 1 144.5382 12.7239 11.5641 0.0000 8.1303 0.0000
# 2 12.7239 106.7017 7.3484 0.0000 6.8001 0.0000
# 3 11.5641 7.3484 65.9748 0.0000 20.7786 0.0000
# 4 0.0000 0.0000 0.0000 27.1508 0.0000 -9.2364
# 5 8.1303 6.8001 20.7786 0.0000 47.7350 0.0000
# 6 0.0000 0.0000 0.0000 -9.2364 0.0000 21.3660
#
#
#
# Elastic Compliance Matrix: (Units=1/GPa)
#
#
# Indices 1 2 3 4 5 6 
#
# 1 0.007098 -0.000737 -0.000944 0.000000 -0.000693 0.000000
# 2 -0.000737 0.009565 -0.000633 0.000000 -0.000961 0.000000
# 3 -0.000944 -0.000633 0.017747 0.000000 -0.007474 0.000000
# 4 0.000000 0.000000 0.000000 0.043182 0.000000 0.018667
# 5 -0.000693 -0.000961 -0.007474 0.000000 0.024457 0.000000
# 6 0.000000 0.000000 0.000000 0.018667 0.000000 0.054873
#
#
# Mechanical properties :
#
#
# Convention : Reuss Voigt Hill
#
# Bulk Modulus (GPa) = 33.57815 42.27641 37.92728
# Shear Modulus (GPa) = 29.15828 38.28892 33.72360
#
# Velocity S-wave (km/s) = 3.48068 3.98860 3.74326
# Velocity P-wave (km/s) = 5.48681 6.22716 5.86867
#
# Compressibility (1/GPa) = 0.02978127
#
# Stress axis : x y z
#
# Youngs Moduli (GPa) = 140.88512 104.55091 56.34676
#
# Poissons Ratio (x) = 0.07708 0.05318
# Poissons Ratio (y) = 0.10387 0.03569
# Poissons Ratio (z) = 0.13296 0.06622
#
# Static dielectric constant tensor:
#      x y z
#    x 2.031970 0.000000 -0.169680 
#    y 0.000000 1.987480 0.000000 
#    z -0.169680 0.000000 2.177970 
# 
# From -- ./inp_files/50957.got.cif
#   From: 2010.05.17/outbox.cif.g08.bks.cpg/sg14_26_cif.got.tgz:50957.got - 2010.06.03 17:49:19.
