data_PCOD9247435
_publ_section_title
;
Structure prediction by ZEFSAII (Michael W. Deem and Ramdas Pophale) SiO2 
 PCOD9247435
Probable space group: P 21/C
;
_chemical_formula_sum "Si O2"
_cell_formula_units_Z 32
_cell_length_a 16.242466
_cell_length_b 8.797902
_cell_length_c 25.631089
_cell_angle_alpha 90.000000
_cell_angle_beta 153.149247
_cell_angle_gamma 90.000000
_cell_volume 1654.312263
_symmetry_space_group_name_H-M "P 21/C"
_symmetry_group_IT_number 14
_symmetry_cell_setting 'monoclinic'
loop_
_space_group_symop_operation_xyz
x,y,z
-x,1/2+y,1/2-z
-x,-y,-z
x,1/2-y,1/2+z
loop_
_atom_site_type_symbol
_atom_site_label
_atom_site_fract_x
_atom_site_fract_y
_atom_site_fract_z
Si Si1 0.533468 0.481530 0.297705
Si Si2 0.998533 0.135164 0.580925
Si Si3 0.486621 0.944887 0.933312
Si Si4 0.131941 0.852965 0.077048
Si Si5 0.632554 0.453116 0.904547
Si Si6 0.872958 0.298798 0.818454
Si Si7 0.619252 0.715398 0.698027
Si Si8 0.732870 0.792363 0.992109
O O1 0.691272 0.392638 0.356556
O O2 0.415281 0.549214 0.183951
O O3 0.407902 0.372530 0.261955
O O4 0.636089 0.601496 0.393324
O O5 0.171687 0.226339 0.699509
O O6 0.962312 0.209519 0.504398
O O7 0.817358 0.144725 0.513064
O O8 0.054359 0.958315 0.615555
O O9 0.301227 0.849560 0.814585
O O10 0.654726 0.851702 0.003044
O O11 0.476456 0.102079 0.895614
O O12 0.500000 0.000000 0.000000
O O13 0.181482 0.806686 0.163684
O O14 0.000000 0.000000 0.000000
O O15 0.474810 0.374914 0.847733
O O16 0.665872 0.622653 0.942098
O O17 0.047393 0.219142 0.889484
#
# Coordination Sequence:
#
# PCOD9247435 Si02
#       8
#     4   4   4   4   4   4   4   4
#     4  11  21  33  53  86 128 166 193 231 294 374
#     4  10  23  34  53  82 125 163 197 238 295 367
#     4  10  23  45  67  84 114 158 211 268 317 355
#     4  12  21  33  54  89 130 162 198 235 290 376
#     4  11  21  35  56  86 126 160 196 241 296 374
#     4  10  22  39  61  88 121 163 203 251 310 373
#     4  10  22  38  57  84 117 159 204 245 304 365
#     4  10  22  39  60  88 123 160 203 253 308 369
#
# _framework density 19.343385999999999
#
# number of rings (size 3 to 8) (size 9 to 14) (size 15 to 20)
#    0.000    1.500    2.500    2.625    8.750    0.000 
#    0.000    4.375    0.000    0.000    0.000    0.000 
#    0.000    0.000    0.000    0.000    0.000    0.000 
#
# Total GULP energy -178624.399869 kJ/mol
# GULP energy per Si atom -5582.012496 kJ/mol
# Density = 1.929936 g / cm^3
# Si number density = 19.343386 Si / 1000 Ang^3
#
#
#
# Elastic Constant Matrix: (Units=GPa)
#
#
# Indices 1 2 3 4 5 6 
#
# 1 112.0295 47.6704 48.0511 0.0000 -2.2729 0.0000
# 2 47.6704 58.5538 42.8338 0.0000 2.7658 0.0000
# 3 48.0511 42.8338 57.6986 0.0000 5.8476 0.0000
# 4 0.0000 0.0000 0.0000 22.5233 0.0000 7.0653
# 5 -2.2729 2.7658 5.8476 0.0000 26.8378 0.0000
# 6 0.0000 0.0000 0.0000 7.0653 0.0000 26.6859
#
#
#
# Elastic Compliance Matrix: (Units=1/GPa)
#
#
# Indices 1 2 3 4 5 6 
#
# 1 0.015373 -0.006672 -0.008234 0.000000 0.003783 0.000000
# 2 -0.006672 0.040404 -0.024500 0.000000 0.000609 0.000000
# 3 -0.008234 -0.024500 0.043144 0.000000 -0.007573 0.000000
# 4 0.000000 0.000000 0.000000 0.048420 0.000000 -0.012819
# 5 0.003783 0.000609 -0.007573 0.000000 0.039169 0.000000
# 6 0.000000 0.000000 0.000000 -0.012819 0.000000 0.040867
#
#
# Mechanical properties :
#
#
# Convention : Reuss Voigt Hill
#
# Bulk Modulus (GPa) = 49.72548 56.15474 52.94011
# Shear Modulus (GPa) = 15.98001 21.19116 18.58558
#
# Velocity S-wave (km/s) = 2.87735 3.31346 3.10308
# Velocity P-wave (km/s) = 6.06642 6.61303 6.34561
#
# Compressibility (1/GPa) = 0.02011041
#
# Stress axis : x y z
#
# Youngs Moduli (GPa) = 65.04782 24.75017 23.17809
#
# Poissons Ratio (x) = 0.16512 0.19084
# Poissons Ratio (y) = 0.43397 0.56787
# Poissons Ratio (z) = 0.53557 0.60639
#
# Static dielectric constant tensor:
#      x y z
#    x 1.670840 0.000000 0.044760 
#    y 0.000000 1.698700 0.000000 
#    z 0.044760 0.000000 1.732050 
# 
# From -- ./inp_files/73761.got.cif
#   From: 2010.05.17/outbox.cif.g08.bks.cpg/sg14_37_cif.got.tgz:73761.got - 2010.06.03 17:49:19.
