data_PCOD9247115
_publ_section_title
;
Structure prediction by ZEFSAII (Michael W. Deem and Ramdas Pophale) SiO2 
 PCOD9247115
Probable space group: P 21/C
;
_chemical_formula_sum "Si O2"
_cell_formula_units_Z 32
_cell_length_a 8.022970
_cell_length_b 24.051304
_cell_length_c 13.133705
_cell_angle_alpha 90.000000
_cell_angle_beta 147.945953
_cell_angle_gamma 90.000000
_cell_volume 1345.010520
_symmetry_space_group_name_H-M "P 21/C"
_symmetry_group_IT_number 14
_symmetry_cell_setting 'monoclinic'
loop_
_space_group_symop_operation_xyz
x,y,z
-x,1/2+y,1/2-z
-x,-y,-z
x,1/2-y,1/2+z
loop_
_atom_site_type_symbol
_atom_site_label
_atom_site_fract_x
_atom_site_fract_y
_atom_site_fract_z
Si Si1 0.986009 0.298762 0.297792
Si Si2 0.154008 0.513917 0.362658
Si Si3 0.599848 0.786458 0.370685
Si Si4 0.201380 0.104184 0.211940
Si Si5 0.760299 0.596079 0.493164
Si Si6 0.554336 0.213995 0.387196
Si Si7 0.899547 0.366376 0.917065
Si Si8 0.151947 0.963392 0.487070
O O1 0.739777 0.297796 0.262224
O O2 0.261669 0.260164 0.481951
O O3 0.112581 0.361807 0.355837
O O4 0.810611 0.276006 0.107190
O O5 0.500000 0.500000 0.500000
O O6 0.126228 0.466407 0.433577
O O7 0.061898 0.573700 0.358534
O O8 0.926535 0.497016 0.153748
O O9 0.599889 0.765827 0.252312
O O10 0.813507 0.841061 0.493931
O O11 0.106451 0.114924 0.046589
O O12 0.331092 0.164252 0.314818
O O13 0.490387 0.059490 0.345226
O O14 0.378679 0.601942 0.288082
O O15 0.722473 0.184668 0.378104
O O16 0.011771 0.405180 0.067726
O O17 0.000000 0.000000 0.500000
#
# Coordination Sequence:
#
# PCOD9247115 Si02
#       8
#     4   4   4   4   4   4   4   4
#     4  12  24  41  69  96 128 180 220 276 348 397
#     4  12  24  39  67 103 135 176 233 276 342 414
#     4  12  24  44  65  98 133 171 230 280 331 414
#     4  10  22  43  66  92 139 180 215 284 339 403
#     4  10  21  44  65  96 136 171 221 280 342 404
#     4  10  23  43  67  93 135 171 226 274 337 400
#     4  10  22  44  66  89 138 172 215 285 332 397
#     4  10  22  42  65  94 134 178 223 276 338 401
#
# _framework density 23.791634999999999
#
# number of rings (size 3 to 8) (size 9 to 14) (size 15 to 20)
#    0.000    1.500    3.750    3.750    1.750    4.000 
#    2.250    0.000    0.000    0.000    0.000    0.000 
#    0.000    0.000    0.000    0.000    0.000    0.000 
#
# Total GULP energy -178521.979927 kJ/mol
# GULP energy per Si atom -5578.811873 kJ/mol
# Density = 2.373748 g / cm^3
# Si number density = 23.791635 Si / 1000 Ang^3
#
#
#
# Elastic Constant Matrix: (Units=GPa)
#
#
# Indices 1 2 3 4 5 6 
#
# 1 59.8098 11.7622 27.9350 0.0000 2.7044 0.0000
# 2 11.7622 36.1291 32.6338 0.0000 2.3926 0.0000
# 3 27.9350 32.6338 94.7664 0.0000 -25.8782 0.0000
# 4 0.0000 0.0000 0.0000 33.0563 0.0000 14.7904
# 5 2.7044 2.3926 -25.8782 0.0000 42.8018 0.0000
# 6 0.0000 0.0000 0.0000 14.7904 0.0000 17.7017
#
#
#
# Elastic Compliance Matrix: (Units=1/GPa)
#
#
# Indices 1 2 3 4 5 6 
#
# 1 0.020607 0.001089 -0.008170 0.000000 -0.006303 0.000000
# 2 0.001089 0.046971 -0.020639 0.000000 -0.015173 0.000000
# 3 -0.008170 -0.020639 0.024583 0.000000 0.016533 0.000000
# 4 0.000000 0.000000 0.000000 0.048313 0.000000 -0.040367
# 5 -0.006303 -0.015173 0.016533 0.000000 0.034606 0.000000
# 6 0.000000 0.000000 0.000000 -0.040367 0.000000 0.090220
#
#
# Mechanical properties :
#
#
# Convention : Reuss Voigt Hill
#
# Bulk Modulus (GPa) = 27.23417 37.26305 32.24861
# Shear Modulus (GPa) = 15.01587 26.60358 20.80973
#
# Velocity S-wave (km/s) = 2.51498 3.34756 2.96068
# Velocity P-wave (km/s) = 4.46153 5.53514 5.02708
#
# Compressibility (1/GPa) = 0.03671858
#
# Stress axis : x y z
#
# Youngs Moduli (GPa) = 48.52806 21.28951 40.67895
#
# Poissons Ratio (x) = -0.02317 0.33236
# Poissons Ratio (y) = -0.05283 0.83959
# Poissons Ratio (z) = 0.39649 0.43940
#
# Static dielectric constant tensor:
#      x y z
#    x 1.925630 0.000000 0.011530 
#    y 0.000000 2.071650 0.000000 
#    z 0.011530 0.000000 1.978440 
# 
# From -- ./inp_files/42242.got.cif
#   From: 2010.05.17/outbox.cif.g08.bks.cpg/sg14_22_cif.got.tgz:42242.got - 2010.06.03 17:49:19.
