data_PCOD9247686
_publ_section_title
;
Structure prediction by ZEFSAII (Michael W. Deem and Ramdas Pophale) SiO2 
 PCOD9247686
Probable space group: P 21/C
;
_chemical_formula_sum "Si O2"
_cell_formula_units_Z 28
_cell_length_a 5.159775
_cell_length_b 22.449484
_cell_length_c 12.115358
_cell_angle_alpha 90.000000
_cell_angle_beta 111.962096
_cell_angle_gamma 90.000000
_cell_volume 1301.533074
_symmetry_space_group_name_H-M "P 21/C"
_symmetry_group_IT_number 14
_symmetry_cell_setting 'monoclinic'
loop_
_space_group_symop_operation_xyz
x,y,z
-x,1/2+y,1/2-z
-x,-y,-z
x,1/2-y,1/2+z
loop_
_atom_site_type_symbol
_atom_site_label
_atom_site_fract_x
_atom_site_fract_y
_atom_site_fract_z
Si Si1 0.571457 0.008047 0.199004
Si Si2 0.759140 0.401015 0.917791
Si Si3 0.986332 0.067552 0.102969
Si Si4 0.350036 0.208191 0.817356
Si Si5 0.088660 0.855215 0.122666
Si Si6 0.178637 0.342930 0.823919
Si Si7 0.081544 0.396850 0.185707
O O1 0.245404 0.022121 0.138721
O O2 0.689250 0.045506 0.322844
O O3 0.723996 0.035356 0.116409
O O4 0.679811 0.941393 0.233581
O O5 0.937185 0.418909 0.052476
O O6 0.938297 0.353109 0.876078
O O7 0.466267 0.373300 0.909614
O O8 0.082001 0.120020 0.201547
O O9 0.925049 0.098954 0.978443
O O10 0.210367 0.176322 0.902183
O O11 0.252517 0.275659 0.804318
O O12 0.209963 0.169508 0.696254
O O13 0.676245 0.194197 0.862264
O O14 0.134133 0.888569 0.247105
#
# Coordination Sequence:
#
# PCOD9247686 Si02
#       7
#     4   4   4   4   4   4   4
#     4  10  22  39  65  88 119 158 202 247 299 355
#     4  10  22  40  63  89 119 158 199 251 299 357
#     4  10  22  41  61  87 117 162 201 247 294 359
#     4  10  23  39  57  90 119 157 201 247 298 355
#     4  10  23  40  56  90 119 157 198 241 303 350
#     4  10  22  40  62  86 115 158 207 241 301 353
#     4  10  25  39  61  93 125 153 200 245 309 349
#
# _framework density 21.513093999999999
#
# number of rings (size 3 to 8) (size 9 to 14) (size 15 to 20)
#    0.857    1.143    0.000    2.143    4.000    3.429 
#    0.000    4.286    0.000    0.000    0.000    0.000 
#    0.000    0.000    0.000    0.000    0.000    0.000 
#
# Total GULP energy -156418.252932 kJ/mol
# GULP energy per Si atom -5586.366176 kJ/mol
# Density = 2.146413 g / cm^3
# Si number density = 21.513094 Si / 1000 Ang^3
#
#
#
# Elastic Constant Matrix: (Units=GPa)
#
#
# Indices 1 2 3 4 5 6 
#
# 1 76.5569 0.8001 9.7367 0.0000 -3.0825 0.0000
# 2 0.8001 85.5264 4.6172 0.0000 2.3586 0.0000
# 3 9.7367 4.6172 65.5474 0.0000 -1.8702 0.0000
# 4 0.0000 0.0000 0.0000 10.9470 0.0000 -0.6818
# 5 -3.0825 2.3586 -1.8702 0.0000 19.6390 0.0000
# 6 0.0000 0.0000 0.0000 -0.6818 0.0000 15.2017
#
#
#
# Elastic Compliance Matrix: (Units=1/GPa)
#
#
# Indices 1 2 3 4 5 6 
#
# 1 0.013386 -0.000074 -0.001928 0.000000 0.001926 0.000000
# 2 -0.000074 0.011781 -0.000862 0.000000 -0.001509 0.000000
# 3 -0.001928 -0.000862 0.015640 0.000000 0.001290 0.000000
# 4 0.000000 0.000000 0.000000 0.091605 0.000000 0.004109
# 5 0.001926 -0.001509 0.001290 0.000000 0.051525 0.000000
# 6 0.000000 0.000000 0.000000 0.004109 0.000000 0.065967
#
#
# Mechanical properties :
#
#
# Convention : Reuss Voigt Hill
#
# Bulk Modulus (GPa) = 28.50764 28.65985 28.58374
# Shear Modulus (GPa) = 18.70381 23.32265 21.01323
#
# Velocity S-wave (km/s) = 2.95178 3.29616 3.12871
# Velocity P-wave (km/s) = 4.98973 5.27610 5.13491
#
# Compressibility (1/GPa) = 0.03507832
#
# Stress axis : x y z
#
# Youngs Moduli (GPa) = 74.70626 84.88151 63.93823
#
# Poissons Ratio (x) = 0.00630 0.12329
# Poissons Ratio (y) = 0.00555 0.05511
# Poissons Ratio (z) = 0.14405 0.07316
#
# Static dielectric constant tensor:
#      x y z
#    x 1.776240 0.000000 -0.000260 
#    y 0.000000 1.772970 0.000000 
#    z -0.000260 0.000000 1.758650 
# 
# From -- ./inp_files/22007.got.cif
#   From: 2010.05.17/outbox.cif.g08.bks.cpg/sg14_12_cif.got.tgz:22007.got - 2010.06.03 17:49:19.
