data_PCOD9247511
_publ_section_title
;
Structure prediction by ZEFSAII (Michael W. Deem and Ramdas Pophale) SiO2 
 PCOD9247511
Probable space group: P 21/C
;
_chemical_formula_sum "Si O2"
_cell_formula_units_Z 16
_cell_length_a 5.771273
_cell_length_b 9.356677
_cell_length_c 10.017829
_cell_angle_alpha 90.000000
_cell_angle_beta 106.152905
_cell_angle_gamma 90.000000
_cell_volume 519.606404
_symmetry_space_group_name_H-M "P 21/C"
_symmetry_group_IT_number 14
_symmetry_cell_setting 'monoclinic'
loop_
_space_group_symop_operation_xyz
x,y,z
-x,1/2+y,1/2-z
-x,-y,-z
x,1/2-y,1/2+z
loop_
_atom_site_type_symbol
_atom_site_label
_atom_site_fract_x
_atom_site_fract_y
_atom_site_fract_z
Si Si1 0.713226 0.402651 0.898852
Si Si2 0.827678 0.274357 0.650732
Si Si3 0.595161 0.643304 0.694681
Si Si4 0.723626 0.900828 0.938633
O O1 0.874596 0.322635 0.811503
O O2 0.679881 0.564492 0.843509
O O3 0.466570 0.308838 0.839175
O O4 0.795697 0.375680 0.063513
O O5 0.545141 0.327800 0.599486
O O6 0.055930 0.336407 0.606268
O O7 0.345476 0.557272 0.627019
O O8 0.773826 0.595055 0.605443
#
# Coordination Sequence:
#
# PCOD9247511 Si02
#       4
#     4   4   4   4
#     4  10  22  38  64  92 124 162 204 252 304 360
#     4  10  22  40  63  90 121 160 205 250 299 360
#     4   9  20  39  64  92 122 160 206 252 300 360
#     4   9  20  40  63  84 119 172 207 228 295 392
#
# _framework density 30.792538
#
# number of rings (size 3 to 8) (size 9 to 14) (size 15 to 20)
#    0.000    2.500    0.000    1.500    0.000   25.000 
#    0.000    0.000    0.000   18.000    0.000    0.000 
#    0.000    0.000    0.000    0.000    0.000    0.000 
#
# Total GULP energy -89171.865460 kJ/mol
# GULP energy per Si atom -5573.241591 kJ/mol
# Density = 3.072245 g / cm^3
# Si number density = 30.792538 Si / 1000 Ang^3
#
#
#
# Elastic Constant Matrix: (Units=GPa)
#
#
# Indices 1 2 3 4 5 6 
#
# 1 225.5634 64.6124 34.4263 0.0000 -14.0710 0.0000
# 2 64.6124 134.6555 13.2420 0.0000 13.2929 0.0000
# 3 34.4263 13.2420 75.1644 0.0000 -36.8101 0.0000
# 4 0.0000 0.0000 0.0000 49.5822 0.0000 -0.2509
# 5 -14.0710 13.2929 -36.8101 0.0000 64.1421 0.0000
# 6 0.0000 0.0000 0.0000 -0.2509 0.0000 64.9035
#
#
#
# Elastic Compliance Matrix: (Units=1/GPa)
#
#
# Indices 1 2 3 4 5 6 
#
# 1 0.005462 -0.002530 -0.001687 0.000000 0.000755 0.000000
# 2 -0.002530 0.009246 -0.002337 0.000000 -0.003813 0.000000
# 3 -0.001687 -0.002337 0.020230 0.000000 0.011724 0.000000
# 4 0.000000 0.000000 0.000000 0.020169 0.000000 0.000078
# 5 0.000755 -0.003813 0.011724 0.000000 0.023274 0.000000
# 6 0.000000 0.000000 0.000000 0.000078 0.000000 0.015408
#
#
# Mechanical properties :
#
#
# Convention : Reuss Voigt Hill
#
# Bulk Modulus (GPa) = 45.80571 73.32720 59.56645
# Shear Modulus (GPa) = 43.79240 57.26572 50.52906
#
# Velocity S-wave (km/s) = 3.77527 4.31713 4.05526
# Velocity P-wave (km/s) = 5.82335 6.97963 6.42754
#
# Compressibility (1/GPa) = 0.02183134
#
# Stress axis : x y z
#
# Youngs Moduli (GPa) = 183.06707 108.14962 49.43116
#
# Poissons Ratio (x) = 0.27359 0.08337
# Poissons Ratio (y) = 0.46311 0.11555
# Poissons Ratio (z) = 0.30877 0.25280
#
# Static dielectric constant tensor:
#      x y z
#    x 2.265860 0.000000 0.078480 
#    y 0.000000 2.598710 0.000000 
#    z 0.078480 0.000000 2.895110 
# 
# From -- ./inp_files/20330.got.cif
#   From: 2010.05.17/outbox.cif.g08.bks.cpg/sg14_11_cif.got.tgz:20330.got - 2010.06.03 17:49:19.
