data_PCOD9247500
_publ_section_title
;
Structure prediction by ZEFSAII (Michael W. Deem and Ramdas Pophale) SiO2 
 PCOD9247500
Probable space group: P 21/C
;
_chemical_formula_sum "Si O2"
_cell_formula_units_Z 24
_cell_length_a 13.412221
_cell_length_b 4.907664
_cell_length_c 21.722879
_cell_angle_alpha 90.000000
_cell_angle_beta 43.440903
_cell_angle_gamma 90.000000
_cell_volume 983.178976
_symmetry_space_group_name_H-M "P 21/C"
_symmetry_group_IT_number 14
_symmetry_cell_setting 'monoclinic'
loop_
_space_group_symop_operation_xyz
x,y,z
-x,1/2+y,1/2-z
-x,-y,-z
x,1/2-y,1/2+z
loop_
_atom_site_type_symbol
_atom_site_label
_atom_site_fract_x
_atom_site_fract_y
_atom_site_fract_z
Si Si1 0.138744 0.950111 0.245667
Si Si2 0.537097 0.479320 0.773291
Si Si3 0.308420 0.225814 0.469978
Si Si4 0.146915 0.928951 0.856202
Si Si5 0.802432 0.948413 0.354788
Si Si6 0.861466 0.269823 0.498638
O O1 0.160576 0.814204 0.301562
O O2 0.216614 0.751888 0.161007
O O3 0.966652 0.934328 0.308129
O O4 0.196299 0.247518 0.203987
O O5 0.545818 0.225647 0.722271
O O6 0.453430 0.366146 0.870151
O O7 0.699260 0.579276 0.711849
O O8 0.302531 0.153515 0.544409
O O9 0.261977 0.533322 0.475146
O O10 0.182168 0.037273 0.496374
O O11 0.124822 0.813056 0.934765
O O12 0.011729 0.124473 0.902325
#
# Coordination Sequence:
#
# PCOD9247500 Si02
#       6
#     4   4   4   4   4   4
#     4  10  22  38  63  92 130 166 217 273 314 383
#     4  12  25  44  63  96 138 179 210 265 343 403
#     4  12  22  45  65  97 133 175 220 266 335 397
#     4  11  24  43  65 104 133 169 223 274 333 386
#     4  10  22  39  62  92 128 171 215 266 326 372
#     4  11  25  38  70  99 132 164 223 282 327 387
#
# _framework density 24.410613000000001
#
# number of rings (size 3 to 8) (size 9 to 14) (size 15 to 20)
#    0.000    1.000    5.000    1.000    4.667    6.667 
#    0.000    1.667    0.000    0.000    0.000    0.000 
#    0.000    0.000    0.000    0.000    0.000    0.000 
#
# Total GULP energy -134548.610447 kJ/mol
# GULP energy per Si atom -5606.192102 kJ/mol
# Density = 2.435505 g / cm^3
# Si number density = 24.410613 Si / 1000 Ang^3
#
#
#
# Elastic Constant Matrix: (Units=GPa)
#
#
# Indices 1 2 3 4 5 6 
#
# 1 37.7354 1.2978 20.8457 0.0000 11.7047 0.0000
# 2 1.2978 64.6706 -4.7546 0.0000 -1.2578 0.0000
# 3 20.8457 -4.7546 142.5766 0.0000 10.6959 0.0000
# 4 0.0000 0.0000 0.0000 24.1725 0.0000 2.6979
# 5 11.7047 -1.2578 10.6959 0.0000 38.6851 0.0000
# 6 0.0000 0.0000 0.0000 2.6979 0.0000 27.9674
#
#
#
# Elastic Compliance Matrix: (Units=1/GPa)
#
#
# Indices 1 2 3 4 5 6 
#
# 1 0.031352 -0.001086 -0.003989 0.000000 -0.008419 0.000000
# 2 -0.001086 0.015544 0.000628 0.000000 0.000660 0.000000
# 3 -0.003989 0.000628 0.007685 0.000000 -0.000898 0.000000
# 4 0.000000 0.000000 0.000000 0.041820 0.000000 -0.004034
# 5 -0.008419 0.000660 -0.000898 0.000000 0.028667 0.000000
# 6 0.000000 0.000000 0.000000 -0.004034 0.000000 0.036145
#
#
# Mechanical properties :
#
#
# Convention : Reuss Voigt Hill
#
# Bulk Modulus (GPa) = 21.88806 31.08449 26.48627
# Shear Modulus (GPa) = 26.97805 33.33792 30.15799
#
# Velocity S-wave (km/s) = 3.32803 3.69957 3.51870
# Velocity P-wave (km/s) = 4.87378 5.56873 5.23280
#
# Compressibility (1/GPa) = 0.04568701
#
# Stress axis : x y z
#
# Youngs Moduli (GPa) = 31.89554 64.33445 130.12015
#
# Poissons Ratio (x) = 0.06988 0.51900
# Poissons Ratio (y) = 0.03464 -0.08166
# Poissons Ratio (z) = 0.12722 -0.04038
#
# Static dielectric constant tensor:
#      x y z
#    x 1.918140 0.000000 0.002540 
#    y 0.000000 1.883770 0.000000 
#    z 0.002540 0.000000 1.958520 
# 
# From -- ./inp_files/73467.got.cif
#   From: 2010.05.17/outbox.cif.g08.bks.cpg/sg14_37_cif.got.tgz:73467.got - 2010.06.03 17:49:19.
