data_PCOD9247589
_publ_section_title
;
Structure prediction by ZEFSAII (Michael W. Deem and Ramdas Pophale) SiO2 
 PCOD9247589
Probable space group: P 21/C
;
_chemical_formula_sum "Si O2"
_cell_formula_units_Z 32
_cell_length_a 13.992737
_cell_length_b 11.604364
_cell_length_c 17.801918
_cell_angle_alpha 90.000000
_cell_angle_beta 144.866675
_cell_angle_gamma 90.000000
_cell_volume 1663.496197
_symmetry_space_group_name_H-M "P 21/C"
_symmetry_group_IT_number 14
_symmetry_cell_setting 'monoclinic'
loop_
_space_group_symop_operation_xyz
x,y,z
-x,1/2+y,1/2-z
-x,-y,-z
x,1/2-y,1/2+z
loop_
_atom_site_type_symbol
_atom_site_label
_atom_site_fract_x
_atom_site_fract_y
_atom_site_fract_z
Si Si1 0.334751 0.458089 0.851927
Si Si2 0.757300 0.758532 0.929209
Si Si3 0.917895 0.897074 0.403064
Si Si4 0.018995 0.484270 0.423036
Si Si5 0.807379 0.769237 0.625762
Si Si6 0.502845 0.283572 0.855068
Si Si7 0.114784 0.766986 0.916243
Si Si8 0.371839 0.094072 0.889882
O O1 0.256901 0.362894 0.856681
O O2 0.407436 0.396789 0.824286
O O3 0.171624 0.534761 0.728891
O O4 0.500000 0.500000 0.000000
O O5 0.845144 0.689081 0.918802
O O6 0.572672 0.768143 0.776756
O O7 0.765776 0.696844 0.014705
O O8 0.856100 0.877641 0.007501
O O9 0.778526 0.949992 0.258446
O O10 0.032327 0.818196 0.424025
O O11 0.000000 0.000000 0.500000
O O12 0.093396 0.601703 0.433612
O O13 0.000000 0.500000 0.500000
O O14 0.709787 0.655558 0.590235
O O15 0.002104 0.756698 0.768928
O O16 0.454400 0.187156 0.886314
O O17 0.699946 0.276417 0.978102
O O18 0.500000 0.000000 0.000000
#
# Coordination Sequence:
#
# PCOD9247589 Si02
#       8
#     4   4   4   4   4   4   4   4
#     4  10  22  41  61  89 125 157 199 255 305 353
#     4  11  22  41  63  90 120 158 205 247 299 362
#     4  10  22  41  59  84 123 157 191 248 305 354
#     4  11  20  41  68  84 118 167 204 246 305 370
#     4   9  22  40  58  87 122 152 200 247 296 362
#     4  10  22  39  60  88 121 152 199 253 291 354
#     4  10  22  41  60  88 120 158 201 247 304 358
#     4   9  20  40  59  81 117 157 194 237 292 354
#
# _framework density 19.236594
#
# number of rings (size 3 to 8) (size 9 to 14) (size 15 to 20)
#    0.000    2.000    2.500    1.500    3.500    4.000 
#    9.000    0.000    0.000    0.000    0.000    0.000 
#    0.000    0.000    0.000    0.000    0.000    0.000 
#
# Total GULP energy -178342.190397 kJ/mol
# GULP energy per Si atom -5573.193450 kJ/mol
# Density = 1.919281 g / cm^3
# Si number density = 19.236594 Si / 1000 Ang^3
#
#
#
# Elastic Constant Matrix: (Units=GPa)
#
#
# Indices 1 2 3 4 5 6 
#
# 1 64.5195 -13.2126 49.1685 0.0000 -3.4166 0.0000
# 2 -13.2126 50.5970 26.3201 0.0000 10.2837 0.0000
# 3 49.1685 26.3201 149.5212 0.0000 16.7568 0.0000
# 4 0.0000 0.0000 0.0000 32.6457 0.0000 -5.1917
# 5 -3.4166 10.2837 16.7568 0.0000 37.6021 0.0000
# 6 0.0000 0.0000 0.0000 -5.1917 0.0000 -7.9669
#
#
#
# Elastic Compliance Matrix: (Units=1/GPa)
#
#
# Indices 1 2 3 4 5 6 
#
# 1 0.026960 0.012150 -0.011480 0.000000 0.004243 0.000000
# 2 0.012150 0.027968 -0.008615 0.000000 -0.002706 0.000000
# 3 -0.011480 -0.008615 0.012454 0.000000 -0.004237 0.000000
# 4 0.000000 0.000000 0.000000 0.027755 0.000000 -0.018087
# 5 0.004243 -0.002706 -0.004237 0.000000 0.029608 0.000000
# 6 0.000000 0.000000 0.000000 -0.018087 0.000000 -0.113733
#
#
# Mechanical properties :
#
#
# Convention : Reuss Voigt Hill
#
# Bulk Modulus (GPa) = 19.42043 43.24330 31.33187
# Shear Modulus (GPa) = 113.46029 25.94696 69.70363
#
# Velocity S-wave (km/s) = 7.68827 3.67663 6.02607
# Velocity P-wave (km/s) = 9.43028 6.36805 8.04619
#
# Compressibility (1/GPa) = 0.05149216
#
# Stress axis : x y z
#
# Youngs Moduli (GPa) = 37.09150 35.75484 80.29283
#
# Poissons Ratio (x) = -0.43441 0.92175
# Poissons Ratio (y) = -0.45065 0.69175
# Poissons Ratio (z) = 0.42580 0.30804
#
# Static dielectric constant tensor:
#      x y z
#    x 1.657290 0.000000 0.020640 
#    y 0.000000 1.629350 0.000000 
#    z 0.020640 0.000000 1.684930 
# 
# From -- ./inp_files/59495.got.cif
#   From: 2010.05.17/outbox.cif.g08.bks.cpg/sg14_30_cif.got.tgz:59495.got - 2010.06.03 17:49:19.
