data_PCOD9247107
_publ_section_title
;
Structure prediction by ZEFSAII (Michael W. Deem and Ramdas Pophale) SiO2 
 PCOD9247107
Probable space group: P 21/C
;
_chemical_formula_sum "Si O2"
_cell_formula_units_Z 32
_cell_length_a 9.728783
_cell_length_b 11.680764
_cell_length_c 32.871896
_cell_angle_alpha 90.000000
_cell_angle_beta 154.719752
_cell_angle_gamma 90.000000
_cell_volume 1595.252186
_symmetry_space_group_name_H-M "P 21/C"
_symmetry_group_IT_number 14
_symmetry_cell_setting 'monoclinic'
loop_
_space_group_symop_operation_xyz
x,y,z
-x,1/2+y,1/2-z
-x,-y,-z
x,1/2-y,1/2+z
loop_
_atom_site_type_symbol
_atom_site_label
_atom_site_fract_x
_atom_site_fract_y
_atom_site_fract_z
Si Si1 0.686441 0.242317 0.706809
Si Si2 0.188441 0.503084 0.946425
Si Si3 0.820842 0.997832 0.268439
Si Si4 0.990823 0.728713 0.937096
Si Si5 0.236033 0.434557 0.378138
Si Si6 0.608841 0.340454 0.097535
Si Si7 0.806759 0.153853 0.085995
Si Si8 0.304969 0.581250 0.573828
O O1 0.761298 0.372264 0.739050
O O2 0.365203 0.201949 0.643556
O O3 0.615699 0.231341 0.640201
O O4 0.979778 0.159312 0.796213
O O5 0.891671 0.502872 0.835659
O O6 0.170737 0.615860 0.969266
O O7 0.500000 0.500000 0.000000
O O8 0.260710 0.392759 0.993478
O O9 0.523067 0.922207 0.172580
O O10 0.137437 0.945196 0.331414
O O11 0.973170 0.812868 0.893242
O O12 0.178853 0.797560 0.022771
O O13 0.084945 0.547851 0.357485
O O14 0.468583 0.380313 0.474540
O O15 0.464171 0.464380 0.400783
O O16 0.743092 0.262610 0.097131
O O17 0.000000 0.500000 0.500000
#
# Coordination Sequence:
#
# PCOD9247107 Si02
#       8
#     4   4   4   4   4   4   4   4
#     4  12  25  40  66 104 133 175 231 286 343 418
#     4  10  22  43  67  97 132 184 222 276 350 413
#     4  11  22  41  69  97 130 183 229 269 351 414
#     4  11  24  42  67  98 140 170 228 288 345 412
#     4  10  23  41  69  93 136 180 232 281 345 416
#     4  11  23  40  71  93 135 176 228 276 347 413
#     4  10  21  44  64  95 129 179 223 280 342 416
#     4  11  22  43  67 102 134 184 228 293 342 409
#
# _framework density 20.059524
#
# number of rings (size 3 to 8) (size 9 to 14) (size 15 to 20)
#    0.000    1.250    5.000    1.500    5.250    1.500 
#    2.250    1.250    0.000    0.000    0.000    0.000 
#    0.000    0.000    0.000    0.000    0.000    0.000 
#
# Total GULP energy -178654.121753 kJ/mol
# GULP energy per Si atom -5582.941305 kJ/mol
# Density = 2.001387 g / cm^3
# Si number density = 20.059524 Si / 1000 Ang^3
#
#
#
# Elastic Constant Matrix: (Units=GPa)
#
#
# Indices 1 2 3 4 5 6 
#
# 1 50.6976 28.2541 50.5819 0.0000 3.5312 0.0000
# 2 28.2541 93.0816 41.1012 0.0000 -14.5505 0.0000
# 3 50.5819 41.1012 101.6389 0.0000 -20.5349 0.0000
# 4 0.0000 0.0000 0.0000 26.9904 0.0000 -11.5930
# 5 3.5312 -14.5505 -20.5349 0.0000 32.7829 0.0000
# 6 0.0000 0.0000 0.0000 -11.5930 0.0000 35.7456
#
#
#
# Elastic Compliance Matrix: (Units=1/GPa)
#
#
# Indices 1 2 3 4 5 6 
#
# 1 0.057575 -0.008279 -0.031256 0.000000 -0.029455 0.000000
# 2 -0.008279 0.014506 -0.000303 0.000000 0.007141 0.000000
# 3 -0.031256 -0.000303 0.029961 0.000000 0.021999 0.000000
# 4 0.000000 0.000000 0.000000 0.043047 0.000000 0.013961
# 5 -0.029455 0.007141 0.021999 0.000000 0.050626 0.000000
# 6 0.000000 0.000000 0.000000 0.013961 0.000000 0.032503
#
#
# Mechanical properties :
#
#
# Convention : Reuss Voigt Hill
#
# Bulk Modulus (GPa) = 44.71161 53.92139 49.31650
# Shear Modulus (GPa) = 15.85536 27.46918 21.66227
#
# Velocity S-wave (km/s) = 2.81448 3.70453 3.28975
# Velocity P-wave (km/s) = 5.73582 6.72586 6.25047
#
# Compressibility (1/GPa) = 0.02236555
#
# Stress axis : x y z
#
# Youngs Moduli (GPa) = 17.36861 68.93476 33.37675
#
# Poissons Ratio (x) = 0.57074 1.04322
# Poissons Ratio (y) = 0.14380 0.01012
# Poissons Ratio (z) = 0.54287 0.02090
#
# Static dielectric constant tensor:
#      x y z
#    x 1.710330 0.000000 -0.026340 
#    y 0.000000 1.733410 0.000000 
#    z -0.026340 0.000000 1.737660 
# 
# From -- ./inp_files/79651.got.cif
#   From: 2010.05.17/outbox.cif.g08.bks.cpg/sg14_40_cif.got.tgz:79651.got - 2010.06.03 17:49:19.
