data_PCOD9247955
_publ_section_title
;
Structure prediction by ZEFSAII (Michael W. Deem and Ramdas Pophale) SiO2 
 PCOD9247955
Probable space group: P 21/C
;
_chemical_formula_sum "Si O2"
_cell_formula_units_Z 28
_cell_length_a 15.882365
_cell_length_b 7.126003
_cell_length_c 16.275559
_cell_angle_alpha 90.000000
_cell_angle_beta 138.597289
_cell_angle_gamma 90.000000
_cell_volume 1218.222760
_symmetry_space_group_name_H-M "P 21/C"
_symmetry_group_IT_number 14
_symmetry_cell_setting 'monoclinic'
loop_
_space_group_symop_operation_xyz
x,y,z
-x,1/2+y,1/2-z
-x,-y,-z
x,1/2-y,1/2+z
loop_
_atom_site_type_symbol
_atom_site_label
_atom_site_fract_x
_atom_site_fract_y
_atom_site_fract_z
Si Si1 0.346485 0.574331 0.153461
Si Si2 0.204225 0.718335 0.889574
Si Si3 0.680292 0.916445 0.637308
Si Si4 0.096986 0.137556 0.483870
Si Si5 0.481424 0.882726 0.351909
Si Si6 0.051285 0.247700 0.621596
Si Si7 0.934502 0.956751 0.157451
O O1 0.233579 0.446929 0.105996
O O2 0.399736 0.706631 0.262985
O O3 0.454317 0.457879 0.184719
O O4 0.281699 0.686454 0.029889
O O5 0.278443 0.621204 0.869214
O O6 0.071105 0.603248 0.792942
O O7 0.162952 0.934397 0.855624
O O8 0.588980 0.836175 0.498965
O O9 0.806068 0.795179 0.744650
O O10 0.604103 0.960041 0.665049
O O11 0.046960 0.269014 0.520270
O O12 0.115972 0.265068 0.417967
O O13 0.999623 0.964493 0.404614
O O14 0.963613 0.392102 0.607193
#
# Coordination Sequence:
#
# PCOD9247955 Si02
#       7
#     4   4   4   4   4   4   4
#     4  11  24  44  68 103 136 187 244 300 342 433
#     4  10  22  40  68 101 138 187 231 280 369 418
#     4   9  22  47  75  99 148 193 236 300 358 430
#     4  11  24  41  68 112 140 177 241 286 374 435
#     4  10  24  46  72  98 140 195 249 290 351 419
#     4  10  23  42  71 105 142 182 225 295 371 433
#     4  11  22  42  66 102 148 185 222 296 364 442
#
# _framework density 22.984303000000001
#
# number of rings (size 3 to 8) (size 9 to 14) (size 15 to 20)
#    0.000    1.714    1.429    1.286    4.000    4.571 
#    2.571    0.714    0.000    0.000    0.000    0.000 
#    0.000    0.000    0.000    0.000    0.000    0.000 
#
# Total GULP energy -156520.603583 kJ/mol
# GULP energy per Si atom -5590.021557 kJ/mol
# Density = 2.293199 g / cm^3
# Si number density = 22.984303 Si / 1000 Ang^3
#
#
#
# Elastic Constant Matrix: (Units=GPa)
#
#
# Indices 1 2 3 4 5 6 
#
# 1 67.0999 28.3634 16.5956 0.0000 1.6755 0.0000
# 2 28.3634 111.3571 58.7522 0.0000 10.6196 0.0000
# 3 16.5956 58.7522 74.1523 0.0000 9.6934 0.0000
# 4 0.0000 0.0000 0.0000 40.8192 0.0000 -1.1720
# 5 1.6755 10.6196 9.6934 0.0000 32.8501 0.0000
# 6 0.0000 0.0000 0.0000 -1.1720 0.0000 31.8657
#
#
#
# Elastic Compliance Matrix: (Units=1/GPa)
#
#
# Indices 1 2 3 4 5 6 
#
# 1 0.016731 -0.003956 -0.000692 0.000000 0.000630 0.000000
# 2 -0.003956 0.016432 -0.011926 0.000000 -0.001591 0.000000
# 3 -0.000692 -0.011926 0.023487 0.000000 -0.003040 0.000000
# 4 0.000000 0.000000 0.000000 0.024524 0.000000 0.000902
# 5 0.000630 -0.001591 -0.003040 0.000000 0.031821 0.000000
# 6 0.000000 0.000000 0.000000 0.000902 0.000000 0.031415
#
#
# Mechanical properties :
#
#
# Convention : Reuss Voigt Hill
#
# Bulk Modulus (GPa) = 42.55081 51.11465 46.83273
# Shear Modulus (GPa) = 26.97007 31.03355 29.00181
#
# Velocity S-wave (km/s) = 3.42923 3.67850 3.55605
# Velocity P-wave (km/s) = 5.85087 6.35052 6.10580
#
# Compressibility (1/GPa) = 0.02350131
#
# Stress axis : x y z
#
# Youngs Moduli (GPa) = 59.76936 60.85867 42.57707
#
# Poissons Ratio (x) = 0.24078 0.02947
# Poissons Ratio (y) = 0.23647 0.50775
# Poissons Ratio (z) = 0.04136 0.72577
#
# Static dielectric constant tensor:
#      x y z
#    x 1.904970 0.000000 -0.027940 
#    y 0.000000 1.851270 0.000000 
#    z -0.027940 0.000000 1.872640 
# 
# From -- ./inp_files/48594.got.cif
#   From: 2010.05.17/outbox.cif.g08.bks.cpg/sg14_25_cif.got.tgz:48594.got - 2010.06.03 17:49:19.
