data_PCOD9247194
_publ_section_title
;
Structure prediction by ZEFSAII (Michael W. Deem and Ramdas Pophale) SiO2 
 PCOD9247194
Probable space group: P 21/C
;
_chemical_formula_sum "Si O2"
_cell_formula_units_Z 32
_cell_length_a 10.782576
_cell_length_b 19.590239
_cell_length_c 14.123664
_cell_angle_alpha 90.000000
_cell_angle_beta 150.906574
_cell_angle_gamma 90.000000
_cell_volume 1450.627699
_symmetry_space_group_name_H-M "P 21/C"
_symmetry_group_IT_number 14
_symmetry_cell_setting 'monoclinic'
loop_
_space_group_symop_operation_xyz
x,y,z
-x,1/2+y,1/2-z
-x,-y,-z
x,1/2-y,1/2+z
loop_
_atom_site_type_symbol
_atom_site_label
_atom_site_fract_x
_atom_site_fract_y
_atom_site_fract_z
Si Si1 0.866036 0.897547 0.995332
Si Si2 0.198282 0.144844 0.253658
Si Si3 0.323012 0.980618 0.792790
Si Si4 0.827169 0.065743 0.493439
Si Si5 0.198050 0.004472 0.321043
Si Si6 0.001146 0.710379 0.842059
Si Si7 0.499253 0.839327 0.914457
Si Si8 0.726312 0.205947 0.676848
O O1 0.107786 0.847465 0.156132
O O2 0.760387 0.892966 0.819269
O O3 0.674556 0.863789 0.943877
O O4 0.993638 0.967432 0.116098
O O5 0.114222 0.083697 0.267214
O O6 0.466944 0.170998 0.470909
O O7 0.031416 0.214163 0.135737
O O8 0.371981 0.971289 0.711291
O O9 0.297659 0.899813 0.798744
O O10 0.100635 0.035850 0.644598
O O11 0.500000 0.000000 0.000000
O O12 0.839054 0.148317 0.503764
O O13 0.814693 0.037304 0.590432
O O14 0.500000 0.000000 0.500000
O O15 0.121506 0.723474 0.818209
O O16 0.717436 0.677483 0.638684
O O17 0.343481 0.770114 0.805675
#
# Coordination Sequence:
#
# PCOD9247194 Si02
#       8
#     4   4   4   4   4   4   4   4
#     4  11  23  43  65  98 131 177 227 268 340 392
#     4  11  25  39  69  96 130 178 225 274 326 409
#     4  11  23  43  69 100 128 175 230 266 339 401
#     4  11  24  43  68  96 138 178 214 288 335 393
#     4  12  23  46  66  94 140 176 221 279 338 398
#     4  10  21  45  64  97 133 171 225 273 341 400
#     4  10  22  40  71  90 137 176 215 276 332 393
#     4  10  22  43  62  96 134 171 216 279 331 393
#
# _framework density 22.059415999999999
#
# number of rings (size 3 to 8) (size 9 to 14) (size 15 to 20)
#    0.000    1.250    5.000    0.375    7.000    0.000 
#    2.250    0.000    0.000    0.000    0.000    0.000 
#    0.000    0.000    0.000    0.000    0.000    0.000 
#
# Total GULP energy -178222.530877 kJ/mol
# GULP energy per Si atom -5569.454090 kJ/mol
# Density = 2.200921 g / cm^3
# Si number density = 22.059416 Si / 1000 Ang^3
#
#
#
# Elastic Constant Matrix: (Units=GPa)
#
#
# Indices 1 2 3 4 5 6 
#
# 1 40.2180 44.7957 4.6816 0.0000 -7.9640 0.0000
# 2 44.7957 158.6032 39.5900 0.0000 -2.2169 0.0000
# 3 4.6816 39.5900 70.4443 0.0000 -16.3262 0.0000
# 4 0.0000 0.0000 0.0000 41.0654 0.0000 -0.9155
# 5 -7.9640 -2.2169 -16.3262 0.0000 29.9984 0.0000
# 6 0.0000 0.0000 0.0000 -0.9155 0.0000 23.8071
#
#
#
# Elastic Compliance Matrix: (Units=1/GPa)
#
#
# Indices 1 2 3 4 5 6 
#
# 1 0.042168 -0.013791 0.008361 0.000000 0.014726 0.000000
# 2 -0.013791 0.011945 -0.007370 0.000000 -0.006790 0.000000
# 3 0.008361 -0.007370 0.020793 0.000000 0.012991 0.000000
# 4 0.000000 0.000000 0.000000 0.024372 0.000000 0.000937
# 5 0.014726 -0.006790 0.012991 0.000000 0.043813 0.000000
# 6 0.000000 0.000000 0.000000 0.000937 0.000000 0.042040
#
#
# Mechanical properties :
#
#
# Convention : Reuss Voigt Hill
#
# Bulk Modulus (GPa) = 20.28155 49.71112 34.99634
# Shear Modulus (GPa) = 22.01015 30.98738 26.49876
#
# Velocity S-wave (km/s) = 3.16217 3.75203 3.46966
# Velocity P-wave (km/s) = 4.74831 6.43073 5.65247
#
# Compressibility (1/GPa) = 0.04930589
#
# Stress axis : x y z
#
# Youngs Moduli (GPa) = 23.71448 83.71673 48.09333
#
# Poissons Ratio (x) = 1.15456 -0.40212
# Poissons Ratio (y) = 0.32705 0.35446
# Poissons Ratio (z) = -0.19828 0.61701
#
# Static dielectric constant tensor:
#      x y z
#    x 1.860170 0.000000 0.016380 
#    y 0.000000 1.813450 0.000000 
#    z 0.016380 0.000000 1.862490 
# 
# From -- ./inp_files/45475.got.cif
#   From: 2010.05.17/outbox.cif.g08.bks.cpg/sg14_23_cif.got.tgz:45475.got - 2010.06.03 17:49:19.
