data_PCOD9247492
_publ_section_title
;
Structure prediction by ZEFSAII (Michael W. Deem and Ramdas Pophale) SiO2 
 PCOD9247492
Probable space group: P 21/C
;
_chemical_formula_sum "Si O2"
_cell_formula_units_Z 24
_cell_length_a 21.087895
_cell_length_b 5.279666
_cell_length_c 19.694335
_cell_angle_alpha 90.000000
_cell_angle_beta 27.738320
_cell_angle_gamma 90.000000
_cell_volume 1020.561548
_symmetry_space_group_name_H-M "P 21/C"
_symmetry_group_IT_number 14
_symmetry_cell_setting 'monoclinic'
loop_
_space_group_symop_operation_xyz
x,y,z
-x,1/2+y,1/2-z
-x,-y,-z
x,1/2-y,1/2+z
loop_
_atom_site_type_symbol
_atom_site_label
_atom_site_fract_x
_atom_site_fract_y
_atom_site_fract_z
Si Si1 0.325727 0.803822 0.476587
Si Si2 0.589270 0.255959 0.846240
Si Si3 0.618930 0.746458 0.230023
Si Si4 0.860707 0.958195 0.926604
Si Si5 0.303789 0.032271 0.132826
Si Si6 0.885423 0.806916 0.266955
O O1 0.486232 0.819558 0.310715
O O2 0.237879 0.691660 0.498768
O O3 0.319862 0.608194 0.545361
O O4 0.248984 0.047218 0.578789
O O5 0.606574 0.027835 0.775705
O O6 0.682358 0.172712 0.821222
O O7 0.618878 0.528275 0.786215
O O8 0.431670 0.223890 0.019562
O O9 0.756891 0.760173 0.057068
O O10 0.984169 0.014802 0.859857
O O11 0.921575 0.876275 0.796055
O O12 0.161078 0.173889 0.257856
#
# Coordination Sequence:
#
# PCOD9247492 Si02
#       6
#     4   4   4   4   4   4
#     4  10  22  38  63  89 124 163 212 255 318 368
#     4  10  22  41  65  95 125 163 214 264 316 363
#     4  11  25  40  64  97 127 163 206 269 320 367
#     4  11  25  38  63  91 131 167 210 264 318 388
#     4   9  21  38  66  90 120 167 215 260 304 385
#     4  11  21  41  59  92 120 173 209 253 318 380
#
# _framework density 23.516463000000002
#
# number of rings (size 3 to 8) (size 9 to 14) (size 15 to 20)
#    0.000    1.667    3.333    0.000    7.000    2.000 
#    0.000    1.667    0.000    0.000    0.000    0.000 
#    0.000    0.000    0.000    0.000    0.000    0.000 
#
# Total GULP energy -134188.461287 kJ/mol
# GULP energy per Si atom -5591.185887 kJ/mol
# Density = 2.346294 g / cm^3
# Si number density = 23.516463 Si / 1000 Ang^3
#
#
#
# Elastic Constant Matrix: (Units=GPa)
#
#
# Indices 1 2 3 4 5 6 
#
# 1 77.7666 17.7192 28.4137 0.0000 -25.4955 0.0000
# 2 17.7192 72.9158 7.9077 0.0000 3.8756 0.0000
# 3 28.4137 7.9077 76.9381 0.0000 -22.8266 0.0000
# 4 0.0000 0.0000 0.0000 31.9377 0.0000 6.3126
# 5 -25.4955 3.8756 -22.8266 0.0000 34.1715 0.0000
# 6 0.0000 0.0000 0.0000 6.3126 0.0000 34.9587
#
#
#
# Elastic Compliance Matrix: (Units=1/GPa)
#
#
# Indices 1 2 3 4 5 6 
#
# 1 0.019338 -0.005109 -0.002699 0.000000 0.013205 0.000000
# 2 -0.005109 0.015496 -0.001694 0.000000 -0.006701 0.000000
# 3 -0.002699 -0.001694 0.016996 0.000000 0.009532 0.000000
# 4 0.000000 0.000000 0.000000 0.032470 0.000000 -0.005863
# 5 0.013205 -0.006701 0.009532 0.000000 0.046244 0.000000
# 6 0.000000 0.000000 0.000000 -0.005863 0.000000 0.029664
#
#
# Mechanical properties :
#
#
# Convention : Reuss Voigt Hill
#
# Bulk Modulus (GPa) = 30.46244 37.30018 33.88131
# Shear Modulus (GPa) = 26.29458 31.78558 29.04008
#
# Velocity S-wave (km/s) = 3.34748 3.68044 3.51790
# Velocity P-wave (km/s) = 5.28419 5.82723 5.56234
#
# Compressibility (1/GPa) = 0.03282731
#
# Stress axis : x y z
#
# Youngs Moduli (GPa) = 51.71097 64.53387 58.83623
#
# Poissons Ratio (x) = 0.32967 0.15880
# Poissons Ratio (y) = 0.26417 0.09967
# Poissons Ratio (z) = 0.13956 0.10932
#
# Static dielectric constant tensor:
#      x y z
#    x 1.907480 0.000000 -0.005090 
#    y 0.000000 1.978390 0.000000 
#    z -0.005090 0.000000 1.912820 
# 
# From -- ./inp_files/69573.got.cif
#   From: 2010.05.17/outbox.cif.g08.bks.cpg/sg14_35_cif.got.tgz:69573.got - 2010.06.03 17:49:19.
