data_PCOD9247650
_publ_section_title
;
Structure prediction by ZEFSAII (Michael W. Deem and Ramdas Pophale) SiO2 
 PCOD9247650
Probable space group: P 21/C
;
_chemical_formula_sum "Si O2"
_cell_formula_units_Z 26
_cell_length_a 4.983637
_cell_length_b 7.083130
_cell_length_c 26.605950
_cell_angle_alpha 90.000000
_cell_angle_beta 89.487534
_cell_angle_gamma 90.000000
_cell_volume 939.145783
_symmetry_space_group_name_H-M "P 21/C"
_symmetry_group_IT_number 14
_symmetry_cell_setting 'monoclinic'
loop_
_space_group_symop_operation_xyz
x,y,z
-x,1/2+y,1/2-z
-x,-y,-z
x,1/2-y,1/2+z
loop_
_atom_site_type_symbol
_atom_site_label
_atom_site_fract_x
_atom_site_fract_y
_atom_site_fract_z
Si Si1 0.633426 0.253518 0.630018
Si Si2 0.610612 0.268540 0.448596
Si Si3 0.765369 0.688847 0.460677
Si Si4 0.133101 0.308483 0.683592
Si Si5 0.000000 0.000000 0.500000
Si Si6 0.133427 0.630265 0.210611
Si Si7 0.363555 0.307931 0.843801
O O1 0.450408 0.268107 0.581420
O O2 0.438322 0.358073 0.671081
O O3 0.927880 0.340850 0.637548
O O4 0.652214 0.031400 0.642691
O O5 0.757788 0.463588 0.462853
O O6 0.358139 0.227865 0.486263
O O7 0.484943 0.283337 0.393566
O O8 0.815249 0.099622 0.456221
O O9 0.035598 0.809494 0.462709
O O10 0.997991 0.378576 0.734684
O O11 0.145674 0.082862 0.691257
O O12 0.428776 0.712751 0.202756
O O13 0.931716 0.743288 0.174244
#
# Coordination Sequence:
#
# PCOD9247650 Si02
#       7
#     4   4   4   4   2   4   4
#     4  10  22  40  64  92 129 177 222 274 345 405
#     4  11  26  43  67 102 135 181 233 281 341 415
#     4  11  26  43  67 102 135 181 233 281 341 415
#     4  10  22  39  63  92 127 171 222 276 340 405
#     4  12  24  44  72  92 144 180 228 284 354 390
#     4  10  22  39  63  92 127 171 222 276 340 405
#     4  10  22  40  64  92 129 177 222 274 345 405
#
# _framework density 27.684733000000001
#
# number of rings (size 3 to 8) (size 9 to 14) (size 15 to 20)
#    0.000    1.538    1.538    1.846    4.308    2.462 
#    0.000    0.000    0.000    0.000    0.000    0.000 
#    0.000    0.000    0.000    0.000    0.000    0.000 
#
# Total GULP energy -145292.203018 kJ/mol
# GULP energy per Si atom -5588.161655 kJ/mol
# Density = 2.762172 g / cm^3
# Si number density = 27.684733 Si / 1000 Ang^3
#
#
#
# Elastic Constant Matrix: (Units=GPa)
#
#
# Indices 1 2 3 4 5 6 
#
# 1 104.4877 -5.7696 -9.9814 0.0000 9.4726 0.0000
# 2 -5.7696 86.2178 -11.8816 0.0000 15.8350 0.0000
# 3 -9.9814 -11.8816 80.6626 0.0000 14.6159 0.0000
# 4 0.0000 0.0000 0.0000 40.7209 0.0000 8.6682
# 5 9.4726 15.8350 14.6159 0.0000 41.3215 0.0000
# 6 0.0000 0.0000 0.0000 8.6682 0.0000 4.8017
#
#
#
# Elastic Compliance Matrix: (Units=1/GPa)
#
#
# Indices 1 2 3 4 5 6 
#
# 1 0.010213 0.001676 0.002192 0.000000 -0.003759 0.000000
# 2 0.001676 0.013415 0.003403 0.000000 -0.006729 0.000000
# 3 0.002192 0.003403 0.014421 0.000000 -0.006907 0.000000
# 4 0.000000 0.000000 0.000000 0.039884 0.000000 -0.072000
# 5 -0.003759 -0.006729 -0.006907 0.000000 0.030084 0.000000
# 6 0.000000 0.000000 0.000000 -0.072000 0.000000 0.338240
#
#
# Mechanical properties :
#
#
# Convention : Reuss Voigt Hill
#
# Bulk Modulus (GPa) = 19.01487 24.01144 21.51316
# Shear Modulus (GPa) = 11.12972 37.30219 24.21596
#
# Velocity S-wave (km/s) = 2.00721 3.67467 2.96075
# Velocity P-wave (km/s) = 3.50073 5.16684 4.41313
#
# Compressibility (1/GPa) = 0.05259041
#
# Stress axis : x y z
#
# Youngs Moduli (GPa) = 97.91286 74.54110 69.34163
#
# Poissons Ratio (x) = -0.12492 -0.15198
# Poissons Ratio (y) = -0.16408 -0.23595
# Poissons Ratio (z) = -0.21460 -0.25364
#
# Static dielectric constant tensor:
#      x y z
#    x -0.659590 0.000000 0.032990 
#    y 0.000000 1.404350 0.000000 
#    z 0.032990 0.000000 2.221360 
# 
# From -- ./inp_files/75587.got.cif
#   From: 2010.05.17/outbox.cif.g08.bks.cpg/sg14_38_cif.got.tgz:75587.got - 2010.06.03 17:49:19.
