data_PCOD9247362
_publ_section_title
;
Structure prediction by ZEFSAII (Michael W. Deem and Ramdas Pophale) SiO2 
 PCOD9247362
Probable space group: P 21/C
;
_chemical_formula_sum "Si O2"
_cell_formula_units_Z 20
_cell_length_a 5.670557
_cell_length_b 8.522399
_cell_length_c 22.286648
_cell_angle_alpha 90.000000
_cell_angle_beta 49.639662
_cell_angle_gamma 90.000000
_cell_volume 820.691189
_symmetry_space_group_name_H-M "P 21/C"
_symmetry_group_IT_number 14
_symmetry_cell_setting 'monoclinic'
loop_
_space_group_symop_operation_xyz
x,y,z
-x,1/2+y,1/2-z
-x,-y,-z
x,1/2-y,1/2+z
loop_
_atom_site_type_symbol
_atom_site_label
_atom_site_fract_x
_atom_site_fract_y
_atom_site_fract_z
Si Si1 0.049736 0.873461 0.440006
Si Si2 0.406612 0.739976 0.573906
Si Si3 0.758307 0.857357 0.183877
Si Si4 0.679209 0.053868 0.081756
Si Si5 0.452382 0.928067 0.692048
O O1 0.707125 0.797911 0.486953
O O2 0.291303 0.739792 0.421863
O O3 0.000000 0.000000 0.500000
O O4 0.233599 0.967755 0.359332
O O5 0.447871 0.555082 0.582884
O O6 0.400882 0.849751 0.634918
O O7 0.059483 0.731574 0.607377
O O8 0.502160 0.721863 0.226136
O O9 0.664210 0.987416 0.151189
O O10 0.794719 0.949073 0.240563
O O11 0.000000 0.000000 0.000000
#
# Coordination Sequence:
#
# PCOD9247362 Si02
#       5
#     4   4   4   4   4
#     4   9  18  37  58  81 117 154 189 237 286 335
#     4   9  21  38  60  84 111 154 198 235 286 352
#     4  11  22  38  59  86 117 154 195 238 296 345
#     4   9  19  37  58  83 116 147 187 240 282 333
#     4  10  22  37  55  83 118 150 190 245 293 343
#
# _framework density 24.369702
#
# number of rings (size 3 to 8) (size 9 to 14) (size 15 to 20)
#    0.000    2.400    0.000    2.400    0.000    8.800 
#    0.000    6.000    0.000    0.000    0.000    0.000 
#    0.000    0.000    0.000    0.000    0.000    0.000 
#
# Total GULP energy -111427.279916 kJ/mol
# GULP energy per Si atom -5571.363996 kJ/mol
# Density = 2.431424 g / cm^3
# Si number density = 24.369702 Si / 1000 Ang^3
#
#
#
# Elastic Constant Matrix: (Units=GPa)
#
#
# Indices 1 2 3 4 5 6 
#
# 1 20.5320 12.6297 -2.3385 0.0000 -5.4996 0.0000
# 2 12.6297 162.6436 38.1976 0.0000 4.0964 0.0000
# 3 -2.3385 38.1976 76.4654 0.0000 -6.1755 0.0000
# 4 0.0000 0.0000 0.0000 58.7486 0.0000 -4.6880
# 5 -5.4996 4.0964 -6.1755 0.0000 28.2112 0.0000
# 6 0.0000 0.0000 0.0000 -4.6880 0.0000 23.3416
#
#
#
# Elastic Compliance Matrix: (Units=1/GPa)
#
#
# Indices 1 2 3 4 5 6 
#
# 1 0.056667 -0.006107 0.005851 0.000000 0.013215 0.000000
# 2 -0.006107 0.007715 -0.004304 0.000000 -0.003253 0.000000
# 3 0.005851 -0.004304 0.015829 0.000000 0.005231 0.000000
# 4 0.000000 0.000000 0.000000 0.017299 0.000000 0.003474
# 5 0.013215 -0.003253 0.005231 0.000000 0.039640 0.000000
# 6 0.000000 0.000000 0.000000 0.003474 0.000000 0.043540
#
#
# Mechanical properties :
#
#
# Convention : Reuss Voigt Hill
#
# Bulk Modulus (GPa) = 14.06625 39.62429 26.84527
# Shear Modulus (GPa) = 23.41834 36.13708 29.77771
#
# Velocity S-wave (km/s) = 3.10330 3.85498 3.49938
# Velocity P-wave (km/s) = 4.31569 6.00912 5.23138
#
# Compressibility (1/GPa) = 0.07109217
#
# Stress axis : x y z
#
# Youngs Moduli (GPa) = 17.64681 129.61220 63.17509
#
# Poissons Ratio (x) = 0.79159 -0.36965
# Poissons Ratio (y) = 0.10778 0.27188
# Poissons Ratio (z) = -0.10325 0.55780
#
# Static dielectric constant tensor:
#      x y z
#    x 2.052800 0.000000 -0.035720 
#    y 0.000000 1.999670 0.000000 
#    z -0.035720 0.000000 1.971130 
# 
# From -- ./inp_files/52647.got.cif
#   From: 2010.05.17/outbox.cif.g08.bks.cpg/sg14_27_cif.got.tgz:52647.got - 2010.06.03 17:49:19.
