data_PCOD9247681
_publ_section_title
;
Structure prediction by ZEFSAII (Michael W. Deem and Ramdas Pophale) SiO2 
 PCOD9247681
Probable space group: P 21/C
;
_chemical_formula_sum "Si O2"
_cell_formula_units_Z 30
_cell_length_a 16.530371
_cell_length_b 6.908345
_cell_length_c 13.781875
_cell_angle_alpha 90.000000
_cell_angle_beta 125.335792
_cell_angle_gamma 90.000000
_cell_volume 1283.914457
_symmetry_space_group_name_H-M "P 21/C"
_symmetry_group_IT_number 14
_symmetry_cell_setting 'monoclinic'
loop_
_space_group_symop_operation_xyz
x,y,z
-x,1/2+y,1/2-z
-x,-y,-z
x,1/2-y,1/2+z
loop_
_atom_site_type_symbol
_atom_site_label
_atom_site_fract_x
_atom_site_fract_y
_atom_site_fract_z
Si Si1 0.744454 0.951365 0.253105
Si Si2 0.879162 0.065735 0.180480
Si Si3 0.017920 0.304101 0.384054
Si Si4 0.525927 0.112751 0.145224
Si Si5 0.193339 0.772472 0.543274
Si Si6 0.500000 0.000000 0.500000
Si Si7 0.590649 0.244932 0.396098
Si Si8 0.861660 0.923297 0.853925
O O1 0.783185 0.053947 0.182052
O O2 0.630253 0.000368 0.195847
O O3 0.804492 0.039906 0.387283
O O4 0.776554 0.726961 0.264800
O O5 0.967604 0.108253 0.316121
O O6 0.898883 0.871147 0.133981
O O7 0.880070 0.228931 0.096726
O O8 0.061316 0.312163 0.521929
O O9 0.929070 0.465567 0.322294
O O10 0.528941 0.201193 0.255402
O O11 0.440606 0.953132 0.085099
O O12 0.512568 0.287433 0.062528
O O13 0.297792 0.759355 0.562501
O O14 0.183650 0.594380 0.611772
O O15 0.566920 0.079646 0.455897
#
# Coordination Sequence:
#
# PCOD9247681 Si02
#       8
#     4   4   4   4   4   2   4   4
#     4  11  24  42  67  99 134 182 227 279 359 407
#     4  11  22  41  63  96 133 173 226 284 331 433
#     4  10  22  39  64  97 133 178 232 276 356 407
#     4  11  25  44  71 105 138 190 238 296 363 435
#     4  10  24  43  64  98 138 169 234 285 341 412
#     4  12  24  44  72 100 142 184 236 300 352 428
#     4  11  24  45  70 102 140 187 238 292 365 435
#     4  10  22  42  64  96 134 179 223 294 338 417
#
# _framework density 23.366042
#
# number of rings (size 3 to 8) (size 9 to 14) (size 15 to 20)
#    0.000    1.333    2.667    2.000    3.733    0.533 
#    2.400    1.333    0.000    0.000    0.000    0.000 
#    0.000    0.000    0.000    0.000    0.000    0.000 
#
# Total GULP energy -167185.015187 kJ/mol
# GULP energy per Si atom -5572.833840 kJ/mol
# Density = 2.331286 g / cm^3
# Si number density = 23.366042 Si / 1000 Ang^3
#
#
#
# Elastic Constant Matrix: (Units=GPa)
#
#
# Indices 1 2 3 4 5 6 
#
# 1 123.2919 35.3630 20.2916 0.0000 -30.0677 0.0000
# 2 35.3630 72.0207 10.1500 0.0000 9.7594 0.0000
# 3 20.2916 10.1500 19.1019 0.0000 -11.0191 0.0000
# 4 0.0000 0.0000 0.0000 27.6234 0.0000 3.8855
# 5 -30.0677 9.7594 -11.0191 0.0000 21.8024 0.0000
# 6 0.0000 0.0000 0.0000 3.8855 0.0000 20.6341
#
#
#
# Elastic Compliance Matrix: (Units=1/GPa)
#
#
# Indices 1 2 3 4 5 6 
#
# 1 0.023096 -0.019599 0.013147 0.000000 0.047270 0.000000
# 2 -0.019599 0.036300 -0.033077 0.000000 -0.059995 0.000000
# 3 0.013147 -0.033077 0.105809 0.000000 0.086414 0.000000
# 4 0.000000 0.000000 0.000000 0.037186 0.000000 -0.007002
# 5 0.047270 -0.059995 0.086414 0.000000 0.181586 0.000000
# 6 0.000000 0.000000 0.000000 -0.007002 0.000000 0.049782
#
#
# Mechanical properties :
#
#
# Convention : Reuss Voigt Hill
#
# Bulk Modulus (GPa) = 11.60799 38.44708 25.02753
# Shear Modulus (GPa) = 9.23305 23.91929 16.57617
#
# Velocity S-wave (km/s) = 1.98999 3.20297 2.66637
# Velocity P-wave (km/s) = 3.20293 5.49260 4.49596
#
# Compressibility (1/GPa) = 0.08614757
#
# Stress axis : x y z
#
# Youngs Moduli (GPa) = 43.29687 27.54857 9.45098
#
# Poissons Ratio (x) = 0.53992 -0.12425
# Poissons Ratio (y) = 0.84857 0.31261
# Poissons Ratio (z) = -0.56923 0.91123
#
# Static dielectric constant tensor:
#      x y z
#    x 1.808860 0.000000 0.047890 
#    y 0.000000 1.889940 0.000000 
#    z 0.047890 0.000000 1.956090 
# 
# From -- ./inp_files/48223.got.cif
#   From: 2010.05.17/outbox.cif.g08.bks.cpg/sg14_25_cif.got.tgz:48223.got - 2010.06.03 17:49:19.
