data_PCOD9247426
_publ_section_title
;
Structure prediction by ZEFSAII (Michael W. Deem and Ramdas Pophale) SiO2 
 PCOD9247426
Probable space group: P 21/C
;
_chemical_formula_sum "Si O2"
_cell_formula_units_Z 28
_cell_length_a 13.887451
_cell_length_b 10.750664
_cell_length_c 8.755578
_cell_angle_alpha 90.000000
_cell_angle_beta 108.313670
_cell_angle_gamma 90.000000
_cell_volume 1240.992765
_symmetry_space_group_name_H-M "P 21/C"
_symmetry_group_IT_number 14
_symmetry_cell_setting 'monoclinic'
loop_
_space_group_symop_operation_xyz
x,y,z
-x,1/2+y,1/2-z
-x,-y,-z
x,1/2-y,1/2+z
loop_
_atom_site_type_symbol
_atom_site_label
_atom_site_fract_x
_atom_site_fract_y
_atom_site_fract_z
Si Si1 0.597341 0.080366 0.589740
Si Si2 0.351979 0.422147 0.420369
Si Si3 0.856544 0.670543 0.803350
Si Si4 0.560618 0.329268 0.415425
Si Si5 0.002149 0.203575 0.366211
Si Si6 0.916014 0.092117 0.027171
Si Si7 0.255831 0.076662 0.176731
O O1 0.604215 0.195344 0.479158
O O2 0.582526 0.135963 0.752114
O O3 0.500000 0.000000 0.500000
O O4 0.691146 0.986125 0.652215
O O5 0.243708 0.406259 0.285340
O O6 0.440118 0.340503 0.387644
O O7 0.390370 0.563757 0.452648
O O8 0.335845 0.379443 0.588452
O O9 0.932311 0.695513 0.699608
O O10 0.815105 0.809745 0.815661
O O11 0.919703 0.632059 0.983921
O O12 0.943154 0.119650 0.215790
O O13 0.928223 0.279824 0.440111
O O14 0.809410 0.029311 0.940194
O O15 0.000000 0.000000 0.000000
#
# Coordination Sequence:
#
# PCOD9247426 Si02
#       7
#     4   4   4   4   4   4   4
#     4  11  26  45  69 101 138 184 224 280 348 399
#     4  10  22  40  67  97 128 173 227 286 325 401
#     4  11  19  40  66  98 124 173 237 270 336 408
#     4  10  25  43  65  96 144 172 226 286 339 405
#     4  10  22  37  67  94 125 174 217 281 337 397
#     4  11  21  43  63  92 137 167 218 285 337 398
#     4  11  23  41  69  93 136 178 222 283 339 406
#
# _framework density 22.562581999999999
#
# number of rings (size 3 to 8) (size 9 to 14) (size 15 to 20)
#    0.000    1.429    4.286    0.857    8.000    3.429 
#    0.000    7.857    0.000    0.000    0.000    0.000 
#    0.000    0.000    0.000    0.000    0.000    0.000 
#
# Total GULP energy -156664.045783 kJ/mol
# GULP energy per Si atom -5595.144492 kJ/mol
# Density = 2.251123 g / cm^3
# Si number density = 22.562582 Si / 1000 Ang^3
#
#
#
# Elastic Constant Matrix: (Units=GPa)
#
#
# Indices 1 2 3 4 5 6 
#
# 1 54.0904 2.4388 13.1254 0.0000 13.0297 0.0000
# 2 2.4388 73.8146 45.8260 0.0000 18.4343 0.0000
# 3 13.1254 45.8260 129.1993 0.0000 28.7222 0.0000
# 4 0.0000 0.0000 0.0000 46.6813 0.0000 5.2989
# 5 13.0297 18.4343 28.7222 0.0000 43.0760 0.0000
# 6 0.0000 0.0000 0.0000 5.2989 0.0000 28.2253
#
#
#
# Elastic Compliance Matrix: (Units=1/GPa)
#
#
# Indices 1 2 3 4 5 6 
#
# 1 0.020158 0.001625 -0.001308 0.000000 -0.005921 0.000000
# 2 0.001625 0.018082 -0.005576 0.000000 -0.004512 0.000000
# 3 -0.001308 -0.005576 0.010839 0.000000 -0.004445 0.000000
# 4 0.000000 0.000000 0.000000 0.021888 0.000000 -0.004109
# 5 -0.005921 -0.004512 -0.004445 0.000000 0.029901 0.000000
# 6 0.000000 0.000000 0.000000 -0.004109 0.000000 0.036201
#
#
# Mechanical properties :
#
#
# Convention : Reuss Voigt Hill
#
# Bulk Modulus (GPa) = 25.93307 42.20941 34.07124
# Shear Modulus (GPa) = 31.16439 36.64411 33.90425
#
# Velocity S-wave (km/s) = 3.72054 4.03440 3.88064
# Velocity P-wave (km/s) = 5.47497 6.36004 5.93403
#
# Compressibility (1/GPa) = 0.03856081
#
# Stress axis : x y z
#
# Youngs Moduli (GPa) = 49.60845 55.30358 92.26205
#
# Poissons Ratio (x) = -0.08984 0.12066
# Poissons Ratio (y) = -0.08059 0.51441
# Poissons Ratio (z) = 0.06488 0.30835
#
# Static dielectric constant tensor:
#      x y z
#    x 1.838640 0.000000 0.001460 
#    y 0.000000 1.848560 0.000000 
#    z 0.001460 0.000000 1.834980 
# 
# From -- ./inp_files/15577.got.cif
#   From: 2010.05.17/outbox.cif.g08.bks.cpg/sg14_8_cif.got.tgz:15577.got - 2010.06.03 17:49:19.
