data_PCOD9247890
_publ_section_title
;
Structure prediction by ZEFSAII (Michael W. Deem and Ramdas Pophale) SiO2 
 PCOD9247890
Probable space group: P 21/C
;
_chemical_formula_sum "Si O2"
_cell_formula_units_Z 26
_cell_length_a 18.935015
_cell_length_b 9.605496
_cell_length_c 8.135314
_cell_angle_alpha 90.000000
_cell_angle_beta 136.656174
_cell_angle_gamma 90.000000
_cell_volume 1015.596321
_symmetry_space_group_name_H-M "P 21/C"
_symmetry_group_IT_number 14
_symmetry_cell_setting 'monoclinic'
loop_
_space_group_symop_operation_xyz
x,y,z
-x,1/2+y,1/2-z
-x,-y,-z
x,1/2-y,1/2+z
loop_
_atom_site_type_symbol
_atom_site_label
_atom_site_fract_x
_atom_site_fract_y
_atom_site_fract_z
Si Si1 0.786449 0.194080 0.315451
Si Si2 0.828320 0.929857 0.566750
Si Si3 0.612324 0.562658 0.884706
Si Si4 0.094859 0.309845 0.120442
Si Si5 0.566673 0.203201 0.106941
Si Si6 0.125502 0.575593 0.361108
Si Si7 0.500000 0.500000 0.000000
O O1 0.669982 0.181335 0.177590
O O2 0.803896 0.138473 0.163975
O O3 0.828230 0.351105 0.401010
O O4 0.848712 0.086844 0.539805
O O5 0.721868 0.921751 0.485650
O O6 0.823734 0.845317 0.385436
O O7 0.906640 0.846184 0.815142
O O8 0.534560 0.673048 0.672132
O O9 0.567964 0.410916 0.753532
O O10 0.600161 0.558710 0.058278
O O11 0.118617 0.412026 0.315504
O O12 0.987815 0.362905 0.864163
O O13 0.562494 0.360817 0.154633
#
# Coordination Sequence:
#
# PCOD9247890 Si02
#       7
#     4   4   4   4   4   4   2
#     4  10  23  40  63  92 128 166 209 258 320 371
#     4  10  23  41  62  93 126 166 208 262 316 374
#     4  10  24  44  62  92 132 162 207 265 313 370
#     4  10  22  42  64  93 129 162 215 264 313 374
#     4  10  24  44  61  92 132 162 207 265 307 378
#     4  10  22  40  65  93 126 170 209 263 316 374
#     4  12  24  38  70  92 120 172 214 248 320 378
#
# _framework density 25.600724
#
# number of rings (size 3 to 8) (size 9 to 14) (size 15 to 20)
#    0.000    1.846    0.000    1.846    8.615    3.077 
#    2.769    0.000    0.000    0.000    0.000    0.000 
#    0.000    0.000    0.000    0.000    0.000    0.000 
#
# Total GULP energy -145009.998750 kJ/mol
# GULP energy per Si atom -5577.307644 kJ/mol
# Density = 2.554246 g / cm^3
# Si number density = 25.600724 Si / 1000 Ang^3
#
#
#
# Elastic Constant Matrix: (Units=GPa)
#
#
# Indices 1 2 3 4 5 6 
#
# 1 84.9173 22.5828 6.5458 0.0000 2.1342 0.0000
# 2 22.5828 81.8606 30.5652 0.0000 3.4107 0.0000
# 3 6.5458 30.5652 45.9879 0.0000 -1.0432 0.0000
# 4 0.0000 0.0000 0.0000 37.1580 0.0000 0.4678
# 5 2.1342 3.4107 -1.0432 0.0000 26.0367 0.0000
# 6 0.0000 0.0000 0.0000 0.4678 0.0000 26.1516
#
#
#
# Elastic Compliance Matrix: (Units=1/GPa)
#
#
# Indices 1 2 3 4 5 6 
#
# 1 0.012732 -0.003737 0.000659 0.000000 -0.000528 0.000000
# 2 -0.003737 0.017517 -0.011166 0.000000 -0.002436 0.000000
# 3 0.000659 -0.011166 0.029131 0.000000 0.002576 0.000000
# 4 0.000000 0.000000 0.000000 0.026918 0.000000 -0.000482
# 5 -0.000528 -0.002436 0.002576 0.000000 0.038873 0.000000
# 6 0.000000 0.000000 0.000000 -0.000482 0.000000 0.038247
#
#
# Mechanical properties :
#
#
# Convention : Reuss Voigt Hill
#
# Bulk Modulus (GPa) = 32.36916 36.90593 34.63755
# Shear Modulus (GPa) = 24.72752 28.07403 26.40077
#
# Velocity S-wave (km/s) = 3.11125 3.31510 3.21479
# Velocity P-wave (km/s) = 5.05745 5.39449 5.22868
#
# Compressibility (1/GPa) = 0.03089360
#
# Stress axis : x y z
#
# Youngs Moduli (GPa) = 78.54025 57.08605 34.32787
#
# Poissons Ratio (x) = 0.21331 -0.02263
# Poissons Ratio (y) = 0.29347 0.38331
# Poissons Ratio (z) = -0.05177 0.63743
#
# Static dielectric constant tensor:
#      x y z
#    x 2.082800 0.000000 -0.025360 
#    y 0.000000 1.973110 0.000000 
#    z -0.025360 0.000000 2.106400 
# 
# From -- ./inp_files/18757.got.cif
#   From: 2010.05.17/outbox.cif.g08.bks.cpg/sg14_10_cif.got.tgz:18757.got - 2010.06.03 17:49:19.
