data_PCOD9247235
_publ_section_title
;
Structure prediction by ZEFSAII (Michael W. Deem and Ramdas Pophale) SiO2 
 PCOD9247235
Probable space group: P 21/C
;
_chemical_formula_sum "Si O2"
_cell_formula_units_Z 32
_cell_length_a 12.952767
_cell_length_b 8.726426
_cell_length_c 22.915480
_cell_angle_alpha 90.000000
_cell_angle_beta 31.844528
_cell_angle_gamma 90.000000
_cell_volume 1366.614404
_symmetry_space_group_name_H-M "P 21/C"
_symmetry_group_IT_number 14
_symmetry_cell_setting 'monoclinic'
loop_
_space_group_symop_operation_xyz
x,y,z
-x,1/2+y,1/2-z
-x,-y,-z
x,1/2-y,1/2+z
loop_
_atom_site_type_symbol
_atom_site_label
_atom_site_fract_x
_atom_site_fract_y
_atom_site_fract_z
Si Si1 0.633062 0.108992 0.705169
Si Si2 0.938738 0.249382 0.985349
Si Si3 0.038987 0.996789 0.628464
Si Si4 0.841267 0.735831 0.772301
Si Si5 0.086619 0.493186 0.590812
Si Si6 0.357575 0.274059 0.009326
Si Si7 0.270189 0.767739 0.737194
Si Si8 0.649356 0.738919 0.238329
O O1 0.847462 0.172218 0.585302
O O2 0.579971 0.225492 0.782598
O O3 0.520842 0.149561 0.699938
O O4 0.613733 0.936156 0.735640
O O5 0.949962 0.383806 0.931748
O O6 0.850201 0.101893 0.994027
O O7 0.162514 0.205620 0.888706
O O8 0.865382 0.119202 0.706398
O O9 0.240316 0.084615 0.537824
O O10 0.972486 0.888725 0.713452
O O11 0.001766 0.605632 0.681655
O O12 0.705224 0.719089 0.893085
O O13 0.706358 0.749851 0.778827
O O14 0.887240 0.398355 0.672738
O O15 0.256836 0.380288 0.530960
O O16 0.586699 0.290603 0.886192
#
# Coordination Sequence:
#
# PCOD9247235 Si02
#       8
#     4   4   4   4   4   4   4   4
#     4  12  25  42  68  93 130 172 214 267 323 379
#     4  10  23  44  67  89 133 171 210 271 318 377
#     4   9  21  43  62  92 128 168 216 258 319 384
#     4  10  21  46  65  93 134 167 217 265 311 387
#     4   9  23  42  64  97 127 165 220 260 318 387
#     4  11  23  39  70  95 129 175 204 264 331 375
#     4  11  24  40  62  99 131 163 216 269 314 386
#     4  10  25  42  65  97 125 168 219 268 313 386
#
# _framework density 23.415528999999999
#
# number of rings (size 3 to 8) (size 9 to 14) (size 15 to 20)
#    0.000    2.000    2.500    1.125    7.000    2.500 
#    0.000   10.000    0.000    0.000    0.000    0.000 
#    0.000    0.000    0.000    0.000    0.000    0.000 
#
# Total GULP energy -178718.279513 kJ/mol
# GULP energy per Si atom -5584.946235 kJ/mol
# Density = 2.336223 g / cm^3
# Si number density = 23.415529 Si / 1000 Ang^3
#
#
#
# Elastic Constant Matrix: (Units=GPa)
#
#
# Indices 1 2 3 4 5 6 
#
# 1 38.7097 26.9584 6.0212 0.0000 -6.6826 0.0000
# 2 26.9584 82.2956 -0.3947 0.0000 -2.2894 0.0000
# 3 6.0212 -0.3947 84.5333 0.0000 7.1965 0.0000
# 4 0.0000 0.0000 0.0000 15.0784 0.0000 0.1112
# 5 -6.6826 -2.2894 7.1965 0.0000 24.7024 0.0000
# 6 0.0000 0.0000 0.0000 0.1112 0.0000 24.3602
#
#
#
# Elastic Compliance Matrix: (Units=1/GPa)
#
#
# Indices 1 2 3 4 5 6 
#
# 1 0.036105 -0.011574 -0.003452 0.000000 0.009700 0.000000
# 2 -0.011574 0.015893 0.001066 0.000000 -0.001969 0.000000
# 3 -0.003452 0.001066 0.012461 0.000000 -0.004465 0.000000
# 4 0.000000 0.000000 0.000000 0.066322 0.000000 -0.000303
# 5 0.009700 -0.001969 -0.004465 0.000000 0.044224 0.000000
# 6 0.000000 0.000000 0.000000 -0.000303 0.000000 0.041052
#
#
# Mechanical properties :
#
#
# Convention : Reuss Voigt Hill
#
# Bulk Modulus (GPa) = 27.36717 30.07870 28.72294
# Shear Modulus (GPa) = 19.51933 24.35845 21.93889
#
# Velocity S-wave (km/s) = 2.89036 3.22882 3.06426
# Velocity P-wave (km/s) = 4.78036 5.17435 4.98125
#
# Compressibility (1/GPa) = 0.03654013
#
# Stress axis : x y z
#
# Youngs Moduli (GPa) = 27.69682 62.92045 80.25295
#
# Poissons Ratio (x) = 0.72824 0.27700
# Poissons Ratio (y) = 0.32056 -0.08557
# Poissons Ratio (z) = 0.09560 -0.06709
#
# Static dielectric constant tensor:
#      x y z
#    x 1.946000 0.000000 0.015670 
#    y 0.000000 1.894180 0.000000 
#    z 0.015670 0.000000 1.905770 
# 
# From -- ./inp_files/73726.got.cif
#   From: 2010.05.17/outbox.cif.g08.bks.cpg/sg14_37_cif.got.tgz:73726.got - 2010.06.03 17:49:19.
