data_PCOD9247990
_publ_section_title
;
Structure prediction by ZEFSAII (Michael W. Deem and Ramdas Pophale) SiO2 
 PCOD9247990
Probable space group: P 21/C
;
_chemical_formula_sum "Si O2"
_cell_formula_units_Z 30
_cell_length_a 11.889962
_cell_length_b 8.582824
_cell_length_c 13.927521
_cell_angle_alpha 90.000000
_cell_angle_beta 124.091333
_cell_angle_gamma 90.000000
_cell_volume 1177.039259
_symmetry_space_group_name_H-M "P 21/C"
_symmetry_group_IT_number 14
_symmetry_cell_setting 'monoclinic'
loop_
_space_group_symop_operation_xyz
x,y,z
-x,1/2+y,1/2-z
-x,-y,-z
x,1/2-y,1/2+z
loop_
_atom_site_type_symbol
_atom_site_label
_atom_site_fract_x
_atom_site_fract_y
_atom_site_fract_z
Si Si1 0.886765 0.984003 0.666104
Si Si2 0.269849 0.031197 0.742295
Si Si3 0.529246 0.250516 0.840637
Si Si4 0.500000 0.500000 0.000000
Si Si5 0.171487 0.808264 0.535521
Si Si6 0.536111 0.201492 0.127848
Si Si7 0.740713 0.804526 0.083694
Si Si8 0.998657 0.814079 0.117518
O O1 0.743001 0.886061 0.594052
O O2 0.988591 0.850899 0.672998
O O3 0.876589 0.125794 0.588091
O O4 0.924045 0.053570 0.786143
O O5 0.408181 0.126589 0.790143
O O6 0.195298 0.134534 0.786352
O O7 0.202130 0.967190 0.613616
O O8 0.319854 0.876734 0.821321
O O9 0.689640 0.211614 0.908024
O O10 0.503680 0.325704 0.724187
O O11 0.524133 0.358412 0.931425
O O12 0.543996 0.381653 0.108727
O O13 0.061670 0.717152 0.545114
O O14 0.408540 0.137220 0.007771
O O15 0.838852 0.851698 0.044358
#
# Coordination Sequence:
#
# PCOD9247990 Si02
#       8
#     4   4   4   2   4   4   4   4
#     4  10  23  47  71 101 138 188 243 298 363 432
#     4  11  23  44  70 106 142 193 235 300 360 452
#     4  11  25  42  71 109 146 192 247 295 375 441
#     4  12  24  44  70 102 152 192 232 304 360 418
#     4  11  24  45  75 101 144 190 238 302 369 438
#     4  11  23  45  69 109 147 190 244 297 372 439
#     4  10  22  40  72  99 136 187 238 292 364 422
#     4  10  24  46  72 100 138 193 243 300 356 432
#
# _framework density 25.487677999999999
#
# number of rings (size 3 to 8) (size 9 to 14) (size 15 to 20)
#    0.800    0.533    1.333    4.800    0.000    4.267 
#    7.200    0.667    0.000    0.000    0.000    0.000 
#    0.000    0.000    0.000    0.000    0.000    0.000 
#
# Total GULP energy -167258.559231 kJ/mol
# GULP energy per Si atom -5575.285308 kJ/mol
# Density = 2.542967 g / cm^3
# Si number density = 25.487678 Si / 1000 Ang^3
#
#
#
# Elastic Constant Matrix: (Units=GPa)
#
#
# Indices 1 2 3 4 5 6 
#
# 1 88.1011 11.5443 11.6232 0.0000 -23.2031 0.0000
# 2 11.5443 35.0031 2.2224 0.0000 -0.0505 0.0000
# 3 11.6232 2.2224 75.7275 0.0000 -5.2916 0.0000
# 4 0.0000 0.0000 0.0000 28.1180 0.0000 -6.0987
# 5 -23.2031 -0.0505 -5.2916 0.0000 30.4278 0.0000
# 6 0.0000 0.0000 0.0000 -6.0987 0.0000 35.9214
#
#
#
# Elastic Compliance Matrix: (Units=1/GPa)
#
#
# Indices 1 2 3 4 5 6 
#
# 1 0.015153 -0.004893 -0.001392 0.000000 0.011305 0.000000
# 2 -0.004893 0.030202 -0.000397 0.000000 -0.003750 0.000000
# 3 -0.001392 -0.000397 0.013521 0.000000 0.001289 0.000000
# 4 0.000000 0.000000 0.000000 0.036924 0.000000 0.006269
# 5 0.011305 -0.003750 0.001289 0.000000 0.041703 0.000000
# 6 0.000000 0.000000 0.000000 0.006269 0.000000 0.028903
#
#
# Mechanical properties :
#
#
# Convention : Reuss Voigt Hill
#
# Bulk Modulus (GPa) = 21.97277 27.73462 24.85370
# Shear Modulus (GPa) = 25.64880 30.45624 28.05252
#
# Velocity S-wave (km/s) = 3.17570 3.46054 3.32117
# Velocity P-wave (km/s) = 4.69962 5.18385 4.94766
#
# Compressibility (1/GPa) = 0.04551087
#
# Stress axis : x y z
#
# Youngs Moduli (GPa) = 65.99489 33.11000 73.96089
#
# Poissons Ratio (x) = 0.16200 0.10297
# Poissons Ratio (y) = 0.32290 0.02939
# Poissons Ratio (z) = 0.09188 0.01316
#
# Static dielectric constant tensor:
#      x y z
#    x 2.214130 0.000000 0.073570 
#    y 0.000000 2.100280 0.000000 
#    z 0.073570 0.000000 2.004340 
# 
# From -- ./inp_files/46321.got.cif
#   From: 2010.05.17/outbox.cif.g08.bks.cpg/sg14_24_cif.got.tgz:46321.got - 2010.06.03 17:49:19.
