data_PCOD9247113
_publ_section_title
;
Structure prediction by ZEFSAII (Michael W. Deem and Ramdas Pophale) SiO2 
 PCOD9247113
Probable space group: P 21/C
;
_chemical_formula_sum "Si O2"
_cell_formula_units_Z 28
_cell_length_a 9.631077
_cell_length_b 9.655850
_cell_length_c 14.525540
_cell_angle_alpha 90.000000
_cell_angle_beta 122.071881
_cell_angle_gamma 90.000000
_cell_volume 1144.661830
_symmetry_space_group_name_H-M "P 21/C"
_symmetry_group_IT_number 14
_symmetry_cell_setting 'monoclinic'
loop_
_space_group_symop_operation_xyz
x,y,z
-x,1/2+y,1/2-z
-x,-y,-z
x,1/2-y,1/2+z
loop_
_atom_site_type_symbol
_atom_site_label
_atom_site_fract_x
_atom_site_fract_y
_atom_site_fract_z
Si Si1 0.886933 0.603671 0.402995
Si Si2 0.113224 0.319118 0.234438
Si Si3 0.302240 0.652187 0.698040
Si Si4 0.130613 0.940496 0.620944
Si Si5 0.480243 0.275032 0.392718
Si Si6 0.260858 0.276201 0.467220
Si Si7 0.586180 0.534390 0.903328
O O1 0.975242 0.713313 0.366472
O O2 0.778984 0.494702 0.309702
O O3 0.781881 0.676950 0.446064
O O4 0.000000 0.500000 0.500000
O O5 0.084416 0.476510 0.196277
O O6 0.303883 0.279961 0.280242
O O7 0.113772 0.302841 0.343745
O O8 0.173962 0.779199 0.650262
O O9 0.386623 0.653551 0.625866
O O10 0.449643 0.646735 0.824173
O O11 0.306434 0.995396 0.647639
O O12 0.000000 0.000000 0.500000
O O13 0.577680 0.664755 0.528638
O O14 0.530833 0.114469 0.420767
O O15 0.293285 0.112871 0.485265
#
# Coordination Sequence:
#
# PCOD9247113 Si02
#       7
#     4   4   4   4   4   4   4
#     4  12  24  43  66  96 134 181 221 281 345 408
#     4  10  21  44  65  95 134 169 225 279 337 408
#     4  11  22  38  67  97 130 171 229 281 335 412
#     4  11  23  41  65  95 136 182 221 278 352 411
#     4   9  20  36  62  97 127 162 224 277 334 393
#     4  10  22  40  69  92 134 171 223 285 338 403
#     4  11  19  39  68  99 128 177 222 286 350 404
#
# _framework density 24.461373999999999
#
# number of rings (size 3 to 8) (size 9 to 14) (size 15 to 20)
#    0.857    0.571    4.286    1.286    2.000    0.571 
#    5.143    0.000    0.000    0.000    0.000    0.000 
#    0.000    0.000    0.000    0.000    0.000    0.000 
#
# Total GULP energy -156026.425336 kJ/mol
# GULP energy per Si atom -5572.372333 kJ/mol
# Density = 2.440570 g / cm^3
# Si number density = 24.461374 Si / 1000 Ang^3
#
#
#
# Elastic Constant Matrix: (Units=GPa)
#
#
# Indices 1 2 3 4 5 6 
#
# 1 63.6849 24.0671 5.5259 0.0000 -3.4842 0.0000
# 2 24.0671 95.9193 17.6633 0.0000 -1.5446 0.0000
# 3 5.5259 17.6633 74.2179 0.0000 -9.6649 0.0000
# 4 0.0000 0.0000 0.0000 34.3298 0.0000 2.5129
# 5 -3.4842 -1.5446 -9.6649 0.0000 30.1847 0.0000
# 6 0.0000 0.0000 0.0000 2.5129 0.0000 27.9127
#
#
#
# Elastic Compliance Matrix: (Units=1/GPa)
#
#
# Indices 1 2 3 4 5 6 
#
# 1 0.017443 -0.004342 -0.000034 0.000000 0.001781 0.000000
# 2 -0.004342 0.011986 -0.002624 0.000000 -0.000728 0.000000
# 3 -0.000034 -0.002624 0.014696 0.000000 0.004567 0.000000
# 4 0.000000 0.000000 0.000000 0.029322 0.000000 -0.002640
# 5 0.001781 -0.000728 0.004567 0.000000 0.034760 0.000000
# 6 0.000000 0.000000 0.000000 -0.002640 0.000000 0.036064
#
#
# Mechanical properties :
#
#
# Convention : Reuss Voigt Hill
#
# Bulk Modulus (GPa) = 33.19368 36.48163 34.83766
# Shear Modulus (GPa) = 29.70657 30.92316 30.31487
#
# Velocity S-wave (km/s) = 3.48864 3.55936 3.52418
# Velocity P-wave (km/s) = 5.46139 5.64256 5.55271
#
# Compressibility (1/GPa) = 0.03012622
#
# Stress axis : x y z
#
# Youngs Moduli (GPa) = 57.32807 83.42809 68.04741
#
# Poissons Ratio (x) = 0.36224 0.00228
# Poissons Ratio (y) = 0.24891 0.17857
# Poissons Ratio (z) = 0.00192 0.21893
#
# Static dielectric constant tensor:
#      x y z
#    x 2.033580 0.000000 0.050780 
#    y 0.000000 1.973580 0.000000 
#    z 0.050780 0.000000 2.083500 
# 
# From -- ./inp_files/59079.got.cif
#   From: 2010.05.17/outbox.cif.g08.bks.cpg/sg14_30_cif.got.tgz:59079.got - 2010.06.03 17:49:19.
