data_PCOD9247117
_publ_section_title
;
Structure prediction by ZEFSAII (Michael W. Deem and Ramdas Pophale) SiO2 
 PCOD9247117
Probable space group: P 21/C
;
_chemical_formula_sum "Si O2"
_cell_formula_units_Z 28
_cell_length_a 22.497128
_cell_length_b 12.096951
_cell_length_c 27.252829
_cell_angle_alpha 90.000000
_cell_angle_beta 169.848572
_cell_angle_gamma 90.000000
_cell_volume 1307.207526
_symmetry_space_group_name_H-M "P 21/C"
_symmetry_group_IT_number 14
_symmetry_cell_setting 'monoclinic'
loop_
_space_group_symop_operation_xyz
x,y,z
-x,1/2+y,1/2-z
-x,-y,-z
x,1/2-y,1/2+z
loop_
_atom_site_type_symbol
_atom_site_label
_atom_site_fract_x
_atom_site_fract_y
_atom_site_fract_z
Si Si1 0.987730 0.518848 0.932434
Si Si2 0.415140 0.670541 0.217425
Si Si3 0.333579 0.029120 0.166413
Si Si4 0.091684 0.136022 0.349635
Si Si5 0.318386 0.891798 0.330138
Si Si6 0.044725 0.339488 0.702647
Si Si7 0.686019 0.338734 0.619793
O O1 0.919116 0.405504 0.847639
O O2 0.674155 0.601854 0.669712
O O3 0.000000 0.500000 0.000000
O O4 0.312364 0.577429 0.172675
O O5 0.598393 0.621225 0.319011
O O6 0.647434 0.763230 0.430418
O O7 0.078325 0.726708 0.921854
O O8 0.684561 0.975984 0.468791
O O9 0.073072 0.076094 0.995029
O O10 0.137808 0.933026 0.977814
O O11 0.928762 0.151242 0.164246
O O12 0.839870 0.141450 0.190831
O O13 0.552248 0.855490 0.474677
O O14 0.332761 0.789097 0.379742
O O15 0.500000 0.000000 0.500000
#
# Coordination Sequence:
#
# PCOD9247117 Si02
#       7
#     4   4   4   4   4   4   4
#     4  11  26  41  68  94 132 174 214 266 325 389
#     4  11  22  41  61  94 130 161 213 273 315 382
#     4  10  22  42  63  89 129 166 211 271 313 384
#     4  11  24  39  65  94 127 169 210 265 330 383
#     4  10  21  44  66  88 130 171 208 267 322 372
#     4  10  24  41  63  91 129 168 212 266 327 388
#     4  11  23  44  63  98 133 167 214 272 321 385
#
# _framework density 21.419706000000001
#
# number of rings (size 3 to 8) (size 9 to 14) (size 15 to 20)
#    0.000    1.429    4.286    0.000    4.000    1.714 
#    0.000    0.000    0.000    0.000    0.000    0.000 
#    0.000    0.000    0.000    0.000    0.000    0.000 
#
# Total GULP energy -156434.705857 kJ/mol
# GULP energy per Si atom -5586.953781 kJ/mol
# Density = 2.137095 g / cm^3
# Si number density = 21.419706 Si / 1000 Ang^3
#
#
#
# Elastic Constant Matrix: (Units=GPa)
#
#
# Indices 1 2 3 4 5 6 
#
# 1 103.8905 8.7735 2.5232 0.0000 18.8880 0.0000
# 2 8.7735 84.0597 11.3863 0.0000 14.2017 0.0000
# 3 2.5232 11.3863 34.2139 0.0000 26.0588 0.0000
# 4 0.0000 0.0000 0.0000 10.5011 0.0000 7.9651
# 5 18.8880 14.2017 26.0588 0.0000 29.7251 0.0000
# 6 0.0000 0.0000 0.0000 7.9651 0.0000 24.8440
#
#
#
# Elastic Compliance Matrix: (Units=1/GPa)
#
#
# Indices 1 2 3 4 5 6 
#
# 1 0.013417 0.000272 0.016589 0.000000 -0.023198 0.000000
# 2 0.000272 0.012963 0.001549 0.000000 -0.007724 0.000000
# 3 0.016589 0.001549 0.108580 0.000000 -0.106469 0.000000
# 4 0.000000 0.000000 0.000000 0.125826 0.000000 -0.040341
# 5 -0.023198 -0.007724 -0.106469 0.000000 0.145409 0.000000
# 6 0.000000 0.000000 0.000000 -0.040341 0.000000 0.053185
#
#
# Mechanical properties :
#
#
# Convention : Reuss Voigt Hill
#
# Bulk Modulus (GPa) = 5.82143 29.72557 17.77350
# Shear Modulus (GPa) = 10.42054 26.31278 18.36666
#
# Velocity S-wave (km/s) = 2.20805 3.50871 2.93143
# Velocity P-wave (km/s) = 3.03716 5.50659 4.44673
#
# Compressibility (1/GPa) = 0.17177898
#
# Stress axis : x y z
#
# Youngs Moduli (GPa) = 74.53087 77.14221 9.20978
#
# Poissons Ratio (x) = -0.02097 -0.15278
# Poissons Ratio (y) = -0.02026 -0.01426
# Poissons Ratio (z) = -1.23638 -0.11946
#
# Static dielectric constant tensor:
#      x y z
#    x 1.718930 0.000000 0.017590 
#    y 0.000000 1.748710 0.000000 
#    z 0.017590 0.000000 1.809330 
# 
# From -- ./inp_files/61258.got.cif
#   From: 2010.05.17/outbox.cif.g08.bks.cpg/sg14_31_cif.got.tgz:61258.got - 2010.06.03 17:49:19.
