data_PCOD9247556
_publ_section_title
;
Structure prediction by ZEFSAII (Michael W. Deem and Ramdas Pophale) SiO2 
 PCOD9247556
Probable space group: P 21/C
;
_chemical_formula_sum "Si O2"
_cell_formula_units_Z 28
_cell_length_a 23.461469
_cell_length_b 8.355096
_cell_length_c 17.355160
_cell_angle_alpha 90.000000
_cell_angle_beta 156.871768
_cell_angle_gamma 90.000000
_cell_volume 1336.275559
_symmetry_space_group_name_H-M "P 21/C"
_symmetry_group_IT_number 14
_symmetry_cell_setting 'monoclinic'
loop_
_space_group_symop_operation_xyz
x,y,z
-x,1/2+y,1/2-z
-x,-y,-z
x,1/2-y,1/2+z
loop_
_atom_site_type_symbol
_atom_site_label
_atom_site_fract_x
_atom_site_fract_y
_atom_site_fract_z
Si Si1 0.956469 0.493131 0.606911
Si Si2 0.195683 0.262801 0.977711
Si Si3 0.698385 0.400018 0.187088
Si Si4 0.670837 0.478597 0.429216
Si Si5 0.572068 0.006676 0.248893
Si Si6 0.502850 0.820873 0.427582
Si Si7 0.208417 0.812061 0.361894
O O1 0.870130 0.624426 0.550136
O O2 0.840388 0.391665 0.415716
O O3 0.063700 0.376571 0.787506
O O4 0.059026 0.592919 0.677209
O O5 0.328146 0.376085 0.170056
O O6 0.274501 0.159879 0.008117
O O7 0.567865 0.332377 0.076173
O O8 0.723896 0.315372 0.138287
O O9 0.654567 0.585212 0.116653
O O10 0.551395 0.446597 0.346432
O O11 0.597670 0.422602 0.257844
O O12 0.803420 0.363559 0.616518
O O13 0.501565 0.140065 0.106810
O O14 0.684078 0.097024 0.445618
#
# Coordination Sequence:
#
# PCOD9247556 Si02
#       7
#     4   4   4   4   4   4   4
#     4  11  24  40  65  90 132 174 216 262 326 393
#     4  11  23  40  67  97 125 175 224 268 316 393
#     4  11  22  41  64  92 135 165 209 273 337 383
#     4  11  20  41  68  95 125 166 223 271 314 386
#     4  10  22  38  70  94 124 165 222 270 311 388
#     4  10  22  39  67  96 126 168 212 269 336 381
#     4  10  22  39  62  93 123 171 217 259 320 394
#
# _framework density 20.953761
#
# number of rings (size 3 to 8) (size 9 to 14) (size 15 to 20)
#    0.000    1.429    2.857    3.000    6.000    0.000 
#    0.000    3.571    0.000    0.000    0.000    0.000 
#    0.000    0.000    0.000    0.000    0.000    0.000 
#
# Total GULP energy -156344.625792 kJ/mol
# GULP energy per Si atom -5583.736635 kJ/mol
# Density = 2.090607 g / cm^3
# Si number density = 20.953761 Si / 1000 Ang^3
#
#
#
# Elastic Constant Matrix: (Units=GPa)
#
#
# Indices 1 2 3 4 5 6 
#
# 1 70.1049 13.8961 7.5937 0.0000 7.4869 0.0000
# 2 13.8961 72.1863 12.3305 0.0000 1.6885 0.0000
# 3 7.5937 12.3305 45.7644 0.0000 6.3148 0.0000
# 4 0.0000 0.0000 0.0000 33.5137 0.0000 6.6964
# 5 7.4869 1.6885 6.3148 0.0000 15.7351 0.0000
# 6 0.0000 0.0000 0.0000 6.6964 0.0000 28.7347
#
#
#
# Elastic Compliance Matrix: (Units=1/GPa)
#
#
# Indices 1 2 3 4 5 6 
#
# 1 0.015622 -0.002689 -0.000933 0.000000 -0.006770 0.000000
# 2 -0.002689 0.014984 -0.003754 0.000000 0.001178 0.000000
# 3 -0.000933 -0.003754 0.024243 0.000000 -0.008882 0.000000
# 4 0.000000 0.000000 0.000000 0.031296 0.000000 -0.007293
# 5 -0.006770 0.001178 -0.008882 0.000000 0.070212 0.000000
# 6 0.000000 0.000000 0.000000 -0.007293 0.000000 0.036501
#
#
# Mechanical properties :
#
#
# Convention : Reuss Voigt Hill
#
# Bulk Modulus (GPa) = 24.94012 28.41070 26.67541
# Shear Modulus (GPa) = 22.62699 25.87905 24.25302
#
# Velocity S-wave (km/s) = 3.28968 3.51815 3.40583
# Velocity P-wave (km/s) = 5.13397 5.48556 5.31267
#
# Compressibility (1/GPa) = 0.04009604
#
# Stress axis : x y z
#
# Youngs Moduli (GPa) = 64.01430 66.73618 41.24922
#
# Poissons Ratio (x) = 0.17948 0.03850
# Poissons Ratio (y) = 0.17216 0.15483
# Poissons Ratio (z) = 0.05975 0.25050
#
# Static dielectric constant tensor:
#      x y z
#    x 1.756690 0.000000 0.019160 
#    y 0.000000 1.786040 0.000000 
#    z 0.019160 0.000000 1.743240 
# 
# From -- ./inp_files/50268.got.cif
#   From: 2010.05.17/outbox.cif.g08.bks.cpg/sg14_26_cif.got.tgz:50268.got - 2010.06.03 17:49:19.
