data_PCOD9247450
_publ_section_title
;
Structure prediction by ZEFSAII (Michael W. Deem and Ramdas Pophale) SiO2 
 PCOD9247450
Probable space group: P 21/C
;
_chemical_formula_sum "Si O2"
_cell_formula_units_Z 20
_cell_length_a 16.572480
_cell_length_b 11.447104
_cell_length_c 12.384882
_cell_angle_alpha 90.000000
_cell_angle_beta 154.582037
_cell_angle_gamma 90.000000
_cell_volume 1008.447412
_symmetry_space_group_name_H-M "P 21/C"
_symmetry_group_IT_number 14
_symmetry_cell_setting 'monoclinic'
loop_
_space_group_symop_operation_xyz
x,y,z
-x,1/2+y,1/2-z
-x,-y,-z
x,1/2-y,1/2+z
loop_
_atom_site_type_symbol
_atom_site_label
_atom_site_fract_x
_atom_site_fract_y
_atom_site_fract_z
Si Si1 0.737678 0.386558 0.531638
Si Si2 0.644930 0.930581 0.748278
Si Si3 0.319370 0.049212 0.843414
Si Si4 0.104129 0.272990 0.943154
Si Si5 0.387308 0.266075 0.611095
O O1 0.760321 0.481448 0.464332
O O2 0.762380 0.448881 0.677224
O O3 0.524161 0.342181 0.264245
O O4 0.882269 0.281720 0.686708
O O5 0.794050 0.838838 0.878114
O O6 0.530742 0.847020 0.692978
O O7 0.500000 0.000000 0.500000
O O8 0.180862 0.108449 0.590366
O O9 0.375276 0.154198 0.991953
O O10 0.500000 0.000000 0.000000
O O11 0.185074 0.266094 0.918753
#
# Coordination Sequence:
#
# PCOD9247450 Si02
#       5
#     4   4   4   4   4
#     4  11  21  39  63  90 121 162 206 256 310 370
#     4   9  20  41  60  85 126 160 197 260 317 365
#     4  11  20  40  65  86 125 167 200 257 318 372
#     4  10  22  38  59  92 119 153 214 254 302 375
#     4   9  22  39  58  89 121 158 204 253 311 373
#
# _framework density 19.832466
#
# number of rings (size 3 to 8) (size 9 to 14) (size 15 to 20)
#    1.200    0.800    2.000    1.800    0.000    1.600 
#    7.200    1.000    0.000    0.000    0.000    0.000 
#    0.000    0.000    0.000    0.000    0.000    0.000 
#
# Total GULP energy -111338.893253 kJ/mol
# GULP energy per Si atom -5566.944663 kJ/mol
# Density = 1.978733 g / cm^3
# Si number density = 19.832466 Si / 1000 Ang^3
#
#
#
# Elastic Constant Matrix: (Units=GPa)
#
#
# Indices 1 2 3 4 5 6 
#
# 1 91.0546 31.0444 22.7505 0.0000 1.3737 0.0000
# 2 31.0444 62.7208 6.8086 0.0000 8.2991 0.0000
# 3 22.7505 6.8086 22.9133 0.0000 9.8206 0.0000
# 4 0.0000 0.0000 0.0000 37.5520 0.0000 -2.2607
# 5 1.3737 8.2991 9.8206 0.0000 20.1755 0.0000
# 6 0.0000 0.0000 0.0000 -2.2607 0.0000 49.9371
#
#
#
# Elastic Compliance Matrix: (Units=1/GPa)
#
#
# Indices 1 2 3 4 5 6 
#
# 1 0.019383 -0.008923 -0.022241 0.000000 0.013177 0.000000
# 2 -0.008923 0.021090 0.007646 0.000000 -0.011789 0.000000
# 3 -0.022241 0.007646 0.081065 0.000000 -0.041090 0.000000
# 4 0.000000 0.000000 0.000000 0.026703 0.000000 0.001209
# 5 0.013177 -0.011789 -0.041090 0.000000 0.073518 0.000000
# 6 0.000000 0.000000 0.000000 0.001209 0.000000 0.020080
#
#
# Mechanical properties :
#
#
# Convention : Reuss Voigt Hill
#
# Bulk Modulus (GPa) = 13.42266 33.09951 23.26109
# Shear Modulus (GPa) = 15.93828 29.27193 22.60510
#
# Velocity S-wave (km/s) = 2.83794 3.84599 3.37976
# Velocity P-wave (km/s) = 4.18584 6.03722 5.19467
#
# Compressibility (1/GPa) = 0.07450086
#
# Stress axis : x y z
#
# Youngs Moduli (GPa) = 51.59163 47.41535 12.33576
#
# Poissons Ratio (x) = 0.42309 0.27436
# Poissons Ratio (y) = 0.46035 -0.09431
# Poissons Ratio (z) = 1.14747 -0.36252
#
# Static dielectric constant tensor:
#      x y z
#    x 1.705480 0.000000 -0.013690 
#    y 0.000000 1.728560 0.000000 
#    z -0.013690 0.000000 1.716680 
# 
# From -- ./inp_files/50355.got.cif
#   From: 2010.05.17/outbox.cif.g08.bks.cpg/sg14_26_cif.got.tgz:50355.got - 2010.06.03 17:49:19.
