data_PCOD9247477
_publ_section_title
;
Structure prediction by ZEFSAII (Michael W. Deem and Ramdas Pophale) SiO2 
 PCOD9247477
Probable space group: P 21/C
;
_chemical_formula_sum "Si O2"
_cell_formula_units_Z 22
_cell_length_a 8.098741
_cell_length_b 4.760982
_cell_length_c 22.079922
_cell_angle_alpha 90.000000
_cell_angle_beta 92.005225
_cell_angle_gamma 90.000000
_cell_volume 850.835415
_symmetry_space_group_name_H-M "P 21/C"
_symmetry_group_IT_number 14
_symmetry_cell_setting 'monoclinic'
loop_
_space_group_symop_operation_xyz
x,y,z
-x,1/2+y,1/2-z
-x,-y,-z
x,1/2-y,1/2+z
loop_
_atom_site_type_symbol
_atom_site_label
_atom_site_fract_x
_atom_site_fract_y
_atom_site_fract_z
Si Si1 0.798045 0.335856 0.991027
Si Si2 0.500000 0.500000 0.000000
Si Si3 0.559928 0.840818 0.216230
Si Si4 0.034509 0.268384 0.092686
Si Si5 0.921010 0.395504 0.719868
Si Si6 0.401468 0.031377 0.089699
O O1 0.911898 0.435517 0.937311
O O2 0.622209 0.212782 0.962141
O O3 0.701146 0.599569 0.017676
O O4 0.901337 0.170644 0.041159
O O5 0.496260 0.292398 0.063740
O O6 0.459237 0.018354 0.265468
O O7 0.745769 0.952871 0.221857
O O8 0.482743 0.907226 0.150243
O O9 0.210307 0.113283 0.098838
O O10 0.952677 0.254930 0.156443
O O11 0.051467 0.648942 0.731112
#
# Coordination Sequence:
#
# PCOD9247477 Si02
#       6
#     4   2   4   4   4   4
#     4  10  22  42  67 100 141 180 235 295 363 423
#     4  10  22  38  62 100 132 180 228 294 352 428
#     4  12  28  49  75 107 146 195 246 303 366 433
#     4  10  23  42  67 102 136 184 239 291 366 428
#     4  12  27  49  73 106 143 194 244 302 361 438
#     4  11  23  42  70  98 143 182 241 295 362 429
#
# _framework density 25.856938
#
# number of rings (size 3 to 8) (size 9 to 14) (size 15 to 20)
#    0.000    1.091    0.000    5.455   10.182    0.000 
#    6.545    0.000    0.000    0.000    0.000    0.000 
#    0.000    0.000    0.000    0.000    0.000    0.000 
#
# Total GULP energy -122855.669273 kJ/mol
# GULP energy per Si atom -5584.348603 kJ/mol
# Density = 2.579809 g / cm^3
# Si number density = 25.856938 Si / 1000 Ang^3
#
#
#
# Elastic Constant Matrix: (Units=GPa)
#
#
# Indices 1 2 3 4 5 6 
#
# 1 116.5382 -10.7890 26.5008 0.0000 5.6601 0.0000
# 2 -10.7890 63.7948 4.2529 0.0000 9.4681 0.0000
# 3 26.5008 4.2529 95.1017 0.0000 14.2593 0.0000
# 4 0.0000 0.0000 0.0000 36.7897 0.0000 -1.7015
# 5 5.6601 9.4681 14.2593 0.0000 50.5114 0.0000
# 6 0.0000 0.0000 0.0000 -1.7015 0.0000 44.7779
#
#
#
# Elastic Compliance Matrix: (Units=1/GPa)
#
#
# Indices 1 2 3 4 5 6 
#
# 1 0.009375 0.001857 -0.002596 0.000000 -0.000666 0.000000
# 2 0.001857 0.016499 -0.000794 0.000000 -0.003077 0.000000
# 3 -0.002596 -0.000794 0.011703 0.000000 -0.002864 0.000000
# 4 0.000000 0.000000 0.000000 0.027229 0.000000 0.001035
# 5 -0.000666 -0.003077 -0.002864 0.000000 0.021257 0.000000
# 6 0.000000 0.000000 0.000000 0.001035 0.000000 0.022372
#
#
# Mechanical properties :
#
#
# Convention : Reuss Voigt Hill
#
# Bulk Modulus (GPa) = 28.97469 35.04048 32.00759
# Shear Modulus (GPa) = 40.64862 43.44713 42.04788
#
# Velocity S-wave (km/s) = 3.96922 4.10358 4.03696
# Velocity P-wave (km/s) = 5.67771 6.00280 5.84252
#
# Compressibility (1/GPa) = 0.03451288
#
# Stress axis : x y z
#
# Youngs Moduli (GPa) = 106.66148 60.60998 85.44570
#
# Poissons Ratio (x) = -0.11258 0.22180
# Poissons Ratio (y) = -0.19812 0.06785
# Poissons Ratio (z) = 0.27687 0.04813
#
# Static dielectric constant tensor:
#      x y z
#    x 2.098480 0.000000 -0.002010 
#    y 0.000000 2.195120 0.000000 
#    z -0.002010 0.000000 2.061750 
# 
# From -- ./inp_files/64169.got.cif
#   From: 2010.05.17/outbox.cif.g08.bks.cpg/sg14_33_cif.got.tgz:64169.got - 2010.06.03 17:49:19.
