data_PCOD9247011
_publ_section_title
;
Structure prediction by ZEFSAII (Michael W. Deem and Ramdas Pophale) SiO2 
 PCOD9247011
Probable space group: P 21/C
;
_chemical_formula_sum "Si O2"
_cell_formula_units_Z 28
_cell_length_a 13.085732
_cell_length_b 9.296096
_cell_length_c 8.961588
_cell_angle_alpha 90.000000
_cell_angle_beta 69.667754
_cell_angle_gamma 90.000000
_cell_volume 1022.220333
_symmetry_space_group_name_H-M "P 21/C"
_symmetry_group_IT_number 14
_symmetry_cell_setting 'monoclinic'
loop_
_space_group_symop_operation_xyz
x,y,z
-x,1/2+y,1/2-z
-x,-y,-z
x,1/2-y,1/2+z
loop_
_atom_site_type_symbol
_atom_site_label
_atom_site_fract_x
_atom_site_fract_y
_atom_site_fract_z
Si Si1 0.002946 0.178327 0.240631
Si Si2 0.840556 0.697332 0.092025
Si Si3 0.434572 0.676111 0.004526
Si Si4 0.658584 0.014350 0.995176
Si Si5 0.343849 0.411773 0.211233
Si Si6 0.716678 0.449761 0.151956
Si Si7 0.858354 0.165806 0.052659
O O1 0.082168 0.113194 0.326975
O O2 0.912155 0.106219 0.178280
O O3 0.941146 0.295464 0.375825
O O4 0.082073 0.234515 0.071386
O O5 0.765676 0.817219 0.212403
O O6 0.772926 0.577911 0.034369
O O7 0.409174 0.843188 0.007351
O O8 0.562924 0.651453 0.944104
O O9 0.387603 0.612114 0.874680
O O10 0.360838 0.583329 0.158603
O O11 0.769347 0.065158 0.021623
O O12 0.610523 0.909064 0.140941
O O13 0.688868 0.965230 0.816469
O O14 0.799826 0.317066 0.125119
#
# Coordination Sequence:
#
# PCOD9247011 Si02
#       7
#     4   4   4   4   4   4   4
#     4  10  22  41  66  93 137 177 219 266 339 383
#     4  11  24  44  61 104 135 173 218 271 337 391
#     4  10  24  44  70  98 132 176 219 272 334 393
#     4  11  23  44  70 102 126 177 226 269 328 395
#     4  11  25  45  68  98 139 172 213 282 331 390
#     4  11  23  42  70  97 133 174 220 280 321 402
#     4  10  21  43  66  97 132 173 227 272 318 398
#
# _framework density 27.391355999999998
#
# number of rings (size 3 to 8) (size 9 to 14) (size 15 to 20)
#    0.000    1.429    1.429    3.429    4.000    2.857 
#   10.286    2.143    0.000    0.000    0.000    0.000 
#    0.000    0.000    0.000    0.000    0.000    0.000 
#
# Total GULP energy -156460.273738 kJ/mol
# GULP energy per Si atom -5587.866919 kJ/mol
# Density = 2.732901 g / cm^3
# Si number density = 27.391356 Si / 1000 Ang^3
#
#
#
# Elastic Constant Matrix: (Units=GPa)
#
#
# Indices 1 2 3 4 5 6 
#
# 1 100.6568 13.9695 27.7128 0.0000 -7.0831 0.0000
# 2 13.9695 69.5336 18.0920 0.0000 -9.5834 0.0000
# 3 27.7128 18.0920 136.9530 0.0000 -3.0419 0.0000
# 4 0.0000 0.0000 0.0000 28.6123 0.0000 10.4629
# 5 -7.0831 -9.5834 -3.0419 0.0000 50.5966 0.0000
# 6 0.0000 0.0000 0.0000 10.4629 0.0000 21.9527
#
#
#
# Elastic Compliance Matrix: (Units=1/GPa)
#
#
# Indices 1 2 3 4 5 6 
#
# 1 0.010759 -0.001501 -0.001954 0.000000 0.001104 0.000000
# 2 -0.001501 0.015482 -0.001683 0.000000 0.002621 0.000000
# 3 -0.001954 -0.001683 0.007917 0.000000 -0.000116 0.000000
# 4 0.000000 0.000000 0.000000 0.042327 0.000000 -0.020173
# 5 0.001104 0.002621 -0.000116 0.000000 0.020408 0.000000
# 6 0.000000 0.000000 0.000000 -0.020173 0.000000 0.055167
#
#
# Mechanical properties :
#
#
# Convention : Reuss Voigt Hill
#
# Bulk Modulus (GPa) = 41.87380 47.41022 44.64201
# Shear Modulus (GPa) = 29.36030 36.72358 33.04194
#
# Velocity S-wave (km/s) = 3.27751 3.66553 3.47694
# Velocity P-wave (km/s) = 5.44456 5.93808 5.69667
#
# Compressibility (1/GPa) = 0.02388128
#
# Stress axis : x y z
#
# Youngs Moduli (GPa) = 92.94719 64.58985 126.31009
#
# Poissons Ratio (x) = 0.09693 0.24685
# Poissons Ratio (y) = 0.13949 0.21263
# Poissons Ratio (z) = 0.18165 0.10873
#
# Static dielectric constant tensor:
#      x y z
#    x 2.245540 0.000000 -0.068930 
#    y 0.000000 2.226050 0.000000 
#    z -0.068930 0.000000 2.165080 
# 
# From -- ./inp_files/15664.got.cif
#   From: 2010.05.17/outbox.cif.g08.bks.cpg/sg14_8_cif.got.tgz:15664.got - 2010.06.03 17:49:19.
