data_PCOD9247463
_publ_section_title
;
Structure prediction by ZEFSAII (Michael W. Deem and Ramdas Pophale) SiO2 
 PCOD9247463
Probable space group: P 21/C
;
_chemical_formula_sum "Si O2"
_cell_formula_units_Z 28
_cell_length_a 6.828699
_cell_length_b 8.074020
_cell_length_c 26.789661
_cell_angle_alpha 90.000000
_cell_angle_beta 114.497554
_cell_angle_gamma 90.000000
_cell_volume 1344.083861
_symmetry_space_group_name_H-M "P 21/C"
_symmetry_group_IT_number 14
_symmetry_cell_setting 'monoclinic'
loop_
_space_group_symop_operation_xyz
x,y,z
-x,1/2+y,1/2-z
-x,-y,-z
x,1/2-y,1/2+z
loop_
_atom_site_type_symbol
_atom_site_label
_atom_site_fract_x
_atom_site_fract_y
_atom_site_fract_z
Si Si1 0.405081 0.264177 0.577006
Si Si2 0.299072 0.772922 0.710200
Si Si3 0.968023 0.199880 0.988653
Si Si4 0.404883 0.868764 0.119966
Si Si5 0.187079 0.355692 0.856230
Si Si6 0.285296 0.912301 0.455437
Si Si7 0.469634 0.574174 0.817045
O O1 0.403288 0.445920 0.599755
O O2 0.625447 0.229016 0.572315
O O3 0.390458 0.138396 0.621617
O O4 0.212533 0.239734 0.517337
O O5 0.387638 0.646281 0.677480
O O6 0.386085 0.719958 0.773061
O O7 0.041247 0.777813 0.681266
O O8 0.393748 0.947079 0.701466
O O9 0.852238 0.312383 0.018583
O O10 0.811507 0.215478 0.925026
O O11 0.000000 0.000000 0.000000
O O12 0.615926 0.775252 0.121706
O O13 0.173057 0.455523 0.906870
O O14 0.268096 0.480354 0.821286
O O15 0.500000 0.000000 0.500000
#
# Coordination Sequence:
#
# PCOD9247463 Si02
#       7
#     4   4   4   4   4   4   4
#     4  10  23  40  62  89 130 162 209 259 305 376
#     4  11  23  41  67  85 125 161 202 265 315 366
#     4  10  22  38  60  93 125 165 206 255 314 371
#     4  10  22  39  60  95 124 159 210 252 307 380
#     4  10  23  41  62  95 122 162 211 253 317 377
#     4  11  22  39  63  90 128 170 207 257 314 379
#     4  10  23  42  60  92 117 159 211 253 310 376
#
# _framework density 20.832035999999999
#
# number of rings (size 3 to 8) (size 9 to 14) (size 15 to 20)
#    0.000    1.714    1.429    1.714    2.000    8.571 
#    0.000    4.286    0.000    0.000    0.000    0.000 
#    0.000    0.000    0.000    0.000    0.000    0.000 
#
# Total GULP energy -156302.253665 kJ/mol
# GULP energy per Si atom -5582.223345 kJ/mol
# Density = 2.078462 g / cm^3
# Si number density = 20.832036 Si / 1000 Ang^3
#
#
#
# Elastic Constant Matrix: (Units=GPa)
#
#
# Indices 1 2 3 4 5 6 
#
# 1 53.4377 33.6115 -1.2607 0.0000 5.1923 0.0000
# 2 33.6115 64.9916 -2.7597 0.0000 -1.1352 0.0000
# 3 -1.2607 -2.7597 49.2315 0.0000 4.9169 0.0000
# 4 0.0000 0.0000 0.0000 34.5501 0.0000 0.5074
# 5 5.1923 -1.1352 4.9169 0.0000 25.7564 0.0000
# 6 0.0000 0.0000 0.0000 0.5074 0.0000 24.9394
#
#
#
# Elastic Compliance Matrix: (Units=1/GPa)
#
#
# Indices 1 2 3 4 5 6 
#
# 1 0.028786 -0.014978 0.000554 0.000000 -0.006569 0.000000
# 2 -0.014978 0.023224 0.000524 0.000000 0.003943 0.000000
# 3 0.000554 0.000524 0.020760 0.000000 -0.004052 0.000000
# 4 0.000000 0.000000 0.000000 0.028952 0.000000 -0.000589
# 5 -0.006569 0.003943 -0.004052 0.000000 0.041097 0.000000
# 6 0.000000 0.000000 0.000000 -0.000589 0.000000 0.040109
#
#
# Mechanical properties :
#
#
# Convention : Reuss Voigt Hill
#
# Bulk Modulus (GPa) = 22.23716 25.20478 23.72097
# Shear Modulus (GPa) = 22.15148 26.25384 24.20266
#
# Velocity S-wave (km/s) = 3.26442 3.55387 3.41222
# Velocity P-wave (km/s) = 4.99062 5.38194 5.18997
#
# Compressibility (1/GPa) = 0.04496977
#
# Stress axis : x y z
#
# Youngs Moduli (GPa) = 34.73938 43.05888 48.16858
#
# Poissons Ratio (x) = 0.64495 -0.02666
# Poissons Ratio (y) = 0.52034 -0.02526
# Poissons Ratio (z) = -0.01923 -0.02258
#
# Static dielectric constant tensor:
#      x y z
#    x 1.732510 0.000000 -0.006050 
#    y 0.000000 1.777380 0.000000 
#    z -0.006050 0.000000 1.742530 
# 
# From -- ./inp_files/78753.got.cif
#   From: 2010.05.17/outbox.cif.g08.bks.cpg/sg14_40_cif.got.tgz:78753.got - 2010.06.03 17:49:19.
