data_PCOD9247595
_publ_section_title
;
Structure prediction by ZEFSAII (Michael W. Deem and Ramdas Pophale) SiO2 
 PCOD9247595
Probable space group: P 21/C
;
_chemical_formula_sum "Si O2"
_cell_formula_units_Z 16
_cell_length_a 15.936414
_cell_length_b 4.767388
_cell_length_c 25.358642
_cell_angle_alpha 90.000000
_cell_angle_beta 162.487894
_cell_angle_gamma 90.000000
_cell_volume 579.735404
_symmetry_space_group_name_H-M "P 21/C"
_symmetry_group_IT_number 14
_symmetry_cell_setting 'monoclinic'
loop_
_space_group_symop_operation_xyz
x,y,z
-x,1/2+y,1/2-z
-x,-y,-z
x,1/2-y,1/2+z
loop_
_atom_site_type_symbol
_atom_site_label
_atom_site_fract_x
_atom_site_fract_y
_atom_site_fract_z
Si Si1 0.772346 0.167813 0.959884
Si Si2 0.824058 0.229507 0.657394
Si Si3 0.595964 0.333130 0.239258
Si Si4 0.713215 0.470434 0.703720
O O1 0.505681 0.348571 0.819569
O O2 0.785007 0.210742 0.904233
O O3 0.684580 0.851537 0.919438
O O4 0.040574 0.301695 0.146742
O O5 0.746145 0.284600 0.671043
O O6 0.575363 0.358717 0.474142
O O7 0.100282 0.411997 0.810187
O O8 0.718839 0.224538 0.258642
#
# Coordination Sequence:
#
# PCOD9247595 Si02
#       4
#     4   4   4   4
#     4  10  22  39  60  90 123 153 193 242 290 349
#     4  11  26  43  60  88 120 153 200 251 292 342
#     4  10  22  39  60  90 123 153 193 242 290 349
#     4  11  23  40  66  86 117 161 198 238 298 353
#
# _framework density 27.598800000000001
#
# number of rings (size 3 to 8) (size 9 to 14) (size 15 to 20)
#    0.000    1.500    0.000    3.750    0.000   10.000 
#    0.000    7.500    0.000    0.000    0.000    0.000 
#    0.000    0.000    0.000    0.000    0.000    0.000 
#
# Total GULP energy -90046.252931 kJ/mol
# GULP energy per Si atom -5627.890808 kJ/mol
# Density = 2.753598 g / cm^3
# Si number density = 27.598800 Si / 1000 Ang^3
#
#
#
# Elastic Constant Matrix: (Units=GPa)
#
#
# Indices 1 2 3 4 5 6 
#
# 1 163.5145 13.1160 1.7450 0.0000 -17.8808 0.0000
# 2 13.1160 100.2197 12.6125 0.0000 -3.8425 0.0000
# 3 1.7450 12.6125 75.4830 0.0000 11.0013 0.0000
# 4 0.0000 0.0000 0.0000 28.4250 0.0000 2.3911
# 5 -17.8808 -3.8425 11.0013 0.0000 38.4377 0.0000
# 6 0.0000 0.0000 0.0000 2.3911 0.0000 41.3622
#
#
#
# Elastic Compliance Matrix: (Units=1/GPa)
#
#
# Indices 1 2 3 4 5 6 
#
# 1 0.006514 -0.000672 -0.000491 0.000000 0.003104 0.000000
# 2 -0.000672 0.010354 -0.001899 0.000000 0.001266 0.000000
# 3 -0.000491 -0.001899 0.014231 0.000000 -0.004491 0.000000
# 4 0.000000 0.000000 0.000000 0.035352 0.000000 -0.002044
# 5 0.003104 0.001266 -0.004491 0.000000 0.028872 0.000000
# 6 0.000000 0.000000 0.000000 -0.002044 0.000000 0.024295
#
#
# Mechanical properties :
#
#
# Convention : Reuss Voigt Hill
#
# Bulk Modulus (GPa) = 40.03831 43.79602 41.91716
# Shear Modulus (GPa) = 37.29505 42.42789 39.86147
#
# Velocity S-wave (km/s) = 3.68003 3.92511 3.80454
# Velocity P-wave (km/s) = 5.70925 6.03699 5.87541
#
# Compressibility (1/GPa) = 0.02497608
#
# Stress axis : x y z
#
# Youngs Moduli (GPa) = 153.51131 96.58550 70.26802
#
# Poissons Ratio (x) = 0.06488 0.03448
# Poissons Ratio (y) = 0.10313 0.13344
# Poissons Ratio (z) = 0.07532 0.18341
#
# Static dielectric constant tensor:
#      x y z
#    x 2.119340 0.000000 0.032710 
#    y 0.000000 2.025810 0.000000 
#    z 0.032710 0.000000 2.103270 
# 
# From -- ./inp_files/2333.got.cif
#   From: 2010.05.17/outbox.cif.g08.bks.cpg/sg14_2_cif.got.tgz:2333.got - 2010.06.03 17:49:19.
