data_PCOD9247016
_publ_section_title
;
Structure prediction by ZEFSAII (Michael W. Deem and Ramdas Pophale) SiO2 
 PCOD9247016
Probable space group: P 21/C
;
_chemical_formula_sum "Si O2"
_cell_formula_units_Z 32
_cell_length_a 8.531165
_cell_length_b 16.267830
_cell_length_c 9.572608
_cell_angle_alpha 90.000000
_cell_angle_beta 73.626361
_cell_angle_gamma 90.000000
_cell_volume 1274.640669
_symmetry_space_group_name_H-M "P 21/C"
_symmetry_group_IT_number 14
_symmetry_cell_setting 'monoclinic'
loop_
_space_group_symop_operation_xyz
x,y,z
-x,1/2+y,1/2-z
-x,-y,-z
x,1/2-y,1/2+z
loop_
_atom_site_type_symbol
_atom_site_label
_atom_site_fract_x
_atom_site_fract_y
_atom_site_fract_z
Si Si1 0.210007 0.514891 0.790750
Si Si2 0.145776 0.251031 0.129418
Si Si3 0.345120 0.093299 0.510129
Si Si4 0.644539 0.135693 0.276734
Si Si5 0.394238 0.390923 0.588639
Si Si6 0.026671 0.661684 0.566957
Si Si7 0.337935 0.672171 0.665718
Si Si8 0.872272 0.989915 0.222264
O O1 0.263682 0.461170 0.908442
O O2 0.311510 0.479644 0.630450
O O3 0.261476 0.609271 0.796425
O O4 0.020665 0.508582 0.796835
O O5 0.251274 0.173961 0.152035
O O6 0.060684 0.295452 0.278667
O O7 0.266015 0.316247 0.026422
O O8 0.016075 0.217003 0.052860
O O9 0.537608 0.102980 0.436047
O O10 0.285470 0.054742 0.670376
O O11 0.524490 0.117359 0.178987
O O12 0.661636 0.233279 0.290518
O O13 0.807649 0.081887 0.214229
O O14 0.485110 0.362163 0.425370
O O15 0.941745 0.571536 0.586013
O O16 0.214158 0.662311 0.565778
#
# Coordination Sequence:
#
# PCOD9247016 Si02
#       8
#     4   4   4   4   4   4   4   4
#     4  10  23  43  67  99 136 186 228 285 346 414
#     4  11  23  45  70 101 134 181 231 289 341 418
#     4  10  21  43  66  99 134 182 235 283 348 402
#     4  11  24  42  65 102 136 180 232 289 346 410
#     4  11  25  43  67  94 141 175 229 278 353 411
#     4  10  25  43  70 100 137 183 230 285 349 409
#     4  11  25  43  65 102 136 180 227 284 351 409
#     4  10  23  42  68  99 139 179 237 282 345 413
#
# _framework density 25.105114
#
# number of rings (size 3 to 8) (size 9 to 14) (size 15 to 20)
#    0.000    1.500    1.250    2.625    5.250    4.000 
#    4.500    2.500    0.000    0.000    0.000    0.000 
#    0.000    0.000    0.000    0.000    0.000    0.000 
#
# Total GULP energy -179275.829711 kJ/mol
# GULP energy per Si atom -5602.369678 kJ/mol
# Density = 2.504797 g / cm^3
# Si number density = 25.105114 Si / 1000 Ang^3
#
#
#
# Elastic Constant Matrix: (Units=GPa)
#
#
# Indices 1 2 3 4 5 6 
#
# 1 73.4759 31.9593 29.7056 0.0000 -18.4877 0.0000
# 2 31.9593 165.1890 22.1402 0.0000 -9.8530 0.0000
# 3 29.7056 22.1402 52.1787 0.0000 -14.0237 0.0000
# 4 0.0000 0.0000 0.0000 40.6721 0.0000 -13.8721
# 5 -18.4877 -9.8530 -14.0237 0.0000 38.2163 0.0000
# 6 0.0000 0.0000 0.0000 -13.8721 0.0000 43.2604
#
#
#
# Elastic Compliance Matrix: (Units=1/GPa)
#
#
# Indices 1 2 3 4 5 6 
#
# 1 0.019517 -0.002282 -0.008613 0.000000 0.005693 0.000000
# 2 -0.002282 0.006704 -0.001528 0.000000 0.000064 0.000000
# 3 -0.008613 -0.001528 0.026061 0.000000 0.005003 0.000000
# 4 0.000000 0.000000 0.000000 0.027606 0.000000 0.008852
# 5 0.005693 0.000064 0.005003 0.000000 0.030773 0.000000
# 6 0.000000 0.000000 0.000000 0.008852 0.000000 0.025954
#
#
# Mechanical properties :
#
#
# Convention : Reuss Voigt Hill
#
# Bulk Modulus (GPa) = 36.44867 50.93929 43.69398
# Shear Modulus (GPa) = 29.30711 38.23234 33.76972
#
# Velocity S-wave (km/s) = 3.42040 3.90666 3.67158
# Velocity P-wave (km/s) = 5.49079 6.37838 5.95115
#
# Compressibility (1/GPa) = 0.02743584
#
# Stress axis : x y z
#
# Youngs Moduli (GPa) = 51.23747 149.16905 38.37116
#
# Poissons Ratio (x) = 0.34041 0.33048
# Poissons Ratio (y) = 0.11693 0.05864
# Poissons Ratio (z) = 0.44130 0.22797
#
# Static dielectric constant tensor:
#      x y z
#    x 1.919430 0.000000 -0.048840 
#    y 0.000000 1.975870 0.000000 
#    z -0.048840 0.000000 2.055490 
# 
# From -- ./inp_files/25490.got.cif
#   From: 2010.05.17/outbox.cif.g08.bks.cpg/sg14_13_cif.got.tgz:25490.got - 2010.06.03 17:49:19.
