data_PCOD9247275
_publ_section_title
;
Structure prediction by ZEFSAII (Michael W. Deem and Ramdas Pophale) SiO2 
 PCOD9247275
Probable space group: P 21/C
;
_chemical_formula_sum "Si O2"
_cell_formula_units_Z 20
_cell_length_a 18.274908
_cell_length_b 7.464441
_cell_length_c 18.454175
_cell_angle_alpha 90.000000
_cell_angle_beta 14.590693
_cell_angle_gamma 90.000000
_cell_volume 634.156224
_symmetry_space_group_name_H-M "P 21/C"
_symmetry_group_IT_number 14
_symmetry_cell_setting 'monoclinic'
loop_
_space_group_symop_operation_xyz
x,y,z
-x,1/2+y,1/2-z
-x,-y,-z
x,1/2-y,1/2+z
loop_
_atom_site_type_symbol
_atom_site_label
_atom_site_fract_x
_atom_site_fract_y
_atom_site_fract_z
Si Si1 0.857385 0.066616 0.227067
Si Si2 0.088842 0.620059 0.691140
Si Si3 0.622594 0.777936 0.905039
Si Si4 0.561895 0.675193 0.118520
Si Si5 0.304620 0.114727 0.310075
O O1 0.624546 0.170610 0.401344
O O2 0.883224 0.868636 0.166578
O O3 0.716013 0.003648 0.439327
O O4 0.131538 0.192681 0.974472
O O5 0.281385 0.623419 0.432417
O O6 0.367141 0.638666 0.477699
O O7 0.820786 0.752232 0.920585
O O8 0.876067 0.514657 0.953395
O O9 0.712903 0.926650 0.759618
O O10 0.522717 0.796599 0.084560
#
# Coordination Sequence:
#
# PCOD9247275 Si02
#       5
#     4   4   4   4   4
#     4   9  19  31  57  80 104 134 176 208 258 312
#     4  10  22  32  43  68 119 146 157 207 250 322
#     4   9  19  31  57  80 103 136 173 212 255 314
#     4   9  21  33  48  73 107 143 170 199 260 308
#     4  11  19  34  48  75 107 142 173 199 259 307
#
# _framework density 31.537966999999998
#
# number of rings (size 3 to 8) (size 9 to 14) (size 15 to 20)
#    1.200    1.200    2.000    0.600    5.600    0.000 
#    0.000    0.000    0.000    0.000    0.000    0.000 
#    0.000  112.000    0.000    0.000    0.000    0.000 
#
# Total GULP energy -111560.431549 kJ/mol
# GULP energy per Si atom -5578.021577 kJ/mol
# Density = 3.146619 g / cm^3
# Si number density = 31.537967 Si / 1000 Ang^3
#
#
#
# Elastic Constant Matrix: (Units=GPa)
#
#
# Indices 1 2 3 4 5 6 
#
# 1 237.7610 51.5054 93.8070 0.0000 46.4219 0.0000
# 2 51.5054 68.6110 34.9289 0.0000 16.9003 0.0000
# 3 93.8070 34.9289 259.9114 0.0000 26.6763 0.0000
# 4 0.0000 0.0000 0.0000 37.4455 0.0000 20.4177
# 5 46.4219 16.9003 26.6763 0.0000 89.5472 0.0000
# 6 0.0000 0.0000 0.0000 20.4177 0.0000 49.4764
#
#
#
# Elastic Compliance Matrix: (Units=1/GPa)
#
#
# Indices 1 2 3 4 5 6 
#
# 1 0.005867 -0.003153 -0.001488 0.000000 -0.002003 0.000000
# 2 -0.003153 0.017857 -0.001118 0.000000 -0.001402 0.000000
# 3 -0.001488 -0.001118 0.004574 0.000000 -0.000380 0.000000
# 4 0.000000 0.000000 0.000000 0.034460 0.000000 -0.014221
# 5 -0.002003 -0.001402 -0.000380 0.000000 0.012584 0.000000
# 6 0.000000 0.000000 0.000000 -0.014221 0.000000 0.026080
#
#
# Mechanical properties :
#
#
# Convention : Reuss Voigt Hill
#
# Bulk Modulus (GPa) = 59.59814 102.97400 81.28607
# Shear Modulus (GPa) = 42.18246 61.02996 51.60621
#
# Velocity S-wave (km/s) = 3.66117 4.40378 4.04953
# Velocity P-wave (km/s) = 6.06717 7.65372 6.90615
#
# Compressibility (1/GPa) = 0.01677905
#
# Stress axis : x y z
#
# Youngs Moduli (GPa) = 170.43585 56.00176 218.63613
#
# Poissons Ratio (x) = 0.17660 0.32538
# Poissons Ratio (y) = 0.53746 0.24435
# Poissons Ratio (z) = 0.25365 0.06259
#
# Static dielectric constant tensor:
#      x y z
#    x 2.703940 0.000000 0.264720 
#    y 0.000000 3.118470 0.000000 
#    z 0.264720 0.000000 2.462670 
# 
# From -- ./inp_files/47459.got.cif
#   From: 2010.05.17/outbox.cif.g08.bks.cpg/sg14_24_cif.got.tgz:47459.got - 2010.06.03 17:49:19.
