data_PCOD9247456
_publ_section_title
;
Structure prediction by ZEFSAII (Michael W. Deem and Ramdas Pophale) SiO2 
 PCOD9247456
Probable space group: P 21/C
;
_chemical_formula_sum "Si O2"
_cell_formula_units_Z 28
_cell_length_a 10.523698
_cell_length_b 8.097688
_cell_length_c 13.998189
_cell_angle_alpha 90.000000
_cell_angle_beta 72.146573
_cell_angle_gamma 90.000000
_cell_volume 1135.447377
_symmetry_space_group_name_H-M "P 21/C"
_symmetry_group_IT_number 14
_symmetry_cell_setting 'monoclinic'
loop_
_space_group_symop_operation_xyz
x,y,z
-x,1/2+y,1/2-z
-x,-y,-z
x,1/2-y,1/2+z
loop_
_atom_site_type_symbol
_atom_site_label
_atom_site_fract_x
_atom_site_fract_y
_atom_site_fract_z
Si Si1 0.602123 0.818492 0.434104
Si Si2 0.597877 0.277364 0.660065
Si Si3 0.047564 0.771358 0.192756
Si Si4 0.825791 0.752418 0.591132
Si Si5 0.220834 0.576322 0.006843
Si Si6 0.126204 0.124049 0.120017
Si Si7 0.526950 0.843870 0.138800
O O1 0.517589 0.838341 0.358979
O O2 0.737714 0.717034 0.383669
O O3 0.519787 0.708933 0.530015
O O4 0.653609 0.983780 0.472724
O O5 0.729339 0.224249 0.572395
O O6 0.593909 0.230572 0.771938
O O7 0.550118 0.462299 0.649712
O O8 0.130260 0.637393 0.114154
O O9 0.910040 0.785636 0.164371
O O10 0.002339 0.717682 0.307860
O O11 0.122390 0.943957 0.166505
O O12 0.869717 0.629568 0.495582
O O13 0.667215 0.737073 0.640617
O O14 0.846574 0.935478 0.543046
#
# Coordination Sequence:
#
# PCOD9247456 Si02
#       7
#     4   4   4   4   4   4   4
#     4  10  22  42  60  85 118 151 191 244 286 334
#     4  12  22  40  61  85 120 154 188 241 288 337
#     4  12  22  40  61  85 120 154 188 241 288 337
#     4  10  22  42  60  85 118 151 191 244 286 334
#     4  10  22  38  60  88 114 152 198 232 284 350
#     4  10  22  38  60  88 114 152 198 232 284 350
#     4  10  22  38  60  88 114 152 198 232 284 350
#
# _framework density 24.659884000000002
#
# number of rings (size 3 to 8) (size 9 to 14) (size 15 to 20)
#    0.000    1.714    0.000    7.714    0.000    0.000 
#    0.000    4.286    0.000    0.000    0.000    0.000 
#    0.000    0.000    0.000    0.000    0.000    0.000 
#
# Total GULP energy -156783.486019 kJ/mol
# GULP energy per Si atom -5599.410215 kJ/mol
# Density = 2.460376 g / cm^3
# Si number density = 24.659884 Si / 1000 Ang^3
#
#
#
# Elastic Constant Matrix: (Units=GPa)
#
#
# Indices 1 2 3 4 5 6 
#
# 1 32.0331 -8.3364 2.7572 0.0000 1.8098 0.0000
# 2 -8.3364 89.6507 4.5875 0.0000 -9.9840 0.0000
# 3 2.7572 4.5875 109.8964 0.0000 -12.4902 0.0000
# 4 0.0000 0.0000 0.0000 35.9716 0.0000 -11.0554
# 5 1.8098 -9.9840 -12.4902 0.0000 17.5323 0.0000
# 6 0.0000 0.0000 0.0000 -11.0554 0.0000 20.1417
#
#
#
# Elastic Compliance Matrix: (Units=1/GPa)
#
#
# Indices 1 2 3 4 5 6 
#
# 1 0.032190 0.002764 -0.001221 0.000000 -0.002618 0.000000
# 2 0.002764 0.012156 0.000193 0.000000 0.006775 0.000000
# 3 -0.001221 0.000193 0.009955 0.000000 0.007328 0.000000
# 4 0.000000 0.000000 0.000000 0.033441 0.000000 0.018355
# 5 -0.002618 0.006775 0.007328 0.000000 0.066387 0.000000
# 6 0.000000 0.000000 0.000000 0.018355 0.000000 0.059723
#
#
# Mechanical properties :
#
#
# Convention : Reuss Voigt Hill
#
# Bulk Modulus (GPa) = 17.30867 25.51074 21.40971
# Shear Modulus (GPa) = 21.77359 30.23391 26.00375
#
# Velocity S-wave (km/s) = 2.97468 3.50528 3.25082
# Velocity P-wave (km/s) = 4.33964 5.17205 4.77403
#
# Compressibility (1/GPa) = 0.05777452
#
# Stress axis : x y z
#
# Youngs Moduli (GPa) = 31.06547 82.26374 100.45306
#
# Poissons Ratio (x) = -0.22739 0.12261
# Poissons Ratio (y) = -0.08587 -0.01941
# Poissons Ratio (z) = 0.03792 -0.01589
#
# Static dielectric constant tensor:
#      x y z
#    x 1.946710 0.000000 -0.029080 
#    y 0.000000 1.973340 0.000000 
#    z -0.029080 0.000000 1.928030 
# 
# From -- ./inp_files/31476.got.cif
#   From: 2010.05.17/outbox.cif.g08.bks.cpg/sg14_16_cif.got.tgz:31476.got - 2010.06.03 17:49:19.
