data_PCOD9247384
_publ_section_title
;
Structure prediction by ZEFSAII (Michael W. Deem and Ramdas Pophale) SiO2 
 PCOD9247384
Probable space group: P 21/C
;
_chemical_formula_sum "Si O2"
_cell_formula_units_Z 28
_cell_length_a 14.817849
_cell_length_b 5.150702
_cell_length_c 14.410706
_cell_angle_alpha 90.000000
_cell_angle_beta 105.186837
_cell_angle_gamma 90.000000
_cell_volume 1061.447892
_symmetry_space_group_name_H-M "P 21/C"
_symmetry_group_IT_number 14
_symmetry_cell_setting 'monoclinic'
loop_
_space_group_symop_operation_xyz
x,y,z
-x,1/2+y,1/2-z
-x,-y,-z
x,1/2-y,1/2+z
loop_
_atom_site_type_symbol
_atom_site_label
_atom_site_fract_x
_atom_site_fract_y
_atom_site_fract_z
Si Si1 0.359034 0.585659 0.521301
Si Si2 0.826249 0.310461 0.971669
Si Si3 0.077872 0.109701 0.364410
Si Si4 0.454368 0.654224 0.196130
Si Si5 0.120804 0.660845 0.695795
Si Si6 0.756425 0.592115 0.662449
Si Si7 0.280900 0.293019 0.156751
O O1 0.269425 0.775001 0.498600
O O2 0.445986 0.743559 0.587026
O O3 0.341787 0.464545 0.415874
O O4 0.335373 0.376544 0.595507
O O5 0.834550 0.099877 0.892409
O O6 0.811021 0.572524 0.909405
O O7 0.904925 0.358329 0.067632
O O8 0.081805 0.050388 0.256290
O O9 0.169816 0.294699 0.393538
O O10 0.976741 0.208855 0.361669
O O11 0.519364 0.405779 0.235121
O O12 0.352141 0.540319 0.191866
O O13 0.188213 0.852867 0.773637
O O14 0.736106 0.792720 0.741545
#
# Coordination Sequence:
#
# PCOD9247384 Si02
#       7
#     4   4   4   4   4   4   4
#     4  11  21  42  68  96 128 176 216 272 338 399
#     4  10  22  37  60  90 125 174 229 276 334 403
#     4  12  21  39  59  88 129 177 227 288 338 383
#     4  11  23  45  75 100 137 177 212 270 339 410
#     4  11  23  38  56  87 129 174 227 285 335 385
#     4  11  23  40  63  95 129 170 228 274 327 405
#     4  10  22  41  67  97 130 174 215 274 333 403
#
# _framework density 26.379061
#
# number of rings (size 3 to 8) (size 9 to 14) (size 15 to 20)
#    0.000    1.143    5.714    1.286    0.000    0.000 
#    0.000    2.857    0.000    0.000    0.000    0.000 
#    0.000    0.000    0.000    0.000    0.000    0.000 
#
# Total GULP energy -156285.240207 kJ/mol
# GULP energy per Si atom -5581.615722 kJ/mol
# Density = 2.631902 g / cm^3
# Si number density = 26.379061 Si / 1000 Ang^3
#
#
#
# Elastic Constant Matrix: (Units=GPa)
#
#
# Indices 1 2 3 4 5 6 
#
# 1 39.9813 -14.5379 1.8604 0.0000 9.6051 0.0000
# 2 -14.5379 76.3234 7.7898 0.0000 7.3170 0.0000
# 3 1.8604 7.7898 123.6015 0.0000 6.4120 0.0000
# 4 0.0000 0.0000 0.0000 30.1882 0.0000 2.4036
# 5 9.6051 7.3170 6.4120 0.0000 39.9837 0.0000
# 6 0.0000 0.0000 0.0000 2.4036 0.0000 24.6000
#
#
#
# Elastic Compliance Matrix: (Units=1/GPa)
#
#
# Indices 1 2 3 4 5 6 
#
# 1 0.029319 0.006409 -0.000423 0.000000 -0.008148 0.000000
# 2 0.006409 0.014801 -0.000816 0.000000 -0.004117 0.000000
# 3 -0.000423 -0.000816 0.008204 0.000000 -0.001065 0.000000
# 4 0.000000 0.000000 0.000000 0.033385 0.000000 -0.003262
# 5 -0.008148 -0.004117 -0.001065 0.000000 0.027892 0.000000
# 6 0.000000 0.000000 0.000000 -0.003262 0.000000 0.040969
#
#
# Mechanical properties :
#
#
# Convention : Reuss Voigt Hill
#
# Bulk Modulus (GPa) = 15.95778 25.57009 20.76394
# Shear Modulus (GPa) = 30.28159 35.27398 32.77779
#
# Velocity S-wave (km/s) = 3.39180 3.66074 3.52883
# Velocity P-wave (km/s) = 4.62619 5.25189 4.94894
#
# Compressibility (1/GPa) = 0.06266534
#
# Stress axis : x y z
#
# Youngs Moduli (GPa) = 34.10716 67.56354 121.89894
#
# Poissons Ratio (x) = -0.43301 0.05150
# Poissons Ratio (y) = -0.21859 0.09943
# Poissons Ratio (z) = 0.01441 0.05511
#
# Static dielectric constant tensor:
#      x y z
#    x 2.122930 0.000000 0.018900 
#    y 0.000000 2.225280 0.000000 
#    z 0.018900 0.000000 2.138790 
# 
# From -- ./inp_files/48003.got.cif
#   From: 2010.05.17/outbox.cif.g08.bks.cpg/sg14_25_cif.got.tgz:48003.got - 2010.06.03 17:49:19.
