data_PCOD9247228
_publ_section_title
;
Structure prediction by ZEFSAII (Michael W. Deem and Ramdas Pophale) SiO2 
 PCOD9247228
Probable space group: P 21/C
;
_chemical_formula_sum "Si O2"
_cell_formula_units_Z 28
_cell_length_a 8.488343
_cell_length_b 8.166181
_cell_length_c 18.625113
_cell_angle_alpha 90.000000
_cell_angle_beta 56.746596
_cell_angle_gamma 90.000000
_cell_volume 1079.639656
_symmetry_space_group_name_H-M "P 21/C"
_symmetry_group_IT_number 14
_symmetry_cell_setting 'monoclinic'
loop_
_space_group_symop_operation_xyz
x,y,z
-x,1/2+y,1/2-z
-x,-y,-z
x,1/2-y,1/2+z
loop_
_atom_site_type_symbol
_atom_site_label
_atom_site_fract_x
_atom_site_fract_y
_atom_site_fract_z
Si Si1 0.788563 0.258326 0.795598
Si Si2 0.494067 0.471404 0.599047
Si Si3 0.239873 0.945770 0.830229
Si Si4 0.032699 0.142624 0.433479
Si Si5 0.795324 0.743458 0.252210
Si Si6 0.279894 0.508724 0.066168
Si Si7 0.168168 0.339751 0.530726
O O1 0.643001 0.126540 0.859544
O O2 0.738192 0.287926 0.725808
O O3 0.756208 0.429155 0.845145
O O4 0.003832 0.216587 0.760868
O O5 0.633030 0.438818 0.632110
O O6 0.344970 0.325342 0.652304
O O7 0.651652 0.543178 0.504291
O O8 0.015901 0.937127 0.899954
O O9 0.285308 0.105203 0.772273
O O10 0.150728 0.120726 0.329436
O O11 0.128557 0.282815 0.457807
O O12 0.819601 0.153126 0.456259
O O13 0.000000 0.000000 0.500000
O O14 0.195373 0.334597 0.063472
O O15 0.500000 0.500000 0.000000
#
# Coordination Sequence:
#
# PCOD9247228 Si02
#       7
#     4   4   4   4   4   4   4
#     4  11  26  48  73 106 150 194 256 311 379 456
#     4  12  25  47  76 107 151 195 259 309 377 456
#     4  12  27  45  75 107 153 199 254 313 381 450
#     4   9  21  40  69 101 147 189 244 304 373 438
#     4  11  25  47  68 106 147 200 243 314 374 439
#     4  10  21  45  73 108 150 199 250 313 389 450
#     4  11  24  47  74 113 151 201 256 315 372 463
#
# _framework density 25.934578999999999
#
# number of rings (size 3 to 8) (size 9 to 14) (size 15 to 20)
#    0.000    1.143    2.857    2.143    8.000    0.000 
#    2.571    2.857    0.000    0.000    0.000    0.000 
#    0.000    0.000    0.000    0.000    0.000    0.000 
#
# Total GULP energy -156449.587083 kJ/mol
# GULP energy per Si atom -5587.485253 kJ/mol
# Density = 2.587555 g / cm^3
# Si number density = 25.934579 Si / 1000 Ang^3
#
#
#
# Elastic Constant Matrix: (Units=GPa)
#
#
# Indices 1 2 3 4 5 6 
#
# 1 69.4444 20.1369 3.3033 0.0000 -38.8328 0.0000
# 2 20.1369 81.7611 21.4846 0.0000 -7.0465 0.0000
# 3 3.3033 21.4846 76.0838 0.0000 -19.0395 0.0000
# 4 0.0000 0.0000 0.0000 52.4619 0.0000 1.2048
# 5 -38.8328 -7.0465 -19.0395 0.0000 44.5891 0.0000
# 6 0.0000 0.0000 0.0000 1.2048 0.0000 59.8231
#
#
#
# Elastic Compliance Matrix: (Units=1/GPa)
#
#
# Indices 1 2 3 4 5 6 
#
# 1 0.034567 -0.008049 0.008943 0.000000 0.032651 0.000000
# 2 -0.008049 0.015098 -0.005678 0.000000 -0.007049 0.000000
# 3 0.008943 -0.005678 0.018007 0.000000 0.014580 0.000000
# 4 0.000000 0.000000 0.000000 0.019070 0.000000 -0.000384
# 5 0.032651 -0.007049 0.014580 0.000000 0.055975 0.000000
# 6 0.000000 0.000000 0.000000 -0.000384 0.000000 0.016724
#
#
# Mechanical properties :
#
#
# Convention : Reuss Voigt Hill
#
# Bulk Modulus (GPa) = 17.21075 35.23764 26.22419
# Shear Modulus (GPa) = 26.54259 43.53246 35.03752
#
# Velocity S-wave (km/s) = 3.20260 4.10145 3.67958
# Velocity P-wave (km/s) = 4.50845 6.00382 5.30905
#
# Compressibility (1/GPa) = 0.05810324
#
# Stress axis : x y z
#
# Youngs Moduli (GPa) = 28.92938 66.23517 55.53388
#
# Poissons Ratio (x) = 0.53316 -0.49664
# Poissons Ratio (y) = 0.23287 0.31531
# Poissons Ratio (z) = -0.25871 0.37607
#
# Static dielectric constant tensor:
#      x y z
#    x 2.100200 0.000000 0.026560 
#    y 0.000000 2.122900 0.000000 
#    z 0.026560 0.000000 2.125470 
# 
# From -- ./inp_files/64960.got.cif
#   From: 2010.05.17/outbox.cif.g08.bks.cpg/sg14_33_cif.got.tgz:64960.got - 2010.06.03 17:49:19.
