data_PCOD9247901
_publ_section_title
;
Structure prediction by ZEFSAII (Michael W. Deem and Ramdas Pophale) SiO2 
 PCOD9247901
Probable space group: P 21/C
;
_chemical_formula_sum "Si O2"
_cell_formula_units_Z 30
_cell_length_a 7.796954
_cell_length_b 11.292359
_cell_length_c 16.637587
_cell_angle_alpha 90.000000
_cell_angle_beta 126.775098
_cell_angle_gamma 90.000000
_cell_volume 1173.351070
_symmetry_space_group_name_H-M "P 21/C"
_symmetry_group_IT_number 14
_symmetry_cell_setting 'monoclinic'
loop_
_space_group_symop_operation_xyz
x,y,z
-x,1/2+y,1/2-z
-x,-y,-z
x,1/2-y,1/2+z
loop_
_atom_site_type_symbol
_atom_site_label
_atom_site_fract_x
_atom_site_fract_y
_atom_site_fract_z
Si Si1 0.229135 0.535494 0.843681
Si Si2 0.723190 0.020024 0.296093
Si Si3 0.834209 0.668108 0.493692
Si Si4 0.500000 0.000000 0.000000
Si Si5 0.265293 0.447892 0.026077
Si Si6 0.273640 0.100002 0.208230
Si Si7 0.654986 0.813399 0.165196
Si Si8 0.080445 0.762014 0.201222
O O1 0.484470 0.518712 0.910853
O O2 0.140150 0.459921 0.742847
O O3 0.189825 0.668626 0.804518
O O4 0.166891 0.497288 0.915546
O O5 0.465085 0.016465 0.232312
O O6 0.792607 0.143345 0.278120
O O7 0.802933 0.005945 0.409180
O O8 0.774918 0.915829 0.249036
O O9 0.663347 0.579638 0.487356
O O10 0.760330 0.806473 0.473418
O O11 0.859590 0.635900 0.407135
O O12 0.050253 0.668964 0.608173
O O13 0.495672 0.885743 0.063536
O O14 0.395919 0.213250 0.283335
O O15 0.833061 0.751727 0.158932
#
# Coordination Sequence:
#
# PCOD9247901 Si02
#       8
#     4   4   4   2   4   4   4   4
#     4  10  23  43  67 101 137 183 230 296 343 416
#     4  11  24  44  72 101 131 188 235 290 340 424
#     4  11  22  41  65 101 136 187 224 293 340 431
#     4  10  22  40  66 100 140 186 236 276 360 408
#     4  10  22  44  72  97 134 189 245 275 344 431
#     4  11  23  44  73  96 140 184 246 277 342 423
#     4  11  24  43  69 102 140 188 224 301 346 421
#     4  11  27  40  65 103 145 172 233 294 363 397
#
# _framework density 25.567795
#
# number of rings (size 3 to 8) (size 9 to 14) (size 15 to 20)
#    0.000    1.333    2.667    2.400    5.600    2.133 
#    0.000    1.333    0.000    0.000    0.000    0.000 
#    0.000    0.000    0.000    0.000    0.000    0.000 
#
# Total GULP energy -167256.283728 kJ/mol
# GULP energy per Si atom -5575.209458 kJ/mol
# Density = 2.550960 g / cm^3
# Si number density = 25.567795 Si / 1000 Ang^3
#
#
#
# Elastic Constant Matrix: (Units=GPa)
#
#
# Indices 1 2 3 4 5 6 
#
# 1 82.4988 31.4275 27.8908 0.0000 -39.2369 0.0000
# 2 31.4275 117.6034 23.7782 0.0000 -31.9775 0.0000
# 3 27.8908 23.7782 111.5046 0.0000 -38.2337 0.0000
# 4 0.0000 0.0000 0.0000 57.0945 0.0000 -10.0344
# 5 -39.2369 -31.9775 -38.2337 0.0000 39.0614 0.0000
# 6 0.0000 0.0000 0.0000 -10.0344 0.0000 39.5915
#
#
#
# Elastic Compliance Matrix: (Units=1/GPa)
#
#
# Indices 1 2 3 4 5 6 
#
# 1 0.024062 0.000467 0.003463 0.000000 0.027942 0.000000
# 2 0.000467 0.011039 0.001187 0.000000 0.010669 0.000000
# 3 0.003463 0.001187 0.014111 0.000000 0.018262 0.000000
# 4 0.000000 0.000000 0.000000 0.018331 0.000000 0.004646
# 5 0.027942 0.010669 0.018262 0.000000 0.080277 0.000000
# 6 0.000000 0.000000 0.000000 0.004646 0.000000 0.026435
#
#
# Mechanical properties :
#
#
# Convention : Reuss Voigt Hill
#
# Bulk Modulus (GPa) = 16.82175 53.08885 34.95530
# Shear Modulus (GPa) = 27.19797 42.38350 34.79073
#
# Velocity S-wave (km/s) = 3.26507 4.07589 3.69280
# Velocity P-wave (km/s) = 4.56156 6.55435 5.64656
#
# Compressibility (1/GPa) = 0.05944686
#
# Stress axis : x y z
#
# Youngs Moduli (GPa) = 41.55892 90.58687 70.86791
#
# Poissons Ratio (x) = -0.04234 -0.24540
# Poissons Ratio (y) = -0.01943 -0.08413
# Poissons Ratio (z) = -0.14391 -0.10754
#
# Static dielectric constant tensor:
#      x y z
#    x 2.043280 0.000000 0.001860 
#    y 0.000000 2.097430 0.000000 
#    z 0.001860 0.000000 2.094650 
# 
# From -- ./inp_files/40432.got.cif
#   From: 2010.05.17/outbox.cif.g08.bks.cpg/sg14_21_cif.got.tgz:40432.got - 2010.06.03 17:49:19.
