data_PCOD9247253
_publ_section_title
;
Structure prediction by ZEFSAII (Michael W. Deem and Ramdas Pophale) SiO2 
 PCOD9247253
Probable space group: P 21/C
;
_chemical_formula_sum "Si O2"
_cell_formula_units_Z 28
_cell_length_a 16.708208
_cell_length_b 8.862625
_cell_length_c 17.152889
_cell_angle_alpha 90.000000
_cell_angle_beta 23.272902
_cell_angle_gamma 90.000000
_cell_volume 1003.572454
_symmetry_space_group_name_H-M "P 21/C"
_symmetry_group_IT_number 14
_symmetry_cell_setting 'monoclinic'
loop_
_space_group_symop_operation_xyz
x,y,z
-x,1/2+y,1/2-z
-x,-y,-z
x,1/2-y,1/2+z
loop_
_atom_site_type_symbol
_atom_site_label
_atom_site_fract_x
_atom_site_fract_y
_atom_site_fract_z
Si Si1 0.450506 0.629016 0.166462
Si Si2 0.330090 0.956166 0.329457
Si Si3 0.819527 0.970976 0.991252
Si Si4 0.778637 0.875106 0.721502
Si Si5 0.144305 0.153533 0.628935
Si Si6 0.341433 0.888860 0.051429
Si Si7 0.105257 0.840720 0.853814
O O1 0.379377 0.781245 0.275659
O O2 0.392181 0.490876 0.275037
O O3 0.691845 0.641662 0.947312
O O4 0.306871 0.616646 0.220343
O O5 0.540541 0.050584 0.129668
O O6 0.205999 0.000652 0.361983
O O7 0.210616 0.024107 0.508180
O O8 0.829431 0.815518 0.934877
O O9 0.972332 0.962954 0.928931
O O10 0.944190 0.751446 0.551715
O O11 0.764602 0.964473 0.814782
O O12 0.541296 0.832105 0.921462
O O13 0.919103 0.108998 0.854967
O O14 0.182415 0.760387 0.211555
#
# Coordination Sequence:
#
# PCOD9247253 Si02
#       7
#     4   4   4   4   4   4   4
#     4  12  27  46  72 110 149 186 242 305 367 431
#     4  10  21  46  73 104 142 190 240 297 353 429
#     4  12  29  50  74 105 145 201 242 296 370 437
#     4   9  18  38  67 111 142 181 239 292 354 422
#     4  12  28  52  72 104 147 197 249 299 364 441
#     4   9  19  36  68 110 140 179 232 298 353 419
#     4  12  23  43  76 110 146 189 240 306 365 430
#
# _framework density 27.900326
#
# number of rings (size 3 to 8) (size 9 to 14) (size 15 to 20)
#    0.857    0.286    2.857    2.571    0.000    8.571 
#    0.000    0.000    0.000    0.000    0.000    0.000 
#    0.000    0.000    0.000    0.000    0.000    0.000 
#
# Total GULP energy -156676.670317 kJ/mol
# GULP energy per Si atom -5595.595368 kJ/mol
# Density = 2.783682 g / cm^3
# Si number density = 27.900326 Si / 1000 Ang^3
#
#
#
# Elastic Constant Matrix: (Units=GPa)
#
#
# Indices 1 2 3 4 5 6 
#
# 1 85.6399 -12.9535 11.8905 0.0000 -11.5567 0.0000
# 2 -12.9535 41.3200 -1.1529 0.0000 1.1060 0.0000
# 3 11.8905 -1.1529 117.0158 0.0000 -3.7510 0.0000
# 4 0.0000 0.0000 0.0000 52.4699 0.0000 4.9881
# 5 -11.5567 1.1060 -3.7510 0.0000 38.2984 0.0000
# 6 0.0000 0.0000 0.0000 4.9881 0.0000 43.1865
#
#
#
# Elastic Compliance Matrix: (Units=1/GPa)
#
#
# Indices 1 2 3 4 5 6 
#
# 1 0.012926 0.003922 -0.001157 0.000000 0.003674 0.000000
# 2 0.003922 0.025415 -0.000134 0.000000 0.000436 0.000000
# 3 -0.001157 -0.000134 0.008678 0.000000 0.000505 0.000000
# 4 0.000000 0.000000 0.000000 0.019270 0.000000 -0.002226
# 5 0.003674 0.000436 0.000505 0.000000 0.027256 0.000000
# 6 0.000000 0.000000 0.000000 -0.002226 0.000000 0.023412
#
#
# Mechanical properties :
#
#
# Convention : Reuss Voigt Hill
#
# Bulk Modulus (GPa) = 19.12738 26.61598 22.87168
# Shear Modulus (GPa) = 38.72218 43.20373 40.96296
#
# Velocity S-wave (km/s) = 3.72946 3.93937 3.83585
# Velocity P-wave (km/s) = 5.04140 5.50017 5.27577
#
# Compressibility (1/GPa) = 0.05228108
#
# Stress axis : x y z
#
# Youngs Moduli (GPa) = 77.36087 39.34629 115.23004
#
# Poissons Ratio (x) = -0.15430 0.13333
# Poissons Ratio (y) = -0.30339 0.01545
# Poissons Ratio (z) = 0.08951 0.00528
#
# Static dielectric constant tensor:
#      x y z
#    x 2.319250 0.000000 -0.096880 
#    y 0.000000 2.150750 0.000000 
#    z -0.096880 0.000000 2.132440 
# 
# From -- ./inp_files/69278.got.cif
#   From: 2010.05.17/outbox.cif.g08.bks.cpg/sg14_35_cif.got.tgz:69278.got - 2010.06.03 17:49:19.
