data_PCOD9247221
_publ_section_title
;
Structure prediction by ZEFSAII (Michael W. Deem and Ramdas Pophale) SiO2 
 PCOD9247221
Probable space group: P 21/C
;
_chemical_formula_sum "Si O2"
_cell_formula_units_Z 32
_cell_length_a 8.530597
_cell_length_b 17.640659
_cell_length_c 11.111507
_cell_angle_alpha 90.000000
_cell_angle_beta 126.057229
_cell_angle_gamma 90.000000
_cell_volume 1351.790352
_symmetry_space_group_name_H-M "P 21/C"
_symmetry_group_IT_number 14
_symmetry_cell_setting 'monoclinic'
loop_
_space_group_symop_operation_xyz
x,y,z
-x,1/2+y,1/2-z
-x,-y,-z
x,1/2-y,1/2+z
loop_
_atom_site_type_symbol
_atom_site_label
_atom_site_fract_x
_atom_site_fract_y
_atom_site_fract_z
Si Si1 0.778236 0.867138 0.892588
Si Si2 0.738407 0.437528 0.700215
Si Si3 0.334314 0.397065 0.392387
Si Si4 0.078861 0.761156 0.949546
Si Si5 0.505446 0.775976 0.210489
Si Si6 0.467253 0.376470 0.062476
Si Si7 0.457857 0.545837 0.141890
Si Si8 0.954737 0.808838 0.649447
O O1 0.631915 0.797720 0.795237
O O2 0.680589 0.939365 0.784390
O O3 0.987710 0.843699 0.940854
O O4 0.768428 0.873792 0.030915
O O5 0.557046 0.416699 0.532279
O O6 0.769245 0.526878 0.699116
O O7 0.667232 0.425766 0.804066
O O8 0.916588 0.382547 0.763880
O O9 0.360940 0.333820 0.303644
O O10 0.006593 0.749495 0.779504
O O11 0.309804 0.757950 0.051857
O O12 0.003917 0.715214 0.034009
O O13 0.436288 0.819095 0.300366
O O14 0.422014 0.457184 0.104999
O O15 0.575963 0.405163 0.992836
O O16 0.268740 0.332944 0.940813
#
# Coordination Sequence:
#
# PCOD9247221 Si02
#       8
#     4   4   4   4   4   4   4   4
#     4  11  25  43  71 104 144 185 243 303 362 439
#     4  10  21  45  71  96 143 187 244 288 364 434
#     4  10  22  43  69 101 138 192 230 298 369 432
#     4  12  27  45  72 110 147 191 244 300 375 435
#     4  12  25  45  73 105 142 191 242 301 368 435
#     4  11  24  44  71 100 149 185 239 299 368 426
#     4  10  22  44  68 101 137 193 232 290 363 432
#     4  12  26  49  71 112 149 189 247 312 358 452
#
# _framework density 23.672308999999998
#
# number of rings (size 3 to 8) (size 9 to 14) (size 15 to 20)
#    0.000    1.000    5.000    1.500    3.500    1.500 
#    4.500    1.250    0.000    0.000    0.000    0.000 
#    0.000    0.000    0.000    0.000    0.000    0.000 
#
# Total GULP energy -179031.700249 kJ/mol
# GULP energy per Si atom -5594.740633 kJ/mol
# Density = 2.361843 g / cm^3
# Si number density = 23.672309 Si / 1000 Ang^3
#
#
#
# Elastic Constant Matrix: (Units=GPa)
#
#
# Indices 1 2 3 4 5 6 
#
# 1 43.6584 27.6303 15.6435 0.0000 -12.5932 0.0000
# 2 27.6303 87.9919 53.6807 0.0000 -13.9965 0.0000
# 3 15.6435 53.6807 102.8477 0.0000 -10.1913 0.0000
# 4 0.0000 0.0000 0.0000 44.7049 0.0000 -8.6925
# 5 -12.5932 -13.9965 -10.1913 0.0000 38.1911 0.0000
# 6 0.0000 0.0000 0.0000 -8.6925 0.0000 33.5234
#
#
#
# Elastic Compliance Matrix: (Units=1/GPa)
#
#
# Indices 1 2 3 4 5 6 
#
# 1 0.030232 -0.008811 0.000686 0.000000 0.006923 0.000000
# 2 -0.008811 0.019824 -0.008808 0.000000 0.002010 0.000000
# 3 0.000686 -0.008808 0.014297 0.000000 0.000813 0.000000
# 4 0.000000 0.000000 0.000000 0.023557 0.000000 0.006108
# 5 0.006923 0.002010 0.000813 0.000000 0.029420 0.000000
# 6 0.000000 0.000000 0.000000 0.006108 0.000000 0.031414
#
#
# Mechanical properties :
#
#
# Convention : Reuss Voigt Hill
#
# Bulk Modulus (GPa) = 32.79932 47.60078 40.20005
# Shear Modulus (GPa) = 25.93748 32.45346 29.19547
#
# Velocity S-wave (km/s) = 3.31371 3.70665 3.51567
# Velocity P-wave (km/s) = 5.34102 6.20249 5.78780
#
# Compressibility (1/GPa) = 0.03048844
#
# Stress axis : x y z
#
# Youngs Moduli (GPa) = 33.07739 50.44296 69.94687
#
# Poissons Ratio (x) = 0.44443 -0.04800
# Poissons Ratio (y) = 0.29143 0.61609
# Poissons Ratio (z) = -0.02270 0.44430
#
# Static dielectric constant tensor:
#      x y z
#    x 1.862740 0.000000 -0.025390 
#    y 0.000000 1.901950 0.000000 
#    z -0.025390 0.000000 1.940910 
# 
# From -- ./inp_files/26268.got.cif
#   From: 2010.05.17/outbox.cif.g08.bks.cpg/sg14_14_cif.got.tgz:26268.got - 2010.06.03 17:49:19.
