data_PCOD9247266
_publ_section_title
;
Structure prediction by ZEFSAII (Michael W. Deem and Ramdas Pophale) SiO2 
 PCOD9247266
Probable space group: P 21/C
;
_chemical_formula_sum "Si O2"
_cell_formula_units_Z 28
_cell_length_a 5.072312
_cell_length_b 17.689837
_cell_length_c 14.109063
_cell_angle_alpha 90.000000
_cell_angle_beta 117.590976
_cell_angle_gamma 90.000000
_cell_volume 1122.011260
_symmetry_space_group_name_H-M "P 21/C"
_symmetry_group_IT_number 14
_symmetry_cell_setting 'monoclinic'
loop_
_space_group_symop_operation_xyz
x,y,z
-x,1/2+y,1/2-z
-x,-y,-z
x,1/2-y,1/2+z
loop_
_atom_site_type_symbol
_atom_site_label
_atom_site_fract_x
_atom_site_fract_y
_atom_site_fract_z
Si Si1 0.225994 0.931369 0.517575
Si Si2 0.683941 0.086497 0.263988
Si Si3 0.124775 0.552740 0.796581
Si Si4 0.719632 0.016442 0.892756
Si Si5 0.574313 0.661102 0.677593
Si Si6 0.148088 0.761451 0.481196
Si Si7 0.474954 0.759275 0.838563
O O1 0.425165 0.925940 0.645599
O O2 0.077716 0.848253 0.496725
O O3 0.329790 0.937453 0.424906
O O4 0.000000 0.000000 0.500000
O O5 0.708093 0.174529 0.246249
O O6 0.939979 0.024008 0.291130
O O7 0.461887 0.059596 0.145310
O O8 0.903014 0.625259 0.749784
O O9 0.240009 0.540494 0.710102
O O10 0.555303 0.089794 0.902738
O O11 0.000000 0.000000 0.000000
O O12 0.413800 0.728402 0.591731
O O13 0.493329 0.688537 0.770157
O O14 0.295467 0.757181 0.402942
O O15 0.822412 0.721844 0.422299
#
# Coordination Sequence:
#
# PCOD9247266 Si02
#       7
#     4   4   4   4   4   4   4
#     4  10  21  48  70 104 143 190 248 301 368 434
#     4  10  24  43  68 105 137 189 245 300 361 450
#     4  10  23  44  70  99 143 189 237 305 365 436
#     4  11  25  43  69 101 145 190 246 296 375 440
#     4  11  25  44  70 104 143 189 242 303 371 434
#     4  12  27  46  74 106 148 190 239 308 365 437
#     4  12  27  47  72 107 146 189 245 299 376 430
#
# _framework density 24.955183999999999
#
# number of rings (size 3 to 8) (size 9 to 14) (size 15 to 20)
#    0.000    1.143    2.857    1.714    8.000    1.714 
#    5.143    0.000    0.000    0.000    0.000    0.000 
#    0.000    0.000    0.000    0.000    0.000    0.000 
#
# Total GULP energy -155990.807327 kJ/mol
# GULP energy per Si atom -5571.100262 kJ/mol
# Density = 2.489839 g / cm^3
# Si number density = 24.955184 Si / 1000 Ang^3
#
#
#
# Elastic Constant Matrix: (Units=GPa)
#
#
# Indices 1 2 3 4 5 6 
#
# 1 67.8429 20.8102 4.2328 0.0000 1.8872 0.0000
# 2 20.8102 107.3180 33.9128 0.0000 -0.1617 0.0000
# 3 4.2328 33.9128 113.1042 0.0000 10.6067 0.0000
# 4 0.0000 0.0000 0.0000 36.9783 0.0000 5.6482
# 5 1.8872 -0.1617 10.6067 0.0000 26.7599 0.0000
# 6 0.0000 0.0000 0.0000 5.6482 0.0000 5.4221
#
#
#
# Elastic Compliance Matrix: (Units=1/GPa)
#
#
# Indices 1 2 3 4 5 6 
#
# 1 0.015730 -0.003210 0.000498 0.000000 -0.001326 0.000000
# 2 -0.003210 0.010994 -0.003328 0.000000 0.001612 0.000000
# 3 0.000498 -0.003328 0.010205 0.000000 -0.004100 0.000000
# 4 0.000000 0.000000 0.000000 0.032160 0.000000 -0.033501
# 5 -0.001326 0.001612 -0.004100 0.000000 0.039098 0.000000
# 6 0.000000 0.000000 0.000000 -0.033501 0.000000 0.219327
#
#
# Mechanical properties :
#
#
# Convention : Reuss Voigt Hill
#
# Bulk Modulus (GPa) = 40.23923 45.13074 42.68499
# Shear Modulus (GPa) = 14.37292 29.11936 21.74614
#
# Velocity S-wave (km/s) = 2.40250 3.41965 2.95516
# Velocity P-wave (km/s) = 4.88422 5.80654 5.36524
#
# Compressibility (1/GPa) = 0.02485137
#
# Stress axis : x y z
#
# Youngs Moduli (GPa) = 63.57162 90.95498 97.99119
#
# Poissons Ratio (x) = 0.29194 -0.04881
# Poissons Ratio (y) = 0.20404 0.32607
# Poissons Ratio (z) = -0.03166 0.30266
#
# Static dielectric constant tensor:
#      x y z
#    x 2.094650 0.000000 0.002270 
#    y 0.000000 2.066350 0.000000 
#    z 0.002270 0.000000 2.030780 
# 
# From -- ./inp_files/37778.got.cif
#   From: 2010.05.17/outbox.cif.g08.bks.cpg/sg14_19_cif.got.tgz:37778.got - 2010.06.03 17:49:19.
