data_PCOD9247818
_publ_section_title
;
Structure prediction by ZEFSAII (Michael W. Deem and Ramdas Pophale) SiO2 
 PCOD9247818
Probable space group: P 21/C
;
_chemical_formula_sum "Si O2"
_cell_formula_units_Z 28
_cell_length_a 8.494351
_cell_length_b 9.090951
_cell_length_c 25.355705
_cell_angle_alpha 90.000000
_cell_angle_beta 43.250200
_cell_angle_gamma 90.000000
_cell_volume 1341.601066
_symmetry_space_group_name_H-M "P 21/C"
_symmetry_group_IT_number 14
_symmetry_cell_setting 'monoclinic'
loop_
_space_group_symop_operation_xyz
x,y,z
-x,1/2+y,1/2-z
-x,-y,-z
x,1/2-y,1/2+z
loop_
_atom_site_type_symbol
_atom_site_label
_atom_site_fract_x
_atom_site_fract_y
_atom_site_fract_z
Si Si1 0.053014 0.889956 0.719681
Si Si2 0.822180 0.673662 0.107036
Si Si3 0.220124 0.910707 0.146986
Si Si4 0.001026 0.984644 0.092196
Si Si5 0.947442 0.577684 0.880934
Si Si6 0.691935 0.332744 0.735486
Si Si7 0.714658 0.737924 0.520944
O O1 0.040649 0.721578 0.703516
O O2 0.223766 0.891221 0.727973
O O3 0.821809 0.962503 0.799686
O O4 0.130312 0.988771 0.651662
O O5 0.965768 0.822344 0.079789
O O6 0.949028 0.538070 0.102935
O O7 0.576844 0.694260 0.195709
O O8 0.772519 0.662154 0.057079
O O9 0.465322 0.833086 0.088702
O O10 0.168675 0.975169 0.102133
O O11 0.764823 0.050229 0.173338
O O12 0.108607 0.101761 0.026283
O O13 0.150177 0.690415 0.814740
O O14 0.751760 0.670552 0.958316
#
# Coordination Sequence:
#
# PCOD9247818 Si02
#       7
#     4   4   4   4   4   4   4
#     4  11  20  41  64  89 116 154 203 256 293 352
#     4  12  21  40  61  87 121 164 203 242 294 354
#     4  11  22  42  66  89 119 154 201 255 301 348
#     4  10  23  40  64  90 121 157 204 242 301 360
#     4  11  23  39  60  90 122 159 203 246 299 359
#     4  10  22  40  63  89 121 156 200 258 297 345
#     4  11  24  42  58  88 129 162 191 247 304 356
#
# _framework density 20.870585999999999
#
# number of rings (size 3 to 8) (size 9 to 14) (size 15 to 20)
#    0.000    1.143    4.286    2.143    0.000    0.571 
#    0.000    0.000    0.000    0.000    0.000    0.000 
#    0.000    0.000    0.000    0.000    0.000    0.000 
#
# Total GULP energy -156458.862909 kJ/mol
# GULP energy per Si atom -5587.816532 kJ/mol
# Density = 2.082308 g / cm^3
# Si number density = 20.870586 Si / 1000 Ang^3
#
#
#
# Elastic Constant Matrix: (Units=GPa)
#
#
# Indices 1 2 3 4 5 6 
#
# 1 44.7034 19.1907 34.3100 0.0000 12.1555 0.0000
# 2 19.1907 90.7140 39.4032 0.0000 1.9548 0.0000
# 3 34.3100 39.4032 101.6806 0.0000 5.4778 0.0000
# 4 0.0000 0.0000 0.0000 28.5860 0.0000 4.3347
# 5 12.1555 1.9548 5.4778 0.0000 18.1181 0.0000
# 6 0.0000 0.0000 0.0000 4.3347 0.0000 28.1903
#
#
#
# Elastic Compliance Matrix: (Units=1/GPa)
#
#
# Indices 1 2 3 4 5 6 
#
# 1 0.037468 -0.002976 -0.010321 0.000000 -0.021696 0.000000
# 2 -0.002976 0.013491 -0.004324 0.000000 0.001848 0.000000
# 3 -0.010321 -0.004324 0.014836 0.000000 0.002905 0.000000
# 4 0.000000 0.000000 0.000000 0.035817 0.000000 -0.005507
# 5 -0.021696 0.001848 0.002905 0.000000 0.068672 0.000000
# 6 0.000000 0.000000 0.000000 -0.005507 0.000000 0.036320
#
#
# Mechanical properties :
#
#
# Convention : Reuss Voigt Hill
#
# Bulk Modulus (GPa) = 32.72780 46.98950 39.85865
# Shear Modulus (GPa) = 19.83894 24.59182 22.21538
#
# Velocity S-wave (km/s) = 3.08648 3.43636 3.26611
# Velocity P-wave (km/s) = 5.33077 6.18937 5.77605
#
# Compressibility (1/GPa) = 0.03055506
#
# Stress axis : x y z
#
# Youngs Moduli (GPa) = 26.68962 74.12123 67.40276
#
# Poissons Ratio (x) = 0.22057 0.69564
# Poissons Ratio (y) = 0.07942 0.29142
# Poissons Ratio (z) = 0.27546 0.32047
#
# Static dielectric constant tensor:
#      x y z
#    x 1.732310 0.000000 0.015550 
#    y 0.000000 1.742660 0.000000 
#    z 0.015550 0.000000 1.757670 
# 
# From -- ./inp_files/76304.got.cif
#   From: 2010.05.17/outbox.cif.g08.bks.cpg/sg14_39_cif.got.tgz:76304.got - 2010.06.03 17:49:19.
