data_PCOD9247673
_publ_section_title
;
Structure prediction by ZEFSAII (Michael W. Deem and Ramdas Pophale) SiO2 
 PCOD9247673
Probable space group: P 21/C
;
_chemical_formula_sum "Si O2"
_cell_formula_units_Z 30
_cell_length_a 10.539835
_cell_length_b 13.571525
_cell_length_c 8.597511
_cell_angle_alpha 90.000000
_cell_angle_beta 75.625615
_cell_angle_gamma 90.000000
_cell_volume 1191.302143
_symmetry_space_group_name_H-M "P 21/C"
_symmetry_group_IT_number 14
_symmetry_cell_setting 'monoclinic'
loop_
_space_group_symop_operation_xyz
x,y,z
-x,1/2+y,1/2-z
-x,-y,-z
x,1/2-y,1/2+z
loop_
_atom_site_type_symbol
_atom_site_label
_atom_site_fract_x
_atom_site_fract_y
_atom_site_fract_z
Si Si1 0.927786 0.551835 0.702771
Si Si2 0.759141 0.815794 0.442166
Si Si3 0.578542 0.776589 0.784779
Si Si4 0.106232 0.388068 0.635237
Si Si5 0.785328 0.351809 0.420771
Si Si6 0.500000 0.000000 0.500000
Si Si7 0.344556 0.477924 0.716526
Si Si8 0.678812 0.331286 0.789453
O O1 0.967464 0.438201 0.708585
O O2 0.066365 0.611711 0.658025
O O3 0.837297 0.588744 0.868974
O O4 0.864811 0.575485 0.552020
O O5 0.694294 0.790586 0.624633
O O6 0.627341 0.813212 0.374584
O O7 0.859285 0.726544 0.374118
O O8 0.579999 0.881176 0.877247
O O9 0.443105 0.766299 0.741069
O O10 0.196830 0.436585 0.739424
O O11 0.678550 0.421293 0.367660
O O12 0.755540 0.358955 0.611066
O O13 0.761913 0.240243 0.373543
O O14 0.588031 0.991907 0.638226
O O15 0.389558 0.923652 0.608132
#
# Coordination Sequence:
#
# PCOD9247673 Si02
#       8
#     4   4   4   4   4   2   4   4
#     4  10  22  41  68 102 134 184 229 284 355 424
#     4  11  20  40  67  96 132 175 229 293 341 412
#     4  10  22  39  64  95 129 175 231 287 338 407
#     4   9  20  42  64  99 135 175 233 279 353 416
#     4  11  24  43  70  98 144 183 229 287 350 426
#     4  10  22  44  66  98 140 176 238 284 342 416
#     4   9  21  43  64  97 135 175 231 288 341 408
#     4  11  24  44  66 103 135 186 232 281 351 417
#
# _framework density 25.182525999999999
#
# number of rings (size 3 to 8) (size 9 to 14) (size 15 to 20)
#    0.000    1.867    1.333    1.600    1.867    3.200 
#   14.400   11.333    0.000    0.000    0.000    0.000 
#    0.000    0.000    0.000    0.000    0.000    0.000 
#
# Total GULP energy -167053.053675 kJ/mol
# GULP energy per Si atom -5568.435122 kJ/mol
# Density = 2.512521 g / cm^3
# Si number density = 25.182526 Si / 1000 Ang^3
#
#
#
# Elastic Constant Matrix: (Units=GPa)
#
#
# Indices 1 2 3 4 5 6 
#
# 1 136.0326 46.4994 54.7269 0.0000 17.3017 0.0000
# 2 46.4994 81.3573 17.0402 0.0000 -8.7452 0.0000
# 3 54.7269 17.0402 88.8237 0.0000 -5.5613 0.0000
# 4 0.0000 0.0000 0.0000 31.3135 0.0000 5.3879
# 5 17.3017 -8.7452 -5.5613 0.0000 41.6428 0.0000
# 6 0.0000 0.0000 0.0000 5.3879 0.0000 48.9720
#
#
#
# Elastic Compliance Matrix: (Units=1/GPa)
#
#
# Indices 1 2 3 4 5 6 
#
# 1 0.014047 -0.007303 -0.007780 0.000000 -0.008409 0.000000
# 2 -0.007303 0.016841 0.001694 0.000000 0.006797 0.000000
# 3 -0.007780 0.001694 0.016086 0.000000 0.005737 0.000000
# 4 0.000000 0.000000 0.000000 0.032551 0.000000 -0.003581
# 5 -0.008409 0.006797 0.005737 0.000000 0.029701 0.000000
# 6 0.000000 0.000000 0.000000 -0.003581 0.000000 0.020814
#
#
# Mechanical properties :
#
#
# Convention : Reuss Voigt Hill
#
# Bulk Modulus (GPa) = 49.51369 60.30515 54.90942
# Shear Modulus (GPa) = 30.57163 36.91547 33.74355
#
# Velocity S-wave (km/s) = 3.48803 3.83288 3.66452
# Velocity P-wave (km/s) = 5.99387 6.60206 6.30530
#
# Compressibility (1/GPa) = 0.02019643
#
# Stress axis : x y z
#
# Youngs Moduli (GPa) = 71.18939 59.37840 62.16563
#
# Poissons Ratio (x) = 0.43363 0.48367
# Poissons Ratio (y) = 0.51988 -0.10532
# Poissons Ratio (z) = 0.55387 -0.10060
#
# Static dielectric constant tensor:
#      x y z
#    x 2.017290 0.000000 0.018700 
#    y 0.000000 2.096780 0.000000 
#    z 0.018700 0.000000 1.997050 
# 
# From -- ./inp_files/13070.got.cif
#   From: 2010.05.17/outbox.cif.g08.bks.cpg/sg14_7_cif.got.tgz:13070.got - 2010.06.03 17:49:19.
