data_PCOD9247155
_publ_section_title
;
Structure prediction by ZEFSAII (Michael W. Deem and Ramdas Pophale) SiO2 
 PCOD9247155
Probable space group: P 21/C
;
_chemical_formula_sum "Si O2"
_cell_formula_units_Z 28
_cell_length_a 8.473940
_cell_length_b 7.408159
_cell_length_c 24.279338
_cell_angle_alpha 90.000000
_cell_angle_beta 132.529529
_cell_angle_gamma 90.000000
_cell_volume 1123.202859
_symmetry_space_group_name_H-M "P 21/C"
_symmetry_group_IT_number 14
_symmetry_cell_setting 'monoclinic'
loop_
_space_group_symop_operation_xyz
x,y,z
-x,1/2+y,1/2-z
-x,-y,-z
x,1/2-y,1/2+z
loop_
_atom_site_type_symbol
_atom_site_label
_atom_site_fract_x
_atom_site_fract_y
_atom_site_fract_z
Si Si1 0.658176 0.766318 0.394117
Si Si2 0.590130 0.443823 0.960462
Si Si3 0.770786 0.747514 0.186810
Si Si4 0.732857 0.088834 0.041785
Si Si5 0.581875 0.740199 0.754970
Si Si6 0.790500 0.365917 0.668729
Si Si7 0.818392 0.054167 0.868323
O O1 0.641889 0.846910 0.328357
O O2 0.419519 0.705897 0.352958
O O3 0.774447 0.573402 0.411469
O O4 0.721238 0.902235 0.458064
O O5 0.388765 0.400713 0.873482
O O6 0.500000 0.500000 0.000000
O O7 0.704941 0.248323 0.990537
O O8 0.697775 0.831169 0.228076
O O9 0.004001 0.668167 0.247150
O O10 0.774209 0.923108 0.150637
O O11 0.808125 0.210417 0.111763
O O12 0.926139 0.949626 0.076110
O O13 0.500000 0.000000 0.000000
O O14 0.700261 0.931553 0.793157
O O15 0.331392 0.728838 0.677134
#
# Coordination Sequence:
#
# PCOD9247155 Si02
#       7
#     4   4   4   4   4   4   4
#     4  10  23  42  70 102 146 184 253 304 368 448
#     4  12  26  44  71 104 152 200 241 311 384 462
#     4  12  24  42  73 106 144 192 253 312 372 443
#     4  12  26  48  70 106 151 194 249 304 388 463
#     4  10  21  44  70 105 139 186 247 313 373 425
#     4  12  23  41  71 109 135 192 254 311 363 443
#     4  10  23  43  72 103 148 183 246 315 369 454
#
# _framework density 24.928713999999999
#
# number of rings (size 3 to 8) (size 9 to 14) (size 15 to 20)
#    0.857    0.000    5.714    1.714    2.000    0.571 
#    0.000    2.857    3.143    0.000    0.000    0.000 
#    0.000    0.000    0.000    0.000    0.000    0.000 
#
# Total GULP energy -156023.714739 kJ/mol
# GULP energy per Si atom -5572.275526 kJ/mol
# Density = 2.487197 g / cm^3
# Si number density = 24.928714 Si / 1000 Ang^3
#
#
#
# Elastic Constant Matrix: (Units=GPa)
#
#
# Indices 1 2 3 4 5 6 
#
# 1 101.9263 8.1535 37.7561 0.0000 -2.0538 0.0000
# 2 8.1535 82.9218 24.8832 0.0000 4.7579 0.0000
# 3 37.7561 24.8832 94.3356 0.0000 10.6061 0.0000
# 4 0.0000 0.0000 0.0000 40.5463 0.0000 -0.1173
# 5 -2.0538 4.7579 10.6061 0.0000 48.6221 0.0000
# 6 0.0000 0.0000 0.0000 -0.1173 0.0000 19.5448
#
#
#
# Elastic Compliance Matrix: (Units=1/GPa)
#
#
# Indices 1 2 3 4 5 6 
#
# 1 0.011635 0.000236 -0.004891 0.000000 0.001535 0.000000
# 2 0.000236 0.013115 -0.003496 0.000000 -0.000511 0.000000
# 3 -0.004891 -0.003496 0.013804 0.000000 -0.002876 0.000000
# 4 0.000000 0.000000 0.000000 0.024664 0.000000 0.000148
# 5 0.001535 -0.000511 -0.002876 0.000000 0.021309 0.000000
# 6 0.000000 0.000000 0.000000 0.000148 0.000000 0.051165
#
#
# Mechanical properties :
#
#
# Convention : Reuss Voigt Hill
#
# Bulk Modulus (GPa) = 44.94492 46.75214 45.84853
# Shear Modulus (GPa) = 31.36529 35.63539 33.50034
#
# Velocity S-wave (km/s) = 3.55096 3.78496 3.66983
# Velocity P-wave (km/s) = 5.90601 6.15600 6.03230
#
# Compressibility (1/GPa) = 0.02224945
#
# Stress axis : x y z
#
# Youngs Moduli (GPa) = 85.94738 76.24951 72.44433
#
# Poissons Ratio (x) = -0.01797 0.35436
# Poissons Ratio (y) = -0.02026 0.25328
# Poissons Ratio (z) = 0.42041 0.26659
#
# Static dielectric constant tensor:
#      x y z
#    x 2.118020 0.000000 -0.059810 
#    y 0.000000 2.159850 0.000000 
#    z -0.059810 0.000000 2.129760 
# 
# From -- ./inp_files/76505.got.cif
#   From: 2010.05.17/outbox.cif.g08.bks.cpg/sg14_39_cif.got.tgz:76505.got - 2010.06.03 17:49:19.
