data_PCOD9247744
_publ_section_title
;
Structure prediction by ZEFSAII (Michael W. Deem and Ramdas Pophale) SiO2 
 PCOD9247744
Probable space group: P 21/C
;
_chemical_formula_sum "Si O2"
_cell_formula_units_Z 30
_cell_length_a 6.419287
_cell_length_b 8.053965
_cell_length_c 31.762671
_cell_angle_alpha 90.000000
_cell_angle_beta 58.207194
_cell_angle_gamma 90.000000
_cell_volume 1395.762248
_symmetry_space_group_name_H-M "P 21/C"
_symmetry_group_IT_number 14
_symmetry_cell_setting 'monoclinic'
loop_
_space_group_symop_operation_xyz
x,y,z
-x,1/2+y,1/2-z
-x,-y,-z
x,1/2-y,1/2+z
loop_
_atom_site_type_symbol
_atom_site_label
_atom_site_fract_x
_atom_site_fract_y
_atom_site_fract_z
Si Si1 0.239893 0.762007 0.973101
Si Si2 0.500000 0.000000 0.500000
Si Si3 0.049431 0.598883 0.912314
Si Si4 0.755216 0.621333 0.564482
Si Si5 0.088046 0.947416 0.866096
Si Si6 0.246090 0.809631 0.150925
Si Si7 0.194880 0.414602 0.817063
Si Si8 0.545575 0.400885 0.282274
O O1 0.422484 0.677028 0.985773
O O2 0.222447 0.653548 0.932513
O O3 0.301500 0.953260 0.955583
O O4 0.959973 0.772065 0.019604
O O5 0.207707 0.030567 0.543697
O O6 0.011312 0.765994 0.888812
O O7 0.179414 0.471791 0.866823
O O8 0.868010 0.556478 0.596416
O O9 0.504907 0.716599 0.600238
O O10 0.350830 0.954030 0.814704
O O11 0.892234 0.041322 0.858317
O O12 0.295106 0.864305 0.193371
O O13 0.073676 0.650201 0.166832
O O14 0.293225 0.552512 0.774813
O O15 0.376097 0.259002 0.793329
#
# Coordination Sequence:
#
# PCOD9247744 Si02
#       8
#     4   2   4   4   4   4   4   4
#     4  10  23  42  64  94 132 180 226 274 323 392
#     4  12  26  38  60  96 136 168 220 270 328 382
#     4  11  25  41  61  94 137 175 215 269 331 387
#     4   9  20  41  69  93 128 179 227 269 328 391
#     4   9  20  42  67  95 128 167 219 269 328 393
#     4  10  22  39  69  97 128 165 220 269 328 400
#     4  11  25  42  65  96 128 173 210 272 334 393
#     4  10  23  44  69  95 128 165 216 272 329 398
#
# _framework density 21.493632999999999
#
# number of rings (size 3 to 8) (size 9 to 14) (size 15 to 20)
#    0.000    1.867    0.000    2.000    7.467    4.267 
#    0.000    4.000    0.000    0.000    0.000    0.000 
#    0.000    0.000    0.000    0.000    0.000    0.000 
#
# Total GULP energy -167325.164742 kJ/mol
# GULP energy per Si atom -5577.505491 kJ/mol
# Density = 2.144471 g / cm^3
# Si number density = 21.493633 Si / 1000 Ang^3
#
#
#
# Elastic Constant Matrix: (Units=GPa)
#
#
# Indices 1 2 3 4 5 6 
#
# 1 63.8253 29.0177 27.1416 0.0000 -8.2141 0.0000
# 2 29.0177 72.5065 45.5039 0.0000 -13.0747 0.0000
# 3 27.1416 45.5039 83.2261 0.0000 -18.7085 0.0000
# 4 0.0000 0.0000 0.0000 37.4914 0.0000 -0.4083
# 5 -8.2141 -13.0747 -18.7085 0.0000 18.2687 0.0000
# 6 0.0000 0.0000 0.0000 -0.4083 0.0000 12.5900
#
#
#
# Elastic Compliance Matrix: (Units=1/GPa)
#
#
# Indices 1 2 3 4 5 6 
#
# 1 0.019748 -0.005771 -0.002880 0.000000 0.001799 0.000000
# 2 -0.005771 0.022940 -0.009812 0.000000 0.003775 0.000000
# 3 -0.002880 -0.009812 0.021369 0.000000 0.013566 0.000000
# 4 0.000000 0.000000 0.000000 0.026682 0.000000 0.000865
# 5 0.001799 0.003775 0.013566 0.000000 0.072142 0.000000
# 6 0.000000 0.000000 0.000000 0.000865 0.000000 0.079456
#
#
# Mechanical properties :
#
#
# Convention : Reuss Voigt Hill
#
# Bulk Modulus (GPa) = 36.85919 46.98713 41.92316
# Shear Modulus (GPa) = 17.34261 21.52967 19.43614
#
# Velocity S-wave (km/s) = 2.84363 3.16836 3.01038
# Velocity P-wave (km/s) = 5.28846 5.94080 5.62409
#
# Compressibility (1/GPa) = 0.02713028
#
# Stress axis : x y z
#
# Youngs Moduli (GPa) = 50.63797 43.59198 46.79683
#
# Poissons Ratio (x) = 0.25158 0.13479
# Poissons Ratio (y) = 0.29224 0.45916
# Poissons Ratio (z) = 0.14586 0.42771
#
# Static dielectric constant tensor:
#      x y z
#    x 1.752090 0.000000 0.019540 
#    y 0.000000 1.784820 0.000000 
#    z 0.019540 0.000000 1.803620 
# 
# From -- ./inp_files/78787.got.cif
#   From: 2010.05.17/outbox.cif.g08.bks.cpg/sg14_40_cif.got.tgz:78787.got - 2010.06.03 17:49:19.
