data_PCOD9247850
_publ_section_title
;
Structure prediction by ZEFSAII (Michael W. Deem and Ramdas Pophale) SiO2 
 PCOD9247850
Probable space group: P 21/C
;
_chemical_formula_sum "Si O2"
_cell_formula_units_Z 24
_cell_length_a 11.522376
_cell_length_b 10.025698
_cell_length_c 14.404625
_cell_angle_alpha 90.000000
_cell_angle_beta 39.471392
_cell_angle_gamma 90.000000
_cell_volume 1057.805829
_symmetry_space_group_name_H-M "P 21/C"
_symmetry_group_IT_number 14
_symmetry_cell_setting 'monoclinic'
loop_
_space_group_symop_operation_xyz
x,y,z
-x,1/2+y,1/2-z
-x,-y,-z
x,1/2-y,1/2+z
loop_
_atom_site_type_symbol
_atom_site_label
_atom_site_fract_x
_atom_site_fract_y
_atom_site_fract_z
Si Si1 0.966826 0.159777 0.810188
Si Si2 0.841531 0.687335 0.453503
Si Si3 0.664021 0.543179 0.832250
Si Si4 0.350696 0.315324 0.768625
Si Si5 0.739029 0.090299 0.104405
Si Si6 0.300501 0.054920 0.115513
O O1 0.995498 0.275580 0.716606
O O2 0.159934 0.093924 0.719062
O O3 0.839200 0.053248 0.836707
O O4 0.866332 0.194364 0.969689
O O5 0.783808 0.798112 0.561783
O O6 0.836224 0.549617 0.514037
O O7 0.685294 0.667232 0.472577
O O8 0.604924 0.668805 0.802644
O O9 0.720128 0.424202 0.726229
O O10 0.500000 0.500000 0.000000
O O11 0.536770 0.387124 0.687029
O O12 0.252168 0.390367 0.745582
O O13 0.500000 0.000000 0.000000
#
# Coordination Sequence:
#
# PCOD9247850 Si02
#       6
#     4   4   4   4   4   4
#     4  11  22  40  67  94 136 180 223 282 340 396
#     4  10  22  40  64 100 134 171 231 277 338 409
#     4  11  24  43  70 103 139 177 231 284 344 415
#     4  11  22  43  71  95 139 182 219 290 340 405
#     4  10  23  42  68  99 137 179 230 278 344 406
#     4  11  22  45  70  95 137 180 228 283 340 407
#
# _framework density 22.688475
#
# number of rings (size 3 to 8) (size 9 to 14) (size 15 to 20)
#    0.000    1.333    5.000    1.500    0.000    3.333 
#    0.000    3.333    0.000    0.000    0.000    0.000 
#    0.000    0.000    0.000    0.000    0.000    0.000 
#
# Total GULP energy -133856.595211 kJ/mol
# GULP energy per Si atom -5577.358134 kJ/mol
# Density = 2.263683 g / cm^3
# Si number density = 22.688475 Si / 1000 Ang^3
#
#
#
# Elastic Constant Matrix: (Units=GPa)
#
#
# Indices 1 2 3 4 5 6 
#
# 1 106.0574 15.2835 26.8705 0.0000 9.8214 0.0000
# 2 15.2835 40.4995 22.0618 0.0000 8.0747 0.0000
# 3 26.8705 22.0618 126.9304 0.0000 29.2871 0.0000
# 4 0.0000 0.0000 0.0000 34.2510 0.0000 5.8398
# 5 9.8214 8.0747 29.2871 0.0000 41.8512 0.0000
# 6 0.0000 0.0000 0.0000 5.8398 0.0000 35.5783
#
#
#
# Elastic Compliance Matrix: (Units=1/GPa)
#
#
# Indices 1 2 3 4 5 6 
#
# 1 0.010301 -0.002915 -0.001486 0.000000 -0.000815 0.000000
# 2 -0.002915 0.028289 -0.003814 0.000000 -0.002105 0.000000
# 3 -0.001486 -0.003814 0.010263 0.000000 -0.006097 0.000000
# 4 0.000000 0.000000 0.000000 0.030037 0.000000 -0.004930
# 5 -0.000815 -0.002105 -0.006097 0.000000 0.028758 0.000000
# 6 0.000000 0.000000 0.000000 -0.004930 0.000000 0.028916
#
#
# Mechanical properties :
#
#
# Convention : Reuss Voigt Hill
#
# Bulk Modulus (GPa) = 30.84321 44.65764 37.75043
# Shear Modulus (GPa) = 30.52462 36.28754 33.40608
#
# Velocity S-wave (km/s) = 3.67192 4.00357 3.84132
# Velocity P-wave (km/s) = 5.62148 6.41070 6.02902
#
# Compressibility (1/GPa) = 0.03242204
#
# Stress axis : x y z
#
# Youngs Moduli (GPa) = 97.07869 35.34912 97.44093
#
# Poissons Ratio (x) = 0.10306 0.14478
# Poissons Ratio (y) = 0.28302 0.37165
# Poissons Ratio (z) = 0.14425 0.13483
#
# Static dielectric constant tensor:
#      x y z
#    x 1.847090 0.000000 0.037830 
#    y 0.000000 2.037530 0.000000 
#    z 0.037830 0.000000 1.904400 
# 
# From -- ./inp_files/44253.got.cif
#   From: 2010.05.17/outbox.cif.g08.bks.cpg/sg14_23_cif.got.tgz:44253.got - 2010.06.03 17:49:19.
