data_PCOD9247340
_publ_section_title
;
Structure prediction by ZEFSAII (Michael W. Deem and Ramdas Pophale) SiO2 
 PCOD9247340
Probable space group: P 21/C
;
_chemical_formula_sum "Si O2"
_cell_formula_units_Z 32
_cell_length_a 22.597713
_cell_length_b 5.013358
_cell_length_c 22.368259
_cell_angle_alpha 90.000000
_cell_angle_beta 36.324339
_cell_angle_gamma 90.000000
_cell_volume 1501.093694
_symmetry_space_group_name_H-M "P 21/C"
_symmetry_group_IT_number 14
_symmetry_cell_setting 'monoclinic'
loop_
_space_group_symop_operation_xyz
x,y,z
-x,1/2+y,1/2-z
-x,-y,-z
x,1/2-y,1/2+z
loop_
_atom_site_type_symbol
_atom_site_label
_atom_site_fract_x
_atom_site_fract_y
_atom_site_fract_z
Si Si1 0.889863 0.594167 0.107892
Si Si2 0.109791 0.142444 0.187801
Si Si3 0.055042 0.965988 0.110802
Si Si4 0.630382 0.820208 0.309952
Si Si5 0.866480 0.230866 0.738771
Si Si6 0.503131 0.155857 0.934411
Si Si7 0.809393 0.402115 0.610380
Si Si8 0.286247 0.342973 0.129975
O O1 0.878515 0.526293 0.186930
O O2 0.873508 0.894073 0.099581
O O3 0.814753 0.389469 0.135330
O O4 0.000000 0.500000 0.000000
O O5 0.104582 0.153880 0.121053
O O6 0.203332 0.266518 0.147426
O O7 0.007227 0.251126 0.300036
O O8 0.121293 0.840197 0.201716
O O9 0.965542 0.099442 0.145601
O O10 0.138959 0.879621 0.995972
O O11 0.560833 0.569803 0.348366
O O12 0.702633 0.951165 0.201486
O O13 0.694519 0.741339 0.317159
O O14 0.565142 0.071604 0.385378
O O15 0.758335 0.362263 0.818608
O O16 0.390538 0.258206 0.014381
O O17 0.500000 0.000000 0.000000
#
# Coordination Sequence:
#
# PCOD9247340 Si02
#       8
#     4   4   4   4   4   4   4   4
#     4  12  23  38  60  91 129 172 209 256 317 381
#     4  11  23  40  61  88 125 169 226 262 305 373
#     4  11  24  41  59  88 125 176 214 264 306 372
#     4  11  22  40  62  98 131 160 204 264 328 398
#     4  11  22  37  61  87 129 163 212 261 310 375
#     4  10  22  39  65  94 130 160 202 265 335 385
#     4  12  25  40  63  91 132 172 210 253 328 388
#     4  10  22  36  63  90 120 164 207 261 322 374
#
# _framework density 21.317789999999999
#
# number of rings (size 3 to 8) (size 9 to 14) (size 15 to 20)
#    0.000    1.000    3.750    4.125    7.000    0.000 
#    0.000    0.000    0.000    1.500    0.000    0.000 
#    0.000    0.000    0.000    0.000    0.000    0.000 
#
# Total GULP energy -178319.681669 kJ/mol
# GULP energy per Si atom -5572.490052 kJ/mol
# Density = 2.126927 g / cm^3
# Si number density = 21.317790 Si / 1000 Ang^3
#
#
#
# Elastic Constant Matrix: (Units=GPa)
#
#
# Indices 1 2 3 4 5 6 
#
# 1 93.4523 34.0333 51.3883 0.0000 -0.4871 0.0000
# 2 34.0333 81.0400 26.2208 0.0000 -5.9359 0.0000
# 3 51.3883 26.2208 103.2073 0.0000 -12.0195 0.0000
# 4 0.0000 0.0000 0.0000 36.6756 0.0000 -7.1341
# 5 -0.4871 -5.9359 -12.0195 0.0000 36.2697 0.0000
# 6 0.0000 0.0000 0.0000 -7.1341 0.0000 28.1502
#
#
#
# Elastic Compliance Matrix: (Units=1/GPa)
#
#
# Indices 1 2 3 4 5 6 
#
# 1 0.016447 -0.004754 -0.007329 0.000000 -0.002986 0.000000
# 2 -0.004754 0.014862 -0.001178 0.000000 0.001978 0.000000
# 3 -0.007329 -0.001178 0.014150 0.000000 0.004398 0.000000
# 4 0.000000 0.000000 0.000000 0.028680 0.000000 0.007268
# 5 -0.002986 0.001978 0.004398 0.000000 0.029312 0.000000
# 6 0.000000 0.000000 0.000000 0.007268 0.000000 0.037366
#
#
# Mechanical properties :
#
#
# Convention : Reuss Voigt Hill
#
# Bulk Modulus (GPa) = 52.80981 55.66496 54.23738
# Shear Modulus (GPa) = 28.79332 31.28958 30.04145
#
# Velocity S-wave (km/s) = 3.67913 3.83530 3.75803
# Velocity P-wave (km/s) = 6.54786 6.76619 6.65792
#
# Compressibility (1/GPa) = 0.01893588
#
# Stress axis : x y z
#
# Youngs Moduli (GPa) = 60.80321 67.28424 70.67192
#
# Poissons Ratio (x) = 0.31989 0.51794
# Poissons Ratio (y) = 0.28907 0.08328
# Poissons Ratio (z) = 0.44561 0.07928
#
# Static dielectric constant tensor:
#      x y z
#    x 1.778790 0.000000 -0.046110 
#    y 0.000000 1.952930 0.000000 
#    z -0.046110 0.000000 1.858690 
# 
# From -- ./inp_files/69601.got.cif
#   From: 2010.05.17/outbox.cif.g08.bks.cpg/sg14_35_cif.got.tgz:69601.got - 2010.06.03 17:49:19.
