data_PCOD9247150
_publ_section_title
;
Structure prediction by ZEFSAII (Michael W. Deem and Ramdas Pophale) SiO2 
 PCOD9247150
Probable space group: P 21/C
;
_chemical_formula_sum "Si O2"
_cell_formula_units_Z 24
_cell_length_a 5.168606
_cell_length_b 14.283250
_cell_length_c 14.632045
_cell_angle_alpha 90.000000
_cell_angle_beta 103.076007
_cell_angle_gamma 90.000000
_cell_volume 1052.194470
_symmetry_space_group_name_H-M "P 21/C"
_symmetry_group_IT_number 14
_symmetry_cell_setting 'monoclinic'
loop_
_space_group_symop_operation_xyz
x,y,z
-x,1/2+y,1/2-z
-x,-y,-z
x,1/2-y,1/2+z
loop_
_atom_site_type_symbol
_atom_site_label
_atom_site_fract_x
_atom_site_fract_y
_atom_site_fract_z
Si Si1 0.400996 0.731907 0.371248
Si Si2 0.162882 0.430250 0.949834
Si Si3 0.988651 0.734206 0.506701
Si Si4 0.315395 0.528753 0.293870
Si Si5 0.114609 0.955914 0.101442
Si Si6 0.543827 0.062786 0.642102
O O1 0.698516 0.718910 0.436727
O O2 0.337290 0.641097 0.304565
O O3 0.376753 0.833199 0.319173
O O4 0.195707 0.734875 0.439475
O O5 0.244916 0.481911 0.864100
O O6 0.019469 0.331315 0.938677
O O7 0.425489 0.413572 0.032626
O O8 0.000000 0.500000 0.000000
O O9 0.071057 0.653345 0.582338
O O10 0.582164 0.486242 0.361795
O O11 0.337990 0.484707 0.194790
O O12 0.063813 0.493681 0.330409
O O13 0.000000 0.000000 0.000000
#
# Coordination Sequence:
#
# PCOD9247150 Si02
#       6
#     4   4   4   4   4   4
#     4  11  21  41  64  92 130 174 203 272 324 374
#     4  10  21  44  69  88 127 174 213 269 310 394
#     4  11  22  39  69  93 124 171 222 249 326 385
#     4  12  25  41  67  96 136 166 213 276 320 386
#     4  12  23  42  65  97 127 174 213 261 322 395
#     4  10  25  41  64  98 130 167 222 264 331 377
#
# _framework density 22.809470999999998
#
# number of rings (size 3 to 8) (size 9 to 14) (size 15 to 20)
#    0.000    1.000    5.000    1.500    2.333    1.333 
#    3.000    0.000    0.000    0.000    0.000    0.000 
#    0.000    0.000    0.000    0.000    0.000    0.000 
#
# Total GULP energy -134189.886587 kJ/mol
# GULP energy per Si atom -5591.245274 kJ/mol
# Density = 2.275756 g / cm^3
# Si number density = 22.809471 Si / 1000 Ang^3
#
#
#
# Elastic Constant Matrix: (Units=GPa)
#
#
# Indices 1 2 3 4 5 6 
#
# 1 77.1849 3.5557 32.3352 0.0000 -11.4218 0.0000
# 2 3.5557 232.1760 43.2399 0.0000 -16.4894 0.0000
# 3 32.3352 43.2399 108.4496 0.0000 -12.2462 0.0000
# 4 0.0000 0.0000 0.0000 19.2921 0.0000 -15.2150
# 5 -11.4218 -16.4894 -12.2462 0.0000 40.9775 0.0000
# 6 0.0000 0.0000 0.0000 -15.2150 0.0000 24.7601
#
#
#
# Elastic Compliance Matrix: (Units=1/GPa)
#
#
# Indices 1 2 3 4 5 6 
#
# 1 0.015295 0.000840 -0.004528 0.000000 0.003248 0.000000
# 2 0.000840 0.004773 -0.001977 0.000000 0.001564 0.000000
# 3 -0.004528 -0.001977 0.011516 0.000000 0.001384 0.000000
# 4 0.000000 0.000000 0.000000 0.100578 0.000000 0.061805
# 5 0.003248 0.001564 0.001384 0.000000 0.026352 0.000000
# 6 0.000000 0.000000 0.000000 0.061805 0.000000 0.078367
#
#
# Mechanical properties :
#
#
# Convention : Reuss Voigt Hill
#
# Bulk Modulus (GPa) = 49.37607 64.00800 56.69204
# Shear Modulus (GPa) = 19.61072 39.58460 29.59766
#
# Velocity S-wave (km/s) = 2.93535 4.17039 3.60614
# Velocity P-wave (km/s) = 5.76043 7.16327 6.49981
#
# Compressibility (1/GPa) = 0.02025272
#
# Stress axis : x y z
#
# Youngs Moduli (GPa) = 65.38120 209.49016 86.83915
#
# Poissons Ratio (x) = -0.17593 0.39324
# Poissons Ratio (y) = -0.05491 0.17168
# Poissons Ratio (z) = 0.29607 0.41416
#
# Static dielectric constant tensor:
#      x y z
#    x 1.902620 0.000000 0.090880 
#    y 0.000000 1.666940 0.000000 
#    z 0.090880 0.000000 1.859830 
# 
# From -- ./inp_files/37138.got.cif
#   From: 2010.05.17/outbox.cif.g08.bks.cpg/sg14_19_cif.got.tgz:37138.got - 2010.06.03 17:49:19.
