data_PCOD9247480
_publ_section_title
;
Structure prediction by ZEFSAII (Michael W. Deem and Ramdas Pophale) SiO2 
 PCOD9247480
Probable space group: P 21/C
;
_chemical_formula_sum "Si O2"
_cell_formula_units_Z 28
_cell_length_a 10.591537
_cell_length_b 8.437879
_cell_length_c 13.551264
_cell_angle_alpha 90.000000
_cell_angle_beta 107.826693
_cell_angle_gamma 90.000000
_cell_volume 1152.930283
_symmetry_space_group_name_H-M "P 21/C"
_symmetry_group_IT_number 14
_symmetry_cell_setting 'monoclinic'
loop_
_space_group_symop_operation_xyz
x,y,z
-x,1/2+y,1/2-z
-x,-y,-z
x,1/2-y,1/2+z
loop_
_atom_site_type_symbol
_atom_site_label
_atom_site_fract_x
_atom_site_fract_y
_atom_site_fract_z
Si Si1 0.845822 0.574664 0.626864
Si Si2 0.032457 0.751185 0.308871
Si Si3 0.143861 0.528773 0.991143
Si Si4 0.527234 0.806704 0.353861
Si Si5 0.374768 0.843591 0.669350
Si Si6 0.802952 0.694310 0.417192
Si Si7 0.451006 0.161978 0.938775
O O1 0.961800 0.689513 0.693213
O O2 0.838523 0.561464 0.506018
O O3 0.702000 0.635714 0.626214
O O4 0.883021 0.406586 0.682035
O O5 0.911475 0.713222 0.357819
O O6 0.122540 0.886756 0.381647
O O7 0.231927 0.635310 0.085555
O O8 0.200328 0.352181 0.013835
O O9 0.000000 0.500000 0.000000
O O10 0.392808 0.726539 0.282309
O O11 0.650607 0.694563 0.346336
O O12 0.529449 0.794070 0.472161
O O13 0.557333 0.983940 0.325684
O O14 0.458060 0.716040 0.627767
O O15 0.500000 0.000000 0.000000
#
# Coordination Sequence:
#
# PCOD9247480 Si02
#       7
#     4   4   4   4   4   4   4
#     4  11  23  38  60  89 121 161 210 257 313 377
#     4  11  21  38  60  87 121 162 205 257 313 374
#     4   9  20  38  61  86 118 157 200 248 303 367
#     4  10  22  38  62  90 119 160 206 257 319 380
#     4  11  21  40  63  91 127 163 205 259 319 376
#     4   9  20  40  60  83 118 156 202 259 311 369
#     4  11  23  40  61  90 125 163 209 265 317 377
#
# _framework density 24.285945000000002
#
# number of rings (size 3 to 8) (size 9 to 14) (size 15 to 20)
#    0.000    1.714    0.000    4.286    0.000    3.429 
#    0.000   10.000    0.000    0.000    0.000    0.000 
#    0.000    0.000    0.000    0.000    0.000    0.000 
#
# Total GULP energy -156603.242891 kJ/mol
# GULP energy per Si atom -5592.972960 kJ/mol
# Density = 2.423067 g / cm^3
# Si number density = 24.285945 Si / 1000 Ang^3
#
#
#
# Elastic Constant Matrix: (Units=GPa)
#
#
# Indices 1 2 3 4 5 6 
#
# 1 66.1498 12.0902 26.8367 0.0000 14.8667 0.0000
# 2 12.0902 79.4305 28.0994 0.0000 16.9650 0.0000
# 3 26.8367 28.0994 103.3636 0.0000 35.0038 0.0000
# 4 0.0000 0.0000 0.0000 47.6648 0.0000 6.6680
# 5 14.8667 16.9650 35.0038 0.0000 40.4267 0.0000
# 6 0.0000 0.0000 0.0000 6.6680 0.0000 30.8269
#
#
#
# Elastic Compliance Matrix: (Units=1/GPa)
#
#
# Indices 1 2 3 4 5 6 
#
# 1 0.017283 -0.000814 -0.003154 0.000000 -0.003283 0.000000
# 2 -0.000814 0.014355 -0.002479 0.000000 -0.003578 0.000000
# 3 -0.003154 -0.002479 0.014746 0.000000 -0.010568 0.000000
# 4 0.000000 0.000000 0.000000 0.021634 0.000000 -0.004680
# 5 -0.003283 -0.003578 -0.010568 0.000000 0.036595 0.000000
# 6 0.000000 0.000000 0.000000 -0.004680 0.000000 0.033451
#
#
# Mechanical properties :
#
#
# Convention : Reuss Voigt Hill
#
# Bulk Modulus (GPa) = 29.85979 42.55515 36.20747
# Shear Modulus (GPa) = 30.84063 35.91152 33.37607
#
# Velocity S-wave (km/s) = 3.56743 3.84955 3.71117
# Velocity P-wave (km/s) = 5.41207 6.10895 5.77104
#
# Compressibility (1/GPa) = 0.03348986
#
# Stress axis : x y z
#
# Youngs Moduli (GPa) = 57.85867 69.66322 67.81348
#
# Poissons Ratio (x) = 0.05668 0.21390
# Poissons Ratio (y) = 0.04707 0.16814
# Poissons Ratio (z) = 0.18250 0.17273
#
# Static dielectric constant tensor:
#      x y z
#    x 1.988950 0.000000 -0.005350 
#    y 0.000000 1.956850 0.000000 
#    z -0.005350 0.000000 1.993610 
# 
# From -- ./inp_files/43822.got.cif
#   From: 2010.05.17/outbox.cif.g08.bks.cpg/sg14_22_cif.got.tgz:43822.got - 2010.06.03 17:49:19.
