data_PCOD9247213
_publ_section_title
;
Structure prediction by ZEFSAII (Michael W. Deem and Ramdas Pophale) SiO2 
 PCOD9247213
Probable space group: P 21/C
;
_chemical_formula_sum "Si O2"
_cell_formula_units_Z 20
_cell_length_a 4.980707
_cell_length_b 18.517241
_cell_length_c 9.134697
_cell_angle_alpha 90.000000
_cell_angle_beta 109.155578
_cell_angle_gamma 90.000000
_cell_volume 795.836110
_symmetry_space_group_name_H-M "P 21/C"
_symmetry_group_IT_number 14
_symmetry_cell_setting 'monoclinic'
loop_
_space_group_symop_operation_xyz
x,y,z
-x,1/2+y,1/2-z
-x,-y,-z
x,1/2-y,1/2+z
loop_
_atom_site_type_symbol
_atom_site_label
_atom_site_fract_x
_atom_site_fract_y
_atom_site_fract_z
Si Si1 0.788675 0.280746 0.409738
Si Si2 0.387306 0.660230 0.310491
Si Si3 0.690475 0.980251 0.893128
Si Si4 0.114078 0.360679 0.975327
Si Si5 0.731669 0.097070 0.662949
O O1 0.566595 0.227123 0.289912
O O2 0.676263 0.311458 0.540054
O O3 0.832112 0.344689 0.302414
O O4 0.048696 0.225329 0.484150
O O5 0.636135 0.603324 0.355222
O O6 0.098380 0.622255 0.197044
O O7 0.646663 0.025975 0.737438
O O8 0.500000 0.000000 0.000000
O O9 0.000000 0.000000 0.000000
O O10 0.446134 0.376035 0.030360
O O11 0.980857 0.404410 0.088673
#
# Coordination Sequence:
#
# PCOD9247213 Si02
#       5
#     4   4   4   4   4
#     4  10  21  45  70 106 139 190 238 298 354 431
#     4  10  23  48  72 110 142 193 243 302 364 438
#     4  12  27  46  75 109 148 195 243 301 369 441
#     4  10  25  43  69 107 137 186 236 301 353 429
#     4  12  24  45  72 105 147 186 240 297 362 424
#
# _framework density 25.130800000000001
#
# number of rings (size 3 to 8) (size 9 to 14) (size 15 to 20)
#    1.200    0.000    4.000    1.200    0.000    8.000 
#    0.000    0.000    0.000    0.000    0.000    0.000 
#    0.000    0.000    0.000    0.000    0.000    0.000 
#
# Total GULP energy -112068.425605 kJ/mol
# GULP energy per Si atom -5603.421280 kJ/mol
# Density = 2.507360 g / cm^3
# Si number density = 25.130800 Si / 1000 Ang^3
#
#
#
# Elastic Constant Matrix: (Units=GPa)
#
#
# Indices 1 2 3 4 5 6 
#
# 1 104.7248 -4.4175 22.7743 0.0000 3.5739 0.0000
# 2 -4.4175 61.2434 15.5212 0.0000 0.5418 0.0000
# 3 22.7743 15.5212 130.2686 0.0000 -7.6147 0.0000
# 4 0.0000 0.0000 0.0000 49.7530 0.0000 9.4227
# 5 3.5739 0.5418 -7.6147 0.0000 47.5631 0.0000
# 6 0.0000 0.0000 0.0000 9.4227 0.0000 3.2317
#
#
#
# Elastic Compliance Matrix: (Units=1/GPa)
#
#
# Indices 1 2 3 4 5 6 
#
# 1 0.010067 0.001235 -0.001971 0.000000 -0.001086 0.000000
# 2 0.001235 0.017001 -0.002280 0.000000 -0.000651 0.000000
# 3 -0.001971 -0.002280 0.008381 0.000000 0.001516 0.000000
# 4 0.000000 0.000000 0.000000 0.044885 0.000000 -0.130873
# 5 -0.001086 -0.000651 0.001516 0.000000 0.021356 0.000000
# 6 0.000000 0.000000 0.000000 -0.130873 0.000000 0.691027
#
#
# Mechanical properties :
#
#
# Convention : Reuss Voigt Hill
#
# Bulk Modulus (GPa) = 33.99222 40.44364 37.21793
# Shear Modulus (GPa) = 6.18389 37.60014 21.89201
#
# Velocity S-wave (km/s) = 1.57036 3.87224 2.95468
# Velocity P-wave (km/s) = 4.10408 6.01004 5.14607
#
# Compressibility (1/GPa) = 0.02941850
#
# Stress axis : x y z
#
# Youngs Moduli (GPa) = 99.33917 58.82043 119.31513
#
# Poissons Ratio (x) = -0.07265 0.23511
# Poissons Ratio (y) = -0.12270 0.27199
# Poissons Ratio (z) = 0.19575 0.13409
#
# Static dielectric constant tensor:
#      x y z
#    x 1.934630 0.000000 0.018730 
#    y 0.000000 2.020770 0.000000 
#    z 0.018730 0.000000 1.999940 
# 
# From -- ./inp_files/6005.got.cif
#   From: 2010.05.17/outbox.cif.g08.bks.cpg/sg14_4_cif.got.tgz:6005.got - 2010.06.03 17:49:19.
