data_PCOD9247161
_publ_section_title
;
Structure prediction by ZEFSAII (Michael W. Deem and Ramdas Pophale) SiO2 
 PCOD9247161
Probable space group: P 21/C
;
_chemical_formula_sum "Si O2"
_cell_formula_units_Z 20
_cell_length_a 20.481642
_cell_length_b 4.765078
_cell_length_c 10.375505
_cell_angle_alpha 90.000000
_cell_angle_beta 140.436816
_cell_angle_gamma 90.000000
_cell_volume 644.963127
_symmetry_space_group_name_H-M "P 21/C"
_symmetry_group_IT_number 14
_symmetry_cell_setting 'monoclinic'
loop_
_space_group_symop_operation_xyz
x,y,z
-x,1/2+y,1/2-z
-x,-y,-z
x,1/2-y,1/2+z
loop_
_atom_site_type_symbol
_atom_site_label
_atom_site_fract_x
_atom_site_fract_y
_atom_site_fract_z
Si Si1 0.460368 0.953738 0.703894
Si Si2 0.235111 0.086383 0.344866
Si Si3 0.038843 0.924778 0.797224
Si Si4 0.262155 0.020985 0.121378
Si Si5 0.500000 0.000000 0.500000
Si Si6 0.000000 0.000000 0.000000
O O1 0.487021 0.234839 0.836453
O O2 0.338213 0.900793 0.518457
O O3 0.482267 0.207405 0.618621
O O4 0.246972 0.221960 0.222128
O O5 0.247374 0.318680 0.468955
O O6 0.126160 0.944340 0.194190
O O7 0.014221 0.206010 0.665494
O O8 0.016187 0.181840 0.879066
O O9 0.158877 0.841393 0.979806
O O10 0.376282 0.917392 0.306354
#
# Coordination Sequence:
#
# PCOD9247161 Si02
#       6
#     4   4   4   4   2   2
#     4  11  24  44  71 103 144 190 243 301 368 439
#     4  10  21  44  71 106 145 194 245 306 371 443
#     4  11  24  44  71 103 144 190 243 301 368 439
#     4  10  21  44  71 106 145 194 245 306 371 443
#     4  10  22  44  68 106 144 192 242 308 362 446
#     4  10  22  44  68 106 144 192 242 308 362 446
#
# _framework density 31.009520999999999
#
# number of rings (size 3 to 8) (size 9 to 14) (size 15 to 20)
#    0.000    1.600    4.000    0.000    0.000    3.200 
#    0.000   10.000    0.000    0.000    0.000    0.000 
#    0.000    0.000    0.000    0.000    0.000    0.000 
#
# Total GULP energy -111405.056017 kJ/mol
# GULP energy per Si atom -5570.252801 kJ/mol
# Density = 3.093894 g / cm^3
# Si number density = 31.009521 Si / 1000 Ang^3
#
#
#
# Elastic Constant Matrix: (Units=GPa)
#
#
# Indices 1 2 3 4 5 6 
#
# 1 205.8899 27.9914 86.6437 0.0000 26.9196 0.0000
# 2 27.9914 213.2108 70.8577 0.0000 0.5356 0.0000
# 3 86.6437 70.8577 245.7153 0.0000 86.4348 0.0000
# 4 0.0000 0.0000 0.0000 58.6148 0.0000 -11.6386
# 5 26.9196 0.5356 86.4348 0.0000 110.1183 0.0000
# 6 0.0000 0.0000 0.0000 -11.6386 0.0000 31.6137
#
#
#
# Elastic Compliance Matrix: (Units=1/GPa)
#
#
# Indices 1 2 3 4 5 6 
#
# 1 0.005709 -0.000059 -0.002079 0.000000 0.000237 0.000000
# 2 -0.000059 0.005397 -0.002115 0.000000 0.001649 0.000000
# 3 -0.002079 -0.002115 0.007226 0.000000 -0.005153 0.000000
# 4 0.000000 0.000000 0.000000 0.018406 0.000000 0.006776
# 5 0.000237 0.001649 -0.005153 0.000000 0.013060 0.000000
# 6 0.000000 0.000000 0.000000 0.006776 0.000000 0.034127
#
#
# Mechanical properties :
#
#
# Convention : Reuss Voigt Hill
#
# Bulk Modulus (GPa) = 101.79301 115.08908 108.44104
# Shear Modulus (GPa) = 52.24306 72.02424 62.13365
#
# Velocity S-wave (km/s) = 4.10901 4.82462 4.48112
# Velocity P-wave (km/s) = 7.44376 8.26018 7.86258
#
# Compressibility (1/GPa) = 0.00982386
#
# Stress axis : x y z
#
# Youngs Moduli (GPa) = 175.15902 185.29380 138.39533
#
# Poissons Ratio (x) = 0.01094 0.28778
# Poissons Ratio (y) = 0.01034 0.29276
# Poissons Ratio (z) = 0.36423 0.39197
#
# Static dielectric constant tensor:
#      x y z
#    x 2.617560 0.000000 -0.220250 
#    y 0.000000 2.810090 0.000000 
#    z -0.220250 0.000000 2.132350 
# 
# From -- ./inp_files/34542.got.cif
#   From: 2010.05.17/outbox.cif.g08.bks.cpg/sg14_18_cif.got.tgz:34542.got - 2010.06.03 17:49:19.
