data_PCOD9247365
_publ_section_title
;
Structure prediction by ZEFSAII (Michael W. Deem and Ramdas Pophale) SiO2 
 PCOD9247365
Probable space group: P 21/C
;
_chemical_formula_sum "Si O2"
_cell_formula_units_Z 24
_cell_length_a 13.972224
_cell_length_b 10.183853
_cell_length_c 23.434934
_cell_angle_alpha 90.000000
_cell_angle_beta 161.217286
_cell_angle_gamma 90.000000
_cell_volume 1073.668962
_symmetry_space_group_name_H-M "P 21/C"
_symmetry_group_IT_number 14
_symmetry_cell_setting 'monoclinic'
loop_
_space_group_symop_operation_xyz
x,y,z
-x,1/2+y,1/2-z
-x,-y,-z
x,1/2-y,1/2+z
loop_
_atom_site_type_symbol
_atom_site_label
_atom_site_fract_x
_atom_site_fract_y
_atom_site_fract_z
Si Si1 0.954134 0.145048 0.999415
Si Si2 0.882354 0.876380 0.250592
Si Si3 0.168451 0.624426 0.351270
Si Si4 0.056203 0.489822 0.100118
Si Si5 0.236725 0.007422 0.002667
Si Si6 0.315907 0.236677 0.614209
O O1 0.877591 0.106685 0.020323
O O2 0.667756 0.217917 0.811421
O O3 0.229868 0.228642 0.131562
O O4 0.000000 0.000000 0.000000
O O5 0.025946 0.763542 0.291071
O O6 0.926591 0.028792 0.254561
O O7 0.524796 0.853955 0.047369
O O8 0.995820 0.877773 0.380982
O O9 0.105868 0.524226 0.368050
O O10 0.407941 0.508372 0.303061
O O11 0.836144 0.605922 0.993177
O O12 0.000000 0.500000 0.000000
O O13 0.181538 0.146810 0.000653
#
# Coordination Sequence:
#
# PCOD9247365 Si02
#       6
#     4   4   4   4   4   4
#     4  10  22  37  57  92 130 172 219 268 332 404
#     4  10  25  47  70  99 135 179 229 281 338 404
#     4  10  24  47  71  98 134 176 229 282 336 405
#     4  11  22  39  65  95 133 176 216 280 341 395
#     4  10  22  39  61  97 129 172 227 276 327 409
#     4  11  21  38  60  90 134 176 219 273 339 395
#
# _framework density 22.353258
#
# number of rings (size 3 to 8) (size 9 to 14) (size 15 to 20)
#    0.000    1.667    3.333    0.000    4.667    0.667 
#    6.000    0.000    0.000    0.000    0.000    0.000 
#    0.000    0.000    0.000    0.000    0.000    0.000 
#
# Total GULP energy -133631.388162 kJ/mol
# GULP energy per Si atom -5567.974507 kJ/mol
# Density = 2.230238 g / cm^3
# Si number density = 22.353258 Si / 1000 Ang^3
#
#
#
# Elastic Constant Matrix: (Units=GPa)
#
#
# Indices 1 2 3 4 5 6 
#
# 1 80.4711 25.9063 33.5934 0.0000 0.5133 0.0000
# 2 25.9063 117.6797 31.2224 0.0000 3.0813 0.0000
# 3 33.5934 31.2224 42.3415 0.0000 -0.1917 0.0000
# 4 0.0000 0.0000 0.0000 22.5524 0.0000 2.1145
# 5 0.5133 3.0813 -0.1917 0.0000 37.9078 0.0000
# 6 0.0000 0.0000 0.0000 2.1145 0.0000 45.1756
#
#
#
# Elastic Compliance Matrix: (Units=1/GPa)
#
#
# Indices 1 2 3 4 5 6 
#
# 1 0.018589 -0.000212 -0.014593 0.000000 -0.000308 0.000000
# 2 -0.000212 0.010598 -0.007650 0.000000 -0.000897 0.000000
# 3 -0.014593 -0.007650 0.040842 0.000000 0.001026 0.000000
# 4 0.000000 0.000000 0.000000 0.044537 0.000000 -0.002085
# 5 -0.000308 -0.000897 0.001026 0.000000 0.026462 0.000000
# 6 0.000000 0.000000 0.000000 -0.002085 0.000000 0.022233
#
#
# Mechanical properties :
#
#
# Convention : Reuss Voigt Hill
#
# Bulk Modulus (GPa) = 39.81426 46.88182 43.34804
# Shear Modulus (GPa) = 23.08991 31.11184 27.10087
#
# Velocity S-wave (km/s) = 3.21745 3.73477 3.48572
# Velocity P-wave (km/s) = 5.62607 6.29418 5.96948
#
# Compressibility (1/GPa) = 0.02511663
#
# Stress axis : x y z
#
# Youngs Moduli (GPa) = 53.79437 94.36092 24.48484
#
# Poissons Ratio (x) = 0.02004 0.35732
# Poissons Ratio (y) = 0.01142 0.18731
# Poissons Ratio (z) = 0.78504 0.72188
#
# Static dielectric constant tensor:
#      x y z
#    x 1.942820 0.000000 -0.070720 
#    y 0.000000 1.892480 0.000000 
#    z -0.070720 0.000000 1.791870 
# 
# From -- ./inp_files/73929.got.cif
#   From: 2010.05.17/outbox.cif.g08.bks.cpg/sg14_37_cif.got.tgz:73929.got - 2010.06.03 17:49:19.
