data_PCOD9247987
_publ_section_title
;
Structure prediction by ZEFSAII (Michael W. Deem and Ramdas Pophale) SiO2 
 PCOD9247987
Probable space group: P 21/C
;
_chemical_formula_sum "Si O2"
_cell_formula_units_Z 26
_cell_length_a 8.433580
_cell_length_b 21.667727
_cell_length_c 7.406493
_cell_angle_alpha 90.000000
_cell_angle_beta 128.420779
_cell_angle_gamma 90.000000
_cell_volume 1060.374513
_symmetry_space_group_name_H-M "P 21/C"
_symmetry_group_IT_number 14
_symmetry_cell_setting 'monoclinic'
loop_
_space_group_symop_operation_xyz
x,y,z
-x,1/2+y,1/2-z
-x,-y,-z
x,1/2-y,1/2+z
loop_
_atom_site_type_symbol
_atom_site_label
_atom_site_fract_x
_atom_site_fract_y
_atom_site_fract_z
Si Si1 0.350649 0.637368 0.887872
Si Si2 0.084472 0.174625 0.935431
Si Si3 0.249328 0.200431 0.409980
Si Si4 0.711103 0.426843 0.524165
Si Si5 0.500000 0.500000 0.000000
Si Si6 0.328044 0.440676 0.493029
Si Si7 0.840198 0.926275 0.508177
O O1 0.318239 0.622515 0.651862
O O2 0.406464 0.569893 0.002237
O O3 0.136920 0.663997 0.804668
O O4 0.534449 0.685576 0.028352
O O5 0.074971 0.189293 0.139760
O O6 0.214194 0.230674 0.948458
O O7 0.209525 0.111781 0.009785
O O8 0.222052 0.146497 0.538797
O O9 0.543058 0.422807 0.560137
O O10 0.663691 0.494245 0.393036
O O11 0.933518 0.427782 0.759275
O O12 0.307619 0.462289 0.961878
O O13 0.196076 0.452156 0.217416
#
# Coordination Sequence:
#
# PCOD9247987 Si02
#       7
#     4   4   4   4   2   4   4
#     4  11  25  45  72 106 140 188 231 296 355 428
#     4  12  27  47  74  98 138 191 238 294 356 419
#     4  11  26  44  70 100 136 177 241 292 341 425
#     4  11  23  41  70 101 144 179 226 284 358 416
#     4  10  22  40  72 104 146 174 234 284 352 420
#     4  11  25  41  66 106 138 178 231 289 347 421
#     4  11  22  43  67 101 142 182 228 285 350 414
#
# _framework density 24.519635999999998
#
# number of rings (size 3 to 8) (size 9 to 14) (size 15 to 20)
#    0.000    0.923    4.615    2.308    4.308    4.923 
#    0.000    0.000    0.000    0.000    0.000    0.000 
#    0.000    0.000    0.000    0.000    0.000    0.000 
#
# Total GULP energy -145213.864138 kJ/mol
# GULP energy per Si atom -5585.148621 kJ/mol
# Density = 2.446383 g / cm^3
# Si number density = 24.519636 Si / 1000 Ang^3
#
#
#
# Elastic Constant Matrix: (Units=GPa)
#
#
# Indices 1 2 3 4 5 6 
#
# 1 36.0395 32.9287 31.3435 0.0000 19.3915 0.0000
# 2 32.9287 99.1789 20.2278 0.0000 23.0430 0.0000
# 3 31.3435 20.2278 92.5119 0.0000 38.6656 0.0000
# 4 0.0000 0.0000 0.0000 37.9324 0.0000 -2.7027
# 5 19.3915 23.0430 38.6656 0.0000 57.1604 0.0000
# 6 0.0000 0.0000 0.0000 -2.7027 0.0000 41.0815
#
#
#
# Elastic Compliance Matrix: (Units=1/GPa)
#
#
# Indices 1 2 3 4 5 6 
#
# 1 0.055216 -0.014695 -0.014138 0.000000 -0.003244 0.000000
# 2 -0.014695 0.015076 0.002982 0.000000 -0.003109 0.000000
# 3 -0.014138 0.002982 0.018745 0.000000 -0.009086 0.000000
# 4 0.000000 0.000000 0.000000 0.026487 0.000000 0.001743
# 5 -0.003244 -0.003109 -0.009086 0.000000 0.025994 0.000000
# 6 0.000000 0.000000 0.000000 0.001743 0.000000 0.024456
#
#
# Mechanical properties :
#
#
# Convention : Reuss Voigt Hill
#
# Bulk Modulus (GPa) = 26.78561 44.08114 35.43338
# Shear Modulus (GPa) = 21.72764 36.78354 29.25559
#
# Velocity S-wave (km/s) = 2.98003 3.87740 3.45795
# Velocity P-wave (km/s) = 4.77374 6.16949 5.51594
#
# Compressibility (1/GPa) = 0.03733348
#
# Stress axis : x y z
#
# Youngs Moduli (GPa) = 18.11084 66.33062 53.34788
#
# Poissons Ratio (x) = 0.97473 0.75425
# Poissons Ratio (y) = 0.26614 -0.15908
# Poissons Ratio (z) = 0.25606 -0.19780
#
# Static dielectric constant tensor:
#      x y z
#    x 1.892690 0.000000 0.019970 
#    y 0.000000 1.947240 0.000000 
#    z 0.019970 0.000000 1.789770 
# 
# From -- ./inp_files/10312.got.cif
#   From: 2010.05.17/outbox.cif.g08.bks.cpg/sg14_6_cif.got.tgz:10312.got - 2010.06.03 17:49:19.
