data_PCOD9247762
_publ_section_title
;
Structure prediction by ZEFSAII (Michael W. Deem and Ramdas Pophale) SiO2 
 PCOD9247762
Probable space group: P 21/C
;
_chemical_formula_sum "Si O2"
_cell_formula_units_Z 16
_cell_length_a 4.950435
_cell_length_b 12.557874
_cell_length_c 9.614564
_cell_angle_alpha 90.000000
_cell_angle_beta 80.898001
_cell_angle_gamma 90.000000
_cell_volume 590.181846
_symmetry_space_group_name_H-M "P 21/C"
_symmetry_group_IT_number 14
_symmetry_cell_setting 'monoclinic'
loop_
_space_group_symop_operation_xyz
x,y,z
-x,1/2+y,1/2-z
-x,-y,-z
x,1/2-y,1/2+z
loop_
_atom_site_type_symbol
_atom_site_label
_atom_site_fract_x
_atom_site_fract_y
_atom_site_fract_z
Si Si1 0.192161 0.852327 0.021961
Si Si2 0.876062 0.587041 0.807339
Si Si3 0.278018 0.321918 0.668384
Si Si4 0.142389 0.621759 0.077218
O O1 0.057560 0.922109 0.153478
O O2 0.271432 0.738028 0.085158
O O3 0.458691 0.881036 0.913250
O O4 0.953974 0.831679 0.930710
O O5 0.694003 0.693678 0.811462
O O6 0.721205 0.479093 0.860329
O O7 0.079099 0.602720 0.921629
O O8 0.147829 0.366541 0.819356
#
# Coordination Sequence:
#
# PCOD9247762 Si02
#       4
#     4   4   4   4
#     4  10  22  40  60  84 116 152 190 234 284 338
#     4   9  20  38  60  86 116 151 191 235 284 338
#     4  10  22  40  60  84 116 152 190 234 284 338
#     4   9  20  38  60  86 116 151 191 235 284 338
#
# _framework density 27.110288000000001
#
# number of rings (size 3 to 8) (size 9 to 14) (size 15 to 20)
#    0.000    2.500    0.000    0.000    0.000   21.000 
#    0.000   10.000    0.000    0.000    0.000    0.000 
#    0.000    0.000    0.000    0.000    0.000    0.000 
#
# Total GULP energy -89646.706987 kJ/mol
# GULP energy per Si atom -5602.919187 kJ/mol
# Density = 2.704858 g / cm^3
# Si number density = 27.110288 Si / 1000 Ang^3
#
#
#
# Elastic Constant Matrix: (Units=GPa)
#
#
# Indices 1 2 3 4 5 6 
#
# 1 102.0155 -6.9767 48.5813 0.0000 -11.0938 0.0000
# 2 -6.9767 95.4955 6.5733 0.0000 21.3024 0.0000
# 3 48.5813 6.5733 154.3854 0.0000 -21.0292 0.0000
# 4 0.0000 0.0000 0.0000 39.8312 0.0000 1.6557
# 5 -11.0938 21.3024 -21.0292 0.0000 37.6809 0.0000
# 6 0.0000 0.0000 0.0000 1.6557 0.0000 13.7405
#
#
#
# Elastic Compliance Matrix: (Units=1/GPa)
#
#
# Indices 1 2 3 4 5 6 
#
# 1 0.011671 0.000891 -0.003584 0.000000 0.000932 0.000000
# 2 0.000891 0.012404 -0.001870 0.000000 -0.007794 0.000000
# 3 -0.003584 -0.001870 0.008317 0.000000 0.004644 0.000000
# 4 0.000000 0.000000 0.000000 0.025232 0.000000 -0.003041
# 5 0.000932 -0.007794 0.004644 0.000000 0.033811 0.000000
# 6 0.000000 0.000000 0.000000 -0.003041 0.000000 0.073144
#
#
# Mechanical properties :
#
#
# Convention : Reuss Voigt Hill
#
# Bulk Modulus (GPa) = 42.97812 49.80581 46.39196
# Shear Modulus (GPa) = 27.55416 38.49842 33.02629
#
# Velocity S-wave (km/s) = 3.19152 3.77247 3.49409
# Velocity P-wave (km/s) = 5.42849 6.11447 5.78167
#
# Compressibility (1/GPa) = 0.02326765
#
# Stress axis : x y z
#
# Youngs Moduli (GPa) = 85.67982 80.61819 120.23313
#
# Poissons Ratio (x) = -0.07186 0.43087
# Poissons Ratio (y) = -0.07637 0.22487
# Poissons Ratio (z) = 0.30705 0.15078
#
# Static dielectric constant tensor:
#      x y z
#    x 2.027100 0.000000 -0.025890 
#    y 0.000000 2.250800 0.000000 
#    z -0.025890 0.000000 2.041480 
# 
# From -- ./inp_files/5101.got.cif
#   From: 2010.05.17/outbox.cif.g08.bks.cpg/sg14_3_cif.got.tgz:5101.got - 2010.06.03 17:49:19.
