data_PCOD9247606
_publ_section_title
;
Structure prediction by ZEFSAII (Michael W. Deem and Ramdas Pophale) SiO2 
 PCOD9247606
Probable space group: P 21/C
;
_chemical_formula_sum "Si O2"
_cell_formula_units_Z 24
_cell_length_a 14.841353
_cell_length_b 8.278071
_cell_length_c 9.692551
_cell_angle_alpha 90.000000
_cell_angle_beta 78.443907
_cell_angle_gamma 90.000000
_cell_volume 1166.666488
_symmetry_space_group_name_H-M "P 21/C"
_symmetry_group_IT_number 14
_symmetry_cell_setting 'monoclinic'
loop_
_space_group_symop_operation_xyz
x,y,z
-x,1/2+y,1/2-z
-x,-y,-z
x,1/2-y,1/2+z
loop_
_atom_site_type_symbol
_atom_site_label
_atom_site_fract_x
_atom_site_fract_y
_atom_site_fract_z
Si Si1 0.074804 0.059818 0.868219
Si Si2 0.025165 0.431407 0.844403
Si Si3 0.771928 0.543390 0.261180
Si Si4 0.259491 0.172949 0.932585
Si Si5 0.567643 0.453671 0.670920
Si Si6 0.600570 0.168618 0.859552
O O1 0.049307 0.244115 0.843571
O O2 0.176948 0.063011 0.896715
O O3 0.057308 0.961894 0.734994
O O4 0.000000 0.000000 0.000000
O O5 0.121765 0.509242 0.766107
O O6 0.000000 0.500000 0.000000
O O7 0.751411 0.660159 0.398954
O O8 0.753867 0.650546 0.129851
O O9 0.702689 0.394588 0.295588
O O10 0.356009 0.094408 0.860787
O O11 0.580167 0.341402 0.799543
O O12 0.469198 0.538502 0.686842
O O13 0.583327 0.344609 0.528778
#
# Coordination Sequence:
#
# PCOD9247606 Si02
#       6
#     4   4   4   4   4   4
#     4  11  22  41  60  87 123 159 203 255 300 361
#     4  11  24  39  62  89 119 164 205 250 308 357
#     4  10  22  40  60  87 118 157 199 243 296 356
#     4  10  22  39  61  86 120 157 197 244 296 352
#     4  10  22  40  61  91 120 155 195 245 295 353
#     4  10  22  40  62  89 122 153 197 243 296 354
#
# _framework density 20.571432000000001
#
# number of rings (size 3 to 8) (size 9 to 14) (size 15 to 20)
#    0.000    1.667    1.667    2.000    7.000    4.667 
#    0.000    0.000    0.000    0.000    0.000    0.000 
#    0.000    0.000    0.000    0.000    0.000    0.000 
#
# Total GULP energy -134132.278871 kJ/mol
# GULP energy per Si atom -5588.844953 kJ/mol
# Density = 2.052461 g / cm^3
# Si number density = 20.571432 Si / 1000 Ang^3
#
#
#
# Elastic Constant Matrix: (Units=GPa)
#
#
# Indices 1 2 3 4 5 6 
#
# 1 73.9332 -1.9725 -8.8238 0.0000 -6.4947 0.0000
# 2 -1.9725 14.4655 -7.4744 0.0000 1.0864 0.0000
# 3 -8.8238 -7.4744 39.5562 0.0000 6.8263 0.0000
# 4 0.0000 0.0000 0.0000 28.6969 0.0000 15.2344
# 5 -6.4947 1.0864 6.8263 0.0000 30.2956 0.0000
# 6 0.0000 0.0000 0.0000 15.2344 0.0000 26.7418
#
#
#
# Elastic Compliance Matrix: (Units=1/GPa)
#
#
# Indices 1 2 3 4 5 6 
#
# 1 0.014224 0.003577 0.003480 0.000000 0.002137 0.000000
# 2 0.003577 0.078665 0.016665 0.000000 -0.005809 0.000000
# 3 0.003480 0.016665 0.030361 0.000000 -0.006692 0.000000
# 4 0.000000 0.000000 0.000000 0.049955 0.000000 -0.028458
# 5 0.002137 -0.005809 -0.006692 0.000000 0.035183 0.000000
# 6 0.000000 0.000000 0.000000 -0.028458 0.000000 0.053607
#
#
# Mechanical properties :
#
#
# Convention : Reuss Voigt Hill
#
# Bulk Modulus (GPa) = 5.85844 10.15706 8.00775
# Shear Modulus (GPa) = 18.41979 26.89524 22.65751
#
# Velocity S-wave (km/s) = 2.99558 3.61973 3.32235
# Velocity P-wave (km/s) = 3.84951 4.73478 4.31491
#
# Compressibility (1/GPa) = 0.17069383
#
# Stress axis : x y z
#
# Youngs Moduli (GPa) = 70.30248 12.71217 32.93745
#
# Poissons Ratio (x) = -0.04548 -0.11463
# Poissons Ratio (y) = -0.25150 -0.54889
# Poissons Ratio (z) = -0.24467 -0.21184
#
# Static dielectric constant tensor:
#      x y z
#    x 1.732030 0.000000 0.005690 
#    y 0.000000 1.707990 0.000000 
#    z 0.005690 0.000000 1.735100 
# 
# From -- ./inp_files/15009.got.cif
#   From: 2010.05.17/outbox.cif.g08.bks.cpg/sg14_8_cif.got.tgz:15009.got - 2010.06.03 17:49:19.
