data_PCOD9247393
_publ_section_title
;
Structure prediction by ZEFSAII (Michael W. Deem and Ramdas Pophale) SiO2 
 PCOD9247393
Probable space group: P 21/C
;
_chemical_formula_sum "Si O2"
_cell_formula_units_Z 24
_cell_length_a 12.565836
_cell_length_b 8.500967
_cell_length_c 16.750761
_cell_angle_alpha 90.000000
_cell_angle_beta 137.320093
_cell_angle_gamma 90.000000
_cell_volume 1213.000869
_symmetry_space_group_name_H-M "P 21/C"
_symmetry_group_IT_number 14
_symmetry_cell_setting 'monoclinic'
loop_
_space_group_symop_operation_xyz
x,y,z
-x,1/2+y,1/2-z
-x,-y,-z
x,1/2-y,1/2+z
loop_
_atom_site_type_symbol
_atom_site_label
_atom_site_fract_x
_atom_site_fract_y
_atom_site_fract_z
Si Si1 0.528022 0.627395 0.448467
Si Si2 0.010195 0.544288 0.656939
Si Si3 0.314035 0.864784 0.236998
Si Si4 0.817234 0.835475 0.615347
Si Si5 0.564403 0.440119 0.947823
Si Si6 0.688362 0.370257 0.445062
O O1 0.500000 0.500000 0.500000
O O2 0.386763 0.736382 0.338811
O O3 0.674615 0.724900 0.565360
O O4 0.589367 0.528155 0.406609
O O5 0.939615 0.711768 0.646942
O O6 0.866908 0.429191 0.555502
O O7 0.137000 0.587506 0.659889
O O8 0.103966 0.450437 0.777393
O O9 0.330398 0.811191 0.155295
O O10 0.421204 0.018574 0.311146
O O11 0.713620 0.952663 0.503790
O O12 0.627479 0.263766 0.972586
O O13 0.500000 0.500000 0.000000
#
# Coordination Sequence:
#
# PCOD9247393 Si02
#       6
#     4   4   4   4   4   4
#     4  10  23  39  64  93 117 163 218 253 299 369
#     4  11  23  38  62  91 128 160 207 252 317 366
#     4  11  23  40  63  91 127 164 204 258 313 368
#     4  10  22  37  61  90 118 161 206 263 296 362
#     4  11  21  41  66  90 118 167 213 255 303 366
#     4  11  23  41  61  92 130 162 200 259 320 369
#
# _framework density 19.785640999999998
#
# number of rings (size 3 to 8) (size 9 to 14) (size 15 to 20)
#    0.000    1.333    1.667    4.500    4.667    0.000 
#    0.000    0.833    0.000    0.000    0.000    0.000 
#    0.000    0.000    0.000    0.000    0.000    0.000 
#
# Total GULP energy -133680.288846 kJ/mol
# GULP energy per Si atom -5570.012035 kJ/mol
# Density = 1.974061 g / cm^3
# Si number density = 19.785641 Si / 1000 Ang^3
#
#
#
# Elastic Constant Matrix: (Units=GPa)
#
#
# Indices 1 2 3 4 5 6 
#
# 1 91.6124 47.1352 45.1621 0.0000 2.2982 0.0000
# 2 47.1352 109.2941 26.1952 0.0000 20.8710 0.0000
# 3 45.1621 26.1952 48.5089 0.0000 7.2879 0.0000
# 4 0.0000 0.0000 0.0000 36.8343 0.0000 4.7084
# 5 2.2982 20.8710 7.2879 0.0000 25.9240 0.0000
# 6 0.0000 0.0000 0.0000 4.7084 0.0000 27.4883
#
#
#
# Elastic Compliance Matrix: (Units=1/GPa)
#
#
# Indices 1 2 3 4 5 6 
#
# 1 0.024517 -0.007569 -0.020179 0.000000 0.009593 0.000000
# 2 -0.007569 0.014299 0.000996 0.000000 -0.011121 0.000000
# 3 -0.020179 0.000996 0.040423 0.000000 -0.010377 0.000000
# 4 0.000000 0.000000 0.000000 0.027756 0.000000 -0.004754
# 5 0.009593 -0.011121 -0.010377 0.000000 0.049594 0.000000
# 6 0.000000 0.000000 0.000000 -0.004754 0.000000 0.037194
#
#
# Mechanical properties :
#
#
# Convention : Reuss Voigt Hill
#
# Bulk Modulus (GPa) = 38.85882 54.04447 46.45165
# Shear Modulus (GPa) = 19.54152 26.77751 23.15952
#
# Velocity S-wave (km/s) = 3.14612 3.68282 3.42500
# Velocity P-wave (km/s) = 5.73410 6.74230 6.25853
#
# Compressibility (1/GPa) = 0.02573418
#
# Stress axis : x y z
#
# Youngs Moduli (GPa) = 40.78820 69.93630 24.73830
#
# Poissons Ratio (x) = 0.52933 0.49920
# Poissons Ratio (y) = 0.30872 -0.02464
# Poissons Ratio (z) = 0.82308 -0.06965
#
# Static dielectric constant tensor:
#      x y z
#    x 1.739530 0.000000 -0.004680 
#    y 0.000000 1.785460 0.000000 
#    z -0.004680 0.000000 1.695890 
# 
# From -- ./inp_files/59135.got.cif
#   From: 2010.05.17/outbox.cif.g08.bks.cpg/sg14_30_cif.got.tgz:59135.got - 2010.06.03 17:49:19.
