data_PCOD9247577
_publ_section_title
;
Structure prediction by ZEFSAII (Michael W. Deem and Ramdas Pophale) SiO2 
 PCOD9247577
Probable space group: P 21/C
;
_chemical_formula_sum "Si O2"
_cell_formula_units_Z 24
_cell_length_a 7.934409
_cell_length_b 25.181825
_cell_length_c 8.234568
_cell_angle_alpha 90.000000
_cell_angle_beta 36.196923
_cell_angle_gamma 90.000000
_cell_volume 971.646625
_symmetry_space_group_name_H-M "P 21/C"
_symmetry_group_IT_number 14
_symmetry_cell_setting 'monoclinic'
loop_
_space_group_symop_operation_xyz
x,y,z
-x,1/2+y,1/2-z
-x,-y,-z
x,1/2-y,1/2+z
loop_
_atom_site_type_symbol
_atom_site_label
_atom_site_fract_x
_atom_site_fract_y
_atom_site_fract_z
Si Si1 0.621440 0.761415 0.390937
Si Si2 0.988819 0.302446 0.659933
Si Si3 0.533377 0.148090 0.090526
Si Si4 0.085411 0.612454 0.004904
Si Si5 0.672426 0.056679 0.179910
Si Si6 0.894801 0.492189 0.830599
O O1 0.305359 0.779911 0.683171
O O2 0.545510 0.709490 0.341089
O O3 0.850072 0.738954 0.342293
O O4 0.778899 0.806584 0.163492
O O5 0.916025 0.352287 0.829938
O O6 0.687885 0.117915 0.116641
O O7 0.232617 0.118347 0.313755
O O8 0.701156 0.137208 0.792573
O O9 0.134544 0.550984 0.005894
O O10 0.851336 0.042244 0.200001
O O11 0.358064 0.034821 0.461808
O O12 0.810159 0.023044 0.924944
#
# Coordination Sequence:
#
# PCOD9247577 Si02
#       6
#     4   4   4   4   4   4
#     4  11  23  41  62  89 122 158 202 251 302 360
#     4  11  23  41  62  89 122 158 202 251 302 360
#     4  11  23  40  61  88 120 155 200 248 296 356
#     4  11  23  40  61  88 120 155 200 248 296 356
#     4  10  22  39  59  87 121 155 196 244 294 354
#     4  10  22  39  59  87 121 155 196 244 294 354
#
# _framework density 24.700337000000001
#
# number of rings (size 3 to 8) (size 9 to 14) (size 15 to 20)
#    0.000    1.333    0.000    7.000    0.000    6.667 
#    0.000    3.333    0.000    0.000    0.000    0.000 
#    0.000    0.000    0.000    0.000    0.000    0.000 
#
# Total GULP energy -134289.140547 kJ/mol
# GULP energy per Si atom -5595.380856 kJ/mol
# Density = 2.464412 g / cm^3
# Si number density = 24.700337 Si / 1000 Ang^3
#
#
#
# Elastic Constant Matrix: (Units=GPa)
#
#
# Indices 1 2 3 4 5 6 
#
# 1 57.3196 17.7369 29.7739 0.0000 -5.7989 0.0000
# 2 17.7369 97.8257 15.6329 0.0000 15.1506 0.0000
# 3 29.7739 15.6329 132.5287 0.0000 -4.1412 0.0000
# 4 0.0000 0.0000 0.0000 37.5154 0.0000 8.4094
# 5 -5.7989 15.1506 -4.1412 0.0000 30.2424 0.0000
# 6 0.0000 0.0000 0.0000 8.4094 0.0000 36.6412
#
#
#
# Elastic Compliance Matrix: (Units=1/GPa)
#
#
# Indices 1 2 3 4 5 6 
#
# 1 0.021437 -0.004088 -0.004159 0.000000 0.005589 0.000000
# 2 -0.004088 0.012161 -0.000734 0.000000 -0.006977 0.000000
# 3 -0.004159 -0.000734 0.008590 0.000000 0.000747 0.000000
# 4 0.000000 0.000000 0.000000 0.028101 0.000000 -0.006449
# 5 0.005589 -0.006977 0.000747 0.000000 0.037735 0.000000
# 6 0.000000 0.000000 0.000000 -0.006449 0.000000 0.028772
#
#
# Mechanical properties :
#
#
# Convention : Reuss Voigt Hill
#
# Bulk Modulus (GPa) = 41.27822 45.99571 43.63696
# Shear Modulus (GPa) = 30.70624 35.84851 33.27737
#
# Velocity S-wave (km/s) = 3.52966 3.81377 3.67446
# Velocity P-wave (km/s) = 5.77574 6.16888 5.97555
#
# Compressibility (1/GPa) = 0.02422585
#
# Stress axis : x y z
#
# Youngs Moduli (GPa) = 46.64896 82.22861 116.41620
#
# Poissons Ratio (x) = 0.33612 0.48420
# Poissons Ratio (y) = 0.19068 0.08547
# Poissons Ratio (z) = 0.19402 0.06037
#
# Static dielectric constant tensor:
#      x y z
#    x 2.029660 0.000000 0.062830 
#    y 0.000000 1.937230 0.000000 
#    z 0.062830 0.000000 1.886240 
# 
# From -- ./inp_files/11288.got.cif
#   From: 2010.05.17/outbox.cif.g08.bks.cpg/sg14_6_cif.got.tgz:11288.got - 2010.06.03 17:49:19.
