data_PCOD9247690
_publ_section_title
;
Structure prediction by ZEFSAII (Michael W. Deem and Ramdas Pophale) SiO2 
 PCOD9247690
Probable space group: P 21/C
;
_chemical_formula_sum "Si O2"
_cell_formula_units_Z 32
_cell_length_a 25.381147
_cell_length_b 9.799532
_cell_length_c 13.429955
_cell_angle_alpha 90.000000
_cell_angle_beta 23.990018
_cell_angle_gamma 90.000000
_cell_volume 1358.108468
_symmetry_space_group_name_H-M "P 21/C"
_symmetry_group_IT_number 14
_symmetry_cell_setting 'monoclinic'
loop_
_space_group_symop_operation_xyz
x,y,z
-x,1/2+y,1/2-z
-x,-y,-z
x,1/2-y,1/2+z
loop_
_atom_site_type_symbol
_atom_site_label
_atom_site_fract_x
_atom_site_fract_y
_atom_site_fract_z
Si Si1 0.317877 0.279737 0.820747
Si Si2 0.355548 0.501934 0.179096
Si Si3 0.514540 0.255502 0.140009
Si Si4 0.375046 0.663839 0.352584
Si Si5 0.968476 0.373613 0.625494
Si Si6 0.681209 0.094034 0.690308
Si Si7 0.087138 0.890497 0.407715
Si Si8 0.098206 0.370529 0.602083
O O1 0.370811 0.249074 0.840287
O O2 0.354181 0.435286 0.741379
O O3 0.171237 0.247363 0.040707
O O4 0.384483 0.339822 0.139911
O O5 0.429059 0.590654 0.969741
O O6 0.381338 0.569072 0.242347
O O7 0.199779 0.497141 0.432638
O O8 0.528986 0.186207 0.220769
O O9 0.610997 0.172389 0.900516
O O10 0.358546 0.818033 0.338080
O O11 0.241778 0.603755 0.631695
O O12 0.946941 0.248690 0.589557
O O13 0.000000 0.500000 0.500000
O O14 0.074243 0.342064 0.527973
O O15 0.835907 0.399956 0.914506
O O16 0.000000 0.000000 0.500000
O O17 0.033733 0.896062 0.611569
#
# Coordination Sequence:
#
# PCOD9247690 Si02
#       8
#     4   4   4   4   4   4   4   4
#     4  10  22  42  64  90 128 170 216 267 323 384
#     4   9  22  42  60  92 125 165 218 255 326 386
#     4  11  22  41  66  90 125 173 216 264 328 382
#     4  10  22  39  65  91 127 170 208 275 320 394
#     4  11  25  40  65  95 127 170 209 267 330 388
#     4  10  23  42  59  97 128 159 223 262 324 391
#     4  11  21  39  61  92 128 166 218 258 331 395
#     4  10  23  41  64  89 133 164 212 270 318 387
#
# _framework density 23.562183000000001
#
# number of rings (size 3 to 8) (size 9 to 14) (size 15 to 20)
#    0.750    1.000    1.250    2.250    3.500    4.000 
#    0.000    6.250    0.000    0.000    0.000    0.000 
#    0.000    0.000    0.000    0.000    0.000    0.000 
#
# Total GULP energy -178539.051734 kJ/mol
# GULP energy per Si atom -5579.345367 kJ/mol
# Density = 2.350855 g / cm^3
# Si number density = 23.562183 Si / 1000 Ang^3
#
#
#
# Elastic Constant Matrix: (Units=GPa)
#
#
# Indices 1 2 3 4 5 6 
#
# 1 138.9502 8.4534 38.5405 0.0000 5.4304 0.0000
# 2 8.4534 126.1902 0.8416 0.0000 -3.3059 0.0000
# 3 38.5405 0.8416 64.7751 0.0000 2.0137 0.0000
# 4 0.0000 0.0000 0.0000 26.4603 0.0000 2.4964
# 5 5.4304 -3.3059 2.0137 0.0000 19.8500 0.0000
# 6 0.0000 0.0000 0.0000 2.4964 0.0000 16.6055
#
#
#
# Elastic Compliance Matrix: (Units=1/GPa)
#
#
# Indices 1 2 3 4 5 6 
#
# 1 0.008732 -0.000602 -0.005127 0.000000 -0.001969 0.000000
# 2 -0.000602 0.008002 0.000209 0.000000 0.001476 0.000000
# 3 -0.005127 0.000209 0.018499 0.000000 -0.000439 0.000000
# 4 0.000000 0.000000 0.000000 0.038336 0.000000 -0.005763
# 5 -0.001969 0.001476 -0.000439 0.000000 0.051207 0.000000
# 6 0.000000 0.000000 0.000000 -0.005763 0.000000 0.061087
#
#
# Mechanical properties :
#
#
# Convention : Reuss Voigt Hill
#
# Bulk Modulus (GPa) = 41.33442 47.28738 44.31090
# Shear Modulus (GPa) = 24.39388 31.38853 27.89120
#
# Velocity S-wave (km/s) = 3.22110 3.65383 3.44427
# Velocity P-wave (km/s) = 5.60488 6.15739 5.88762
#
# Compressibility (1/GPa) = 0.02419291
#
# Stress axis : x y z
#
# Youngs Moduli (GPa) = 114.51611 124.96591 54.05619
#
# Poissons Ratio (x) = 0.07528 0.27713
# Poissons Ratio (y) = 0.06898 -0.01127
# Poissons Ratio (z) = 0.58708 -0.02606
#
# Static dielectric constant tensor:
#      x y z
#    x 1.906750 0.000000 -0.133260 
#    y 0.000000 1.933570 0.000000 
#    z -0.133260 0.000000 2.080770 
# 
# From -- ./inp_files/35904.got.cif
#   From: 2010.05.17/outbox.cif.g08.bks.cpg/sg14_18_cif.got.tgz:35904.got - 2010.06.03 17:49:19.
