data_PCOD9247191
_publ_section_title
;
Structure prediction by ZEFSAII (Michael W. Deem and Ramdas Pophale) SiO2 
 PCOD9247191
Probable space group: P 21/C
;
_chemical_formula_sum "Si O2"
_cell_formula_units_Z 32
_cell_length_a 6.048739
_cell_length_b 19.727534
_cell_length_c 12.266402
_cell_angle_alpha 90.000000
_cell_angle_beta 71.159662
_cell_angle_gamma 90.000000
_cell_volume 1385.286912
_symmetry_space_group_name_H-M "P 21/C"
_symmetry_group_IT_number 14
_symmetry_cell_setting 'monoclinic'
loop_
_space_group_symop_operation_xyz
x,y,z
-x,1/2+y,1/2-z
-x,-y,-z
x,1/2-y,1/2+z
loop_
_atom_site_type_symbol
_atom_site_label
_atom_site_fract_x
_atom_site_fract_y
_atom_site_fract_z
Si Si1 0.773501 0.452843 0.533109
Si Si2 0.874665 0.029035 0.413550
Si Si3 0.847583 0.317893 0.645050
Si Si4 0.979576 0.827939 0.641729
Si Si5 0.583752 0.285759 0.061682
Si Si6 0.558110 0.073591 0.845836
Si Si7 0.701931 0.713585 0.575014
Si Si8 0.454299 0.074429 0.623344
O O1 0.775043 0.393368 0.621942
O O2 0.571930 0.505049 0.598157
O O3 0.741095 0.420295 0.416932
O O4 0.000000 0.500000 0.500000
O O5 0.624342 0.058614 0.494465
O O6 0.041432 0.090117 0.346605
O O7 0.780542 0.970784 0.346311
O O8 0.000000 0.000000 0.500000
O O9 0.646767 0.264950 0.647535
O O10 0.918367 0.309000 0.757748
O O11 0.069867 0.303318 0.533163
O O12 0.777501 0.775037 0.642808
O O13 0.170801 0.817540 0.516218
O O14 0.406785 0.345571 0.119728
O O15 0.487832 0.243669 0.976604
O O16 0.397500 0.141170 0.870748
O O17 0.604950 0.064035 0.709819
#
# Coordination Sequence:
#
# PCOD9247191 Si02
#       8
#     4   4   4   4   4   4   4   4
#     4  11  23  44  61  91 132 163 214 266 312 383
#     4  10  21  45  63  96 127 164 217 268 313 391
#     4  11  23  40  63  91 129 169 211 265 323 379
#     4  10  24  40  64  93 126 167 211 261 324 379
#     4  10  23  42  60  92 130 163 211 271 310 387
#     4  11  24  40  65  94 125 172 212 263 324 378
#     4  11  23  41  60  96 127 164 216 259 316 386
#     4  10  23  39  67  94 125 169 214 262 325 376
#
# _framework density 23.099909
#
# number of rings (size 3 to 8) (size 9 to 14) (size 15 to 20)
#    0.000    1.500    2.500    1.500    3.500    2.000 
#    0.000    0.000    0.000    0.000    0.000    0.000 
#    0.000    0.000    0.000    0.000    0.000    0.000 
#
# Total GULP energy -178597.181363 kJ/mol
# GULP energy per Si atom -5581.161918 kJ/mol
# Density = 2.304733 g / cm^3
# Si number density = 23.099909 Si / 1000 Ang^3
#
#
#
# Elastic Constant Matrix: (Units=GPa)
#
#
# Indices 1 2 3 4 5 6 
#
# 1 30.6485 15.9060 0.1797 0.0000 8.4980 0.0000
# 2 15.9060 119.5890 16.4815 0.0000 4.1008 0.0000
# 3 0.1797 16.4815 81.4856 0.0000 20.4027 0.0000
# 4 0.0000 0.0000 0.0000 18.1953 0.0000 25.3675
# 5 8.4980 4.1008 20.4027 0.0000 38.4386 0.0000
# 6 0.0000 0.0000 0.0000 25.3675 0.0000 25.8517
#
#
#
# Elastic Compliance Matrix: (Units=1/GPa)
#
#
# Indices 1 2 3 4 5 6 
#
# 1 0.037971 -0.005185 0.003377 0.000000 -0.009634 0.000000
# 2 -0.005185 0.009310 -0.002203 0.000000 0.001322 0.000000
# 3 0.003377 -0.002203 0.014806 0.000000 -0.008370 0.000000
# 4 0.000000 0.000000 0.000000 -0.149321 0.000000 0.146524
# 5 -0.009634 0.001322 -0.008370 0.000000 0.032447 0.000000
# 6 0.000000 0.000000 0.000000 0.146524 0.000000 -0.105097
#
#
# Mechanical properties :
#
#
# Convention : Reuss Voigt Hill
#
# Bulk Modulus (GPa) = 18.49634 32.98419 25.74026
# Shear Modulus (GPa) = -37.35777 29.77419 -3.79179
#
# Velocity S-wave (km/s) = -4.02584 3.59406 -1.28259
# Velocity P-wave (km/s) = 3.68583 5.61542 2.99563
#
# Compressibility (1/GPa) = 0.05406476
#
# Stress axis : x y z
#
# Youngs Moduli (GPa) = 26.33622 107.41268 67.54009
#
# Poissons Ratio (x) = 0.55698 -0.22810
# Poissons Ratio (y) = 0.13656 0.14877
# Poissons Ratio (z) = -0.08894 0.23660
#
# Static dielectric constant tensor:
#      x y z
#    x 1.935250 0.000000 -0.033310 
#    y 0.000000 1.902070 0.000000 
#    z -0.033310 0.000000 1.893340 
# 
# From -- ./inp_files/21784.got.cif
#   From: 2010.05.17/outbox.cif.g08.bks.cpg/sg14_11_cif.got.tgz:21784.got - 2010.06.03 17:49:19.
