data_PCOD9247679
_publ_section_title
;
Structure prediction by ZEFSAII (Michael W. Deem and Ramdas Pophale) SiO2 
 PCOD9247679
Probable space group: P 21/C
;
_chemical_formula_sum "Si O2"
_cell_formula_units_Z 28
_cell_length_a 8.352599
_cell_length_b 14.531260
_cell_length_c 16.900724
_cell_angle_alpha 90.000000
_cell_angle_beta 145.796138
_cell_angle_gamma 90.000000
_cell_volume 1153.118736
_symmetry_space_group_name_H-M "P 21/C"
_symmetry_group_IT_number 14
_symmetry_cell_setting 'monoclinic'
loop_
_space_group_symop_operation_xyz
x,y,z
-x,1/2+y,1/2-z
-x,-y,-z
x,1/2-y,1/2+z
loop_
_atom_site_type_symbol
_atom_site_label
_atom_site_fract_x
_atom_site_fract_y
_atom_site_fract_z
Si Si1 0.123862 0.084415 0.716070
Si Si2 0.252925 0.845557 0.026025
Si Si3 0.681474 0.548099 0.276892
Si Si4 0.772773 0.577980 0.133512
Si Si5 0.145292 0.739730 0.311124
Si Si6 0.134042 0.853552 0.551045
Si Si7 0.521691 0.870461 0.378162
O O1 0.017187 0.172239 0.721155
O O2 0.955215 0.089995 0.564516
O O3 0.022463 0.995322 0.721674
O O4 0.458258 0.099009 0.840468
O O5 0.259009 0.813714 0.935625
O O6 0.225346 0.750070 0.063755
O O7 0.976623 0.909716 0.928171
O O8 0.648583 0.438551 0.250478
O O9 0.673806 0.585643 0.182980
O O10 0.397908 0.592656 0.198604
O O11 0.917372 0.676019 0.176860
O O12 0.538909 0.574110 0.968925
O O13 0.368485 0.776471 0.338493
O O14 0.837932 0.854670 0.476308
#
# Coordination Sequence:
#
# PCOD9247679 Si02
#       7
#     4   4   4   4   4   4   4
#     4  11  21  42  65  92 126 166 205 257 315 372
#     4  10  23  42  65  91 126 165 208 253 315 376
#     4  11  22  41  66  94 121 169 207 255 310 375
#     4  11  22  39  69  92 126 160 211 261 314 362
#     4  10  22  39  64  97 124 158 212 263 309 360
#     4  11  23  40  66  89 124 171 212 248 306 375
#     4  12  23  41  64  95 125 164 212 258 304 369
#
# _framework density 24.281974000000002
#
# number of rings (size 3 to 8) (size 9 to 14) (size 15 to 20)
#    0.000    1.143    2.857    6.000    0.000    4.571 
#    2.571    0.714    0.000    0.000    0.000    0.000 
#    0.000    0.000    0.000    0.000    0.000    0.000 
#
# Total GULP energy -156766.236627 kJ/mol
# GULP energy per Si atom -5598.794165 kJ/mol
# Density = 2.422671 g / cm^3
# Si number density = 24.281974 Si / 1000 Ang^3
#
#
#
# Elastic Constant Matrix: (Units=GPa)
#
#
# Indices 1 2 3 4 5 6 
#
# 1 84.0974 7.2351 12.6290 0.0000 23.1560 0.0000
# 2 7.2351 42.9601 6.1923 0.0000 4.6842 0.0000
# 3 12.6290 6.1923 108.0227 0.0000 33.6181 0.0000
# 4 0.0000 0.0000 0.0000 38.0711 0.0000 8.2691
# 5 23.1560 4.6842 33.6181 0.0000 45.9108 0.0000
# 6 0.0000 0.0000 0.0000 8.2691 0.0000 23.7779
#
#
#
# Elastic Compliance Matrix: (Units=1/GPa)
#
#
# Indices 1 2 3 4 5 6 
#
# 1 0.013966 -0.001653 0.000779 0.000000 -0.007446 0.000000
# 2 -0.001653 0.023786 -0.000873 0.000000 -0.000954 0.000000
# 3 0.000779 -0.000873 0.012059 0.000000 -0.009134 0.000000
# 4 0.000000 0.000000 0.000000 0.028413 0.000000 -0.009881
# 5 -0.007446 -0.000954 -0.009134 0.000000 0.032323 0.000000
# 6 0.000000 0.000000 0.000000 -0.009881 0.000000 0.045492
#
#
# Mechanical properties :
#
#
# Convention : Reuss Voigt Hill
#
# Bulk Modulus (GPa) = 21.59012 31.91031 26.75022
# Shear Modulus (GPa) = 28.57612 35.48689 32.03151
#
# Velocity S-wave (km/s) = 3.43424 3.82704 3.63595
# Velocity P-wave (km/s) = 4.96347 5.71825 5.35418
#
# Compressibility (1/GPa) = 0.04631747
#
# Stress axis : x y z
#
# Youngs Moduli (GPa) = 71.60023 42.04226 82.92614
#
# Poissons Ratio (x) = 0.06948 -0.06462
# Poissons Ratio (y) = 0.11832 0.07243
# Poissons Ratio (z) = -0.05580 0.03672
#
# Static dielectric constant tensor:
#      x y z
#    x 1.971350 0.000000 -0.001530 
#    y 0.000000 1.958040 0.000000 
#    z -0.001530 0.000000 1.924490 
# 
# From -- ./inp_files/65865.got.cif
#   From: 2010.05.17/outbox.cif.g08.bks.cpg/sg14_33_cif.got.tgz:65865.got - 2010.06.03 17:49:19.
