data_PCOD9247432
_publ_section_title
;
Structure prediction by ZEFSAII (Michael W. Deem and Ramdas Pophale) SiO2 
 PCOD9247432
Probable space group: P 21/C
;
_chemical_formula_sum "Si O2"
_cell_formula_units_Z 32
_cell_length_a 26.166838
_cell_length_b 8.889377
_cell_length_c 9.954053
_cell_angle_alpha 90.000000
_cell_angle_beta 33.004846
_cell_angle_gamma 90.000000
_cell_volume 1261.211265
_symmetry_space_group_name_H-M "P 21/C"
_symmetry_group_IT_number 14
_symmetry_cell_setting 'monoclinic'
loop_
_space_group_symop_operation_xyz
x,y,z
-x,1/2+y,1/2-z
-x,-y,-z
x,1/2-y,1/2+z
loop_
_atom_site_type_symbol
_atom_site_label
_atom_site_fract_x
_atom_site_fract_y
_atom_site_fract_z
Si Si1 0.233785 0.716809 0.994142
Si Si2 0.523584 0.882472 0.151049
Si Si3 0.282196 0.093479 0.527563
Si Si4 0.214471 0.578007 0.759944
Si Si5 0.003160 0.433504 0.843714
Si Si6 0.500811 0.190372 0.073158
Si Si7 0.733980 0.774227 0.702534
Si Si8 0.966340 0.378912 0.467659
O O1 0.275176 0.571965 0.981386
O O2 0.258114 0.867549 0.022329
O O3 0.123178 0.695543 0.265336
O O4 0.245160 0.694493 0.810344
O O5 0.481650 0.844278 0.388025
O O6 0.538857 0.056662 0.083973
O O7 0.464842 0.818720 0.154969
O O8 0.621384 0.792970 0.936540
O O9 0.390815 0.145453 0.298886
O O10 0.244274 0.126068 0.760206
O O11 0.231467 0.196690 0.525078
O O12 0.241186 0.415860 0.757890
O O13 0.101793 0.572778 0.989370
O O14 0.035207 0.259844 0.783181
O O15 0.057466 0.538109 0.618826
O O16 0.000000 0.500000 0.000000
O O17 0.000000 0.500000 0.500000
#
# Coordination Sequence:
#
# PCOD9247432 Si02
#       8
#     4   4   4   4   4   4   4   4
#     4  10  22  38  57  78 110 144 177 223 271 321
#     4   9  18  33  53  78 108 143 177 223 266 316
#     4   9  19  36  54  79 108 142 179 224 267 317
#     4  10  22  39  56  79 109 143 179 221 271 324
#     4  11  24  39  61  85 111 148 185 231 282 333
#     4   9  18  33  53  77 110 141 179 221 268 316
#     4   9  19  36  55  78 109 140 181 222 267 319
#     4  11  22  41  59  83 115 144 185 232 278 336
#
# _framework density 25.372433000000001
#
# number of rings (size 3 to 8) (size 9 to 14) (size 15 to 20)
#    0.000    2.250    1.250    0.750    5.250    4.500 
#    0.000    0.000    0.000    0.000    0.000    0.000 
#    0.000    0.000    0.000    0.000    0.000    0.000 
#
# Total GULP energy -178725.503636 kJ/mol
# GULP energy per Si atom -5585.171989 kJ/mol
# Density = 2.531468 g / cm^3
# Si number density = 25.372433 Si / 1000 Ang^3
#
#
#
# Elastic Constant Matrix: (Units=GPa)
#
#
# Indices 1 2 3 4 5 6 
#
# 1 99.6250 38.1415 23.6792 0.0000 27.9357 0.0000
# 2 38.1415 71.5659 5.6024 0.0000 24.2188 0.0000
# 3 23.6792 5.6024 35.6615 0.0000 18.7070 0.0000
# 4 0.0000 0.0000 0.0000 30.2452 0.0000 10.8380
# 5 27.9357 24.2188 18.7070 0.0000 38.9873 0.0000
# 6 0.0000 0.0000 0.0000 10.8380 0.0000 25.3320
#
#
#
# Elastic Compliance Matrix: (Units=1/GPa)
#
#
# Indices 1 2 3 4 5 6 
#
# 1 0.015157 -0.006349 -0.007268 0.000000 -0.003430 0.000000
# 2 -0.006349 0.020787 0.007133 0.000000 -0.011786 0.000000
# 3 -0.007268 0.007133 0.041881 0.000000 -0.019318 0.000000
# 4 0.000000 0.000000 0.000000 0.039050 0.000000 -0.016707
# 5 -0.003430 -0.011786 -0.019318 0.000000 0.044698 0.000000
# 6 0.000000 0.000000 0.000000 -0.016707 0.000000 0.046624
#
#
# Mechanical properties :
#
#
# Convention : Reuss Voigt Hill
#
# Bulk Modulus (GPa) = 15.41859 37.96649 26.69254
# Shear Modulus (GPa) = 20.59449 28.20819 24.40134
#
# Velocity S-wave (km/s) = 2.85210 3.33793 3.10454
# Velocity P-wave (km/s) = 4.11535 5.46369 4.83673
#
# Compressibility (1/GPa) = 0.06485677
#
# Stress axis : x y z
#
# Youngs Moduli (GPa) = 65.97440 48.10724 23.87739
#
# Poissons Ratio (x) = 0.30541 0.17354
# Poissons Ratio (y) = 0.41885 -0.17031
# Poissons Ratio (z) = 0.47950 -0.34313
#
# Static dielectric constant tensor:
#      x y z
#    x 2.024890 0.000000 -0.024700 
#    y 0.000000 2.075820 0.000000 
#    z -0.024700 0.000000 2.125920 
# 
# From -- ./inp_files/18623.got.cif
#   From: 2010.05.17/outbox.cif.g08.bks.cpg/sg14_10_cif.got.tgz:18623.got - 2010.06.03 17:49:19.
