data_PCOD9247319
_publ_section_title
;
Structure prediction by ZEFSAII (Michael W. Deem and Ramdas Pophale) SiO2 
 PCOD9247319
Probable space group: P 21/C
;
_chemical_formula_sum "Si O2"
_cell_formula_units_Z 20
_cell_length_a 23.001429
_cell_length_b 7.639427
_cell_length_c 10.807630
_cell_angle_alpha 90.000000
_cell_angle_beta 25.667269
_cell_angle_gamma 90.000000
_cell_volume 822.580929
_symmetry_space_group_name_H-M "P 21/C"
_symmetry_group_IT_number 14
_symmetry_cell_setting 'monoclinic'
loop_
_space_group_symop_operation_xyz
x,y,z
-x,1/2+y,1/2-z
-x,-y,-z
x,1/2-y,1/2+z
loop_
_atom_site_type_symbol
_atom_site_label
_atom_site_fract_x
_atom_site_fract_y
_atom_site_fract_z
Si Si1 0.752598 0.082500 0.724930
Si Si2 0.178400 0.090646 0.146849
Si Si3 0.326343 0.881884 0.468393
Si Si4 0.399207 0.177226 0.169340
Si Si5 0.929411 0.227442 0.195225
O O1 0.894103 0.123484 0.386351
O O2 0.781937 0.982776 0.795241
O O3 0.661422 0.960781 0.813458
O O4 0.681026 0.268858 0.892442
O O5 0.077865 0.255257 0.356501
O O6 0.107251 0.931712 0.213501
O O7 0.312165 0.151075 0.824377
O O8 0.179628 0.847028 0.691931
O O9 0.366167 0.084491 0.366026
O O10 0.446177 0.793647 0.158042
#
# Coordination Sequence:
#
# PCOD9247319 Si02
#       5
#     4   4   4   4   4
#     4  10  22  36  58  86 118 154 190 238 292 338
#     4  10  22  38  60  87 115 152 196 238 284 343
#     4   9  21  40  58  83 117 151 191 240 289 340
#     4  10  22  38  60  87 115 152 196 238 284 343
#     4   9  21  40  58  83 117 151 191 240 289 340
#
# _framework density 24.313718999999999
#
# number of rings (size 3 to 8) (size 9 to 14) (size 15 to 20)
#    0.000    2.400    0.000    0.000    0.000   20.800 
#    0.000    0.000    0.000    0.000    0.000    0.000 
#    0.000    0.000    0.000    0.000    0.000    0.000 
#
# Total GULP energy -111607.579196 kJ/mol
# GULP energy per Si atom -5580.378960 kJ/mol
# Density = 2.425838 g / cm^3
# Si number density = 24.313719 Si / 1000 Ang^3
#
#
#
# Elastic Constant Matrix: (Units=GPa)
#
#
# Indices 1 2 3 4 5 6 
#
# 1 59.3530 13.4171 4.7052 0.0000 5.1096 0.0000
# 2 13.4171 59.2374 14.6611 0.0000 4.0478 0.0000
# 3 4.7052 14.6611 58.5548 0.0000 -12.9921 0.0000
# 4 0.0000 0.0000 0.0000 50.7045 0.0000 8.4590
# 5 5.1096 4.0478 -12.9921 0.0000 24.8894 0.0000
# 6 0.0000 0.0000 0.0000 8.4590 0.0000 42.2369
#
#
#
# Elastic Compliance Matrix: (Units=1/GPa)
#
#
# Indices 1 2 3 4 5 6 
#
# 1 0.018084 -0.003470 -0.001451 0.000000 -0.003905 0.000000
# 2 -0.003470 0.019482 -0.005818 0.000000 -0.005493 0.000000
# 3 -0.001451 -0.005818 0.021407 0.000000 0.012418 0.000000
# 4 0.000000 0.000000 0.000000 0.020404 0.000000 -0.004086
# 5 -0.003905 -0.005493 0.012418 0.000000 0.048355 0.000000
# 6 0.000000 0.000000 0.000000 -0.004086 0.000000 0.024494
#
#
# Mechanical properties :
#
#
# Convention : Reuss Voigt Hill
#
# Bulk Modulus (GPa) = 26.67001 26.96800 26.81900
# Shear Modulus (GPa) = 26.85247 33.19029 30.02138
#
# Velocity S-wave (km/s) = 3.32688 3.69871 3.51771
# Velocity P-wave (km/s) = 5.07449 5.41816 5.24914
#
# Compressibility (1/GPa) = 0.03749530
#
# Stress axis : x y z
#
# Youngs Moduli (GPa) = 55.29756 51.32820 46.71442
#
# Poissons Ratio (x) = 0.17811 0.06778
# Poissons Ratio (y) = 0.19188 0.27179
# Poissons Ratio (z) = 0.08023 0.29863
#
# Static dielectric constant tensor:
#      x y z
#    x 1.970220 0.000000 0.025220 
#    y 0.000000 1.982900 0.000000 
#    z 0.025220 0.000000 1.926670 
# 
# From -- ./inp_files/23072.got.cif
#   From: 2010.05.17/outbox.cif.g08.bks.cpg/sg14_12_cif.got.tgz:23072.got - 2010.06.03 17:49:19.
