data_PCOD9247864
_publ_section_title
;
Structure prediction by ZEFSAII (Michael W. Deem and Ramdas Pophale) SiO2 
 PCOD9247864
Probable space group: P 21/C
;
_chemical_formula_sum "Si O2"
_cell_formula_units_Z 20
_cell_length_a 15.570432
_cell_length_b 4.805711
_cell_length_c 10.189451
_cell_angle_alpha 90.000000
_cell_angle_beta 87.243762
_cell_angle_gamma 90.000000
_cell_volume 761.563982
_symmetry_space_group_name_H-M "P 21/C"
_symmetry_group_IT_number 14
_symmetry_cell_setting 'monoclinic'
loop_
_space_group_symop_operation_xyz
x,y,z
-x,1/2+y,1/2-z
-x,-y,-z
x,1/2-y,1/2+z
loop_
_atom_site_type_symbol
_atom_site_label
_atom_site_fract_x
_atom_site_fract_y
_atom_site_fract_z
Si Si1 0.072212 0.286327 0.615632
Si Si2 0.111762 0.780446 0.777743
Si Si3 0.333904 0.899589 0.991556
Si Si4 0.440049 0.608406 0.748223
Si Si5 0.223183 0.433058 0.944086
O O1 0.084727 0.604398 0.652827
O O2 0.134541 0.206028 0.495313
O O3 0.970462 0.239851 0.619882
O O4 0.110799 0.096627 0.730986
O O5 0.196362 0.634574 0.826589
O O6 0.387341 0.749231 0.871311
O O7 0.264061 0.663796 0.037474
O O8 0.289518 0.177168 0.936792
O O9 0.387189 0.960564 0.119829
O O10 0.486927 0.332038 0.794792
#
# Coordination Sequence:
#
# PCOD9247864 Si02
#       5
#     4   4   4   4   4
#     4  10  22  40  64  93 136 192 239 283 343 408
#     4  10  22  40  64  93 136 192 239 283 343 408
#     4  12  28  43  77 110 139 183 226 290 356 416
#     4  12  26  52  76 104 142 182 230 276 354 444
#     4  12  25  41  66 102 147 173 236 296 352 399
#
# _framework density 26.261745999999999
#
# number of rings (size 3 to 8) (size 9 to 14) (size 15 to 20)
#    0.000    0.800    0.000    6.600    8.400    0.000 
#    0.000    8.000    0.000    0.000    0.000    0.000 
#    0.000    0.000    0.000    0.000    0.000    0.000 
#
# Total GULP energy -112030.887058 kJ/mol
# GULP energy per Si atom -5601.544353 kJ/mol
# Density = 2.620197 g / cm^3
# Si number density = 26.261746 Si / 1000 Ang^3
#
#
#
# Elastic Constant Matrix: (Units=GPa)
#
#
# Indices 1 2 3 4 5 6 
#
# 1 83.8110 38.2434 47.7789 0.0000 8.6202 0.0000
# 2 38.2434 120.0923 21.1677 0.0000 13.6711 0.0000
# 3 47.7789 21.1677 128.1470 0.0000 11.5338 0.0000
# 4 0.0000 0.0000 0.0000 38.9023 0.0000 9.7076
# 5 8.6202 13.6711 11.5338 0.0000 42.9896 0.0000
# 6 0.0000 0.0000 0.0000 9.7076 0.0000 61.3488
#
#
#
# Elastic Compliance Matrix: (Units=1/GPa)
#
#
# Indices 1 2 3 4 5 6 
#
# 1 0.017224 -0.004430 -0.005642 0.000000 -0.000531 0.000000
# 2 -0.004430 0.009966 0.000216 0.000000 -0.002339 0.000000
# 3 -0.005642 0.000216 0.010018 0.000000 -0.001625 0.000000
# 4 0.000000 0.000000 0.000000 0.026762 0.000000 -0.004235
# 5 -0.000531 -0.002339 -0.001625 0.000000 0.024548 0.000000
# 6 0.000000 0.000000 0.000000 -0.004235 0.000000 0.016970
#
#
# Mechanical properties :
#
#
# Convention : Reuss Voigt Hill
#
# Bulk Modulus (GPa) = 57.15867 60.71446 58.93656
# Shear Modulus (GPa) = 38.15837 43.63883 40.89860
#
# Velocity S-wave (km/s) = 3.81596 4.08080 3.95060
# Velocity P-wave (km/s) = 6.42088 6.73596 6.58030
#
# Compressibility (1/GPa) = 0.01749516
#
# Stress axis : x y z
#
# Youngs Moduli (GPa) = 58.05741 100.34260 99.82176
#
# Poissons Ratio (x) = 0.44453 0.56324
# Poissons Ratio (y) = 0.25720 -0.02157
# Poissons Ratio (z) = 0.32758 -0.02168
#
# Static dielectric constant tensor:
#      x y z
#    x 2.140010 0.000000 -0.026370 
#    y 0.000000 1.988310 0.000000 
#    z -0.026370 0.000000 2.092080 
# 
# From -- ./inp_files/31108.got.cif
#   From: 2010.05.17/outbox.cif.g08.bks.cpg/sg14_16_cif.got.tgz:31108.got - 2010.06.03 17:49:19.
