data_PCOD9247185
_publ_section_title
;
Structure prediction by ZEFSAII (Michael W. Deem and Ramdas Pophale) SiO2 
 PCOD9247185
Probable space group: P 21/C
;
_chemical_formula_sum "Si O2"
_cell_formula_units_Z 32
_cell_length_a 5.456096
_cell_length_b 17.491565
_cell_length_c 14.820386
_cell_angle_alpha 90.000000
_cell_angle_beta 88.495595
_cell_angle_gamma 90.000000
_cell_volume 1413.905759
_symmetry_space_group_name_H-M "P 21/C"
_symmetry_group_IT_number 14
_symmetry_cell_setting 'monoclinic'
loop_
_space_group_symop_operation_xyz
x,y,z
-x,1/2+y,1/2-z
-x,-y,-z
x,1/2-y,1/2+z
loop_
_atom_site_type_symbol
_atom_site_label
_atom_site_fract_x
_atom_site_fract_y
_atom_site_fract_z
Si Si1 0.430371 0.528428 0.901172
Si Si2 0.618358 0.227379 0.197074
Si Si3 0.613532 0.845992 0.953505
Si Si4 0.489676 0.744762 0.104705
Si Si5 0.102134 0.939055 0.928277
Si Si6 0.876384 0.889688 0.593140
Si Si7 0.815268 0.180834 0.555157
Si Si8 0.241267 0.567045 0.235221
O O1 0.188161 0.477954 0.889726
O O2 0.377251 0.617529 0.906403
O O3 0.616412 0.494624 0.825906
O O4 0.500000 0.500000 0.000000
O O5 0.429194 0.224582 0.115499
O O6 0.581029 0.266934 0.293158
O O7 0.848097 0.263106 0.139899
O O8 0.609843 0.137253 0.221685
O O9 0.364819 0.900062 0.955138
O O10 0.869956 0.882771 0.924889
O O11 0.637790 0.811200 0.053223
O O12 0.650775 0.667504 0.108444
O O13 0.276343 0.726640 0.033407
O O14 0.129730 0.970700 0.825893
O O15 0.000000 0.000000 0.000000
O O16 0.973565 0.870595 0.492412
O O17 0.072834 0.881796 0.670577
#
# Coordination Sequence:
#
# PCOD9247185 Si02
#       8
#     4   4   4   4   4   4   4   4
#     4  12  22  42  61 100 136 169 226 284 350 419
#     4  10  21  45  61  99 133 175 228 284 339 422
#     4  10  25  42  72  98 135 180 229 290 344 410
#     4  11  22  41  64  93 135 173 221 287 344 407
#     4  11  25  48  69  98 135 184 237 285 341 417
#     4  12  21  39  69  91 129 181 223 277 356 416
#     4  11  24  39  66  96 132 174 228 285 347 410
#     4  11  24  40  70  90 132 182 228 273 355 418
#
# _framework density 22.632342999999999
#
# number of rings (size 3 to 8) (size 9 to 14) (size 15 to 20)
#    0.000    1.000    5.000    1.500    7.000    1.000 
#    2.250    0.000    0.000    0.000    0.000    0.000 
#    0.000    0.000    0.000    0.000    0.000    0.000 
#
# Total GULP energy -178188.652471 kJ/mol
# GULP energy per Si atom -5568.395390 kJ/mol
# Density = 2.258083 g / cm^3
# Si number density = 22.632343 Si / 1000 Ang^3
#
#
#
# Elastic Constant Matrix: (Units=GPa)
#
#
# Indices 1 2 3 4 5 6 
#
# 1 61.9364 23.9916 31.0129 0.0000 -16.9179 0.0000
# 2 23.9916 67.0773 42.4264 0.0000 -17.6721 0.0000
# 3 31.0129 42.4264 205.4289 0.0000 -48.1347 0.0000
# 4 0.0000 0.0000 0.0000 40.4180 0.0000 -22.8883
# 5 -16.9179 -17.6721 -48.1347 0.0000 24.4004 0.0000
# 6 0.0000 0.0000 0.0000 -22.8883 0.0000 9.0137
#
#
#
# Elastic Compliance Matrix: (Units=1/GPa)
#
#
# Indices 1 2 3 4 5 6 
#
# 1 0.021043 -0.004658 0.000769 0.000000 0.012733 0.000000
# 2 -0.004658 0.019632 -0.001444 0.000000 0.008141 0.000000
# 3 0.000769 -0.001444 0.009167 0.000000 0.017571 0.000000
# 4 0.000000 0.000000 0.000000 -0.056490 0.000000 -0.143445
# 5 0.012733 0.008141 0.017571 0.000000 0.090370 0.000000
# 6 0.000000 0.000000 0.000000 -0.143445 0.000000 -0.253306
#
#
# Mechanical properties :
#
#
# Convention : Reuss Voigt Hill
#
# Bulk Modulus (GPa) = 25.52591 58.81158 42.16875
# Shear Modulus (GPa) = -34.27992 30.56720 -1.85636
#
# Velocity S-wave (km/s) = -3.89606 3.67904 -0.90665
# Velocity P-wave (km/s) = 2.98933 6.63996 4.19244
#
# Compressibility (1/GPa) = 0.03917588
#
# Stress axis : x y z
#
# Youngs Moduli (GPa) = 47.52175 50.93671 109.08408
#
# Poissons Ratio (x) = 0.23727 -0.08385
# Poissons Ratio (y) = 0.22136 0.15750
# Poissons Ratio (z) = -0.03653 0.07355
#
# Static dielectric constant tensor:
#      x y z
#    x 2.500530 0.000000 0.518130 
#    y 0.000000 2.363210 0.000000 
#    z 0.518130 0.000000 2.468510 
# 
# From -- ./inp_files/37702.got.cif
#   From: 2010.05.17/outbox.cif.g08.bks.cpg/sg14_19_cif.got.tgz:37702.got - 2010.06.03 17:49:19.
