data_PCOD9247180
_publ_section_title
;
Structure prediction by ZEFSAII (Michael W. Deem and Ramdas Pophale) SiO2 
 PCOD9247180
Probable space group: P 21/C
;
_chemical_formula_sum "Si O2"
_cell_formula_units_Z 20
_cell_length_a 17.157811
_cell_length_b 8.973078
_cell_length_c 11.063421
_cell_angle_alpha 90.000000
_cell_angle_beta 148.947580
_cell_angle_gamma 90.000000
_cell_volume 878.603022
_symmetry_space_group_name_H-M "P 21/C"
_symmetry_group_IT_number 14
_symmetry_cell_setting 'monoclinic'
loop_
_space_group_symop_operation_xyz
x,y,z
-x,1/2+y,1/2-z
-x,-y,-z
x,1/2-y,1/2+z
loop_
_atom_site_type_symbol
_atom_site_label
_atom_site_fract_x
_atom_site_fract_y
_atom_site_fract_z
Si Si1 0.899166 0.391879 0.135551
Si Si2 0.992208 0.164789 0.073325
Si Si3 0.679645 0.326699 0.026612
Si Si4 0.466499 0.529717 0.598467
Si Si5 0.852436 0.910091 0.349784
O O1 0.962131 0.502101 0.321816
O O2 0.775260 0.285456 0.032953
O O3 0.007037 0.282263 0.204834
O O4 0.833879 0.514247 0.956026
O O5 0.097249 0.241781 0.110458
O O6 0.814399 0.164998 0.803258
O O7 0.591792 0.469873 0.858743
O O8 0.564900 0.202979 0.919973
O O9 0.500000 0.500000 0.500000
O O10 0.308313 0.447588 0.422047
O O11 0.000000 0.000000 0.500000
#
# Coordination Sequence:
#
# PCOD9247180 Si02
#       5
#     4   4   4   4   4
#     4  11  23  44  75 101 149 186 243 303 359 422
#     4  11  24  44  75 112 143 190 244 304 358 433
#     4  12  25  47  70 104 150 190 243 295 363 438
#     4  12  26  49  74 104 151 197 235 304 368 432
#     4  10  21  44  75 100 145 188 239 296 365 410
#
# _framework density 22.763408999999999
#
# number of rings (size 3 to 8) (size 9 to 14) (size 15 to 20)
#    0.000    0.800    6.000    1.800    5.600    0.000 
#    0.000    4.000    0.000    0.000    0.000    0.000 
#    0.000    0.000    0.000    0.000    0.000    0.000 
#
# Total GULP energy -111478.132300 kJ/mol
# GULP energy per Si atom -5573.906615 kJ/mol
# Density = 2.271160 g / cm^3
# Si number density = 22.763409 Si / 1000 Ang^3
#
#
#
# Elastic Constant Matrix: (Units=GPa)
#
#
# Indices 1 2 3 4 5 6 
#
# 1 96.1815 34.3506 12.9173 0.0000 -5.9177 0.0000
# 2 34.3506 109.9683 9.7926 0.0000 -7.4501 0.0000
# 3 12.9173 9.7926 97.6022 0.0000 2.1753 0.0000
# 4 0.0000 0.0000 0.0000 43.2066 0.0000 -0.3328
# 5 -5.9177 -7.4501 2.1753 0.0000 29.6501 0.0000
# 6 0.0000 0.0000 0.0000 -0.3328 0.0000 54.3006
#
#
#
# Elastic Compliance Matrix: (Units=1/GPa)
#
#
# Indices 1 2 3 4 5 6 
#
# 1 0.011915 -0.003502 -0.001261 0.000000 0.001591 0.000000
# 2 -0.003502 0.010375 -0.000621 0.000000 0.001954 0.000000
# 3 -0.001261 -0.000621 0.010501 0.000000 -0.001178 0.000000
# 4 0.000000 0.000000 0.000000 0.023146 0.000000 0.000142
# 5 0.001591 0.001954 -0.001178 0.000000 0.034622 0.000000
# 6 0.000000 0.000000 0.000000 0.000142 0.000000 0.018417
#
#
# Mechanical properties :
#
#
# Convention : Reuss Voigt Hill
#
# Bulk Modulus (GPa) = 45.40626 46.43034 45.91830
# Shear Modulus (GPa) = 39.34409 41.87755 40.61082
#
# Velocity S-wave (km/s) = 4.16190 4.29381 4.22837
# Velocity P-wave (km/s) = 6.56396 6.70996 6.63736
#
# Compressibility (1/GPa) = 0.02202340
#
# Stress axis : x y z
#
# Youngs Moduli (GPa) = 83.92877 96.38530 95.22784
#
# Poissons Ratio (x) = 0.33752 0.12008
# Poissons Ratio (y) = 0.29390 0.05914
# Poissons Ratio (z) = 0.10583 0.05986
#
# Static dielectric constant tensor:
#      x y z
#    x 1.929400 0.000000 -0.056960 
#    y 0.000000 1.880920 0.000000 
#    z -0.056960 0.000000 1.922150 
# 
# From -- ./inp_files/33696.got.cif
#   From: 2010.05.17/outbox.cif.g08.bks.cpg/sg14_17_cif.got.tgz:33696.got - 2010.06.03 17:49:19.
