data_PCOD9247159
_publ_section_title
;
Structure prediction by ZEFSAII (Michael W. Deem and Ramdas Pophale) SiO2 
 PCOD9247159
Probable space group: P 21/C
;
_chemical_formula_sum "Si O2"
_cell_formula_units_Z 32
_cell_length_a 12.132534
_cell_length_b 8.297686
_cell_length_c 31.783395
_cell_angle_alpha 90.000000
_cell_angle_beta 154.976338
_cell_angle_gamma 90.000000
_cell_volume 1353.447700
_symmetry_space_group_name_H-M "P 21/C"
_symmetry_group_IT_number 14
_symmetry_cell_setting 'monoclinic'
loop_
_space_group_symop_operation_xyz
x,y,z
-x,1/2+y,1/2-z
-x,-y,-z
x,1/2-y,1/2+z
loop_
_atom_site_type_symbol
_atom_site_label
_atom_site_fract_x
_atom_site_fract_y
_atom_site_fract_z
Si Si1 0.150910 0.166907 0.862757
Si Si2 0.664381 0.469046 0.500904
Si Si3 0.815163 0.374707 0.459341
Si Si4 0.967258 0.779579 0.320315
Si Si5 0.691109 0.670742 0.862987
Si Si6 0.396001 0.486335 0.255652
Si Si7 0.678828 0.006466 0.602282
Si Si8 0.400519 0.000723 0.334200
O O1 0.161060 0.342906 0.846941
O O2 0.858159 0.107719 0.758721
O O3 0.245726 0.132934 0.943990
O O4 0.365947 0.065577 0.910513
O O5 0.709550 0.449418 0.466726
O O6 0.848219 0.332821 0.586782
O O7 0.597183 0.365356 0.348289
O O8 0.000000 0.500000 0.500000
O O9 0.007516 0.226060 0.534618
O O10 0.869031 0.935998 0.312127
O O11 0.725683 0.672555 0.220975
O O12 0.134106 0.841551 0.338725
O O13 0.625716 0.563234 0.800059
O O14 0.614573 0.569613 0.877401
O O15 0.509553 0.833193 0.799517
O O16 0.500000 0.000000 0.500000
O O17 0.518539 0.001912 0.589522
#
# Coordination Sequence:
#
# PCOD9247159 Si02
#       8
#     4   4   4   4   4   4   4   4
#     4  10  23  43  70  99 137 188 231 286 356 425
#     4  10  21  44  70  99 137 182 232 288 354 421
#     4  10  24  42  72 102 141 186 238 288 359 429
#     4  11  23  44  68  96 139 183 226 300 350 419
#     4  11  24  49  67 106 140 190 241 297 357 431
#     4  11  24  43  73  99 140 188 242 291 358 424
#     4  12  25  42  65 105 140 175 236 294 353 420
#     4  11  26  44  71  95 144 187 236 289 358 427
#
# _framework density 23.643321
#
# number of rings (size 3 to 8) (size 9 to 14) (size 15 to 20)
#    0.000    1.250    2.500    2.250    8.750    2.000 
#    2.250    1.250    0.000    0.000    0.000    0.000 
#    0.000    0.000    0.000    0.000    0.000    0.000 
#
# Total GULP energy -178907.838906 kJ/mol
# GULP energy per Si atom -5590.869966 kJ/mol
# Density = 2.358951 g / cm^3
# Si number density = 23.643321 Si / 1000 Ang^3
#
#
#
# Elastic Constant Matrix: (Units=GPa)
#
#
# Indices 1 2 3 4 5 6 
#
# 1 165.9247 26.2296 19.0280 0.0000 -25.4277 0.0000
# 2 26.2296 73.9566 -3.4458 0.0000 -11.7173 0.0000
# 3 19.0280 -3.4458 46.3871 0.0000 -12.9723 0.0000
# 4 0.0000 0.0000 0.0000 22.1206 0.0000 10.1063
# 5 -25.4277 -11.7173 -12.9723 0.0000 34.1664 0.0000
# 6 0.0000 0.0000 0.0000 10.1063 0.0000 34.2396
#
#
#
# Elastic Compliance Matrix: (Units=1/GPa)
#
#
# Indices 1 2 3 4 5 6 
#
# 1 0.007171 -0.002022 -0.002006 0.000000 0.003882 0.000000
# 2 -0.002022 0.015182 0.003348 0.000000 0.004973 0.000000
# 3 -0.002006 0.003348 0.025210 0.000000 0.009227 0.000000
# 4 0.000000 0.000000 0.000000 0.052253 0.000000 -0.015423
# 5 0.003882 0.004973 0.009227 0.000000 0.037366 0.000000
# 6 0.000000 0.000000 0.000000 -0.015423 0.000000 0.033758
#
#
# Mechanical properties :
#
#
# Convention : Reuss Voigt Hill
#
# Bulk Modulus (GPa) = 21.64356 41.09912 31.37134
# Shear Modulus (GPa) = 26.63783 34.40242 30.52012
#
# Velocity S-wave (km/s) = 3.36021 3.81866 3.59675
# Velocity P-wave (km/s) = 4.92227 6.07154 5.52686
#
# Compressibility (1/GPa) = 0.04620312
#
# Stress axis : x y z
#
# Youngs Moduli (GPa) = 139.44192 65.86561 39.66734
#
# Poissons Ratio (x) = 0.13317 0.07958
# Poissons Ratio (y) = 0.28193 -0.13280
# Poissons Ratio (z) = 0.27976 -0.22051
#
# Static dielectric constant tensor:
#      x y z
#    x 1.886780 0.000000 0.023500 
#    y 0.000000 4.226510 0.000000 
#    z 0.023500 0.000000 1.945110 
# 
# From -- ./inp_files/80014.got.cif
#   From: 2010.05.17/outbox.cif.g08.bks.cpg/sg14_41_cif.got.tgz:80014.got - 2010.06.03 17:49:19.
