data_PCOD9247829
_publ_section_title
;
Structure prediction by ZEFSAII (Michael W. Deem and Ramdas Pophale) SiO2 
 PCOD9247829
Probable space group: P 21/C
;
_chemical_formula_sum "Si O2"
_cell_formula_units_Z 32
_cell_length_a 16.774636
_cell_length_b 9.342803
_cell_length_c 19.623598
_cell_angle_alpha 90.000000
_cell_angle_beta 23.823805
_cell_angle_gamma 90.000000
_cell_volume 1242.253143
_symmetry_space_group_name_H-M "P 21/C"
_symmetry_group_IT_number 14
_symmetry_cell_setting 'monoclinic'
loop_
_space_group_symop_operation_xyz
x,y,z
-x,1/2+y,1/2-z
-x,-y,-z
x,1/2-y,1/2+z
loop_
_atom_site_type_symbol
_atom_site_label
_atom_site_fract_x
_atom_site_fract_y
_atom_site_fract_z
Si Si1 0.301320 0.947207 0.371425
Si Si2 0.085969 0.394791 0.271354
Si Si3 0.306322 0.012785 0.859870
Si Si4 0.972736 0.118390 0.283330
Si Si5 0.697156 0.294737 0.738057
Si Si6 0.744974 0.427204 0.371709
Si Si7 0.599432 0.795245 0.910480
Si Si8 0.931338 0.708971 0.973404
O O1 0.502771 0.008443 0.243814
O O2 0.165773 0.909038 0.542690
O O3 0.180197 0.062773 0.422017
O O4 0.345593 0.811603 0.290646
O O5 0.137700 0.546330 0.194805
O O6 0.238073 0.327384 0.206956
O O7 0.881400 0.421607 0.469235
O O8 0.057418 0.275679 0.233984
O O9 0.348600 0.953899 0.751231
O O10 0.230734 0.174953 0.919966
O O11 0.168213 0.017747 0.134224
O O12 0.923118 0.272991 0.584111
O O13 0.557901 0.245633 0.908009
O O14 0.547381 0.334645 0.536968
O O15 0.700298 0.553408 0.351753
O O16 0.920740 0.332184 0.203744
#
# Coordination Sequence:
#
# PCOD9247829 Si02
#       8
#     4   4   4   4   4   4   4   4
#     4  11  23  42  66  96 126 170 223 264 316 394
#     4  11  24  39  63  94 126 168 210 259 327 379
#     4  12  25  41  63  99 137 171 212 272 333 390
#     4  10  22  40  63  91 127 163 211 266 313 386
#     4  11  22  43  67  94 132 170 223 267 336 386
#     4   8  18  38  65  91 119 162 219 255 321 374
#     4   9  19  40  67  91 124 168 210 272 311 385
#     4  10  23  41  68  94 131 176 212 277 324 389
#
# _framework density 25.759646
#
# number of rings (size 3 to 8) (size 9 to 14) (size 15 to 20)
#    0.000    1.750    1.250    2.250    7.000    0.000 
#    2.250    2.500    2.750    0.000    0.000    0.000 
#    0.000    0.000    0.000    0.000    0.000    0.000 
#
# Total GULP energy -179023.271138 kJ/mol
# GULP energy per Si atom -5594.477223 kJ/mol
# Density = 2.570102 g / cm^3
# Si number density = 25.759646 Si / 1000 Ang^3
#
#
#
# Elastic Constant Matrix: (Units=GPa)
#
#
# Indices 1 2 3 4 5 6 
#
# 1 38.9907 0.7131 22.3157 0.0000 -9.3308 0.0000
# 2 0.7131 97.8809 16.7689 0.0000 -11.4231 0.0000
# 3 22.3157 16.7689 96.0763 0.0000 -10.7804 0.0000
# 4 0.0000 0.0000 0.0000 25.9561 0.0000 -7.2463
# 5 -9.3308 -11.4231 -10.7804 0.0000 29.0383 0.0000
# 6 0.0000 0.0000 0.0000 -7.2463 0.0000 40.6378
#
#
#
# Elastic Compliance Matrix: (Units=1/GPa)
#
#
# Indices 1 2 3 4 5 6 
#
# 1 0.031447 0.001894 -0.006696 0.000000 0.008364 0.000000
# 2 0.001894 0.011021 -0.001887 0.000000 0.004244 0.000000
# 3 -0.006696 -0.001887 0.012489 0.000000 0.001742 0.000000
# 4 0.000000 0.000000 0.000000 0.040545 0.000000 0.007230
# 5 0.008364 0.004244 0.001742 0.000000 0.039441 0.000000
# 6 0.000000 0.000000 0.000000 0.007230 0.000000 0.025897
#
#
# Mechanical properties :
#
#
# Convention : Reuss Voigt Hill
#
# Bulk Modulus (GPa) = 24.05147 34.72703 29.38925
# Shear Modulus (GPa) = 26.58481 32.00310 29.29396
#
# Velocity S-wave (km/s) = 3.21601 3.52856 3.37590
# Velocity P-wave (km/s) = 4.81118 5.48738 5.16037
#
# Compressibility (1/GPa) = 0.04157750
#
# Stress axis : x y z
#
# Youngs Moduli (GPa) = 31.80004 90.73346 80.07281
#
# Poissons Ratio (x) = -0.17187 0.53618
# Poissons Ratio (y) = -0.06023 0.15113
# Poissons Ratio (z) = 0.21294 0.17125
#
# Static dielectric constant tensor:
#      x y z
#    x 2.093320 0.000000 -0.010160 
#    y 0.000000 2.047300 0.000000 
#    z -0.010160 0.000000 1.997550 
# 
# From -- ./inp_files/77992.got.cif
#   From: 2010.05.17/outbox.cif.g08.bks.cpg/sg14_39_cif.got.tgz:77992.got - 2010.06.03 17:49:19.
