data_PCOD9247343
_publ_section_title
;
Structure prediction by ZEFSAII (Michael W. Deem and Ramdas Pophale) SiO2 
 PCOD9247343
Probable space group: P 21/C
;
_chemical_formula_sum "Si O2"
_cell_formula_units_Z 20
_cell_length_a 15.979263
_cell_length_b 5.021139
_cell_length_c 17.909772
_cell_angle_alpha 90.000000
_cell_angle_beta 31.957783
_cell_angle_gamma 90.000000
_cell_volume 760.582323
_symmetry_space_group_name_H-M "P 21/C"
_symmetry_group_IT_number 14
_symmetry_cell_setting 'monoclinic'
loop_
_space_group_symop_operation_xyz
x,y,z
-x,1/2+y,1/2-z
-x,-y,-z
x,1/2-y,1/2+z
loop_
_atom_site_type_symbol
_atom_site_label
_atom_site_fract_x
_atom_site_fract_y
_atom_site_fract_z
Si Si1 0.781452 0.824561 0.743427
Si Si2 0.971683 0.936710 0.221861
Si Si3 0.699575 0.168033 0.614489
Si Si4 0.963192 0.780418 0.455262
Si Si5 0.457716 0.329412 0.185100
O O1 0.890889 0.716495 0.590964
O O2 0.605355 0.755767 0.848888
O O3 0.822618 0.686513 0.790290
O O4 0.852151 0.128037 0.689756
O O5 0.041004 0.700830 0.218861
O O6 0.077679 0.057756 0.074309
O O7 0.631629 0.405932 0.717629
O O8 0.639458 0.173250 0.573914
O O9 0.873519 0.048637 0.496675
O O10 0.605651 0.912073 0.717123
#
# Coordination Sequence:
#
# PCOD9247343 Si02
#       5
#     4   4   4   4   4
#     4  10  22  36  64  90 117 147 198 246 290 336
#     4  12  25  40  55  84 122 158 190 242 297 346
#     4   9  19  33  53  85 121 149 180 235 298 344
#     4  10  22  37  63  91 116 150 197 247 287 339
#     4   9  19  33  53  85 121 149 180 235 298 344
#
# _framework density 26.295641
#
# number of rings (size 3 to 8) (size 9 to 14) (size 15 to 20)
#    0.000    2.000    2.000    0.600   14.000    0.000 
#    0.000    0.000    0.000    2.400    0.000    0.000 
#    0.000    0.000    0.000    0.000    0.000    0.000 
#
# Total GULP energy -111492.440893 kJ/mol
# GULP energy per Si atom -5574.622045 kJ/mol
# Density = 2.623579 g / cm^3
# Si number density = 26.295641 Si / 1000 Ang^3
#
#
#
# Elastic Constant Matrix: (Units=GPa)
#
#
# Indices 1 2 3 4 5 6 
#
# 1 201.1945 30.0866 13.8291 0.0000 0.3406 0.0000
# 2 30.0866 158.7121 14.1348 0.0000 12.5767 0.0000
# 3 13.8291 14.1348 27.0202 0.0000 11.5702 0.0000
# 4 0.0000 0.0000 0.0000 42.6821 0.0000 3.2488
# 5 0.3406 12.5767 11.5702 0.0000 41.8575 0.0000
# 6 0.0000 0.0000 0.0000 3.2488 0.0000 52.4698
#
#
#
# Elastic Compliance Matrix: (Units=1/GPa)
#
#
# Indices 1 2 3 4 5 6 
#
# 1 0.005277 -0.000838 -0.002668 0.000000 0.000946 0.000000
# 2 -0.000838 0.006792 -0.002556 0.000000 -0.001328 0.000000
# 3 -0.002668 -0.002556 0.044660 0.000000 -0.011555 0.000000
# 4 0.000000 0.000000 0.000000 0.023540 0.000000 -0.001458
# 5 0.000946 -0.001328 -0.011555 0.000000 0.027476 0.000000
# 6 0.000000 0.000000 0.000000 -0.001458 0.000000 0.019149
#
#
# Mechanical properties :
#
#
# Convention : Reuss Voigt Hill
#
# Bulk Modulus (GPa) = 22.41837 55.89196 39.15517
# Shear Modulus (GPa) = 32.49150 49.32695 40.90922
#
# Velocity S-wave (km/s) = 3.51896 4.33582 3.94857
# Velocity P-wave (km/s) = 5.00547 6.80934 5.97586
#
# Compressibility (1/GPa) = 0.04460627
#
# Stress axis : x y z
#
# Youngs Moduli (GPa) = 189.48813 147.22409 22.39146
#
# Poissons Ratio (x) = 0.12334 0.05974
# Poissons Ratio (y) = 0.15875 0.05723
# Poissons Ratio (z) = 0.50554 0.37630
#
# Static dielectric constant tensor:
#      x y z
#    x 2.133290 0.000000 0.015760 
#    y 0.000000 2.092130 0.000000 
#    z 0.015760 0.000000 2.072140 
# 
# From -- ./inp_files/58292.got.cif
#   From: 2010.05.17/outbox.cif.g08.bks.cpg/sg14_30_cif.got.tgz:58292.got - 2010.06.03 17:49:19.
