data_PCOD9247285
_publ_section_title
;
Structure prediction by ZEFSAII (Michael W. Deem and Ramdas Pophale) SiO2 
 PCOD9247285
Probable space group: P 21/C
;
_chemical_formula_sum "Si O2"
_cell_formula_units_Z 32
_cell_length_a 5.274736
_cell_length_b 12.416158
_cell_length_c 26.593735
_cell_angle_alpha 90.000000
_cell_angle_beta 58.914167
_cell_angle_gamma 90.000000
_cell_volume 1491.561982
_symmetry_space_group_name_H-M "P 21/C"
_symmetry_group_IT_number 14
_symmetry_cell_setting 'monoclinic'
loop_
_space_group_symop_operation_xyz
x,y,z
-x,1/2+y,1/2-z
-x,-y,-z
x,1/2-y,1/2+z
loop_
_atom_site_type_symbol
_atom_site_label
_atom_site_fract_x
_atom_site_fract_y
_atom_site_fract_z
Si Si1 0.969991 0.422433 0.156738
Si Si2 0.108389 0.336652 0.857522
Si Si3 0.418816 0.350540 0.659078
Si Si4 0.107601 0.209967 0.091553
Si Si5 0.622210 0.699777 0.752041
Si Si6 0.906397 0.062411 0.772784
Si Si7 0.456269 0.789503 0.125722
Si Si8 0.289774 0.431062 0.485133
O O1 0.907753 0.535389 0.136552
O O2 0.124258 0.336677 0.104150
O O3 0.685235 0.354578 0.203748
O O4 0.074545 0.455154 0.202345
O O5 0.328966 0.300296 0.789703
O O6 0.253827 0.278885 0.890430
O O7 0.793936 0.284854 0.874224
O O8 0.770878 0.336155 0.630770
O O9 0.275838 0.251466 0.704804
O O10 0.274611 0.456634 0.696426
O O11 0.319765 0.343244 0.611579
O O12 0.203231 0.174388 0.026515
O O13 0.835524 0.600535 0.715620
O O14 0.676513 0.159221 0.809208
O O15 0.541408 0.888407 0.081147
O O16 0.500000 0.500000 0.500000
O O17 0.000000 0.500000 0.500000
#
# Coordination Sequence:
#
# PCOD9247285 Si02
#       8
#     4   4   4   4   4   4   4   4
#     4  11  23  38  62  90 130 174 209 253 322 381
#     4  11  24  40  60  93 133 169 210 261 320 381
#     4  11  23  37  61  94 128 162 207 260 321 373
#     4  11  25  43  64  96 124 166 220 269 311 389
#     4  10  22  35  57  89 130 169 213 248 308 387
#     4  11  21  35  60  88 128 167 208 255 322 384
#     4  11  25  42  62  96 127 168 215 271 320 380
#     4  12  25  48  74  96 125 166 217 277 328 373
#
# _framework density 21.454018999999999
#
# number of rings (size 3 to 8) (size 9 to 14) (size 15 to 20)
#    0.000    1.000    3.750    3.000    3.500    1.000 
#    0.000    1.250    0.000    0.000    0.000    0.000 
#    0.000    0.000    0.000    0.000    0.000    0.000 
#
# Total GULP energy -178426.312524 kJ/mol
# GULP energy per Si atom -5575.822266 kJ/mol
# Density = 2.140519 g / cm^3
# Si number density = 21.454019 Si / 1000 Ang^3
#
#
#
# Elastic Constant Matrix: (Units=GPa)
#
#
# Indices 1 2 3 4 5 6 
#
# 1 78.0892 30.9033 3.6923 0.0000 16.5444 0.0000
# 2 30.9033 89.1399 23.2864 0.0000 4.7199 0.0000
# 3 3.6923 23.2864 64.3109 0.0000 8.9844 0.0000
# 4 0.0000 0.0000 0.0000 32.7343 0.0000 5.4129
# 5 16.5444 4.7199 8.9844 0.0000 25.1043 0.0000
# 6 0.0000 0.0000 0.0000 5.4129 0.0000 20.9975
#
#
#
# Elastic Compliance Matrix: (Units=1/GPa)
#
#
# Indices 1 2 3 4 5 6 
#
# 1 0.017552 -0.006223 0.002840 0.000000 -0.011414 0.000000
# 2 -0.006223 0.014610 -0.005392 0.000000 0.003284 0.000000
# 3 0.002840 -0.005392 0.018377 0.000000 -0.007435 0.000000
# 4 0.000000 0.000000 0.000000 0.031909 0.000000 -0.008226
# 5 -0.011414 0.003284 -0.007435 0.000000 0.049399 0.000000
# 6 0.000000 0.000000 0.000000 -0.008226 0.000000 0.049745
#
#
# Mechanical properties :
#
#
# Convention : Reuss Voigt Hill
#
# Bulk Modulus (GPa) = 30.31105 38.58935 34.45020
# Shear Modulus (GPa) = 23.79368 27.34441 25.56905
#
# Velocity S-wave (km/s) = 3.33386 3.57397 3.45600
# Velocity P-wave (km/s) = 5.38317 5.92090 5.65843
#
# Compressibility (1/GPa) = 0.03299126
#
# Stress axis : x y z
#
# Youngs Moduli (GPa) = 56.97225 68.44503 54.41471
#
# Poissons Ratio (x) = 0.42591 -0.15454
# Poissons Ratio (y) = 0.35452 0.29339
# Poissons Ratio (z) = -0.16180 0.36904
#
# Static dielectric constant tensor:
#      x y z
#    x 1.895280 0.000000 0.015660 
#    y 0.000000 1.840620 0.000000 
#    z 0.015660 0.000000 1.853140 
# 
# From -- ./inp_files/71305.got.cif
#   From: 2010.05.17/outbox.cif.g08.bks.cpg/sg14_36_cif.got.tgz:71305.got - 2010.06.03 17:49:19.
