data_PCOD9247405
_publ_section_title
;
Structure prediction by ZEFSAII (Michael W. Deem and Ramdas Pophale) SiO2 
 PCOD9247405
Probable space group: P 21/C
;
_chemical_formula_sum "Si O2"
_cell_formula_units_Z 24
_cell_length_a 8.665623
_cell_length_b 16.696360
_cell_length_c 8.607317
_cell_angle_alpha 90.000000
_cell_angle_beta 93.472793
_cell_angle_gamma 90.000000
_cell_volume 1243.057305
_symmetry_space_group_name_H-M "P 21/C"
_symmetry_group_IT_number 14
_symmetry_cell_setting 'monoclinic'
loop_
_space_group_symop_operation_xyz
x,y,z
-x,1/2+y,1/2-z
-x,-y,-z
x,1/2-y,1/2+z
loop_
_atom_site_type_symbol
_atom_site_label
_atom_site_fract_x
_atom_site_fract_y
_atom_site_fract_z
Si Si1 0.195718 0.318781 0.520706
Si Si2 0.087231 0.158408 0.367548
Si Si3 0.767627 0.086266 0.326448
Si Si4 0.742224 0.496234 0.132313
Si Si5 0.475173 0.071898 0.121000
Si Si6 0.970742 0.954861 0.161013
O O1 0.171475 0.228107 0.467036
O O2 0.121855 0.331060 0.686454
O O3 0.365083 0.358654 0.545876
O O4 0.106317 0.371725 0.387896
O O5 0.162516 0.073969 0.420338
O O6 0.902035 0.150446 0.371703
O O7 0.634356 0.107763 0.196614
O O8 0.693656 0.055834 0.482707
O O9 0.858673 0.011734 0.253394
O O10 0.613328 0.530110 0.239759
O O11 0.867606 0.447453 0.240919
O O12 0.500000 0.000000 0.000000
O O13 0.000000 0.000000 0.000000
#
# Coordination Sequence:
#
# PCOD9247405 Si02
#       6
#     4   4   4   4   4   4
#     4  11  23  38  61  89 124 164 204 250 318 359
#     4  10  23  38  59  89 125 161 206 250 303 376
#     4  11  21  38  63  93 121 154 213 255 303 361
#     4  10  22  37  63  94 121 158 210 257 303 359
#     4  11  21  39  64  91 120 159 203 262 312 365
#     4  11  17  37  62  88 114 160 212 250 284 365
#
# _framework density 19.307237000000001
#
# number of rings (size 3 to 8) (size 9 to 14) (size 15 to 20)
#    0.000    1.333    6.667    2.500    4.667    0.000 
#    0.000    3.333    3.667    0.000    0.000    0.000 
#    0.000    0.000    0.000    0.000    0.000    0.000 
#
# Total GULP energy -133960.965254 kJ/mol
# GULP energy per Si atom -5581.706886 kJ/mol
# Density = 1.926329 g / cm^3
# Si number density = 19.307237 Si / 1000 Ang^3
#
#
#
# Elastic Constant Matrix: (Units=GPa)
#
#
# Indices 1 2 3 4 5 6 
#
# 1 100.1637 32.1855 26.0205 0.0000 16.6266 0.0000
# 2 32.1855 70.3342 31.1919 0.0000 17.1079 0.0000
# 3 26.0205 31.1919 71.7766 0.0000 13.4200 0.0000
# 4 0.0000 0.0000 0.0000 33.0291 0.0000 13.9588
# 5 16.6266 17.1079 13.4200 0.0000 31.5958 0.0000
# 6 0.0000 0.0000 0.0000 13.9588 0.0000 23.7578
#
#
#
# Elastic Compliance Matrix: (Units=1/GPa)
#
#
# Indices 1 2 3 4 5 6 
#
# 1 0.012362 -0.003849 -0.002153 0.000000 -0.003507 0.000000
# 2 -0.003849 0.020280 -0.006239 0.000000 -0.006305 0.000000
# 3 -0.002153 -0.006239 0.018011 0.000000 -0.003139 0.000000
# 4 0.000000 0.000000 0.000000 0.040278 0.000000 -0.023665
# 5 -0.003507 -0.006305 -0.003139 0.000000 0.038242 0.000000
# 6 0.000000 0.000000 0.000000 -0.023665 0.000000 0.055996
#
#
# Mechanical properties :
#
#
# Convention : Reuss Voigt Hill
#
# Bulk Modulus (GPa) = 38.21100 46.78557 42.49829
# Shear Modulus (GPa) = 22.89656 27.86830 25.38243
#
# Velocity S-wave (km/s) = 3.44743 3.80335 3.62976
# Velocity P-wave (km/s) = 5.97331 6.60091 6.29494
#
# Compressibility (1/GPa) = 0.02617047
#
# Stress axis : x y z
#
# Youngs Moduli (GPa) = 80.89383 49.31059 55.52273
#
# Poissons Ratio (x) = 0.18980 0.11955
# Poissons Ratio (y) = 0.31137 0.34638
# Poissons Ratio (z) = 0.17417 0.30763
#
# Static dielectric constant tensor:
#      x y z
#    x 1.693690 0.000000 -0.002360 
#    y 0.000000 1.664090 0.000000 
#    z -0.002360 0.000000 1.683620 
# 
# From -- ./inp_files/9110.got.cif
#   From: 2010.05.17/outbox.cif.g08.bks.cpg/sg14_5_cif.got.tgz:9110.got - 2010.06.03 17:49:19.
