data_PCOD9247297
_publ_section_title
;
Structure prediction by ZEFSAII (Michael W. Deem and Ramdas Pophale) SiO2 
 PCOD9247297
Probable space group: P 21/C
;
_chemical_formula_sum "Si O2"
_cell_formula_units_Z 28
_cell_length_a 10.995844
_cell_length_b 9.976545
_cell_length_c 14.770726
_cell_angle_alpha 90.000000
_cell_angle_beta 133.811160
_cell_angle_gamma 90.000000
_cell_volume 1169.290412
_symmetry_space_group_name_H-M "P 21/C"
_symmetry_group_IT_number 14
_symmetry_cell_setting 'monoclinic'
loop_
_space_group_symop_operation_xyz
x,y,z
-x,1/2+y,1/2-z
-x,-y,-z
x,1/2-y,1/2+z
loop_
_atom_site_type_symbol
_atom_site_label
_atom_site_fract_x
_atom_site_fract_y
_atom_site_fract_z
Si Si1 0.687830 0.780510 0.778664
Si Si2 0.482124 0.050122 0.705468
Si Si3 0.822143 0.879583 0.671401
Si Si4 0.302304 0.661176 0.832274
Si Si5 0.954094 0.153696 0.959824
Si Si6 0.153473 0.777512 0.916096
Si Si7 0.116273 0.997879 0.471235
O O1 0.569585 0.656600 0.744048
O O2 0.721805 0.782233 0.687868
O O3 0.614042 0.925974 0.772735
O O4 0.871303 0.772413 0.922845
O O5 0.537861 0.145522 0.650001
O O6 0.306820 0.973561 0.599865
O O7 0.009165 0.879113 0.810107
O O8 0.720392 0.016025 0.634584
O O9 0.861861 0.875959 0.585508
O O10 0.292554 0.764322 0.910147
O O11 0.139795 0.680252 0.682795
O O12 0.812595 0.185306 0.963230
O O13 0.000000 0.000000 0.000000
O O14 0.069150 0.629158 0.883631
O O15 0.000000 0.000000 0.500000
#
# Coordination Sequence:
#
# PCOD9247297 Si02
#       7
#     4   4   4   4   4   4   4
#     4  10  23  41  66  97 133 178 223 280 338 407
#     4  11  24  42  64 100 137 175 227 280 341 399
#     4   9  20  41  60  94 130 170 222 276 329 405
#     4  10  22  40  64  92 134 173 227 273 331 412
#     4  11  19  42  68  92 123 186 224 264 345 410
#     4  10  22  35  64  95 120 171 222 274 324 397
#     4  11  24  39  64  95 128 175 222 278 335 398
#
# _framework density 23.946148999999998
#
# number of rings (size 3 to 8) (size 9 to 14) (size 15 to 20)
#    0.000    1.714    4.286    1.714    6.000    5.143 
#    0.000    0.000    0.000    1.714    0.000    0.000 
#    0.000    0.000    0.000    0.000    0.000    0.000 
#
# Total GULP energy -155972.719725 kJ/mol
# GULP energy per Si atom -5570.454276 kJ/mol
# Density = 2.389165 g / cm^3
# Si number density = 23.946149 Si / 1000 Ang^3
#
#
#
# Elastic Constant Matrix: (Units=GPa)
#
#
# Indices 1 2 3 4 5 6 
#
# 1 176.7325 40.0618 58.2808 0.0000 -20.1561 0.0000
# 2 40.0618 69.1435 14.1322 0.0000 -12.0462 0.0000
# 3 58.2808 14.1322 71.0505 0.0000 -9.8044 0.0000
# 4 0.0000 0.0000 0.0000 24.1774 0.0000 -0.1150
# 5 -20.1561 -12.0462 -9.8044 0.0000 55.6448 0.0000
# 6 0.0000 0.0000 0.0000 -0.1150 0.0000 54.5508
#
#
#
# Elastic Compliance Matrix: (Units=1/GPa)
#
#
# Indices 1 2 3 4 5 6 
#
# 1 0.008654 -0.003520 -0.006222 0.000000 0.001276 0.000000
# 2 -0.003520 0.016946 -0.000157 0.000000 0.002366 0.000000
# 3 -0.006222 -0.000157 0.019365 0.000000 0.001124 0.000000
# 4 0.000000 0.000000 0.000000 0.041361 0.000000 0.000087
# 5 0.001276 0.002366 0.001124 0.000000 0.019144 0.000000
# 6 0.000000 0.000000 0.000000 0.000087 0.000000 0.018332
#
#
# Mechanical properties :
#
#
# Convention : Reuss Voigt Hill
#
# Bulk Modulus (GPa) = 39.73490 60.20846 49.97168
# Shear Modulus (GPa) = 32.89737 40.50472 36.70104
#
# Velocity S-wave (km/s) = 3.71051 4.11724 3.91915
# Velocity P-wave (km/s) = 5.91495 6.91376 6.43377
#
# Compressibility (1/GPa) = 0.02516679
#
# Stress axis : x y z
#
# Youngs Moduli (GPa) = 115.55976 59.00985 51.64051
#
# Poissons Ratio (x) = 0.20770 0.32131
# Poissons Ratio (y) = 0.40675 0.00811
# Poissons Ratio (z) = 0.71902 0.00927
#
# Static dielectric constant tensor:
#      x y z
#    x 1.951370 0.000000 -0.041350 
#    y 0.000000 2.005300 0.000000 
#    z -0.041350 0.000000 1.971060 
# 
# From -- ./inp_files/40171.got.cif
#   From: 2010.05.17/outbox.cif.g08.bks.cpg/sg14_21_cif.got.tgz:40171.got - 2010.06.03 17:49:19.
