data_PCOD9247573
_publ_section_title
;
Structure prediction by ZEFSAII (Michael W. Deem and Ramdas Pophale) SiO2 
 PCOD9247573
Probable space group: P 21/C
;
_chemical_formula_sum "Si O2"
_cell_formula_units_Z 28
_cell_length_a 20.663997
_cell_length_b 4.737676
_cell_length_c 11.049982
_cell_angle_alpha 90.000000
_cell_angle_beta 101.384851
_cell_angle_gamma 90.000000
_cell_volume 1060.499889
_symmetry_space_group_name_H-M "P 21/C"
_symmetry_group_IT_number 14
_symmetry_cell_setting 'monoclinic'
loop_
_space_group_symop_operation_xyz
x,y,z
-x,1/2+y,1/2-z
-x,-y,-z
x,1/2-y,1/2+z
loop_
_atom_site_type_symbol
_atom_site_label
_atom_site_fract_x
_atom_site_fract_y
_atom_site_fract_z
Si Si1 0.248244 0.046064 0.128092
Si Si2 0.343180 0.755030 0.332913
Si Si3 0.363271 0.254480 0.497275
Si Si4 0.057495 0.788716 0.150981
Si Si5 0.085333 0.287184 0.317777
Si Si6 0.166059 0.963648 0.528298
Si Si7 0.458329 0.539752 0.703629
O O1 0.276005 0.884251 0.255252
O O2 0.197205 0.300681 0.129670
O O3 0.216799 0.794535 0.035965
O O4 0.307896 0.190052 0.077429
O O5 0.364342 0.931498 0.459142
O O6 0.398662 0.812276 0.253093
O O7 0.342144 0.432168 0.371325
O O8 0.430516 0.380216 0.576019
O O9 0.085989 0.608387 0.275301
O O10 0.100791 0.687055 0.056110
O O11 0.979109 0.746116 0.120355
O O12 0.068505 0.111140 0.190908
O O13 0.147451 0.150976 0.405863
O O14 0.510678 0.788701 0.703829
#
# Coordination Sequence:
#
# PCOD9247573 Si02
#       7
#     4   4   4   4   4   4   4
#     4  11  26  40  59  91 119 154 207 248 283 352
#     4  11  24  43  64  87 124 165 195 240 299 344
#     4  11  24  43  64  87 124 165 195 240 299 344
#     4  10  22  39  59  86 118 152 194 245 302 362
#     4  10  22  39  59  86 118 152 194 245 302 362
#     4  12  23  39  62  87 117 156 199 248 301 346
#     4  11  24  41  64  98 126 150 201 248 283 352
#
# _framework density 26.402642
#
# number of rings (size 3 to 8) (size 9 to 14) (size 15 to 20)
#    0.000    1.143    0.000    5.571    0.000   14.857 
#    0.000    5.714    0.000    0.000    0.000    0.000 
#    0.000    0.000    0.000    0.000    0.000    0.000 
#
# Total GULP energy -157029.581483 kJ/mol
# GULP energy per Si atom -5608.199339 kJ/mol
# Density = 2.634255 g / cm^3
# Si number density = 26.402642 Si / 1000 Ang^3
#
#
#
# Elastic Constant Matrix: (Units=GPa)
#
#
# Indices 1 2 3 4 5 6 
#
# 1 31.9692 12.3092 2.4933 0.0000 -0.7635 0.0000
# 2 12.3092 101.6423 4.5878 0.0000 16.8952 0.0000
# 3 2.4933 4.5878 70.0041 0.0000 8.5316 0.0000
# 4 0.0000 0.0000 0.0000 45.8267 0.0000 -4.7523
# 5 -0.7635 16.8952 8.5316 0.0000 29.0320 0.0000
# 6 0.0000 0.0000 0.0000 -4.7523 0.0000 3.7373
#
#
#
# Elastic Compliance Matrix: (Units=1/GPa)
#
#
# Indices 1 2 3 4 5 6 
#
# 1 0.033263 -0.004626 -0.001365 0.000000 0.003968 0.000000
# 2 -0.004626 0.011536 0.000251 0.000000 -0.006909 0.000000
# 3 -0.001365 0.000251 0.014872 0.000000 -0.004552 0.000000
# 4 0.000000 0.000000 0.000000 0.025136 0.000000 0.031963
# 5 0.003968 -0.006909 -0.004552 0.000000 0.039907 0.000000
# 6 0.000000 0.000000 0.000000 0.031963 0.000000 0.308220
#
#
# Mechanical properties :
#
#
# Convention : Reuss Voigt Hill
#
# Bulk Modulus (GPa) = 20.75163 26.93290 23.84226
# Shear Modulus (GPa) = 10.85830 28.00088 19.42959
#
# Velocity S-wave (km/s) = 2.03015 3.26012 2.71568
# Velocity P-wave (km/s) = 3.65679 4.93904 4.34547
#
# Compressibility (1/GPa) = 0.04818898
#
# Stress axis : x y z
#
# Youngs Moduli (GPa) = 30.06385 86.68740 67.24111
#
# Poissons Ratio (x) = 0.40103 0.09179
# Poissons Ratio (y) = 0.13908 -0.01686
# Poissons Ratio (z) = 0.04104 -0.02174
#
# Static dielectric constant tensor:
#      x y z
#    x 2.046500 0.000000 0.023410 
#    y 0.000000 1.952290 0.000000 
#    z 0.023410 0.000000 2.078000 
# 
# From -- ./inp_files/34746.got.cif
#   From: 2010.05.17/outbox.cif.g08.bks.cpg/sg14_18_cif.got.tgz:34746.got - 2010.06.03 17:49:19.
