data_PCOD9247900
_publ_section_title
;
Structure prediction by ZEFSAII (Michael W. Deem and Ramdas Pophale) SiO2 
 PCOD9247900
Probable space group: P 21/C
;
_chemical_formula_sum "Si O2"
_cell_formula_units_Z 22
_cell_length_a 8.492334
_cell_length_b 14.198473
_cell_length_c 7.139038
_cell_angle_alpha 90.000000
_cell_angle_beta 92.622162
_cell_angle_gamma 90.000000
_cell_volume 859.910859
_symmetry_space_group_name_H-M "P 21/C"
_symmetry_group_IT_number 14
_symmetry_cell_setting 'monoclinic'
loop_
_space_group_symop_operation_xyz
x,y,z
-x,1/2+y,1/2-z
-x,-y,-z
x,1/2-y,1/2+z
loop_
_atom_site_type_symbol
_atom_site_label
_atom_site_fract_x
_atom_site_fract_y
_atom_site_fract_z
Si Si1 0.756474 0.036263 0.178724
Si Si2 0.500000 0.000000 0.500000
Si Si3 0.088469 0.150950 0.755026
Si Si4 0.394234 0.324108 0.029902
Si Si5 0.401979 0.664869 0.618641
Si Si6 0.106961 0.806949 0.587630
O O1 0.653148 0.077237 0.004605
O O2 0.874484 0.119200 0.245913
O O3 0.647713 0.018086 0.355128
O O4 0.856258 0.943641 0.142646
O O5 0.604748 0.911729 0.608467
O O6 0.239836 0.181331 0.643129
O O7 0.031527 0.233486 0.883799
O O8 0.940033 0.139408 0.604672
O O9 0.453274 0.224426 0.960002
O O10 0.540363 0.365608 0.170917
O O11 0.264869 0.743621 0.604396
#
# Coordination Sequence:
#
# PCOD9247900 Si02
#       6
#     4   2   4   4   4   4
#     4  11  24  44  70 104 135 184 237 282 352 414
#     4  10  22  40  66 100 126 176 234 288 332 402
#     4  11  26  41  67 102 139 178 235 284 352 411
#     4  11  22  42  68 100 137 178 232 292 343 411
#     4  12  22  43  75  95 140 186 231 280 357 413
#     4  12  22  46  67  99 141 185 222 289 352 414
#
# _framework density 25.584045
#
# number of rings (size 3 to 8) (size 9 to 14) (size 15 to 20)
#    0.000    0.727    5.455    1.636    0.000    5.091 
#    0.000    1.818    0.000    0.000    0.000    0.000 
#    0.000    0.000    0.000    0.000    0.000    0.000 
#
# Total GULP energy -122707.602711 kJ/mol
# GULP energy per Si atom -5577.618305 kJ/mol
# Density = 2.552581 g / cm^3
# Si number density = 25.584045 Si / 1000 Ang^3
#
#
#
# Elastic Constant Matrix: (Units=GPa)
#
#
# Indices 1 2 3 4 5 6 
#
# 1 90.8446 37.1340 4.9706 0.0000 -2.9813 0.0000
# 2 37.1340 108.6159 -3.7694 0.0000 -13.2336 0.0000
# 3 4.9706 -3.7694 39.8714 0.0000 15.1418 0.0000
# 4 0.0000 0.0000 0.0000 18.5293 0.0000 -7.2433
# 5 -2.9813 -13.2336 15.1418 0.0000 40.4288 0.0000
# 6 0.0000 0.0000 0.0000 -7.2433 0.0000 29.9886
#
#
#
# Elastic Compliance Matrix: (Units=1/GPa)
#
#
# Indices 1 2 3 4 5 6 
#
# 1 0.012963 -0.004470 -0.002152 0.000000 0.000299 0.000000
# 2 -0.004470 0.011134 0.000409 0.000000 0.003162 0.000000
# 3 -0.002152 0.000409 0.029608 0.000000 -0.011114 0.000000
# 4 0.000000 0.000000 0.000000 0.059596 0.000000 0.014394
# 5 0.000299 0.003162 -0.011114 0.000000 0.029954 0.000000
# 6 0.000000 0.000000 0.000000 0.014394 0.000000 0.036823
#
#
# Mechanical properties :
#
#
# Convention : Reuss Voigt Hill
#
# Bulk Modulus (GPa) = 24.22510 35.11139 29.66824
# Shear Modulus (GPa) = 24.24087 31.18912 27.71499
#
# Velocity S-wave (km/s) = 3.08149 3.49533 3.29491
# Velocity P-wave (km/s) = 4.70639 5.48119 5.10850
#
# Compressibility (1/GPa) = 0.04127951
#
# Stress axis : x y z
#
# Youngs Moduli (GPa) = 77.14545 89.81184 33.77438
#
# Poissons Ratio (x) = 0.40146 0.07268
# Poissons Ratio (y) = 0.34484 -0.01382
# Poissons Ratio (z) = 0.16602 -0.03675
#
# Static dielectric constant tensor:
#      x y z
#    x 2.027540 0.000000 0.053470 
#    y 0.000000 1.697220 0.000000 
#    z 0.053470 0.000000 1.720120 
# 
# From -- ./inp_files/8270.got.cif
#   From: 2010.05.17/outbox.cif.g08.bks.cpg/sg14_5_cif.got.tgz:8270.got - 2010.06.03 17:49:19.
