data_PCOD9247073
_publ_section_title
;
Structure prediction by ZEFSAII (Michael W. Deem and Ramdas Pophale) SiO2 
 PCOD9247073
Probable space group: P 21/C
;
_chemical_formula_sum "Si O2"
_cell_formula_units_Z 30
_cell_length_a 26.963828
_cell_length_b 8.148984
_cell_length_c 9.971054
_cell_angle_alpha 90.000000
_cell_angle_beta 34.925232
_cell_angle_gamma 90.000000
_cell_volume 1254.315765
_symmetry_space_group_name_H-M "P 21/C"
_symmetry_group_IT_number 14
_symmetry_cell_setting 'monoclinic'
loop_
_space_group_symop_operation_xyz
x,y,z
-x,1/2+y,1/2-z
-x,-y,-z
x,1/2-y,1/2+z
loop_
_atom_site_type_symbol
_atom_site_label
_atom_site_fract_x
_atom_site_fract_y
_atom_site_fract_z
Si Si1 0.339355 0.203892 0.883345
Si Si2 0.368220 0.812977 0.532681
Si Si3 0.127324 0.985548 0.488836
Si Si4 0.484945 0.403801 0.672727
Si Si5 0.237957 0.250810 0.353157
Si Si6 0.272688 0.837737 0.010594
Si Si7 0.000000 0.000000 0.000000
Si Si8 0.070919 0.358123 0.857115
O O1 0.431639 0.246983 0.737320
O O2 0.316587 0.255013 0.783523
O O3 0.316478 0.013804 0.943138
O O4 0.272744 0.296734 0.130438
O O5 0.431751 0.664659 0.435049
O O6 0.291495 0.813353 0.812675
O O7 0.325893 0.789655 0.481514
O O8 0.426611 0.977130 0.394959
O O9 0.049377 0.928752 0.753272
O O10 0.198280 0.068176 0.429248
O O11 0.098670 0.129297 0.450591
O O12 0.175529 0.854147 0.285114
O O13 0.500000 0.500000 0.500000
O O14 0.162455 0.369938 0.574406
O O15 0.033971 0.184881 0.892619
O O16 0.000000 0.500000 0.000000
#
# Coordination Sequence:
#
# PCOD9247073 Si02
#       8
#     4   4   4   4   4   4   2   4
#     4  11  24  43  75  98 137 196 240 297 370 441
#     4  12  27  47  71 107 149 193 252 313 372 450
#     4  10  24  44  72 107 143 187 244 301 375 445
#     4  12  28  44  70 107 143 190 252 308 378 435
#     4  10  21  43  70  99 138 184 241 285 363 440
#     4  11  25  47  73 102 148 191 249 302 373 448
#     4  10  26  46  70 108 146 188 236 312 364 454
#     4  11  24  45  74 105 146 189 242 302 376 450
#
# _framework density 23.917422999999999
#
# number of rings (size 3 to 8) (size 9 to 14) (size 15 to 20)
#    0.000    1.067    4.000    1.600   11.200    2.133 
#    0.000    1.333    0.000    0.000    0.000    0.000 
#    0.000    0.000    0.000    0.000    0.000    0.000 
#
# Total GULP energy -167182.515007 kJ/mol
# GULP energy per Si atom -5572.750500 kJ/mol
# Density = 2.386299 g / cm^3
# Si number density = 23.917423 Si / 1000 Ang^3
#
#
#
# Elastic Constant Matrix: (Units=GPa)
#
#
# Indices 1 2 3 4 5 6 
#
# 1 62.2362 10.9461 4.5073 0.0000 8.7374 0.0000
# 2 10.9461 57.8412 5.1486 0.0000 -7.3914 0.0000
# 3 4.5073 5.1486 107.6713 0.0000 23.2992 0.0000
# 4 0.0000 0.0000 0.0000 34.1663 0.0000 -6.3971
# 5 8.7374 -7.3914 23.2992 0.0000 28.1213 0.0000
# 6 0.0000 0.0000 0.0000 -6.3971 0.0000 27.5501
#
#
#
# Elastic Compliance Matrix: (Units=1/GPa)
#
#
# Indices 1 2 3 4 5 6 
#
# 1 0.017843 -0.004453 0.001120 0.000000 -0.007642 0.000000
# 2 -0.004453 0.019473 -0.002622 0.000000 0.008674 0.000000
# 3 0.001120 -0.002622 0.011685 0.000000 -0.010719 0.000000
# 4 0.000000 0.000000 0.000000 0.030599 0.000000 0.007105
# 5 -0.007642 0.008674 -0.010719 0.000000 0.049095 0.000000
# 6 0.000000 0.000000 0.000000 0.007105 0.000000 0.037947
#
#
# Mechanical properties :
#
#
# Convention : Reuss Voigt Hill
#
# Bulk Modulus (GPa) = 26.96037 29.88364 28.42200
# Shear Modulus (GPa) = 26.18945 31.77730 28.98337
#
# Velocity S-wave (km/s) = 3.31266 3.64899 3.48488
# Velocity P-wave (km/s) = 5.09199 5.50228 5.30111
#
# Compressibility (1/GPa) = 0.03709147
#
# Stress axis : x y z
#
# Youngs Moduli (GPa) = 56.04526 51.35262 85.57644
#
# Poissons Ratio (x) = 0.22866 -0.09581
# Poissons Ratio (y) = 0.24956 0.22436
# Poissons Ratio (z) = -0.06275 0.13463
#
# Static dielectric constant tensor:
#      x y z
#    x 1.972290 0.000000 -0.035840 
#    y 0.000000 1.903010 0.000000 
#    z -0.035840 0.000000 1.877670 
# 
# From -- ./inp_files/19749.got.cif
#   From: 2010.05.17/outbox.cif.g08.bks.cpg/sg14_10_cif.got.tgz:19749.got - 2010.06.03 17:49:19.
