data_PCOD9247348
_publ_section_title
;
Structure prediction by ZEFSAII (Michael W. Deem and Ramdas Pophale) SiO2 
 PCOD9247348
Probable space group: P 21/C
;
_chemical_formula_sum "Si O2"
_cell_formula_units_Z 26
_cell_length_a 14.321703
_cell_length_b 4.985946
_cell_length_c 18.256737
_cell_angle_alpha 90.000000
_cell_angle_beta 45.303342
_cell_angle_gamma 90.000000
_cell_volume 926.696574
_symmetry_space_group_name_H-M "P 21/C"
_symmetry_group_IT_number 14
_symmetry_cell_setting 'monoclinic'
loop_
_space_group_symop_operation_xyz
x,y,z
-x,1/2+y,1/2-z
-x,-y,-z
x,1/2-y,1/2+z
loop_
_atom_site_type_symbol
_atom_site_label
_atom_site_fract_x
_atom_site_fract_y
_atom_site_fract_z
Si Si1 0.349038 0.670153 0.433276
Si Si2 0.800564 0.504357 0.611908
Si Si3 0.064222 0.117780 0.677477
Si Si4 0.895319 0.476755 0.144336
Si Si5 0.704299 0.557359 0.385694
Si Si6 0.519405 0.173233 0.330492
Si Si7 0.500000 0.000000 0.500000
O O1 0.221721 0.554463 0.461651
O O2 0.329116 0.663489 0.532953
O O3 0.399995 0.962927 0.382871
O O4 0.465795 0.468718 0.344917
O O5 0.895927 0.290173 0.596616
O O6 0.655751 0.420105 0.721738
O O7 0.844374 0.788285 0.619714
O O8 0.031128 0.010512 0.614881
O O9 0.973553 0.375428 0.747335
O O10 0.206956 0.230373 0.615958
O O11 0.792075 0.466402 0.269016
O O12 0.591824 0.748990 0.419088
O O13 0.535114 0.173594 0.408649
#
# Coordination Sequence:
#
# PCOD9247348 Si02
#       7
#     4   4   4   4   4   4   2
#     4  11  25  40  62  91 134 172 210 264 335 381
#     4  12  23  42  63  94 128 176 220 263 317 399
#     4  10  22  41  67  96 128 171 218 272 328 378
#     4  11  23  40  69  93 127 171 226 266 315 385
#     4  10  23  43  66 100 132 168 218 276 322 393
#     4  11  23  38  61  90 133 171 213 258 328 389
#     4  10  22  36  66 100 126 160 214 274 322 374
#
# _framework density 28.056647000000002
#
# number of rings (size 3 to 8) (size 9 to 14) (size 15 to 20)
#    0.000    1.231    1.538    4.615    2.154    4.923 
#    0.000    1.538    0.000    0.000    0.000    0.000 
#    0.000    0.000    0.000    0.000    0.000    0.000 
#
# Total GULP energy -145451.321234 kJ/mol
# GULP energy per Si atom -5594.281586 kJ/mol
# Density = 2.799279 g / cm^3
# Si number density = 28.056647 Si / 1000 Ang^3
#
#
#
# Elastic Constant Matrix: (Units=GPa)
#
#
# Indices 1 2 3 4 5 6 
#
# 1 126.4059 9.7602 8.0512 0.0000 20.0445 0.0000
# 2 9.7602 82.0057 18.4758 0.0000 -7.5293 0.0000
# 3 8.0512 18.4758 87.5961 0.0000 -1.0846 0.0000
# 4 0.0000 0.0000 0.0000 17.2699 0.0000 0.9482
# 5 20.0445 -7.5293 -1.0846 0.0000 37.5808 0.0000
# 6 0.0000 0.0000 0.0000 0.9482 0.0000 39.5196
#
#
#
# Elastic Compliance Matrix: (Units=1/GPa)
#
#
# Indices 1 2 3 4 5 6 
#
# 1 0.008850 -0.001382 -0.000584 0.000000 -0.005014 0.000000
# 2 -0.001382 0.013255 -0.002628 0.000000 0.003317 0.000000
# 3 -0.000584 -0.002628 0.012026 0.000000 0.000132 0.000000
# 4 0.000000 0.000000 0.000000 0.057980 0.000000 -0.001391
# 5 -0.005014 0.003317 0.000132 0.000000 0.029952 0.000000
# 6 0.000000 0.000000 0.000000 -0.001391 0.000000 0.025337
#
#
# Mechanical properties :
#
#
# Convention : Reuss Voigt Hill
#
# Bulk Modulus (GPa) = 40.09093 40.95358 40.52225
# Shear Modulus (GPa) = 30.32088 36.18878 33.25483
#
# Velocity S-wave (km/s) = 3.29097 3.59534 3.44652
# Velocity P-wave (km/s) = 5.36292 5.64480 5.50566
#
# Compressibility (1/GPa) = 0.02494330
#
# Stress axis : x y z
#
# Youngs Moduli (GPa) = 112.99387 75.44127 83.15598
#
# Poissons Ratio (x) = 0.10427 0.04856
# Poissons Ratio (y) = 0.15617 0.21851
# Poissons Ratio (z) = 0.06599 0.19824
#
# Static dielectric constant tensor:
#      x y z
#    x 2.889660 0.000000 -0.302840 
#    y 0.000000 6.285240 0.000000 
#    z -0.302840 0.000000 2.253680 
# 
# From -- ./inp_files/66416.got.cif
#   From: 2010.05.17/outbox.cif.g08.bks.cpg/sg14_34_cif.got.tgz:66416.got - 2010.06.03 17:49:19.
