data_PCOD9247187
_publ_section_title
;
Structure prediction by ZEFSAII (Michael W. Deem and Ramdas Pophale) SiO2 
 PCOD9247187
Probable space group: P 21/C
;
_chemical_formula_sum "Si O2"
_cell_formula_units_Z 30
_cell_length_a 10.687506
_cell_length_b 8.535395
_cell_length_c 13.450242
_cell_angle_alpha 90.000000
_cell_angle_beta 93.239267
_cell_angle_gamma 90.000000
_cell_volume 1224.998777
_symmetry_space_group_name_H-M "P 21/C"
_symmetry_group_IT_number 14
_symmetry_cell_setting 'monoclinic'
loop_
_space_group_symop_operation_xyz
x,y,z
-x,1/2+y,1/2-z
-x,-y,-z
x,1/2-y,1/2+z
loop_
_atom_site_type_symbol
_atom_site_label
_atom_site_fract_x
_atom_site_fract_y
_atom_site_fract_z
Si Si1 0.000000 0.000000 0.000000
Si Si2 0.629610 0.150752 0.812798
Si Si3 0.772731 0.459895 0.147546
Si Si4 0.051740 0.413805 0.679289
Si Si5 0.648658 0.804105 0.141086
Si Si6 0.178140 0.100684 0.684224
Si Si7 0.283859 0.366029 0.570265
Si Si8 0.853964 0.313014 0.942668
O O1 0.138907 0.068050 0.076601
O O2 0.932771 0.036585 0.114227
O O3 0.492528 0.212364 0.827622
O O4 0.674177 0.152053 0.700661
O O5 0.729468 0.235323 0.889321
O O6 0.639979 0.967745 0.847141
O O7 0.880077 0.484894 0.236256
O O8 0.712731 0.632945 0.134499
O O9 0.821448 0.393595 0.046285
O O10 0.077100 0.235407 0.705692
O O11 0.963656 0.310712 0.461789
O O12 0.724194 0.908682 0.222887
O O13 0.656791 0.879482 0.033095
O O14 0.261656 0.188294 0.602945
O O15 0.115922 0.947082 0.637692
#
# Coordination Sequence:
#
# PCOD9247187 Si02
#       8
#     2   4   4   4   4   4   4   4
#     4  12  22  46  72  90 136 174 228 314 362 410
#     4  11  24  39  64 105 144 182 234 294 343 431
#     4  10  21  45  62  96 145 183 235 296 358 430
#     4   8  19  43  66  92 134 170 225 302 341 422
#     4  11  21  38  71  95 146 193 231 280 356 433
#     4   9  21  38  64  99 133 177 233 288 339 434
#     4   9  18  42  59  95 137 183 220 289 340 411
#     4  12  24  42  71  97 137 187 238 303 360 426
#
# _framework density 24.489820999999999
#
# number of rings (size 3 to 8) (size 9 to 14) (size 15 to 20)
#    0.800    1.067    5.333    0.400    1.867    3.200 
#    0.000    4.000    0.000    0.000    0.000    0.000 
#    0.000    0.000    0.000    0.000    0.000    0.000 
#
# Total GULP energy -167334.150595 kJ/mol
# GULP energy per Si atom -5577.805020 kJ/mol
# Density = 2.443408 g / cm^3
# Si number density = 24.489821 Si / 1000 Ang^3
#
#
#
# Elastic Constant Matrix: (Units=GPa)
#
#
# Indices 1 2 3 4 5 6 
#
# 1 87.1393 28.0216 29.4607 0.0000 -5.3455 0.0000
# 2 28.0216 84.3628 9.5774 0.0000 5.5744 0.0000
# 3 29.4607 9.5774 77.0664 0.0000 1.8018 0.0000
# 4 0.0000 0.0000 0.0000 32.6233 0.0000 0.3545
# 5 -5.3455 5.5744 1.8018 0.0000 23.2199 0.0000
# 6 0.0000 0.0000 0.0000 0.3545 0.0000 31.1832
#
#
#
# Elastic Compliance Matrix: (Units=1/GPa)
#
#
# Indices 1 2 3 4 5 6 
#
# 1 0.015103 -0.004747 -0.005301 0.000000 0.005028 0.000000
# 2 -0.004747 0.013696 0.000215 0.000000 -0.004398 0.000000
# 3 -0.005301 0.000215 0.015033 0.000000 -0.002439 0.000000
# 4 0.000000 0.000000 0.000000 0.030657 0.000000 -0.000348
# 5 0.005028 -0.004398 -0.002439 0.000000 0.045469 0.000000
# 6 0.000000 0.000000 0.000000 -0.000348 0.000000 0.032073
#
#
# Mechanical properties :
#
#
# Convention : Reuss Voigt Hill
#
# Bulk Modulus (GPa) = 41.37960 42.52088 41.95024
# Shear Modulus (GPa) = 27.81618 29.50586 28.66102
#
# Velocity S-wave (km/s) = 3.37386 3.47482 3.42471
# Velocity P-wave (km/s) = 5.66662 5.78788 5.72757
#
# Compressibility (1/GPa) = 0.02416650
#
# Stress axis : x y z
#
# Youngs Moduli (GPa) = 66.21165 73.01175 66.52213
#
# Poissons Ratio (x) = 0.34658 0.35265
# Poissons Ratio (y) = 0.31431 -0.01433
# Poissons Ratio (z) = 0.35100 -0.01572
#
# Static dielectric constant tensor:
#      x y z
#    x 2.005710 0.000000 -0.071100 
#    y 0.000000 1.976060 0.000000 
#    z -0.071100 0.000000 2.029280 
# 
# From -- ./inp_files/43785.got.cif
#   From: 2010.05.17/outbox.cif.g08.bks.cpg/sg14_22_cif.got.tgz:43785.got - 2010.06.03 17:49:19.
