data_PCOD9247459
_publ_section_title
;
Structure prediction by ZEFSAII (Michael W. Deem and Ramdas Pophale) SiO2 
 PCOD9247459
Probable space group: P 21/C
;
_chemical_formula_sum "Si O2"
_cell_formula_units_Z 28
_cell_length_a 15.550488
_cell_length_b 8.326614
_cell_length_c 9.742435
_cell_angle_alpha 90.000000
_cell_angle_beta 55.886194
_cell_angle_gamma 90.000000
_cell_volume 1044.410149
_symmetry_space_group_name_H-M "P 21/C"
_symmetry_group_IT_number 14
_symmetry_cell_setting 'monoclinic'
loop_
_space_group_symop_operation_xyz
x,y,z
-x,1/2+y,1/2-z
-x,-y,-z
x,1/2-y,1/2+z
loop_
_atom_site_type_symbol
_atom_site_label
_atom_site_fract_x
_atom_site_fract_y
_atom_site_fract_z
Si Si1 0.393408 0.630250 0.495493
Si Si2 0.929398 0.324061 0.865955
Si Si3 0.526534 0.460944 0.195366
Si Si4 0.337624 0.651032 0.266863
Si Si5 0.248278 0.087789 0.423897
Si Si6 0.849675 0.718853 0.248020
Si Si7 0.875061 0.430708 0.627503
O O1 0.459816 0.473903 0.397795
O O2 0.305426 0.639252 0.455506
O O3 0.354661 0.677250 0.679395
O O4 0.459576 0.784485 0.379356
O O5 0.837143 0.445964 0.988267
O O6 0.904986 0.155341 0.960195
O O7 0.923626 0.327042 0.707072
O O8 0.044199 0.376312 0.813853
O O9 0.446567 0.558995 0.171246
O O10 0.637928 0.543114 0.120429
O O11 0.249972 0.575674 0.253064
O O12 0.235056 0.143503 0.278262
O O13 0.204126 0.228021 0.562376
O O14 0.892375 0.882574 0.137679
#
# Coordination Sequence:
#
# PCOD9247459 Si02
#       7
#     4   4   4   4   4   4   4
#     4  10  22  38  60  88 129 171 202 258 302 368
#     4  11  24  44  65  94 129 167 218 271 322 377
#     4  10  24  39  67  91 134 163 213 248 320 372
#     4  10  22  38  66  90 133 160 211 247 317 370
#     4  11  25  42  69  95 132 168 215 261 330 375
#     4  11  25  43  65  95 124 170 221 271 315 380
#     4  11  23  41  70  95 129 170 216 258 329 382
#
# _framework density 26.80939
#
# number of rings (size 3 to 8) (size 9 to 14) (size 15 to 20)
#    0.857    0.571    0.000    5.571    4.000    4.000 
#    0.000    2.857    0.000    0.000    0.000    0.000 
#    0.000    0.000    0.000    0.000    0.000    0.000 
#
# Total GULP energy -156530.271711 kJ/mol
# GULP energy per Si atom -5590.366847 kJ/mol
# Density = 2.674837 g / cm^3
# Si number density = 26.809390 Si / 1000 Ang^3
#
#
#
# Elastic Constant Matrix: (Units=GPa)
#
#
# Indices 1 2 3 4 5 6 
#
# 1 171.7534 46.3032 41.6251 0.0000 -24.1375 0.0000
# 2 46.3032 57.0901 -0.7317 0.0000 -4.3237 0.0000
# 3 41.6251 -0.7317 76.5172 0.0000 3.3010 0.0000
# 4 0.0000 0.0000 0.0000 37.1156 0.0000 2.2024
# 5 -24.1375 -4.3237 3.3010 0.0000 45.3089 0.0000
# 6 0.0000 0.0000 0.0000 2.2024 0.0000 37.3599
#
#
#
# Elastic Compliance Matrix: (Units=1/GPa)
#
#
# Indices 1 2 3 4 5 6 
#
# 1 0.010031 -0.007830 -0.005748 0.000000 0.005015 0.000000
# 2 -0.007830 0.023756 0.004583 0.000000 -0.002238 0.000000
# 3 -0.005748 0.004583 0.016405 0.000000 -0.003820 0.000000
# 4 0.000000 0.000000 0.000000 0.027037 0.000000 -0.001594
# 5 0.005015 -0.002238 -0.003820 0.000000 0.024807 0.000000
# 6 0.000000 0.000000 0.000000 -0.001594 0.000000 0.026861
#
#
# Mechanical properties :
#
#
# Convention : Reuss Voigt Hill
#
# Bulk Modulus (GPa) = 31.05416 53.30598 42.18007
# Shear Modulus (GPa) = 31.72194 38.50116 35.11155
#
# Velocity S-wave (km/s) = 3.44356 3.79371 3.62287
# Velocity P-wave (km/s) = 5.23634 6.25429 5.76782
#
# Compressibility (1/GPa) = 0.03220181
#
# Stress axis : x y z
#
# Youngs Moduli (GPa) = 99.69118 42.09538 60.95887
#
# Poissons Ratio (x) = 0.32959 0.35039
# Poissons Ratio (y) = 0.78053 -0.27937
# Poissons Ratio (z) = 0.57303 -0.19292
#
# Static dielectric constant tensor:
#      x y z
#    x 2.146240 0.000000 0.002030 
#    y 0.000000 2.125870 0.000000 
#    z 0.002030 0.000000 2.179080 
# 
# From -- ./inp_files/31472.got.cif
#   From: 2010.05.17/outbox.cif.g08.bks.cpg/sg14_16_cif.got.tgz:31472.got - 2010.06.03 17:49:19.
