data_PCOD9247597
_publ_section_title
;
Structure prediction by ZEFSAII (Michael W. Deem and Ramdas Pophale) SiO2 
 PCOD9247597
Probable space group: P 21/C
;
_chemical_formula_sum "Si O2"
_cell_formula_units_Z 32
_cell_length_a 18.719997
_cell_length_b 15.759903
_cell_length_c 15.135094
_cell_angle_alpha 90.000000
_cell_angle_beta 21.555730
_cell_angle_gamma 90.000000
_cell_volume 1640.554771
_symmetry_space_group_name_H-M "P 21/C"
_symmetry_group_IT_number 14
_symmetry_cell_setting 'monoclinic'
loop_
_space_group_symop_operation_xyz
x,y,z
-x,1/2+y,1/2-z
-x,-y,-z
x,1/2-y,1/2+z
loop_
_atom_site_type_symbol
_atom_site_label
_atom_site_fract_x
_atom_site_fract_y
_atom_site_fract_z
Si Si1 0.586194 0.586068 0.857660
Si Si2 0.187865 0.053335 0.312556
Si Si3 0.501421 0.175997 0.380083
Si Si4 0.619478 0.469043 0.247003
Si Si5 0.163803 0.702325 0.032267
Si Si6 0.898346 0.766404 0.668500
Si Si7 0.371841 0.509494 0.966635
Si Si8 0.028419 0.629127 0.378507
O O1 0.492821 0.663351 0.019897
O O2 0.500000 0.500000 0.000000
O O3 0.531285 0.576810 0.818695
O O4 0.813923 0.592752 0.609615
O O5 0.127599 0.149066 0.359954
O O6 0.254979 0.030076 0.334402
O O7 0.388903 0.029758 0.030841
O O8 0.000000 0.000000 0.500000
O O9 0.320445 0.234527 0.563950
O O10 0.440217 0.083531 0.415807
O O11 0.700846 0.214666 0.116549
O O12 0.651781 0.493329 0.109654
O O13 0.701181 0.373503 0.161750
O O14 0.001785 0.717236 0.143361
O O15 0.092200 0.673541 0.212147
O O16 0.009300 0.695948 0.481000
O O17 0.174578 0.551665 0.230787
#
# Coordination Sequence:
#
# PCOD9247597 Si02
#       8
#     4   4   4   4   4   4   4   4
#     4   9  20  38  62  88 122 166 206 258 324 382
#     4  11  22  40  62  86 120 165 204 255 315 375
#     4  10  22  39  60  91 126 165 209 263 321 381
#     4  10  23  39  60  90 119 162 215 255 313 385
#     4  11  22  40  61  90 126 166 214 267 319 381
#     4  11  23  40  64  90 127 166 208 271 318 374
#     4  10  22  40  64  90 128 166 206 269 316 379
#     4  10  24  39  62  96 125 167 223 263 324 394
#
# _framework density 19.505596000000001
#
# number of rings (size 3 to 8) (size 9 to 14) (size 15 to 20)
#    0.000    1.750    2.500    0.750    1.750    8.500 
#    0.000    2.500    0.000    0.000    0.000    0.000 
#    0.000    0.000    0.000    0.000    0.000    0.000 
#
# Total GULP energy -178408.003173 kJ/mol
# GULP energy per Si atom -5575.250099 kJ/mol
# Density = 1.946120 g / cm^3
# Si number density = 19.505596 Si / 1000 Ang^3
#
#
#
# Elastic Constant Matrix: (Units=GPa)
#
#
# Indices 1 2 3 4 5 6 
#
# 1 66.2642 24.7258 25.7229 0.0000 -8.1472 0.0000
# 2 24.7258 75.6842 32.3394 0.0000 -13.0902 0.0000
# 3 25.7229 32.3394 69.6253 0.0000 -19.3549 0.0000
# 4 0.0000 0.0000 0.0000 24.5722 0.0000 -8.0879
# 5 -8.1472 -13.0902 -19.3549 0.0000 22.3151 0.0000
# 6 0.0000 0.0000 0.0000 -8.0879 0.0000 32.8640
#
#
#
# Elastic Compliance Matrix: (Units=1/GPa)
#
#
# Indices 1 2 3 4 5 6 
#
# 1 0.018495 -0.003886 -0.004987 0.000000 0.000148 0.000000
# 2 -0.003886 0.017575 -0.005608 0.000000 0.004027 0.000000
# 3 -0.004987 -0.005608 0.022914 0.000000 0.014764 0.000000
# 4 0.000000 0.000000 0.000000 0.044284 0.000000 0.010898
# 5 0.000148 0.004027 0.014764 0.000000 0.060034 0.000000
# 6 0.000000 0.000000 0.000000 0.010898 0.000000 0.033111
#
#
# Mechanical properties :
#
#
# Convention : Reuss Voigt Hill
#
# Bulk Modulus (GPa) = 33.30888 41.90552 37.60720
# Shear Modulus (GPa) = 21.24204 24.53597 22.88901
#
# Velocity S-wave (km/s) = 3.30362 3.55053 3.42929
# Velocity P-wave (km/s) = 5.62721 6.19183 5.91626
#
# Compressibility (1/GPa) = 0.03002203
#
# Stress axis : x y z
#
# Youngs Moduli (GPa) = 54.06830 56.89871 43.64118
#
# Poissons Ratio (x) = 0.22110 0.21764
# Poissons Ratio (y) = 0.21010 0.24475
# Poissons Ratio (z) = 0.26964 0.31910
#
# Static dielectric constant tensor:
#      x y z
#    x 1.748040 0.000000 0.017780 
#    y 0.000000 1.736510 0.000000 
#    z 0.017780 0.000000 1.686810 
# 
# From -- ./inp_files/49263.got.cif
#   From: 2010.05.17/outbox.cif.g08.bks.cpg/sg14_25_cif.got.tgz:49263.got - 2010.06.03 17:49:19.
