data_PCOD9247274
_publ_section_title
;
Structure prediction by ZEFSAII (Michael W. Deem and Ramdas Pophale) SiO2 
 PCOD9247274
Probable space group: P 21/C
;
_chemical_formula_sum "Si O2"
_cell_formula_units_Z 32
_cell_length_a 10.955677
_cell_length_b 15.802959
_cell_length_c 8.088429
_cell_angle_alpha 90.000000
_cell_angle_beta 110.857862
_cell_angle_gamma 90.000000
_cell_volume 1308.595994
_symmetry_space_group_name_H-M "P 21/C"
_symmetry_group_IT_number 14
_symmetry_cell_setting 'monoclinic'
loop_
_space_group_symop_operation_xyz
x,y,z
-x,1/2+y,1/2-z
-x,-y,-z
x,1/2-y,1/2+z
loop_
_atom_site_type_symbol
_atom_site_label
_atom_site_fract_x
_atom_site_fract_y
_atom_site_fract_z
Si Si1 0.267537 0.554704 0.057695
Si Si2 0.095018 0.830255 0.295843
Si Si3 0.162739 0.649532 0.336308
Si Si4 0.339152 0.528340 0.606654
Si Si5 0.941471 0.714673 0.034486
Si Si6 0.371450 0.087246 0.794475
Si Si7 0.558376 0.881873 0.657506
Si Si8 0.650776 0.761612 0.987869
O O1 0.170487 0.584268 0.867536
O O2 0.226768 0.611478 0.198688
O O3 0.274447 0.457522 0.117864
O O4 0.414855 0.579761 0.085440
O O5 0.193081 0.749851 0.373931
O O6 0.025587 0.802233 0.094285
O O7 0.980369 0.824065 0.378213
O O8 0.221367 0.592302 0.510452
O O9 0.009526 0.656009 0.208817
O O10 0.476588 0.578070 0.680505
O O11 0.351841 0.471298 0.447661
O O12 0.342558 0.459158 0.754919
O O13 0.795868 0.740317 0.999653
O O14 0.342020 0.179895 0.845135
O O15 0.586214 0.825780 0.511753
O O16 0.571836 0.817904 0.819232
#
# Coordination Sequence:
#
# PCOD9247274 Si02
#       8
#     4   4   4   4   4   4   4   4
#     4   9  17  33  52  84  98 124 178 208 256 296
#     4   9  18  31  54  73  99 134 167 222 242 291
#     4   8  16  29  55  71  97 131 166 218 240 280
#     4   8  14  32  49  79  97 126 178 209 246 285
#     4   9  19  32  49  73 101 135 174 205 244 304
#     4   8  16  28  53  72 102 133 164 210 241 315
#     4  10  22  30  57  79 106 129 165 216 253 319
#     4  11  20  35  51  74 105 140 165 201 264 300
#
# _framework density 24.453686999999999
#
# number of rings (size 3 to 8) (size 9 to 14) (size 15 to 20)
#    0.750    2.250    0.000    3.000    3.500    0.000 
#    0.000    1.250    8.250    1.500    0.000    0.000 
#    0.000    0.000    0.000    0.000    0.000    0.000 
#
# Total GULP energy -178668.751010 kJ/mol
# GULP energy per Si atom -5583.398469 kJ/mol
# Density = 2.439803 g / cm^3
# Si number density = 24.453687 Si / 1000 Ang^3
#
#
#
# Elastic Constant Matrix: (Units=GPa)
#
#
# Indices 1 2 3 4 5 6 
#
# 1 47.9286 23.9963 4.9278 0.0000 0.1942 0.0000
# 2 23.9963 94.1452 17.2018 0.0000 -10.3143 0.0000
# 3 4.9278 17.2018 78.6545 0.0000 -1.4355 0.0000
# 4 0.0000 0.0000 0.0000 83.9394 0.0000 25.5754
# 5 0.1942 -10.3143 -1.4355 0.0000 19.0950 0.0000
# 6 0.0000 0.0000 0.0000 25.5754 0.0000 73.5601
#
#
#
# Elastic Compliance Matrix: (Units=1/GPa)
#
#
# Indices 1 2 3 4 5 6 
#
# 1 0.024175 -0.006550 -0.000151 0.000000 -0.003795 0.000000
# 2 -0.006550 0.013520 -0.002415 0.000000 0.007188 0.000000
# 3 -0.000151 -0.002415 0.013246 0.000000 -0.000307 0.000000
# 4 0.000000 0.000000 0.000000 0.013325 0.000000 -0.004633
# 5 -0.003795 0.007188 -0.000307 0.000000 0.056268 0.000000
# 6 0.000000 0.000000 0.000000 -0.004633 0.000000 0.015205
#
#
# Mechanical properties :
#
#
# Convention : Reuss Voigt Hill
#
# Bulk Modulus (GPa) = 30.57398 34.77557 32.67478
# Shear Modulus (GPa) = 30.32610 46.95906 38.64258
#
# Velocity S-wave (km/s) = 3.52539 4.38691 3.97953
# Velocity P-wave (km/s) = 5.39454 6.31758 5.87422
#
# Compressibility (1/GPa) = 0.03270755
#
# Stress axis : x y z
#
# Youngs Moduli (GPa) = 41.36568 73.96338 75.49479
#
# Poissons Ratio (x) = 0.48445 0.01143
# Poissons Ratio (y) = 0.27094 0.18235
# Poissons Ratio (z) = 0.00626 0.17865
#
# Static dielectric constant tensor:
#      x y z
#    x 1.912070 0.000000 -0.058940 
#    y 0.000000 1.947620 0.000000 
#    z -0.058940 0.000000 2.038100 
# 
# From -- ./inp_files/29823.got.cif
#   From: 2010.05.17/outbox.cif.g08.bks.cpg/sg14_15_cif.got.tgz:29823.got - 2010.06.03 17:49:19.
