data_PCOD9247414
_publ_section_title
;
Structure prediction by ZEFSAII (Michael W. Deem and Ramdas Pophale) SiO2 
 PCOD9247414
Probable space group: P 21/C
;
_chemical_formula_sum "Si O2"
_cell_formula_units_Z 30
_cell_length_a 9.613478
_cell_length_b 7.434850
_cell_length_c 28.000159
_cell_angle_alpha 90.000000
_cell_angle_beta 35.294018
_cell_angle_gamma 90.000000
_cell_volume 1156.298723
_symmetry_space_group_name_H-M "P 21/C"
_symmetry_group_IT_number 14
_symmetry_cell_setting 'monoclinic'
loop_
_space_group_symop_operation_xyz
x,y,z
-x,1/2+y,1/2-z
-x,-y,-z
x,1/2-y,1/2+z
loop_
_atom_site_type_symbol
_atom_site_label
_atom_site_fract_x
_atom_site_fract_y
_atom_site_fract_z
Si Si1 0.203547 0.105023 0.592889
Si Si2 0.165558 0.458440 0.553898
Si Si3 0.000000 0.000000 0.500000
Si Si4 0.639132 0.174937 0.524507
Si Si5 0.448506 0.041904 0.325934
Si Si6 0.946001 0.917559 0.215836
Si Si7 0.219837 0.495577 0.733961
Si Si8 0.649696 0.375224 0.665093
O O1 0.269091 0.262088 0.537170
O O2 0.356916 0.132117 0.598025
O O3 0.926655 0.108276 0.685244
O O4 0.261088 0.917243 0.551929
O O5 0.328614 0.611818 0.485783
O O6 0.078551 0.528980 0.629958
O O7 0.924872 0.431558 0.591024
O O8 0.789212 0.079523 0.523370
O O9 0.790504 0.872338 0.585262
O O10 0.697029 0.033551 0.286017
O O11 0.357226 0.834954 0.345396
O O12 0.519839 0.105521 0.252903
O O13 0.864061 0.711124 0.236617
O O14 0.127193 0.945414 0.208617
O O15 0.497423 0.490494 0.670049
#
# Coordination Sequence:
#
# PCOD9247414 Si02
#       8
#     4   4   2   4   4   4   4   4
#     4  11  23  44  69  92 137 187 230 282 358 435
#     4  11  22  44  67  98 130 187 233 288 352 429
#     4  12  24  42  68 100 144 176 232 302 350 408
#     4  11  25  44  66  97 137 187 231 285 360 432
#     4  10  23  41  67  97 133 184 225 293 351 427
#     4  10  22  37  64  97 135 172 233 287 349 417
#     4  11  20  39  61 100 133 170 229 297 350 419
#     4  10  22  40  70  97 132 181 239 287 360 426
#
# _framework density 25.944853999999999
#
# number of rings (size 3 to 8) (size 9 to 14) (size 15 to 20)
#    0.000    1.333    1.333    4.400    3.733    2.133 
#    2.400    2.667    0.000    0.000    0.000    0.000 
#    0.000    0.000    0.000    0.000    0.000    0.000 
#
# Total GULP energy -167674.839386 kJ/mol
# GULP energy per Si atom -5589.161313 kJ/mol
# Density = 2.588580 g / cm^3
# Si number density = 25.944854 Si / 1000 Ang^3
#
#
#
# Elastic Constant Matrix: (Units=GPa)
#
#
# Indices 1 2 3 4 5 6 
#
# 1 166.0578 29.1719 28.8931 0.0000 -26.1749 0.0000
# 2 29.1719 94.5947 8.0874 0.0000 -11.6632 0.0000
# 3 28.8931 8.0874 42.7933 0.0000 -2.2047 0.0000
# 4 0.0000 0.0000 0.0000 7.1033 0.0000 0.2295
# 5 -26.1749 -11.6632 -2.2047 0.0000 20.9498 0.0000
# 6 0.0000 0.0000 0.0000 0.2295 0.0000 32.2719
#
#
#
# Elastic Compliance Matrix: (Units=1/GPa)
#
#
# Indices 1 2 3 4 5 6 
#
# 1 0.008616 -0.001029 -0.005126 0.000000 0.009653 0.000000
# 2 -0.001029 0.011618 -0.001241 0.000000 0.005052 0.000000
# 3 -0.005126 -0.001241 0.026843 0.000000 -0.004270 0.000000
# 4 0.000000 0.000000 0.000000 0.140812 0.000000 -0.001001
# 5 0.009653 0.005052 -0.004270 0.000000 0.062157 0.000000
# 6 0.000000 0.000000 0.000000 -0.001001 0.000000 0.030994
#
#
# Mechanical properties :
#
#
# Convention : Reuss Voigt Hill
#
# Bulk Modulus (GPa) = 30.97240 48.41676 39.69458
# Shear Modulus (GPa) = 16.30829 27.88454 22.09642
#
# Velocity S-wave (km/s) = 2.50986 3.28191 2.92150
# Velocity P-wave (km/s) = 4.51253 5.75006 5.16847
#
# Compressibility (1/GPa) = 0.03228681
#
# Stress axis : x y z
#
# Youngs Moduli (GPa) = 116.06166 86.07608 37.25312
#
# Poissons Ratio (x) = 0.08855 0.19095
# Poissons Ratio (y) = 0.11939 0.04622
# Poissons Ratio (z) = 0.59490 0.10680
#
# Static dielectric constant tensor:
#      x y z
#    x 1.941120 0.000000 -0.109640 
#    y 0.000000 2.023360 0.000000 
#    z -0.109640 0.000000 1.935070 
# 
# From -- ./inp_files/79483.got.cif
#   From: 2010.05.17/outbox.cif.g08.bks.cpg/sg14_40_cif.got.tgz:79483.got - 2010.06.03 17:49:19.
