data_PCOD9247268
_publ_section_title
;
Structure prediction by ZEFSAII (Michael W. Deem and Ramdas Pophale) SiO2 
 PCOD9247268
Probable space group: P 21/C
;
_chemical_formula_sum "Si O2"
_cell_formula_units_Z 24
_cell_length_a 11.771915
_cell_length_b 12.044642
_cell_length_c 9.669335
_cell_angle_alpha 90.000000
_cell_angle_beta 138.646880
_cell_angle_gamma 90.000000
_cell_volume 905.817160
_symmetry_space_group_name_H-M "P 21/C"
_symmetry_group_IT_number 14
_symmetry_cell_setting 'monoclinic'
loop_
_space_group_symop_operation_xyz
x,y,z
-x,1/2+y,1/2-z
-x,-y,-z
x,1/2-y,1/2+z
loop_
_atom_site_type_symbol
_atom_site_label
_atom_site_fract_x
_atom_site_fract_y
_atom_site_fract_z
Si Si1 0.679095 0.589505 0.802593
Si Si2 0.938123 0.154101 0.085640
Si Si3 0.619926 0.203174 0.622170
Si Si4 0.238723 0.860399 0.540032
Si Si5 0.736868 0.661079 0.302242
Si Si6 0.705404 0.009514 0.023753
O O1 0.767576 0.364872 0.334689
O O2 0.769521 0.491587 0.972039
O O3 0.745160 0.714550 0.874161
O O4 0.475808 0.576246 0.649135
O O5 0.665253 0.310034 0.003693
O O6 0.933840 0.287304 0.109233
O O7 0.874421 0.087286 0.161034
O O8 0.099294 0.128918 0.139098
O O9 0.650936 0.321803 0.724516
O O10 0.425430 0.164151 0.450726
O O11 0.708914 0.945543 0.171260
O O12 0.707534 0.578650 0.401559
#
# Coordination Sequence:
#
# PCOD9247268 Si02
#       6
#     4   4   4   4   4   4
#     4  11  24  43  81 104 146 201 248 301 374 446
#     4  10  26  45  75 107 152 189 247 313 367 440
#     4  10  23  45  73 107 146 192 254 292 372 445
#     4  10  21  48  72 107 148 197 242 316 363 433
#     4  12  25  46  74 110 142 202 242 305 378 439
#     4  11  24  48  73 111 152 192 249 315 365 435
#
# _framework density 26.495414
#
# number of rings (size 3 to 8) (size 9 to 14) (size 15 to 20)
#    1.000    0.333    1.667    4.500    0.000    2.667 
#    3.000    0.000    0.000    0.000    0.000    0.000 
#    0.000    0.000    0.000    0.000    0.000    0.000 
#
# Total GULP energy -134441.190148 kJ/mol
# GULP energy per Si atom -5601.716256 kJ/mol
# Density = 2.643511 g / cm^3
# Si number density = 26.495414 Si / 1000 Ang^3
#
#
#
# Elastic Constant Matrix: (Units=GPa)
#
#
# Indices 1 2 3 4 5 6 
#
# 1 165.5444 64.1268 39.3886 0.0000 31.3593 0.0000
# 2 64.1268 163.4043 33.9228 0.0000 2.3089 0.0000
# 3 39.3886 33.9228 81.7251 0.0000 26.3821 0.0000
# 4 0.0000 0.0000 0.0000 18.7026 0.0000 5.7815
# 5 31.3593 2.3089 26.3821 0.0000 38.7410 0.0000
# 6 0.0000 0.0000 0.0000 5.7815 0.0000 40.2415
#
#
#
# Elastic Compliance Matrix: (Units=1/GPa)
#
#
# Indices 1 2 3 4 5 6 
#
# 1 0.008632 -0.003122 -0.000857 0.000000 -0.006217 0.000000
# 2 -0.003122 0.007938 -0.003145 0.000000 0.004195 0.000000
# 3 -0.000857 -0.003145 0.017522 0.000000 -0.011051 0.000000
# 4 0.000000 0.000000 0.000000 0.055953 0.000000 -0.008039
# 5 -0.006217 0.004195 -0.011051 0.000000 0.038120 0.000000
# 6 0.000000 0.000000 0.000000 -0.008039 0.000000 0.026005
#
#
# Mechanical properties :
#
#
# Convention : Reuss Voigt Hill
#
# Bulk Modulus (GPa) = 50.39243 76.17227 63.28235
# Shear Modulus (GPa) = 28.56594 37.75272 33.15933
#
# Velocity S-wave (km/s) = 3.28708 3.77885 3.54151
# Velocity P-wave (km/s) = 5.78507 6.91746 6.37645
#
# Compressibility (1/GPa) = 0.01984425
#
# Stress axis : x y z
#
# Youngs Moduli (GPa) = 115.85379 125.96955 57.07036
#
# Poissons Ratio (x) = 0.39322 0.04894
# Poissons Ratio (y) = 0.36164 0.17948
# Poissons Ratio (z) = 0.09934 0.39617
#
# Static dielectric constant tensor:
#      x y z
#    x 2.035870 0.000000 -0.035910 
#    y 0.000000 2.134650 0.000000 
#    z -0.035910 0.000000 2.110910 
# 
# From -- ./inp_files/44484.got.cif
#   From: 2010.05.17/outbox.cif.g08.bks.cpg/sg14_23_cif.got.tgz:44484.got - 2010.06.03 17:49:19.
