data_PCOD9247126
_publ_section_title
;
Structure prediction by ZEFSAII (Michael W. Deem and Ramdas Pophale) SiO2 
 PCOD9247126
Probable space group: P 21/C
;
_chemical_formula_sum "Si O2"
_cell_formula_units_Z 18
_cell_length_a 9.371998
_cell_length_b 10.273045
_cell_length_c 10.177712
_cell_angle_alpha 90.000000
_cell_angle_beta 137.557374
_cell_angle_gamma 90.000000
_cell_volume 661.286729
_symmetry_space_group_name_H-M "P 21/C"
_symmetry_group_IT_number 14
_symmetry_cell_setting 'monoclinic'
loop_
_space_group_symop_operation_xyz
x,y,z
-x,1/2+y,1/2-z
-x,-y,-z
x,1/2-y,1/2+z
loop_
_atom_site_type_symbol
_atom_site_label
_atom_site_fract_x
_atom_site_fract_y
_atom_site_fract_z
Si Si1 0.695332 0.967583 0.804873
Si Si2 0.752171 0.057222 0.418381
Si Si3 0.985192 0.104626 0.191441
Si Si4 0.267345 0.754185 0.290364
Si Si5 0.500000 0.500000 0.500000
O O1 0.669915 0.103679 0.710714
O O2 0.470141 0.902306 0.664945
O O3 0.868188 0.892403 0.837429
O O4 0.783313 0.013136 0.008981
O O5 0.842087 0.184645 0.409570
O O6 0.888226 0.974773 0.611348
O O7 0.672865 0.973797 0.239107
O O8 0.896059 0.232300 0.202201
O O9 0.459967 0.657823 0.450463
#
# Coordination Sequence:
#
# PCOD9247126 Si02
#       5
#     4   4   4   4   2
#     4  11  24  44  66  99 139 174 222 282 334 400
#     4  10  21  44  66  96 135 171 225 275 330 409
#     4  11  23  43  65  99 136 174 230 275 324 417
#     4  10  22  44  69  94 139 176 218 284 335 390
#     4   8  20  40  72  92 132 170 224 274 338 398
#
# _framework density 27.219660000000001
#
# number of rings (size 3 to 8) (size 9 to 14) (size 15 to 20)
#    1.333    0.444    2.222    1.333    3.111    0.000 
#   16.000    0.000    0.000    0.000    0.000    0.000 
#    0.000    0.000    0.000    0.000    0.000    0.000 
#
# Total GULP energy -100305.498450 kJ/mol
# GULP energy per Si atom -5572.527692 kJ/mol
# Density = 2.715771 g / cm^3
# Si number density = 27.219660 Si / 1000 Ang^3
#
#
#
# Elastic Constant Matrix: (Units=GPa)
#
#
# Indices 1 2 3 4 5 6 
#
# 1 95.3740 39.6782 24.8905 0.0000 -1.9321 0.0000
# 2 39.6782 109.5771 20.4527 0.0000 0.6319 0.0000
# 3 24.8905 20.4527 147.9444 0.0000 -39.1487 0.0000
# 4 0.0000 0.0000 0.0000 44.5117 0.0000 3.3139
# 5 -1.9321 0.6319 -39.1487 0.0000 58.5339 0.0000
# 6 0.0000 0.0000 0.0000 3.3139 0.0000 35.3683
#
#
#
# Elastic Compliance Matrix: (Units=1/GPa)
#
#
# Indices 1 2 3 4 5 6 
#
# 1 0.012699 -0.004272 -0.001729 0.000000 -0.000691 0.000000
# 2 -0.004272 0.010872 -0.001036 0.000000 -0.000951 0.000000
# 3 -0.001729 -0.001036 0.008725 0.000000 0.005790 0.000000
# 4 0.000000 0.000000 0.000000 0.022624 0.000000 -0.002120
# 5 -0.000691 -0.000951 0.005790 0.000000 0.020944 0.000000
# 6 0.000000 0.000000 0.000000 -0.002120 0.000000 0.028473
#
#
# Mechanical properties :
#
#
# Convention : Reuss Voigt Hill
#
# Bulk Modulus (GPa) = 54.87491 58.10425 56.48958
# Shear Modulus (GPa) = 40.16556 45.54106 42.85331
#
# Velocity S-wave (km/s) = 3.84553 4.09478 3.97211
# Velocity P-wave (km/s) = 6.31833 6.61431 6.46801
#
# Compressibility (1/GPa) = 0.01822327
#
# Stress axis : x y z
#
# Youngs Moduli (GPa) = 78.74366 91.98205 114.60664
#
# Poissons Ratio (x) = 0.39293 0.19814
# Poissons Ratio (y) = 0.33638 0.11873
# Poissons Ratio (z) = 0.13614 0.09529
#
# Static dielectric constant tensor:
#      x y z
#    x 0.917450 0.000000 -0.105200 
#    y 0.000000 2.022750 0.000000 
#    z -0.105200 0.000000 2.226320 
# 
# From -- ./inp_files/28384.got.cif
#   From: 2010.05.17/outbox.cif.g08.bks.cpg/sg14_15_cif.got.tgz:28384.got - 2010.06.03 17:49:19.
