data_PCOD9247950
_publ_section_title
;
Structure prediction by ZEFSAII (Michael W. Deem and Ramdas Pophale) SiO2 
 PCOD9247950
Probable space group: P 21/C
;
_chemical_formula_sum "Si O2"
_cell_formula_units_Z 28
_cell_length_a 5.135687
_cell_length_b 17.932827
_cell_length_c 13.770634
_cell_angle_alpha 90.000000
_cell_angle_beta 54.085463
_cell_angle_gamma 90.000000
_cell_volume 1027.138012
_symmetry_space_group_name_H-M "P 21/C"
_symmetry_group_IT_number 14
_symmetry_cell_setting 'monoclinic'
loop_
_space_group_symop_operation_xyz
x,y,z
-x,1/2+y,1/2-z
-x,-y,-z
x,1/2-y,1/2+z
loop_
_atom_site_type_symbol
_atom_site_label
_atom_site_fract_x
_atom_site_fract_y
_atom_site_fract_z
Si Si1 0.167807 0.406473 0.862167
Si Si2 0.807125 0.965882 0.372745
Si Si3 0.236941 0.138895 0.931175
Si Si4 0.782242 0.049585 0.889845
Si Si5 0.446163 0.780957 0.663720
Si Si6 0.571175 0.182663 0.553430
Si Si7 0.790103 0.685905 0.341540
O O1 0.094886 0.493479 0.870429
O O2 0.488276 0.367941 0.829284
O O3 0.161515 0.372773 0.754874
O O4 0.899489 0.364167 0.986849
O O5 0.705977 0.879850 0.384940
O O6 0.921676 0.984267 0.237114
O O7 0.500000 0.000000 0.500000
O O8 0.581339 0.097040 0.853656
O O9 0.284666 0.219843 0.872170
O O10 0.952745 0.095798 0.939224
O O11 0.204293 0.148014 0.054498
O O12 0.500000 0.000000 0.000000
O O13 0.428709 0.780305 0.552181
O O14 0.098855 0.760765 0.777387
O O15 0.499154 0.258584 0.627288
#
# Coordination Sequence:
#
# PCOD9247950 Si02
#       7
#     4   4   4   4   4   4   4
#     4  10  22  40  67  98 135 181 240 300 369 430
#     4  10  23  47  70 104 144 196 248 305 366 444
#     4  11  27  45  74 107 148 192 250 300 372 449
#     4  12  27  50  75 109 151 198 243 306 377 447
#     4  10  23  39  66 101 133 189 239 308 361 431
#     4   9  21  41  61  95 135 178 242 296 366 423
#     4  10  22  40  68  99 138 188 240 307 364 440
#
# _framework density 27.260210000000001
#
# number of rings (size 3 to 8) (size 9 to 14) (size 15 to 20)
#    0.000    1.714    0.000    2.143   12.000    1.714 
#   15.429    0.000    0.000    0.000    0.000    0.000 
#    0.000    0.000    0.000    0.000    0.000    0.000 
#
# Total GULP energy -156271.175626 kJ/mol
# GULP energy per Si atom -5581.113415 kJ/mol
# Density = 2.719816 g / cm^3
# Si number density = 27.260210 Si / 1000 Ang^3
#
#
#
# Elastic Constant Matrix: (Units=GPa)
#
#
# Indices 1 2 3 4 5 6 
#
# 1 80.0966 13.9884 15.2286 0.0000 7.7846 0.0000
# 2 13.9884 118.5628 42.3238 0.0000 -12.9195 0.0000
# 3 15.2286 42.3238 151.3349 0.0000 1.9266 0.0000
# 4 0.0000 0.0000 0.0000 16.3491 0.0000 -5.8330
# 5 7.7846 -12.9195 1.9266 0.0000 32.0715 0.0000
# 6 0.0000 0.0000 0.0000 -5.8330 0.0000 49.2150
#
#
#
# Elastic Compliance Matrix: (Units=1/GPa)
#
#
# Indices 1 2 3 4 5 6 
#
# 1 0.013313 -0.001701 -0.000815 0.000000 -0.003868 0.000000
# 2 -0.001701 0.010111 -0.002716 0.000000 0.004649 0.000000
# 3 -0.000815 -0.002716 0.007466 0.000000 -0.001345 0.000000
# 4 0.000000 0.000000 0.000000 0.063866 0.000000 0.007569
# 5 -0.003868 0.004649 -0.001345 0.000000 0.034073 0.000000
# 6 0.000000 0.000000 0.000000 0.007569 0.000000 0.021216
#
#
# Mechanical properties :
#
#
# Convention : Reuss Voigt Hill
#
# Bulk Modulus (GPa) = 48.95477 54.78622 51.87050
# Shear Modulus (GPa) = 29.88325 38.09069 33.98697
#
# Velocity S-wave (km/s) = 3.31452 3.74210 3.53478
# Velocity P-wave (km/s) = 5.71361 6.22995 5.97736
#
# Compressibility (1/GPa) = 0.02042702
#
# Stress axis : x y z
#
# Youngs Moduli (GPa) = 75.11541 98.90071 133.93206
#
# Poissons Ratio (x) = 0.16827 0.10910
# Poissons Ratio (y) = 0.12780 0.36373
# Poissons Ratio (z) = 0.06119 0.26859
#
# Static dielectric constant tensor:
#      x y z
#    x 2.106090 0.000000 -0.042840 
#    y 0.000000 2.297030 0.000000 
#    z -0.042840 0.000000 2.233790 
# 
# From -- ./inp_files/38051.got.cif
#   From: 2010.05.17/outbox.cif.g08.bks.cpg/sg14_20_cif.got.tgz:38051.got - 2010.06.03 17:49:19.
