data_PCOD9247093
_publ_section_title
;
Structure prediction by ZEFSAII (Michael W. Deem and Ramdas Pophale) SiO2 
 PCOD9247093
Probable space group: P 21/C
;
_chemical_formula_sum "Si O2"
_cell_formula_units_Z 28
_cell_length_a 9.618700
_cell_length_b 18.830517
_cell_length_c 13.044679
_cell_angle_alpha 90.000000
_cell_angle_beta 36.941283
_cell_angle_gamma 90.000000
_cell_volume 1419.985111
_symmetry_space_group_name_H-M "P 21/C"
_symmetry_group_IT_number 14
_symmetry_cell_setting 'monoclinic'
loop_
_space_group_symop_operation_xyz
x,y,z
-x,1/2+y,1/2-z
-x,-y,-z
x,1/2-y,1/2+z
loop_
_atom_site_type_symbol
_atom_site_label
_atom_site_fract_x
_atom_site_fract_y
_atom_site_fract_z
Si Si1 0.154294 0.929826 0.923512
Si Si2 0.679644 0.300196 0.178819
Si Si3 0.180662 0.137074 0.019382
Si Si4 0.827115 0.220787 0.366486
Si Si5 0.732265 0.487016 0.428544
Si Si6 0.970139 0.359304 0.194608
Si Si7 0.485375 0.840000 0.619376
O O1 0.354815 0.913157 0.723368
O O2 0.965775 0.870468 0.999899
O O3 0.275870 0.940413 0.961523
O O4 0.000000 0.000000 0.000000
O O5 0.440671 0.342567 0.337590
O O6 0.603642 0.219033 0.247023
O O7 0.861388 0.330320 0.153556
O O8 0.793193 0.305100 0.001024
O O9 0.048247 0.191433 0.172518
O O10 0.181732 0.063406 0.082263
O O11 0.606986 0.192190 0.432516
O O12 0.853096 0.305507 0.345390
O O13 0.500000 0.500000 0.500000
O O14 0.900442 0.440038 0.258747
O O15 0.243410 0.350069 0.036934
#
# Coordination Sequence:
#
# PCOD9247093 Si02
#       7
#     4   4   4   4   4   4   4
#     4   9  21  41  65  85 125 174 213 262 318 384
#     4  11  22  40  66  93 132 170 210 275 325 380
#     4  10  21  44  61  95 129 166 224 259 321 396
#     4  10  23  41  66  92 126 173 214 269 318 379
#     4  11  22  40  63  91 134 171 206 270 328 378
#     4  11  23  40  61  98 129 164 219 267 327 388
#     4  10  22  41  63  98 126 164 226 265 318 393
#
# _framework density 19.718516000000001
#
# number of rings (size 3 to 8) (size 9 to 14) (size 15 to 20)
#    0.000    1.714    2.857    0.857    2.000    2.286 
#    5.143    3.571    0.000    0.000    0.000    0.000 
#    0.000    0.000    0.000    0.000    0.000    0.000 
#
# Total GULP energy -156038.871421 kJ/mol
# GULP energy per Si atom -5572.816836 kJ/mol
# Density = 1.967364 g / cm^3
# Si number density = 19.718516 Si / 1000 Ang^3
#
#
#
# Elastic Constant Matrix: (Units=GPa)
#
#
# Indices 1 2 3 4 5 6 
#
# 1 115.8168 25.4603 50.4414 0.0000 -22.7493 0.0000
# 2 25.4603 91.4297 29.2316 0.0000 -3.8134 0.0000
# 3 50.4414 29.2316 71.6191 0.0000 -12.1401 0.0000
# 4 0.0000 0.0000 0.0000 21.2429 0.0000 -0.6450
# 5 -22.7493 -3.8134 -12.1401 0.0000 37.0162 0.0000
# 6 0.0000 0.0000 0.0000 -0.6450 0.0000 14.8677
#
#
#
# Elastic Compliance Matrix: (Units=1/GPa)
#
#
# Indices 1 2 3 4 5 6 
#
# 1 0.013483 -0.000905 -0.008193 0.000000 0.005506 0.000000
# 2 -0.000905 0.012646 -0.004656 0.000000 -0.000781 0.000000
# 3 -0.008193 -0.004656 0.021917 0.000000 0.001673 0.000000
# 4 0.000000 0.000000 0.000000 0.047137 0.000000 0.002045
# 5 0.005506 -0.000781 0.001673 0.000000 0.030867 0.000000
# 6 0.000000 0.000000 0.000000 0.002045 0.000000 0.067349
#
#
# Mechanical properties :
#
#
# Convention : Reuss Voigt Hill
#
# Bulk Modulus (GPa) = 48.69371 54.34802 51.52086
# Shear Modulus (GPa) = 21.95349 26.20751 24.08050
#
# Velocity S-wave (km/s) = 3.34030 3.64961 3.49838
# Velocity P-wave (km/s) = 6.29483 6.73657 6.51944
#
# Compressibility (1/GPa) = 0.02053653
#
# Stress axis : x y z
#
# Youngs Moduli (GPa) = 74.16530 79.07934 45.62598
#
# Poissons Ratio (x) = 0.07160 0.37383
# Poissons Ratio (y) = 0.06715 0.21243
# Poissons Ratio (z) = 0.60767 0.36819
#
# Static dielectric constant tensor:
#      x y z
#    x 1.716460 0.000000 0.010630 
#    y 0.000000 1.749060 0.000000 
#    z 0.010630 0.000000 1.669080 
# 
# From -- ./inp_files/26742.got.cif
#   From: 2010.05.17/outbox.cif.g08.bks.cpg/sg14_14_cif.got.tgz:26742.got - 2010.06.03 17:49:19.
