data_PCOD9247402
_publ_section_title
;
Structure prediction by ZEFSAII (Michael W. Deem and Ramdas Pophale) SiO2 
 PCOD9247402
Probable space group: P 21/C
;
_chemical_formula_sum "Si O2"
_cell_formula_units_Z 32
_cell_length_a 11.489393
_cell_length_b 10.699954
_cell_length_c 13.329871
_cell_angle_alpha 90.000000
_cell_angle_beta 104.584260
_cell_angle_gamma 90.000000
_cell_volume 1585.918475
_symmetry_space_group_name_H-M "P 21/C"
_symmetry_group_IT_number 14
_symmetry_cell_setting 'monoclinic'
loop_
_space_group_symop_operation_xyz
x,y,z
-x,1/2+y,1/2-z
-x,-y,-z
x,1/2-y,1/2+z
loop_
_atom_site_type_symbol
_atom_site_label
_atom_site_fract_x
_atom_site_fract_y
_atom_site_fract_z
Si Si1 0.892533 0.882028 0.399272
Si Si2 0.560877 0.137452 0.608356
Si Si3 0.683305 0.212930 0.298547
Si Si4 0.953923 0.161747 0.384088
Si Si5 0.310976 0.061720 0.481475
Si Si6 0.181444 0.261136 0.315003
Si Si7 0.665736 0.996684 0.129807
Si Si8 0.434391 0.835125 0.047947
O O1 0.793185 0.926576 0.459148
O O2 0.838059 0.782299 0.309031
O O3 0.998763 0.827660 0.491351
O O4 0.938830 0.012142 0.360776
O O5 0.616057 0.176863 0.724601
O O6 0.435094 0.066746 0.572620
O O7 0.522982 0.262294 0.541387
O O8 0.667638 0.063844 0.576144
O O9 0.825570 0.226032 0.342746
O O10 0.671213 0.089677 0.226296
O O11 0.618970 0.229841 0.391091
O O12 0.054813 0.220056 0.334479
O O13 0.277950 0.165542 0.387891
O O14 0.226739 0.398824 0.353450
O O15 0.543658 0.915809 0.114141
O O16 0.660596 0.071092 0.023465
#
# Coordination Sequence:
#
# PCOD9247402 Si02
#       8
#     4   4   4   4   4   4   4   4
#     4  10  22  42  65  84 123 174 213 261 312 384
#     4  10  22  37  62  99 134 162 209 265 314 394
#     4  11  23  40  66  94 127 176 209 260 326 382
#     4  10  23  40  62  91 120 167 218 256 312 373
#     4  10  22  40  63  98 129 165 213 261 323 383
#     4  11  22  42  67  90 125 167 215 269 323 378
#     4  10  22  42  64  96 127 171 209 266 328 378
#     4  10  22  41  65  93 136 166 209 266 320 389
#
# _framework density 20.177582000000001
#
# number of rings (size 3 to 8) (size 9 to 14) (size 15 to 20)
#    0.000    1.750    2.500    0.750    1.750    6.000 
#    4.500    0.625    0.000    0.000    0.000    0.000 
#    0.000    0.000    0.000    0.000    0.000    0.000 
#
# Total GULP energy -178182.839781 kJ/mol
# GULP energy per Si atom -5568.213743 kJ/mol
# Density = 2.013166 g / cm^3
# Si number density = 20.177582 Si / 1000 Ang^3
#
#
#
# Elastic Constant Matrix: (Units=GPa)
#
#
# Indices 1 2 3 4 5 6 
#
# 1 64.1685 16.5487 40.0787 0.0000 13.9324 0.0000
# 2 16.5487 65.1654 31.7423 0.0000 -2.4498 0.0000
# 3 40.0787 31.7423 86.3798 0.0000 15.5689 0.0000
# 4 0.0000 0.0000 0.0000 21.8505 0.0000 -6.9326
# 5 13.9324 -2.4498 15.5689 0.0000 28.2436 0.0000
# 6 0.0000 0.0000 0.0000 -6.9326 0.0000 26.7695
#
#
#
# Elastic Compliance Matrix: (Units=1/GPa)
#
#
# Indices 1 2 3 4 5 6 
#
# 1 0.022992 -0.001797 -0.008811 0.000000 -0.006641 0.000000
# 2 -0.001797 0.019796 -0.007672 0.000000 0.006833 0.000000
# 3 -0.008811 -0.007672 0.019787 0.000000 -0.007226 0.000000
# 4 0.000000 0.000000 0.000000 0.049862 0.000000 0.012913
# 5 -0.006641 0.006833 -0.007226 0.000000 0.043258 0.000000
# 6 0.000000 0.000000 0.000000 0.012913 0.000000 0.040700
#
#
# Mechanical properties :
#
#
# Convention : Reuss Voigt Hill
#
# Bulk Modulus (GPa) = 38.43914 43.60590 41.02252
# Shear Modulus (GPa) = 20.69303 23.86233 22.27768
#
# Velocity S-wave (km/s) = 3.20589 3.44265 3.32638
# Velocity P-wave (km/s) = 5.72673 6.12049 5.92688
#
# Compressibility (1/GPa) = 0.02601515
#
# Stress axis : x y z
#
# Youngs Moduli (GPa) = 43.49268 50.51550 50.53912
#
# Poissons Ratio (x) = 0.09076 0.44529
# Poissons Ratio (y) = 0.07815 0.38775
# Poissons Ratio (z) = 0.38321 0.38757
#
# Static dielectric constant tensor:
#      x y z
#    x 1.729890 0.000000 0.031530 
#    y 0.000000 1.762770 0.000000 
#    z 0.031530 0.000000 1.778340 
# 
# From -- ./inp_files/29123.got.cif
#   From: 2010.05.17/outbox.cif.g08.bks.cpg/sg14_15_cif.got.tgz:29123.got - 2010.06.03 17:49:19.
