data_PCOD9247142
_publ_section_title
;
Structure prediction by ZEFSAII (Michael W. Deem and Ramdas Pophale) SiO2 
 PCOD9247142
Probable space group: P 21/C
;
_chemical_formula_sum "Si O2"
_cell_formula_units_Z 32
_cell_length_a 5.121048
_cell_length_b 29.128531
_cell_length_c 9.472631
_cell_angle_alpha 90.000000
_cell_angle_beta 107.174098
_cell_angle_gamma 90.000000
_cell_volume 1350.015383
_symmetry_space_group_name_H-M "P 21/C"
_symmetry_group_IT_number 14
_symmetry_cell_setting 'monoclinic'
loop_
_space_group_symop_operation_xyz
x,y,z
-x,1/2+y,1/2-z
-x,-y,-z
x,1/2-y,1/2+z
loop_
_atom_site_type_symbol
_atom_site_label
_atom_site_fract_x
_atom_site_fract_y
_atom_site_fract_z
Si Si1 0.404549 0.320673 0.929592
Si Si2 0.570987 0.102371 0.249390
Si Si3 0.524794 0.614267 0.592254
Si Si4 0.098739 0.043952 0.673544
Si Si5 0.874914 0.947664 0.642705
Si Si6 0.055474 0.764762 0.513469
Si Si7 0.726473 0.118707 0.673616
Si Si8 0.880496 0.697668 0.713554
O O1 0.472499 0.349569 0.801318
O O2 0.632069 0.279698 0.967741
O O3 0.107973 0.300562 0.912130
O O4 0.460626 0.358008 0.063900
O O5 0.891305 0.091604 0.322850
O O6 0.374349 0.065813 0.296665
O O7 0.523289 0.102580 0.075537
O O8 0.721542 0.576197 0.696767
O O9 0.272155 0.611778 0.658825
O O10 0.627020 0.667014 0.624025
O O11 0.212817 0.041950 0.532791
O O12 0.815699 0.072017 0.617311
O O13 0.032756 0.993556 0.717780
O O14 0.028264 0.718774 0.600943
O O15 0.877319 0.764972 0.339457
O O16 0.941669 0.158620 0.680841
#
# Coordination Sequence:
#
# PCOD9247142 Si02
#       8
#     4   4   4   4   4   4   4   4
#     4  11  23  44  67  93 131 178 220 275 328 400
#     4  12  27  43  68 103 140 176 228 282 338 399
#     4  11  25  43  70  96 143 180 221 279 350 403
#     4  10  24  44  72  98 136 184 228 283 330 414
#     4  11  26  45  71 104 132 181 237 277 335 400
#     4  11  25  42  68  94 131 168 227 276 328 400
#     4  10  21  44  68  94 133 182 224 266 346 403
#     4  10  25  42  64 100 126 178 218 279 335 401
#
# _framework density 23.703433
#
# number of rings (size 3 to 8) (size 9 to 14) (size 15 to 20)
#    0.000    1.250    2.500    1.500   10.500    3.000 
#    0.000    0.000    0.000    0.000    0.000    0.000 
#    0.000    0.000    0.000    0.000    0.000    0.000 
#
# Total GULP energy -178749.386423 kJ/mol
# GULP energy per Si atom -5585.918326 kJ/mol
# Density = 2.364948 g / cm^3
# Si number density = 23.703433 Si / 1000 Ang^3
#
#
#
# Elastic Constant Matrix: (Units=GPa)
#
#
# Indices 1 2 3 4 5 6 
#
# 1 77.0327 13.4827 4.2917 0.0000 -14.4498 0.0000
# 2 13.4827 56.6096 7.0305 0.0000 -8.7577 0.0000
# 3 4.2917 7.0305 124.9201 0.0000 -27.1211 0.0000
# 4 0.0000 0.0000 0.0000 22.8182 0.0000 -14.3063
# 5 -14.4498 -8.7577 -27.1211 0.0000 33.3077 0.0000
# 6 0.0000 0.0000 0.0000 -14.3063 0.0000 29.4666
#
#
#
# Elastic Compliance Matrix: (Units=1/GPa)
#
#
# Indices 1 2 3 4 5 6 
#
# 1 0.014599 -0.002601 0.001059 0.000000 0.006512 0.000000
# 2 -0.002601 0.018877 -0.000171 0.000000 0.003696 0.000000
# 3 0.001059 -0.000171 0.009801 0.000000 0.008395 0.000000
# 4 0.000000 0.000000 0.000000 0.063003 0.000000 0.030588
# 5 0.006512 0.003696 0.008395 0.000000 0.040655 0.000000
# 6 0.000000 0.000000 0.000000 0.030588 0.000000 0.048788
#
#
# Mechanical properties :
#
#
# Convention : Reuss Voigt Hill
#
# Bulk Modulus (GPa) = 25.09349 34.24137 29.66743
# Shear Modulus (GPa) = 23.53681 32.70235 28.11958
#
# Velocity S-wave (km/s) = 3.15456 3.71839 3.44802
# Velocity P-wave (km/s) = 4.88649 5.73693 5.32870
#
# Compressibility (1/GPa) = 0.03985098
#
# Stress axis : x y z
#
# Youngs Moduli (GPa) = 68.49678 52.97354 102.03104
#
# Poissons Ratio (x) = 0.13779 -0.10800
# Poissons Ratio (y) = 0.17817 0.01741
# Poissons Ratio (z) = -0.07251 0.00904
#
# Static dielectric constant tensor:
#      x y z
#    x 1.955670 0.000000 0.040080 
#    y 0.000000 1.944990 0.000000 
#    z 0.040080 0.000000 1.919760 
# 
# From -- ./inp_files/6989.got.cif
#   From: 2010.05.17/outbox.cif.g08.bks.cpg/sg14_4_cif.got.tgz:6989.got - 2010.06.03 17:49:19.
