data_PCOD9247800
_publ_section_title
;
Structure prediction by ZEFSAII (Michael W. Deem and Ramdas Pophale) SiO2 
 PCOD9247800
Probable space group: P 21/C
;
_chemical_formula_sum "Si O2"
_cell_formula_units_Z 20
_cell_length_a 7.650718
_cell_length_b 9.817047
_cell_length_c 11.263783
_cell_angle_alpha 90.000000
_cell_angle_beta 62.862456
_cell_angle_gamma 90.000000
_cell_volume 752.862096
_symmetry_space_group_name_H-M "P 21/C"
_symmetry_group_IT_number 14
_symmetry_cell_setting 'monoclinic'
loop_
_space_group_symop_operation_xyz
x,y,z
-x,1/2+y,1/2-z
-x,-y,-z
x,1/2-y,1/2+z
loop_
_atom_site_type_symbol
_atom_site_label
_atom_site_fract_x
_atom_site_fract_y
_atom_site_fract_z
Si Si1 0.930991 0.313950 0.248215
Si Si2 0.472210 0.304117 0.338296
Si Si3 0.080291 0.708991 0.008775
Si Si4 0.815437 0.013478 0.968765
Si Si5 0.594675 0.500502 0.099474
O O1 0.699687 0.279652 0.303072
O O2 0.024480 0.238952 0.333319
O O3 0.907629 0.466363 0.309037
O O4 0.015153 0.284445 0.092540
O O5 0.350525 0.401172 0.466129
O O6 0.473202 0.399733 0.222185
O O7 0.392026 0.152136 0.354419
O O8 0.193224 0.568031 0.975806
O O9 0.243839 0.832593 0.970401
O O10 0.000000 0.000000 0.000000
O O11 0.500000 0.500000 0.000000
#
# Coordination Sequence:
#
# PCOD9247800 Si02
#       5
#     4   4   4   4   4
#     4   9  19  36  65  85 120 154 207 254 306 358
#     4  11  21  37  62  96 120 159 207 258 310 369
#     4   9  20  37  63  88 121 159 203 256 312 358
#     4  10  22  40  62  85 126 171 203 245 309 372
#     4  11  21  36  62  97 123 154 204 268 314 362
#
# _framework density 26.565290000000001
#
# number of rings (size 3 to 8) (size 9 to 14) (size 15 to 20)
#    1.200    0.800    2.000    3.000    0.000    3.200 
#    0.000    7.000    0.000    0.000    0.000    0.000 
#    0.000    0.000    0.000    0.000    0.000    0.000 
#
# Total GULP energy -111589.892291 kJ/mol
# GULP energy per Si atom -5579.494615 kJ/mol
# Density = 2.650483 g / cm^3
# Si number density = 26.565290 Si / 1000 Ang^3
#
#
#
# Elastic Constant Matrix: (Units=GPa)
#
#
# Indices 1 2 3 4 5 6 
#
# 1 86.5506 23.8610 46.9105 0.0000 11.5828 0.0000
# 2 23.8610 201.4039 73.8564 0.0000 4.2546 0.0000
# 3 46.9105 73.8564 193.0439 0.0000 56.2365 0.0000
# 4 0.0000 0.0000 0.0000 60.1441 0.0000 -3.6807
# 5 11.5828 4.2546 56.2365 0.0000 48.4267 0.0000
# 6 0.0000 0.0000 0.0000 -3.6807 0.0000 32.0799
#
#
#
# Elastic Compliance Matrix: (Units=1/GPa)
#
#
# Indices 1 2 3 4 5 6 
#
# 1 0.013355 -0.000391 -0.003288 0.000000 0.000658 0.000000
# 2 -0.000391 0.006115 -0.003197 0.000000 0.003268 0.000000
# 3 -0.003288 -0.003197 0.010414 0.000000 -0.011027 0.000000
# 4 0.000000 0.000000 0.000000 0.016744 0.000000 0.001921
# 5 0.000658 0.003268 -0.011027 0.000000 0.033010 0.000000
# 6 0.000000 0.000000 0.000000 0.001921 0.000000 0.031393
#
#
# Mechanical properties :
#
#
# Convention : Reuss Voigt Hill
#
# Bulk Modulus (GPa) = 61.97778 85.58381 73.78079
# Shear Modulus (GPa) = 38.41453 50.55483 44.48468
#
# Velocity S-wave (km/s) = 3.80681 4.36712 4.09656
# Velocity P-wave (km/s) = 6.53479 7.59706 7.08586
#
# Compressibility (1/GPa) = 0.01613482
#
# Stress axis : x y z
#
# Youngs Moduli (GPa) = 74.87565 163.54347 96.02243
#
# Poissons Ratio (x) = 0.06388 0.31568
# Poissons Ratio (y) = 0.02924 0.30694
# Poissons Ratio (z) = 0.24616 0.52278
#
# Static dielectric constant tensor:
#      x y z
#    x 2.081150 0.000000 0.003630 
#    y 0.000000 2.203070 0.000000 
#    z 0.003630 0.000000 2.152260 
# 
# From -- ./inp_files/23805.got.cif
#   From: 2010.05.17/outbox.cif.g08.bks.cpg/sg14_12_cif.got.tgz:23805.got - 2010.06.03 17:49:19.
