data_PCOD9247785
_publ_section_title
;
Structure prediction by ZEFSAII (Michael W. Deem and Ramdas Pophale) SiO2 
 PCOD9247785
Probable space group: P 21/C
;
_chemical_formula_sum "Si O2"
_cell_formula_units_Z 20
_cell_length_a 12.450593
_cell_length_b 14.603524
_cell_length_c 5.027112
_cell_angle_alpha 90.000000
_cell_angle_beta 88.056566
_cell_angle_gamma 90.000000
_cell_volume 913.516479
_symmetry_space_group_name_H-M "P 21/C"
_symmetry_group_IT_number 14
_symmetry_cell_setting 'monoclinic'
loop_
_space_group_symop_operation_xyz
x,y,z
-x,1/2+y,1/2-z
-x,-y,-z
x,1/2-y,1/2+z
loop_
_atom_site_type_symbol
_atom_site_label
_atom_site_fract_x
_atom_site_fract_y
_atom_site_fract_z
Si Si1 0.762228 0.463532 0.118762
Si Si2 0.421182 0.412895 0.029084
Si Si3 0.620049 0.303968 0.870101
Si Si4 0.273451 0.317605 0.410798
Si Si5 0.120623 0.013180 0.893969
O O1 0.685020 0.552753 0.112929
O O2 0.693931 0.382267 0.993038
O O3 0.859756 0.482338 0.909002
O O4 0.805179 0.453720 0.411288
O O5 0.375541 0.382620 0.321251
O O6 0.500000 0.500000 0.000000
O O7 0.495715 0.332572 0.913937
O O8 0.639340 0.282525 0.561392
O O9 0.273862 0.256452 0.672483
O O10 0.169555 0.384306 0.413613
O O11 0.000000 0.000000 0.000000
#
# Coordination Sequence:
#
# PCOD9247785 Si02
#       5
#     4   4   4   4   4
#     4  10  22  40  61  88 120 159 205 251 303 373
#     4   9  20  37  60  88 124 164 199 237 299 375
#     4  11  22  37  58  90 125 161 198 243 300 365
#     4  11  22  39  61  92 124 156 205 267 311 356
#     4  11  23  43  66  86 117 164 210 256 316 377
#
# _framework density 21.893419000000002
#
# number of rings (size 3 to 8) (size 9 to 14) (size 15 to 20)
#    0.000    1.600    0.000    5.400    0.000    3.200 
#    0.000   23.000    0.000    0.000    0.000    0.000 
#    0.000    0.000    0.000    0.000    0.000    0.000 
#
# Total GULP energy -111712.673220 kJ/mol
# GULP energy per Si atom -5585.633661 kJ/mol
# Density = 2.184359 g / cm^3
# Si number density = 21.893419 Si / 1000 Ang^3
#
#
#
# Elastic Constant Matrix: (Units=GPa)
#
#
# Indices 1 2 3 4 5 6 
#
# 1 102.4772 44.2177 24.2615 0.0000 -24.1702 0.0000
# 2 44.2177 89.1191 26.8981 0.0000 -16.7167 0.0000
# 3 24.2615 26.8981 103.6116 0.0000 -8.4004 0.0000
# 4 0.0000 0.0000 0.0000 40.9142 0.0000 -4.2818
# 5 -24.1702 -16.7167 -8.4004 0.0000 33.8235 0.0000
# 6 0.0000 0.0000 0.0000 -4.2818 0.0000 27.7338
#
#
#
# Elastic Compliance Matrix: (Units=1/GPa)
#
#
# Indices 1 2 3 4 5 6 
#
# 1 0.013998 -0.005207 -0.001351 0.000000 0.007094 0.000000
# 2 -0.005207 0.015136 -0.002455 0.000000 0.003150 0.000000
# 3 -0.001351 -0.002455 0.010643 0.000000 0.000465 0.000000
# 4 0.000000 0.000000 0.000000 0.024843 0.000000 0.003835
# 5 0.007094 0.003150 0.000465 0.000000 0.036307 0.000000
# 6 0.000000 0.000000 0.000000 0.003835 0.000000 0.036649
#
#
# Mechanical properties :
#
#
# Convention : Reuss Voigt Hill
#
# Bulk Modulus (GPa) = 45.97316 53.99584 49.98450
# Shear Modulus (GPa) = 30.70279 33.81633 32.25956
#
# Velocity S-wave (km/s) = 3.74889 3.93439 3.84276
# Velocity P-wave (km/s) = 6.30739 6.73467 6.52453
#
# Compressibility (1/GPa) = 0.02175182
#
# Stress axis : x y z
#
# Youngs Moduli (GPa) = 71.43892 66.06658 93.96120
#
# Poissons Ratio (x) = 0.34400 0.12693
# Poissons Ratio (y) = 0.37198 0.23065
# Poissons Ratio (z) = 0.09650 0.16218
#
# Static dielectric constant tensor:
#      x y z
#    x 1.785410 0.000000 0.020500 
#    y 0.000000 1.859000 0.000000 
#    z 0.020500 0.000000 1.799610 
# 
# From -- ./inp_files/2451.got.cif
#   From: 2010.05.17/outbox.cif.g08.bks.cpg/sg14_2_cif.got.tgz:2451.got - 2010.06.03 17:49:19.
