data_PCOD9247914
_publ_section_title
;
Structure prediction by ZEFSAII (Michael W. Deem and Ramdas Pophale) SiO2 
 PCOD9247914
Probable space group: P 21/C
;
_chemical_formula_sum "Si O2"
_cell_formula_units_Z 26
_cell_length_a 14.721507
_cell_length_b 7.544235
_cell_length_c 13.888379
_cell_angle_alpha 90.000000
_cell_angle_beta 139.822689
_cell_angle_gamma 90.000000
_cell_volume 995.137800
_symmetry_space_group_name_H-M "P 21/C"
_symmetry_group_IT_number 14
_symmetry_cell_setting 'monoclinic'
loop_
_space_group_symop_operation_xyz
x,y,z
-x,1/2+y,1/2-z
-x,-y,-z
x,1/2-y,1/2+z
loop_
_atom_site_type_symbol
_atom_site_label
_atom_site_fract_x
_atom_site_fract_y
_atom_site_fract_z
Si Si1 0.624197 0.032338 0.951557
Si Si2 0.408547 0.944555 0.625697
Si Si3 0.822689 0.968286 0.776436
Si Si4 0.882132 0.042413 0.542546
Si Si5 0.500000 0.000000 0.500000
Si Si6 0.817346 0.540304 0.769803
Si Si7 0.110673 0.543441 0.448723
O O1 0.604431 0.239294 0.914212
O O2 0.762099 0.960027 0.007110
O O3 0.487774 0.947627 0.792996
O O4 0.670989 0.008366 0.099745
O O5 0.254515 0.032008 0.513572
O O6 0.507579 0.029599 0.624657
O O7 0.821406 0.753889 0.776042
O O8 0.668883 0.030510 0.624599
O O9 0.855010 0.027504 0.910698
O O10 0.951814 0.029088 0.813393
O O11 0.891850 0.248883 0.576324
O O12 0.042710 0.972106 0.674108
O O13 0.837538 0.028084 0.393873
#
# Coordination Sequence:
#
# PCOD9247914 Si02
#       7
#     4   4   4   4   2   4   4
#     4  11  25  44  66  98 132 178 223 272 331 396
#     4  11  27  43  65  97 136 173 221 275 334 390
#     4  10  22  40  66  94 129 172 215 270 324 393
#     4   9  22  45  67  99 132 170 220 280 322 397
#     4  12  26  42  66 100 130 174 220 276 332 392
#     4  10  23  43  70  98 130 172 224 268 335 389
#     4   9  20  44  65  92 131 173 221 267 328 389
#
# _framework density 26.127036
#
# number of rings (size 3 to 8) (size 9 to 14) (size 15 to 20)
#    0.000    1.846    1.538    0.000    8.615    0.615 
#    0.000    0.000    0.000    0.000    0.000    0.000 
#    0.000    0.000    0.000    0.000    0.000    0.000 
#
# Total GULP energy -145023.497175 kJ/mol
# GULP energy per Si atom -5577.826814 kJ/mol
# Density = 2.606757 g / cm^3
# Si number density = 26.127036 Si / 1000 Ang^3
#
#
#
# Elastic Constant Matrix: (Units=GPa)
#
#
# Indices 1 2 3 4 5 6 
#
# 1 129.0287 4.1788 15.8763 0.0000 20.1739 0.0000
# 2 4.1788 98.7676 12.4963 0.0000 -4.9263 0.0000
# 3 15.8763 12.4963 156.4887 0.0000 10.1794 0.0000
# 4 0.0000 0.0000 0.0000 20.4913 0.0000 -13.5276
# 5 20.1739 -4.9263 10.1794 0.0000 47.2990 0.0000
# 6 0.0000 0.0000 0.0000 -13.5276 0.0000 11.7966
#
#
#
# Elastic Compliance Matrix: (Units=1/GPa)
#
#
# Indices 1 2 3 4 5 6 
#
# 1 0.008384 -0.000455 -0.000587 0.000000 -0.003497 0.000000
# 2 -0.000455 0.010327 -0.000873 0.000000 0.001458 0.000000
# 3 -0.000587 -0.000873 0.006602 0.000000 -0.001261 0.000000
# 4 0.000000 0.000000 0.000000 0.200848 0.000000 0.230318
# 5 -0.003497 0.001458 -0.001261 0.000000 0.023057 0.000000
# 6 0.000000 0.000000 0.000000 0.230318 0.000000 0.348882
#
#
# Mechanical properties :
#
#
# Convention : Reuss Voigt Hill
#
# Bulk Modulus (GPa) = 46.54915 49.93199 48.24057
# Shear Modulus (GPa) = 8.20897 39.36630 23.78763
#
# Velocity S-wave (km/s) = 1.77448 3.88587 3.02066
# Velocity P-wave (km/s) = 4.69612 6.26786 5.53803
#
# Compressibility (1/GPa) = 0.02148267
#
# Stress axis : x y z
#
# Youngs Moduli (GPa) = 119.27615 96.83145 151.47934
#
# Poissons Ratio (x) = 0.04405 0.08888
# Poissons Ratio (y) = 0.05426 0.13229
# Poissons Ratio (z) = 0.06999 0.08457
#
# Static dielectric constant tensor:
#      x y z
#    x 2.075400 0.000000 -0.047190 
#    y 0.000000 2.000440 0.000000 
#    z -0.047190 0.000000 2.116270 
# 
# From -- ./inp_files/46632.got.cif
#   From: 2010.05.17/outbox.cif.g08.bks.cpg/sg14_24_cif.got.tgz:46632.got - 2010.06.03 17:49:19.
