data_PCOD9247717
_publ_section_title
;
Structure prediction by ZEFSAII (Michael W. Deem and Ramdas Pophale) SiO2 
 PCOD9247717
Probable space group: P 21/C
;
_chemical_formula_sum "Si O2"
_cell_formula_units_Z 28
_cell_length_a 15.112734
_cell_length_b 8.543129
_cell_length_c 20.902951
_cell_angle_alpha 90.000000
_cell_angle_beta 153.210002
_cell_angle_gamma 90.000000
_cell_volume 1216.399097
_symmetry_space_group_name_H-M "P 21/C"
_symmetry_group_IT_number 14
_symmetry_cell_setting 'monoclinic'
loop_
_space_group_symop_operation_xyz
x,y,z
-x,1/2+y,1/2-z
-x,-y,-z
x,1/2-y,1/2+z
loop_
_atom_site_type_symbol
_atom_site_label
_atom_site_fract_x
_atom_site_fract_y
_atom_site_fract_z
Si Si1 0.042084 0.844982 0.319102
Si Si2 0.830370 0.695168 0.067722
Si Si3 0.220164 0.942274 0.207950
Si Si4 0.763658 0.554280 0.421443
Si Si5 0.529384 0.298729 0.592235
Si Si6 0.668617 0.720427 0.155765
Si Si7 0.581045 0.122818 0.917770
O O1 0.237491 0.739994 0.452433
O O2 0.963268 0.817504 0.195466
O O3 0.867625 0.779631 0.251682
O O4 0.076138 0.023695 0.363483
O O5 0.775183 0.774502 0.963831
O O6 0.625983 0.684063 0.974029
O O7 0.292378 0.007783 0.186664
O O8 0.325443 0.035871 0.332458
O O9 0.263579 0.758769 0.246568
O O10 0.994090 0.988370 0.070142
O O11 0.626586 0.448316 0.377902
O O12 0.507213 0.276553 0.502967
O O13 0.447031 0.466881 0.557880
O O14 0.620733 0.790384 0.194563
#
# Coordination Sequence:
#
# PCOD9247717 Si02
#       7
#     4   4   4   4   4   4   4
#     4  11  22  40  66 103 142 168 223 293 339 411
#     4  10  22  39  66  98 131 182 214 276 351 398
#     4  11  23  43  63  92 132 180 223 278 324 405
#     4  10  24  43  63  89 137 179 218 270 340 396
#     4  10  23  39  66 100 128 172 225 281 340 395
#     4  11  23  38  68  99 128 174 226 282 341 392
#     4  11  23  42  64 102 135 175 221 279 345 401
#
# _framework density 23.018761999999999
#
# number of rings (size 3 to 8) (size 9 to 14) (size 15 to 20)
#    0.000    1.429    1.429    4.286    6.000    2.286 
#    0.000    2.143    0.000    0.000    0.000    0.000 
#    0.000    0.000    0.000    0.000    0.000    0.000 
#
# Total GULP energy -156095.707042 kJ/mol
# GULP energy per Si atom -5574.846680 kJ/mol
# Density = 2.296637 g / cm^3
# Si number density = 23.018762 Si / 1000 Ang^3
#
#
#
# Elastic Constant Matrix: (Units=GPa)
#
#
# Indices 1 2 3 4 5 6 
#
# 1 118.3323 43.9216 23.4806 0.0000 6.6426 0.0000
# 2 43.9216 114.4595 23.0406 0.0000 -13.3693 0.0000
# 3 23.4806 23.0406 24.1878 0.0000 -8.8504 0.0000
# 4 0.0000 0.0000 0.0000 31.3927 0.0000 10.2510
# 5 6.6426 -13.3693 -8.8504 0.0000 24.1725 0.0000
# 6 0.0000 0.0000 0.0000 10.2510 0.0000 29.6837
#
#
#
# Elastic Compliance Matrix: (Units=1/GPa)
#
#
# Indices 1 2 3 4 5 6 
#
# 1 0.012899 -0.003551 -0.012880 0.000000 -0.010224 0.000000
# 2 -0.003551 0.011925 -0.005937 0.000000 0.005398 0.000000
# 3 -0.012880 -0.005937 0.068815 0.000000 0.025451 0.000000
# 4 0.000000 0.000000 0.000000 0.035903 0.000000 -0.012399
# 5 -0.010224 0.005398 0.025451 0.000000 0.056483 0.000000
# 6 0.000000 0.000000 0.000000 -0.012399 0.000000 0.037970
#
#
# Mechanical properties :
#
#
# Convention : Reuss Voigt Hill
#
# Bulk Modulus (GPa) = 20.44909 48.65169 34.55039
# Shear Modulus (GPa) = 17.54192 28.15223 22.84708
#
# Velocity S-wave (km/s) = 2.76356 3.50095 3.15388
# Velocity P-wave (km/s) = 4.36875 6.12567 5.32023
#
# Compressibility (1/GPa) = 0.04890194
#
# Stress axis : x y z
#
# Youngs Moduli (GPa) = 77.52816 83.85773 14.53180
#
# Poissons Ratio (x) = 0.29779 0.18717
# Poissons Ratio (y) = 0.27531 0.08628
# Poissons Ratio (z) = 0.99855 0.49787
#
# Static dielectric constant tensor:
#      x y z
#    x 1.871140 0.000000 -0.003080 
#    y 0.000000 1.938850 0.000000 
#    z -0.003080 0.000000 1.898430 
# 
# From -- ./inp_files/68248.got.cif
#   From: 2010.05.17/outbox.cif.g08.bks.cpg/sg14_35_cif.got.tgz:68248.got - 2010.06.03 17:49:19.
