data_PCOD9247688
_publ_section_title
;
Structure prediction by ZEFSAII (Michael W. Deem and Ramdas Pophale) SiO2 
 PCOD9247688
Probable space group: P 21/C
;
_chemical_formula_sum "Si O2"
_cell_formula_units_Z 28
_cell_length_a 5.019963
_cell_length_b 18.372853
_cell_length_c 13.741775
_cell_angle_alpha 90.000000
_cell_angle_beta 88.039132
_cell_angle_gamma 90.000000
_cell_volume 1266.676068
_symmetry_space_group_name_H-M "P 21/C"
_symmetry_group_IT_number 14
_symmetry_cell_setting 'monoclinic'
loop_
_space_group_symop_operation_xyz
x,y,z
-x,1/2+y,1/2-z
-x,-y,-z
x,1/2-y,1/2+z
loop_
_atom_site_type_symbol
_atom_site_label
_atom_site_fract_x
_atom_site_fract_y
_atom_site_fract_z
Si Si1 0.247912 0.334406 0.888381
Si Si2 0.263989 0.893668 0.713494
Si Si3 0.153868 0.318181 0.295880
Si Si4 0.428908 0.825896 0.913983
Si Si5 0.060334 0.232642 0.579979
Si Si6 0.153174 0.575073 0.570674
Si Si7 0.359206 0.467266 0.335299
O O1 0.517241 0.378887 0.871473
O O2 0.273660 0.251464 0.848779
O O3 0.020517 0.370294 0.823781
O O4 0.156206 0.325600 0.000238
O O5 0.363845 0.844614 0.803186
O O6 0.270459 0.974067 0.758078
O O7 0.069963 0.295773 0.189488
O O8 0.352397 0.386572 0.289585
O O9 0.915792 0.352556 0.363367
O O10 0.732947 0.801639 0.926456
O O11 0.235317 0.758940 0.942023
O O12 0.318564 0.892941 0.978760
O O13 0.652587 0.478248 0.372569
O O14 0.860005 0.538919 0.574964
#
# Coordination Sequence:
#
# PCOD9247688 Si02
#       7
#     4   4   4   4   4   4   4
#     4  12  24  42  66  94 128 167 213 277 305 375
#     4  12  25  43  63  97 135 164 213 267 326 364
#     4  10  23  41  66  90 124 172 213 261 308 388
#     4  12  22  38  65 100 125 166 210 266 326 382
#     4  12  24  38  66  96 126 165 219 263 321 366
#     4  10  22  39  65  88 131 160 218 249 318 389
#     4  10  24  41  64  91 135 174 204 259 320 390
#
# _framework density 22.105097000000001
#
# number of rings (size 3 to 8) (size 9 to 14) (size 15 to 20)
#    0.857    0.000    4.286    3.429    4.000    1.143 
#    0.000    1.429    0.000    0.000    0.000    0.000 
#    0.000    0.000    0.000    0.000    0.000    0.000 
#
# Total GULP energy -156510.393695 kJ/mol
# GULP energy per Si atom -5589.656918 kJ/mol
# Density = 2.205478 g / cm^3
# Si number density = 22.105097 Si / 1000 Ang^3
#
#
#
# Elastic Constant Matrix: (Units=GPa)
#
#
# Indices 1 2 3 4 5 6 
#
# 1 69.2230 26.2625 -21.1662 0.0000 -2.2900 0.0000
# 2 26.2625 45.1629 -4.2530 0.0000 1.2843 0.0000
# 3 -21.1662 -4.2530 68.4555 0.0000 -0.3765 0.0000
# 4 0.0000 0.0000 0.0000 32.4511 0.0000 1.8944
# 5 -2.2900 1.2843 -0.3765 0.0000 20.4988 0.0000
# 6 0.0000 0.0000 0.0000 1.8944 0.0000 27.8268
#
#
#
# Elastic Compliance Matrix: (Units=1/GPa)
#
#
# Indices 1 2 3 4 5 6 
#
# 1 0.020685 -0.011581 0.005693 0.000000 0.003141 0.000000
# 2 -0.011581 0.028795 -0.001809 0.000000 -0.003131 0.000000
# 3 0.005693 -0.001809 0.016262 0.000000 0.001048 0.000000
# 4 0.000000 0.000000 0.000000 0.030939 0.000000 -0.002106
# 5 0.003141 -0.003131 0.001048 0.000000 0.049350 0.000000
# 6 0.000000 0.000000 0.000000 -0.002106 0.000000 0.036080
#
#
# Mechanical properties :
#
#
# Convention : Reuss Voigt Hill
#
# Bulk Modulus (GPa) = 19.86198 20.50310 20.18254
# Shear Modulus (GPa) = 23.33322 28.28856 25.81089
#
# Velocity S-wave (km/s) = 3.25246 3.58121 3.42079
# Velocity P-wave (km/s) = 4.80723 5.13766 4.97519
#
# Compressibility (1/GPa) = 0.05034745
#
# Stress axis : x y z
#
# Youngs Moduli (GPa) = 48.34493 34.72779 61.49396
#
# Poissons Ratio (x) = 0.40220 -0.35011
# Poissons Ratio (y) = 0.55990 0.11125
# Poissons Ratio (z) = -0.27525 0.06283
#
# Static dielectric constant tensor:
#      x y z
#    x 1.783430 0.000000 -0.014400 
#    y 0.000000 1.846520 0.000000 
#    z -0.014400 0.000000 1.827280 
# 
# From -- ./inp_files/21745.got.cif
#   From: 2010.05.17/outbox.cif.g08.bks.cpg/sg14_11_cif.got.tgz:21745.got - 2010.06.03 17:49:19.
