data_PCOD9247076
_publ_section_title
;
Structure prediction by ZEFSAII (Michael W. Deem and Ramdas Pophale) SiO2 
 PCOD9247076
Probable space group: P 21/C
;
_chemical_formula_sum "Si O2"
_cell_formula_units_Z 32
_cell_length_a 10.628666
_cell_length_b 13.717622
_cell_length_c 8.774028
_cell_angle_alpha 90.000000
_cell_angle_beta 90.934037
_cell_angle_gamma 90.000000
_cell_volume 1279.083499
_symmetry_space_group_name_H-M "P 21/C"
_symmetry_group_IT_number 14
_symmetry_cell_setting 'monoclinic'
loop_
_space_group_symop_operation_xyz
x,y,z
-x,1/2+y,1/2-z
-x,-y,-z
x,1/2-y,1/2+z
loop_
_atom_site_type_symbol
_atom_site_label
_atom_site_fract_x
_atom_site_fract_y
_atom_site_fract_z
Si Si1 0.816516 0.652818 0.106267
Si Si2 0.743967 0.119801 0.857652
Si Si3 0.659586 0.773391 0.884703
Si Si4 0.384771 0.767105 0.442116
Si Si5 0.297301 0.885480 0.702238
Si Si6 0.861409 0.073479 0.567846
Si Si7 0.263262 0.445292 0.422902
Si Si8 0.982368 0.833314 0.182914
O O1 0.712666 0.672306 0.236792
O O2 0.924724 0.727289 0.162027
O O3 0.754798 0.689579 0.946051
O O4 0.862083 0.541768 0.094691
O O5 0.635369 0.182133 0.928161
O O6 0.883414 0.160691 0.900068
O O7 0.744756 0.111610 0.674099
O O8 0.742515 0.013975 0.930253
O O9 0.661329 0.850744 0.024374
O O10 0.519916 0.735072 0.866017
O O11 0.388042 0.857172 0.565255
O O12 0.294637 0.704666 0.318890
O O13 0.168147 0.899755 0.604805
O O14 0.319269 0.985467 0.792888
O O15 0.023591 0.870335 0.351590
O O16 0.123349 0.407515 0.379969
#
# Coordination Sequence:
#
# PCOD9247076 Si02
#       8
#     4   4   4   4   4   4   4   4
#     4  11  24  45  75 105 145 191 246 288 372 427
#     4   9  20  42  70 101 139 181 232 291 356 426
#     4  11  24  46  71 103 144 196 235 306 351 435
#     4  11  24  47  70 101 145 185 245 298 366 421
#     4  11  25  44  71 102 139 190 239 300 358 437
#     4  10  23  45  68 106 146 182 240 298 355 436
#     4  10  21  43  71 103 141 183 244 284 370 428
#     4   9  22  42  70 105 147 185 230 302 361 431
#
# _framework density 25.017914000000001
#
# number of rings (size 3 to 8) (size 9 to 14) (size 15 to 20)
#    0.750    1.000    1.250    1.875    3.500    3.500 
#    9.000    2.500    0.000    0.000    0.000    0.000 
#    0.000    0.000    0.000    0.000    0.000    0.000 
#
# Total GULP energy -178547.412593 kJ/mol
# GULP energy per Si atom -5579.606644 kJ/mol
# Density = 2.496097 g / cm^3
# Si number density = 25.017914 Si / 1000 Ang^3
#
#
#
# Elastic Constant Matrix: (Units=GPa)
#
#
# Indices 1 2 3 4 5 6 
#
# 1 142.5595 95.3464 23.5131 0.0000 17.3638 0.0000
# 2 95.3464 195.2511 13.3269 0.0000 30.3815 0.0000
# 3 23.5131 13.3269 105.6747 0.0000 15.6818 0.0000
# 4 0.0000 0.0000 0.0000 59.9432 0.0000 9.3762
# 5 17.3638 30.3815 15.6818 0.0000 50.1279 0.0000
# 6 0.0000 0.0000 0.0000 9.3762 0.0000 20.7798
#
#
#
# Elastic Compliance Matrix: (Units=1/GPa)
#
#
# Indices 1 2 3 4 5 6 
#
# 1 0.010725 -0.005107 -0.001731 0.000000 -0.000078 0.000000
# 2 -0.005107 0.008091 0.000609 0.000000 -0.003326 0.000000
# 3 -0.001731 0.000609 0.010211 0.000000 -0.002964 0.000000
# 4 0.000000 0.000000 0.000000 0.017949 0.000000 -0.008099
# 5 -0.000078 -0.003326 -0.002964 0.000000 0.022919 0.000000
# 6 0.000000 0.000000 0.000000 -0.008099 0.000000 0.051778
#
#
# Mechanical properties :
#
#
# Convention : Reuss Voigt Hill
#
# Bulk Modulus (GPa) = 60.34617 78.65091 69.49854
# Shear Modulus (GPa) = 35.80252 46.92345 41.36298
#
# Velocity S-wave (km/s) = 3.78706 4.33551 4.07053
# Velocity P-wave (km/s) = 6.57997 7.52119 7.06627
#
# Compressibility (1/GPa) = 0.01657106
#
# Stress axis : x y z
#
# Youngs Moduli (GPa) = 93.23677 123.58720 97.93238
#
# Poissons Ratio (x) = 0.63118 0.16950
# Poissons Ratio (y) = 0.47618 -0.05968
# Poissons Ratio (z) = 0.16137 -0.07532
#
# Static dielectric constant tensor:
#      x y z
#    x 1.142370 0.000000 -0.258340 
#    y 0.000000 1.765400 0.000000 
#    z -0.258340 0.000000 1.978430 
# 
# From -- ./inp_files/13277.got.cif
#   From: 2010.05.17/outbox.cif.g08.bks.cpg/sg14_7_cif.got.tgz:13277.got - 2010.06.03 17:49:19.
