data_PCOD9247637
_publ_section_title
;
Structure prediction by ZEFSAII (Michael W. Deem and Ramdas Pophale) SiO2 
 PCOD9247637
Probable space group: P 21/C
;
_chemical_formula_sum "Si O2"
_cell_formula_units_Z 24
_cell_length_a 10.671532
_cell_length_b 17.956164
_cell_length_c 16.229642
_cell_angle_alpha 90.000000
_cell_angle_beta 159.186911
_cell_angle_gamma 90.000000
_cell_volume 1105.018507
_symmetry_space_group_name_H-M "P 21/C"
_symmetry_group_IT_number 14
_symmetry_cell_setting 'monoclinic'
loop_
_space_group_symop_operation_xyz
x,y,z
-x,1/2+y,1/2-z
-x,-y,-z
x,1/2-y,1/2+z
loop_
_atom_site_type_symbol
_atom_site_label
_atom_site_fract_x
_atom_site_fract_y
_atom_site_fract_z
Si Si1 0.287726 0.706509 0.639586
Si Si2 0.468085 0.143080 0.268247
Si Si3 0.416529 0.017268 0.353722
Si Si4 0.180579 0.374590 0.937925
Si Si5 0.771930 0.087356 0.026079
Si Si6 0.306239 0.956466 0.737729
O O1 0.275655 0.789257 0.596732
O O2 0.401102 0.651570 0.634503
O O3 0.910283 0.679410 0.441878
O O4 0.596533 0.696642 0.897096
O O5 0.592015 0.089438 0.419226
O O6 0.462563 0.089935 0.185295
O O7 0.012180 0.041197 0.108961
O O8 0.500000 0.000000 0.500000
O O9 0.541102 0.943230 0.385278
O O10 0.017169 0.375115 0.746190
O O11 0.868406 0.398636 0.806953
O O12 0.524835 0.024098 0.912456
O O13 0.000000 0.000000 0.500000
#
# Coordination Sequence:
#
# PCOD9247637 Si02
#       6
#     4   4   4   4   4   4
#     4  11  23  41  63  87 131 164 210 266 333 397
#     4  11  23  40  65  94 125 177 213 268 338 386
#     4   9  19  38  63  91 122 164 222 265 319 378
#     4  11  21  39  63  92 128 165 215 267 318 387
#     4  10  22  39  62  92 125 169 215 263 321 383
#     4  12  21  37  65  94 127 171 218 268 314 380
#
# _framework density 21.719094999999999
#
# number of rings (size 3 to 8) (size 9 to 14) (size 15 to 20)
#    0.000    1.333    3.333    2.500    0.000    2.667 
#    0.000   13.333    0.000    0.000    0.000    0.000 
#    0.000    0.000    0.000    0.000    0.000    0.000 
#
# Total GULP energy -133929.574940 kJ/mol
# GULP energy per Si atom -5580.398956 kJ/mol
# Density = 2.166966 g / cm^3
# Si number density = 21.719095 Si / 1000 Ang^3
#
#
#
# Elastic Constant Matrix: (Units=GPa)
#
#
# Indices 1 2 3 4 5 6 
#
# 1 92.2459 26.1049 10.1523 0.0000 -1.3947 0.0000
# 2 26.1049 83.9567 4.2148 0.0000 -5.8797 0.0000
# 3 10.1523 4.2148 43.5582 0.0000 -12.9896 0.0000
# 4 0.0000 0.0000 0.0000 26.8117 0.0000 8.8321
# 5 -1.3947 -5.8797 -12.9896 0.0000 25.1268 0.0000
# 6 0.0000 0.0000 0.0000 8.8321 0.0000 40.2604
#
#
#
# Elastic Compliance Matrix: (Units=1/GPa)
#
#
# Indices 1 2 3 4 5 6 
#
# 1 0.012211 -0.003769 -0.003006 0.000000 -0.001758 0.000000
# 2 -0.003769 0.013278 0.000541 0.000000 0.003178 0.000000
# 3 -0.003006 0.000541 0.027894 0.000000 0.014380 0.000000
# 4 0.000000 0.000000 0.000000 0.040202 0.000000 -0.008819
# 5 -0.001758 0.003178 0.014380 0.000000 0.047878 0.000000
# 6 0.000000 0.000000 0.000000 -0.008819 0.000000 0.026773
#
#
# Mechanical properties :
#
#
# Convention : Reuss Voigt Hill
#
# Bulk Modulus (GPa) = 24.43981 33.41164 28.92573
# Shear Modulus (GPa) = 25.72761 30.39237 28.05999
#
# Velocity S-wave (km/s) = 3.44548 3.74483 3.59827
# Velocity P-wave (km/s) = 5.20630 5.84083 5.53267
#
# Compressibility (1/GPa) = 0.04091684
#
# Stress axis : x y z
#
# Youngs Moduli (GPa) = 81.89037 75.31130 35.84956
#
# Poissons Ratio (x) = 0.28386 0.10775
# Poissons Ratio (y) = 0.30866 -0.01941
# Poissons Ratio (z) = 0.24614 -0.04077
#
# Static dielectric constant tensor:
#      x y z
#    x 1.821810 0.000000 0.026870 
#    y 0.000000 1.838020 0.000000 
#    z 0.026870 0.000000 1.826450 
# 
# From -- ./inp_files/58093.got.cif
#   From: 2010.05.17/outbox.cif.g08.bks.cpg/sg14_30_cif.got.tgz:58093.got - 2010.06.03 17:49:19.
