data_PCOD9247369
_publ_section_title
;
Structure prediction by ZEFSAII (Michael W. Deem and Ramdas Pophale) SiO2 
 PCOD9247369
Probable space group: P 21/C
;
_chemical_formula_sum "Si O2"
_cell_formula_units_Z 24
_cell_length_a 10.177788
_cell_length_b 9.537019
_cell_length_c 12.053135
_cell_angle_alpha 90.000000
_cell_angle_beta 117.621407
_cell_angle_gamma 90.000000
_cell_volume 1036.608347
_symmetry_space_group_name_H-M "P 21/C"
_symmetry_group_IT_number 14
_symmetry_cell_setting 'monoclinic'
loop_
_space_group_symop_operation_xyz
x,y,z
-x,1/2+y,1/2-z
-x,-y,-z
x,1/2-y,1/2+z
loop_
_atom_site_type_symbol
_atom_site_label
_atom_site_fract_x
_atom_site_fract_y
_atom_site_fract_z
Si Si1 0.084174 0.690696 0.077794
Si Si2 0.482364 0.765159 0.984660
Si Si3 0.194942 0.300899 0.424243
Si Si4 0.406208 0.501919 0.614103
Si Si5 0.732164 0.070762 0.725229
Si Si6 0.010685 0.564732 0.826139
O O1 0.189650 0.811471 0.164808
O O2 0.911981 0.737387 0.025162
O O3 0.089600 0.554466 0.158114
O O4 0.100451 0.642596 0.958405
O O5 0.370684 0.646920 0.904670
O O6 0.476148 0.890070 0.888613
O O7 0.653972 0.718878 0.043275
O O8 0.451846 0.845601 0.087629
O O9 0.256952 0.450258 0.492842
O O10 0.093235 0.328343 0.279241
O O11 0.372419 0.488512 0.730285
O O12 0.871286 0.003893 0.715837
#
# Coordination Sequence:
#
# PCOD9247369 Si02
#       6
#     4   4   4   4   4   4
#     4  10  22  37  58  88 117 153 192 244 292 337
#     4   9  20  40  58  88 111 155 191 237 294 340
#     4   9  20  39  60  84 113 155 197 232 291 348
#     4   9  20  37  59  85 114 153 193 232 293 342
#     4  11  21  38  61  87 116 154 194 241 293 348
#     4  10  22  38  57  85 121 151 194 242 288 345
#
# _framework density 23.152428
#
# number of rings (size 3 to 8) (size 9 to 14) (size 15 to 20)
#    1.000    1.333    0.000    2.000    0.000    8.000 
#    6.000    0.833    0.000    0.000    0.000    0.000 
#    0.000    0.000    0.000    0.000    0.000    0.000 
#
# Total GULP energy -133959.795586 kJ/mol
# GULP energy per Si atom -5581.658149 kJ/mol
# Density = 2.309973 g / cm^3
# Si number density = 23.152428 Si / 1000 Ang^3
#
#
#
# Elastic Constant Matrix: (Units=GPa)
#
#
# Indices 1 2 3 4 5 6 
#
# 1 103.0169 2.5201 25.1628 0.0000 -12.6464 0.0000
# 2 2.5201 33.1830 7.1824 0.0000 6.4920 0.0000
# 3 25.1628 7.1824 33.9338 0.0000 -13.9658 0.0000
# 4 0.0000 0.0000 0.0000 12.6559 0.0000 14.3742
# 5 -12.6464 6.4920 -13.9658 0.0000 31.6772 0.0000
# 6 0.0000 0.0000 0.0000 14.3742 0.0000 23.1300
#
#
#
# Elastic Compliance Matrix: (Units=1/GPa)
#
#
# Indices 1 2 3 4 5 6 
#
# 1 0.011902 0.000831 -0.008694 0.000000 0.000748 0.000000
# 2 0.000831 0.035494 -0.013422 0.000000 -0.012860 0.000000
# 3 -0.008694 -0.013422 0.046986 0.000000 0.019995 0.000000
# 4 0.000000 0.000000 0.000000 0.268597 0.000000 -0.166920
# 5 0.000748 -0.012860 0.019995 0.000000 0.043318 0.000000
# 6 0.000000 0.000000 0.000000 -0.166920 0.000000 0.146966
#
#
# Mechanical properties :
#
#
# Convention : Reuss Voigt Hill
#
# Bulk Modulus (GPa) = 19.29990 26.65160 22.97575
# Shear Modulus (GPa) = 8.15525 22.51051 15.33288
#
# Velocity S-wave (km/s) = 1.87885 3.12151 2.57623
# Velocity P-wave (km/s) = 3.61398 4.95259 4.33526
#
# Compressibility (1/GPa) = 0.05181375
#
# Stress axis : x y z
#
# Youngs Moduli (GPa) = 84.01806 28.17401 21.28312
#
# Poissons Ratio (x) = -0.02342 0.18503
# Poissons Ratio (y) = -0.06985 0.28565
# Poissons Ratio (z) = 0.73043 0.37814
#
# Static dielectric constant tensor:
#      x y z
#    x 1.856740 0.000000 -0.040990 
#    y 0.000000 1.940410 0.000000 
#    z -0.040990 0.000000 1.851920 
# 
# From -- ./inp_files/28721.got.cif
#   From: 2010.05.17/outbox.cif.g08.bks.cpg/sg14_15_cif.got.tgz:28721.got - 2010.06.03 17:49:19.
