data_PCOD9247910
_publ_section_title
;
Structure prediction by ZEFSAII (Michael W. Deem and Ramdas Pophale) SiO2 
 PCOD9247910
Probable space group: P 21/C
;
_chemical_formula_sum "Si O2"
_cell_formula_units_Z 30
_cell_length_a 14.266953
_cell_length_b 9.500963
_cell_length_c 12.776703
_cell_angle_alpha 90.000000
_cell_angle_beta 132.062574
_cell_angle_gamma 90.000000
_cell_volume 1285.770868
_symmetry_space_group_name_H-M "P 21/C"
_symmetry_group_IT_number 14
_symmetry_cell_setting 'monoclinic'
loop_
_space_group_symop_operation_xyz
x,y,z
-x,1/2+y,1/2-z
-x,-y,-z
x,1/2-y,1/2+z
loop_
_atom_site_type_symbol
_atom_site_label
_atom_site_fract_x
_atom_site_fract_y
_atom_site_fract_z
Si Si1 0.709289 0.438078 0.899816
Si Si2 0.000000 0.000000 0.500000
Si Si3 0.741760 0.684669 0.090350
Si Si4 0.457894 0.070820 0.076873
Si Si5 0.122270 0.978024 0.163124
Si Si6 0.050615 0.084033 0.784601
Si Si7 0.838682 0.308555 0.827582
Si Si8 0.248910 0.639693 0.463410
O O1 0.580361 0.414754 0.740675
O O2 0.817199 0.446502 0.888742
O O3 0.712178 0.566357 0.981052
O O4 0.737812 0.290827 0.976427
O O5 0.028926 0.058921 0.646138
O O6 0.987251 0.166974 0.442459
O O7 0.789945 0.605390 0.232116
O O8 0.856570 0.783705 0.139284
O O9 0.620975 0.787814 0.008389
O O10 0.500000 0.000000 0.000000
O O11 0.364162 0.965430 0.068052
O O12 0.196472 0.848077 0.165111
O O13 0.072739 0.908089 0.235750
O O14 0.000000 0.000000 0.000000
O O15 0.120771 0.946558 0.884519
O O16 0.757041 0.339291 0.666285
#
# Coordination Sequence:
#
# PCOD9247910 Si02
#       8
#     4   2   4   4   4   4   4   4
#     4  12  23  44  75  96 142 187 240 308 364 429
#     4  10  22  40  66  92 136 198 240 276 370 434
#     4  11  26  44  70 110 138 189 254 299 367 454
#     4  11  24  47  71 101 136 183 242 306 370 434
#     4  12  25  41  65 103 153 183 237 300 365 441
#     4  10  24  42  69 100 147 188 244 292 365 441
#     4  11  23  38  65  98 135 187 234 285 362 428
#     4  10  22  44  65  97 137 182 233 288 359 436
#
# _framework density 23.332305000000002
#
# number of rings (size 3 to 8) (size 9 to 14) (size 15 to 20)
#    0.000    1.067    2.667    3.200    5.600    1.067 
#    0.000    4.000    0.000    0.000    0.000    0.000 
#    0.000    0.000    0.000    0.000    0.000    0.000 
#
# Total GULP energy -167175.466544 kJ/mol
# GULP energy per Si atom -5572.515551 kJ/mol
# Density = 2.327920 g / cm^3
# Si number density = 23.332305 Si / 1000 Ang^3
#
#
#
# Elastic Constant Matrix: (Units=GPa)
#
#
# Indices 1 2 3 4 5 6 
#
# 1 73.7002 37.3395 49.6498 0.0000 -9.9457 0.0000
# 2 37.3395 161.9453 78.9331 0.0000 -4.9025 0.0000
# 3 49.6498 78.9331 188.9021 0.0000 -0.0982 0.0000
# 4 0.0000 0.0000 0.0000 46.1598 0.0000 -2.7088
# 5 -9.9457 -4.9025 -0.0982 0.0000 31.7763 0.0000
# 6 0.0000 0.0000 0.0000 -2.7088 0.0000 33.9612
#
#
#
# Elastic Compliance Matrix: (Units=1/GPa)
#
#
# Indices 1 2 3 4 5 6 
#
# 1 0.017927 -0.002108 -0.003828 0.000000 0.005274 0.000000
# 2 -0.002108 0.008047 -0.002808 0.000000 0.000573 0.000000
# 3 -0.003828 -0.002808 0.007473 0.000000 -0.001608 0.000000
# 4 0.000000 0.000000 0.000000 0.021766 0.000000 0.001736
# 5 0.005274 0.000573 -0.001608 0.000000 0.033204 0.000000
# 6 0.000000 0.000000 0.000000 0.001736 0.000000 0.029584
#
#
# Mechanical properties :
#
#
# Convention : Reuss Voigt Hill
#
# Bulk Modulus (GPa) = 62.66444 84.04359 73.35402
# Shear Modulus (GPa) = 35.50926 39.62115 37.56520
#
# Velocity S-wave (km/s) = 3.90538 4.12530 4.01684
# Velocity P-wave (km/s) = 6.87398 7.66742 7.28151
#
# Compressibility (1/GPa) = 0.01595801
#
# Stress axis : x y z
#
# Youngs Moduli (GPa) = 55.78131 124.27037 133.82368
#
# Poissons Ratio (x) = 0.26194 0.51233
# Poissons Ratio (y) = 0.11758 0.37580
# Poissons Ratio (z) = 0.21355 0.34897
#
# Static dielectric constant tensor:
#      x y z
#    x -31.705550 0.000000 -37.132350 
#    y 0.000000 2.123320 0.000000 
#    z -37.132350 0.000000 -38.724460 
# 
# From -- ./inp_files/48626.got.cif
#   From: 2010.05.17/outbox.cif.g08.bks.cpg/sg14_25_cif.got.tgz:48626.got - 2010.06.03 17:49:19.
