data_PCOD9247640
_publ_section_title
;
Structure prediction by ZEFSAII (Michael W. Deem and Ramdas Pophale) SiO2 
 PCOD9247640
Probable space group: P 21/C
;
_chemical_formula_sum "Si O2"
_cell_formula_units_Z 32
_cell_length_a 11.978538
_cell_length_b 8.450888
_cell_length_c 17.997971
_cell_angle_alpha 90.000000
_cell_angle_beta 41.748492
_cell_angle_gamma 90.000000
_cell_volume 1213.148482
_symmetry_space_group_name_H-M "P 21/C"
_symmetry_group_IT_number 14
_symmetry_cell_setting 'monoclinic'
loop_
_space_group_symop_operation_xyz
x,y,z
-x,1/2+y,1/2-z
-x,-y,-z
x,1/2-y,1/2+z
loop_
_atom_site_type_symbol
_atom_site_label
_atom_site_fract_x
_atom_site_fract_y
_atom_site_fract_z
Si Si1 0.450830 0.819367 0.938937
Si Si2 0.918205 0.578194 0.185151
Si Si3 0.869562 0.674176 0.996068
Si Si4 0.804085 0.151703 0.159157
Si Si5 0.591562 0.372274 0.319068
Si Si6 0.197469 0.621163 0.160768
Si Si7 0.300096 0.190980 0.791730
Si Si8 0.656569 0.706497 0.964738
O O1 0.528343 0.701024 0.839587
O O2 0.597047 0.823500 0.929738
O O3 0.455167 0.989152 0.896271
O O4 0.289732 0.756131 0.063547
O O5 0.761962 0.456663 0.263863
O O6 0.844303 0.742037 0.191908
O O7 0.050338 0.496163 0.062417
O O8 0.015977 0.597846 0.213085
O O9 0.805745 0.735739 0.947996
O O10 0.016115 0.785903 0.954533
O O11 0.719609 0.687835 0.129546
O O12 0.667449 0.288024 0.209419
O O13 0.821153 0.138463 0.241450
O O14 0.741805 0.984356 0.162417
O O15 0.507000 0.223780 0.402652
O O16 0.304867 0.462972 0.089850
#
# Coordination Sequence:
#
# PCOD9247640 Si02
#       8
#     4   4   4   4   4   4   4   4
#     4  11  22  39  65  95 126 170 218 274 335 391
#     4   9  23  41  66  95 129 175 217 277 332 393
#     4  10  24  41  62  92 132 176 219 270 332 400
#     4  11  22  38  63  91 132 168 226 273 332 383
#     4  10  22  39  62  95 131 166 217 277 333 390
#     4  11  22  39  66 101 128 169 221 281 330 394
#     4  11  22  42  64  92 131 176 220 270 334 399
#     4  11  21  40  61  94 127 169 218 274 328 393
#
# _framework density 26.377642999999999
#
# number of rings (size 3 to 8) (size 9 to 14) (size 15 to 20)
#    0.000    1.500    2.500    2.250    3.500    2.000 
#    0.000   10.000    0.000    0.000    0.000    0.000 
#    0.000    0.000    0.000    0.000    0.000    0.000 
#
# Total GULP energy -178667.242264 kJ/mol
# GULP energy per Si atom -5583.351321 kJ/mol
# Density = 2.631761 g / cm^3
# Si number density = 26.377643 Si / 1000 Ang^3
#
#
#
# Elastic Constant Matrix: (Units=GPa)
#
#
# Indices 1 2 3 4 5 6 
#
# 1 92.1730 -0.4614 15.3358 0.0000 7.3672 0.0000
# 2 -0.4614 94.4491 -0.8069 0.0000 -9.8656 0.0000
# 3 15.3358 -0.8069 104.0431 0.0000 -0.9506 0.0000
# 4 0.0000 0.0000 0.0000 45.5220 0.0000 -4.7187
# 5 7.3672 -9.8656 -0.9506 0.0000 25.2342 0.0000
# 6 0.0000 0.0000 0.0000 -4.7187 0.0000 10.7427
#
#
#
# Elastic Compliance Matrix: (Units=1/GPa)
#
#
# Indices 1 2 3 4 5 6 
#
# 1 0.011415 -0.000327 -0.001717 0.000000 -0.003525 0.000000
# 2 -0.000327 0.011049 0.000174 0.000000 0.004422 0.000000
# 3 -0.001717 0.000174 0.009874 0.000000 0.000942 0.000000
# 4 0.000000 0.000000 0.000000 0.023015 0.000000 0.010109
# 5 -0.003525 0.004422 0.000942 0.000000 0.042422 0.000000
# 6 0.000000 0.000000 0.000000 0.010109 0.000000 0.097527
#
#
# Mechanical properties :
#
#
# Convention : Reuss Voigt Hill
#
# Bulk Modulus (GPa) = 34.96657 35.42226 35.19441
# Shear Modulus (GPa) = 23.97199 34.73962 29.35581
#
# Velocity S-wave (km/s) = 3.01790 3.63300 3.33964
# Velocity P-wave (km/s) = 5.04267 5.57282 5.31436
#
# Compressibility (1/GPa) = 0.02859875
#
# Stress axis : x y z
#
# Youngs Moduli (GPa) = 87.60394 90.50187 101.27117
#
# Poissons Ratio (x) = 0.02961 0.17391
# Poissons Ratio (y) = 0.02866 -0.01765
# Poissons Ratio (z) = 0.15044 -0.01578
#
# Static dielectric constant tensor:
#      x y z
#    x 2.157620 0.000000 0.015390 
#    y 0.000000 2.070620 0.000000 
#    z 0.015390 0.000000 2.107810 
# 
# From -- ./inp_files/68192.got.cif
#   From: 2010.05.17/outbox.cif.g08.bks.cpg/sg14_35_cif.got.tgz:68192.got - 2010.06.03 17:49:19.
