data_PCOD9247518
_publ_section_title
;
Structure prediction by ZEFSAII (Michael W. Deem and Ramdas Pophale) SiO2 
 PCOD9247518
Probable space group: P 21/C
;
_chemical_formula_sum "Si O2"
_cell_formula_units_Z 32
_cell_length_a 13.750771
_cell_length_b 8.702875
_cell_length_c 12.990638
_cell_angle_alpha 90.000000
_cell_angle_beta 118.187627
_cell_angle_gamma 90.000000
_cell_volume 1370.238045
_symmetry_space_group_name_H-M "P 21/C"
_symmetry_group_IT_number 14
_symmetry_cell_setting 'monoclinic'
loop_
_space_group_symop_operation_xyz
x,y,z
-x,1/2+y,1/2-z
-x,-y,-z
x,1/2-y,1/2+z
loop_
_atom_site_type_symbol
_atom_site_label
_atom_site_fract_x
_atom_site_fract_y
_atom_site_fract_z
Si Si1 0.236226 0.641728 0.118113
Si Si2 0.845220 0.011265 0.217013
Si Si3 0.337366 0.187425 0.668683
Si Si4 0.421149 0.898535 0.210575
Si Si5 0.361389 0.381388 0.860966
Si Si6 0.845220 0.488735 0.128208
Si Si7 0.638611 0.881388 0.999577
Si Si8 0.998418 0.250000 0.249209
O O1 0.166330 0.611638 0.185777
O O2 0.315051 0.491290 0.157525
O O3 0.311442 0.793404 0.155721
O O4 0.166330 0.611639 0.980554
O O5 0.913444 0.116838 0.171044
O O6 0.725181 0.972793 0.112404
O O7 0.917001 0.857653 0.272372
O O8 0.469724 0.203382 0.734862
O O9 0.294650 0.276558 0.746203
O O10 0.294650 0.276558 0.548448
O O11 0.423476 0.000671 0.316562
O O12 0.423476 0.000671 0.106915
O O13 0.274819 0.472793 0.887223
O O14 0.421404 0.250000 0.960702
O O15 0.913444 0.383162 0.242399
O O16 0.917001 0.642347 0.144628
#
# Coordination Sequence:
#
# PCOD9247518 Si02
#       8
#     4   4   4   4   4   4   4   4
#     4  12  22  43  66  98 144 173 225 280 340 385
#     4  11  22  42  66  98 134 180 217 281 334 401
#     4  11  23  45  65  96 138 173 231 279 327 402
#     4  11  27  41  65 104 133 171 236 279 322 409
#     4  11  22  45  67  91 134 184 212 273 346 395
#     4  11  22  42  66  98 134 180 217 281 334 401
#     4  11  22  45  67  91 134 184 212 273 346 395
#     4  10  22  38  64  96 132 166 240 262 322 410
#
# _framework density 23.353605999999999
#
# number of rings (size 3 to 8) (size 9 to 14) (size 15 to 20)
#    0.000    1.000    3.750    3.000    0.000    3.000 
#    4.500    5.000    0.000   12.000    0.000    0.000 
#    0.000    0.000    0.000    0.000    0.000    0.000 
#
# Total GULP energy -178206.867474 kJ/mol
# GULP energy per Si atom -5568.964609 kJ/mol
# Density = 2.330045 g / cm^3
# Si number density = 23.353606 Si / 1000 Ang^3
#
#
#
# Elastic Constant Matrix: (Units=GPa)
#
#
# Indices 1 2 3 4 5 6 
#
# 1 59.0449 27.4232 15.8791 0.0000 5.5768 0.0000
# 2 27.4232 118.4815 33.9643 0.0000 -3.1517 0.0000
# 3 15.8791 33.9643 83.7385 0.0000 -17.4749 0.0000
# 4 0.0000 0.0000 0.0000 29.3411 0.0000 9.4854
# 5 5.5768 -3.1517 -17.4749 0.0000 26.9021 0.0000
# 6 0.0000 0.0000 0.0000 9.4854 0.0000 49.0277
#
#
#
# Elastic Compliance Matrix: (Units=1/GPa)
#
#
# Indices 1 2 3 4 5 6 
#
# 1 0.020413 -0.003822 -0.003814 0.000000 -0.007157 0.000000
# 2 -0.003822 0.010327 -0.003524 0.000000 -0.000287 0.000000
# 3 -0.003814 -0.003524 0.016396 0.000000 0.011028 0.000000
# 4 0.000000 0.000000 0.000000 0.036356 0.000000 -0.007034
# 5 -0.007157 -0.000287 0.011028 0.000000 0.045786 0.000000
# 6 0.000000 0.000000 0.000000 -0.007034 0.000000 0.021757
#
#
# Mechanical properties :
#
#
# Convention : Reuss Voigt Hill
#
# Bulk Modulus (GPa) = 40.29600 46.19979 43.24789
# Shear Modulus (GPa) = 27.52896 33.32075 30.42486
#
# Velocity S-wave (km/s) = 3.43707 3.78139 3.61333
# Velocity P-wave (km/s) = 5.74835 6.23625 5.99726
#
# Compressibility (1/GPa) = 0.02481636
#
# Stress axis : x y z
#
# Youngs Moduli (GPa) = 48.98834 96.83150 60.99064
#
# Poissons Ratio (x) = 0.37006 0.23264
# Poissons Ratio (y) = 0.18722 0.21493
# Poissons Ratio (z) = 0.18686 0.34123
#
# Static dielectric constant tensor:
#      x y z
#    x 1.892210 0.000000 -0.023830 
#    y 0.000000 1.941380 0.000000 
#    z -0.023830 0.000000 1.941670 
# 
# From -- ./inp_files/31851.got.cif
#   From: 2010.05.17/outbox.cif.g08.bks.cpg/sg14_16_cif.got.tgz:31851.got - 2010.06.03 17:49:19.
