data_PCOD9247128
_publ_section_title
;
Structure prediction by ZEFSAII (Michael W. Deem and Ramdas Pophale) SiO2 
 PCOD9247128
Probable space group: P 21/C
;
_chemical_formula_sum "Si O2"
_cell_formula_units_Z 28
_cell_length_a 5.429382
_cell_length_b 24.754410
_cell_length_c 9.688816
_cell_angle_alpha 90.000000
_cell_angle_beta 70.865976
_cell_angle_gamma 90.000000
_cell_volume 1230.247880
_symmetry_space_group_name_H-M "P 21/C"
_symmetry_group_IT_number 14
_symmetry_cell_setting 'monoclinic'
loop_
_space_group_symop_operation_xyz
x,y,z
-x,1/2+y,1/2-z
-x,-y,-z
x,1/2-y,1/2+z
loop_
_atom_site_type_symbol
_atom_site_label
_atom_site_fract_x
_atom_site_fract_y
_atom_site_fract_z
Si Si1 0.906249 0.395422 0.279408
Si Si2 0.857839 0.445863 0.577341
Si Si3 0.366353 0.859345 0.421124
Si Si4 0.854483 0.812313 0.649698
Si Si5 0.207847 0.285167 0.147374
Si Si6 0.295203 0.047755 0.530094
Si Si7 0.268068 0.076148 0.243126
O O1 0.037660 0.337200 0.224994
O O2 0.857093 0.404891 0.447510
O O3 0.088961 0.444013 0.189829
O O4 0.671633 0.393090 0.212715
O O5 0.549164 0.452143 0.666238
O O6 0.000000 0.500000 0.500000
O O7 0.045491 0.427251 0.667770
O O8 0.504721 0.803153 0.357650
O O9 0.541875 0.896514 0.485989
O O10 0.110861 0.844161 0.552171
O O11 0.773126 0.783089 0.522066
O O12 0.890623 0.768064 0.760782
O O13 0.675402 0.860275 0.741041
O O14 0.163282 0.049937 0.404713
O O15 0.500000 0.000000 0.500000
#
# Coordination Sequence:
#
# PCOD9247128 Si02
#       7
#     4   4   4   4   4   4   4
#     4  10  24  44  66  98 137 187 238 294 347 440
#     4  12  29  46  71 105 149 190 239 296 369 426
#     4  10  21  44  66  96 143 170 251 287 348 432
#     4  11  24  43  67 103 133 187 232 299 354 428
#     4  10  24  42  68  97 137 181 241 286 364 424
#     4  11  23  42  74  99 135 190 235 299 361 427
#     4  12  26  47  71 106 146 183 243 303 352 435
#
# _framework density 22.759640000000001
#
# number of rings (size 3 to 8) (size 9 to 14) (size 15 to 20)
#    0.000    1.143    4.286    2.143    8.000    4.000 
#    0.000    0.000    0.000    0.000    0.000    0.000 
#    0.000    0.000    0.000    0.000    0.000    0.000 
#
# Total GULP energy -156380.239849 kJ/mol
# GULP energy per Si atom -5585.008566 kJ/mol
# Density = 2.270784 g / cm^3
# Si number density = 22.759640 Si / 1000 Ang^3
#
#
#
# Elastic Constant Matrix: (Units=GPa)
#
#
# Indices 1 2 3 4 5 6 
#
# 1 70.7864 -15.6935 29.7469 0.0000 15.6941 0.0000
# 2 -15.6935 67.0019 21.4468 0.0000 13.2668 0.0000
# 3 29.7469 21.4468 117.0947 0.0000 25.9646 0.0000
# 4 0.0000 0.0000 0.0000 42.6812 0.0000 3.2224
# 5 15.6941 13.2668 25.9646 0.0000 39.1799 0.0000
# 6 0.0000 0.0000 0.0000 3.2224 0.0000 23.1355
#
#
#
# Elastic Compliance Matrix: (Units=1/GPa)
#
#
# Indices 1 2 3 4 5 6 
#
# 1 0.019336 0.007447 -0.004689 0.000000 -0.007160 0.000000
# 2 0.007447 0.019287 -0.003886 0.000000 -0.006939 0.000000
# 3 -0.004689 -0.003886 0.011412 0.000000 -0.004369 0.000000
# 4 0.000000 0.000000 0.000000 0.023679 0.000000 -0.003298
# 5 -0.007160 -0.006939 -0.004369 0.000000 0.033636 0.000000
# 6 0.000000 0.000000 0.000000 -0.003298 0.000000 0.043683
#
#
# Mechanical properties :
#
#
# Convention : Reuss Voigt Hill
#
# Bulk Modulus (GPa) = 20.92904 36.20926 28.56915
# Shear Modulus (GPa) = 29.54859 35.62484 32.58671
#
# Velocity S-wave (km/s) = 3.60709 3.96063 3.78799
# Velocity P-wave (km/s) = 5.15400 6.07120 5.63130
#
# Compressibility (1/GPa) = 0.04778050
#
# Stress axis : x y z
#
# Youngs Moduli (GPa) = 51.71747 51.84813 87.63007
#
# Poissons Ratio (x) = -0.38613 0.41085
# Poissons Ratio (y) = -0.38516 0.34052
# Poissons Ratio (z) = 0.24248 0.20148
#
# Static dielectric constant tensor:
#      x y z
#    x 1.965670 0.000000 0.005120 
#    y 0.000000 1.868560 0.000000 
#    z 0.005120 0.000000 1.856870 
# 
# From -- ./inp_files/6511.got.cif
#   From: 2010.05.17/outbox.cif.g08.bks.cpg/sg14_4_cif.got.tgz:6511.got - 2010.06.03 17:49:19.
