data_PCOD9247852
_publ_section_title
;
Structure prediction by ZEFSAII (Michael W. Deem and Ramdas Pophale) SiO2 
 PCOD9247852
Probable space group: P 21/C
;
_chemical_formula_sum "Si O2"
_cell_formula_units_Z 22
_cell_length_a 17.191086
_cell_length_b 8.473639
_cell_length_c 8.402308
_cell_angle_alpha 90.000000
_cell_angle_beta 138.078984
_cell_angle_gamma 90.000000
_cell_volume 817.743178
_symmetry_space_group_name_H-M "P 21/C"
_symmetry_group_IT_number 14
_symmetry_cell_setting 'monoclinic'
loop_
_space_group_symop_operation_xyz
x,y,z
-x,1/2+y,1/2-z
-x,-y,-z
x,1/2-y,1/2+z
loop_
_atom_site_type_symbol
_atom_site_label
_atom_site_fract_x
_atom_site_fract_y
_atom_site_fract_z
Si Si1 0.000000 0.500000 0.500000
Si Si2 0.932445 0.151609 0.225759
Si Si3 0.620784 0.833498 0.766005
Si Si4 0.162259 0.371218 0.204669
Si Si5 0.230186 0.929787 0.512746
Si Si6 0.443346 0.461161 0.171770
O O1 0.007304 0.561195 0.324410
O O2 0.141688 0.528906 0.736930
O O3 0.830834 0.268634 0.020178
O O4 0.045852 0.235683 0.486552
O O5 0.884917 0.025434 0.276716
O O6 0.618190 0.889225 0.580909
O O7 0.561258 0.967308 0.784260
O O8 0.746688 0.800710 0.033349
O O9 0.543619 0.679521 0.682462
O O10 0.227033 0.441939 0.149701
O O11 0.356604 0.917340 0.626115
#
# Coordination Sequence:
#
# PCOD9247852 Si02
#       6
#     2   4   4   4   4   4
#     4  10  22  40  64 100 140 184 234 288 362 428
#     4  10  22  42  67 105 145 192 241 302 364 449
#     4  11  26  50  74 109 147 195 253 312 375 448
#     4  10  23  42  69 102 145 192 241 305 370 438
#     4  11  23  41  69 106 142 191 241 303 365 443
#     4  11  27  48  77 107 147 195 249 314 378 446
#
# _framework density 26.903310999999999
#
# number of rings (size 3 to 8) (size 9 to 14) (size 15 to 20)
#    0.000    1.455    0.000    3.273    5.091    2.909 
#    6.545    1.818    0.000    0.000    0.000    0.000 
#    0.000    0.000    0.000    0.000    0.000    0.000 
#
# Total GULP energy -122960.193793 kJ/mol
# GULP energy per Si atom -5589.099718 kJ/mol
# Density = 2.684208 g / cm^3
# Si number density = 26.903311 Si / 1000 Ang^3
#
#
#
# Elastic Constant Matrix: (Units=GPa)
#
#
# Indices 1 2 3 4 5 6 
#
# 1 158.1666 38.0419 34.7950 0.0000 -21.2056 0.0000
# 2 38.0419 82.1005 12.3509 0.0000 -0.9875 0.0000
# 3 34.7950 12.3509 125.2074 0.0000 -2.2228 0.0000
# 4 0.0000 0.0000 0.0000 34.2884 0.0000 -4.5382
# 5 -21.2056 -0.9875 -2.2228 0.0000 19.0139 0.0000
# 6 0.0000 0.0000 0.0000 -4.5382 0.0000 64.4913
#
#
#
# Elastic Compliance Matrix: (Units=1/GPa)
#
#
# Indices 1 2 3 4 5 6 
#
# 1 0.008925 -0.003728 -0.001943 0.000000 0.009533 0.000000
# 2 -0.003728 0.013926 -0.000399 0.000000 -0.003482 0.000000
# 3 -0.001943 -0.000399 0.008545 0.000000 -0.001189 0.000000
# 4 0.000000 0.000000 0.000000 0.029439 0.000000 0.002072
# 5 0.009533 -0.003482 -0.001189 0.000000 0.062905 0.000000
# 6 0.000000 0.000000 0.000000 0.002072 0.000000 0.015652
#
#
# Mechanical properties :
#
#
# Convention : Reuss Voigt Hill
#
# Bulk Modulus (GPa) = 51.93759 59.53890 55.73824
# Shear Modulus (GPa) = 31.65546 42.24450 36.94998
#
# Velocity S-wave (km/s) = 3.43394 3.96692 3.71001
# Velocity P-wave (km/s) = 5.92197 6.56968 6.25421
#
# Compressibility (1/GPa) = 0.01925388
#
# Stress axis : x y z
#
# Youngs Moduli (GPa) = 112.04848 71.80831 117.02689
#
# Poissons Ratio (x) = 0.26773 0.22740
# Poissons Ratio (y) = 0.41776 0.04674
# Poissons Ratio (z) = 0.21773 0.02868
#
# Static dielectric constant tensor:
#      x y z
#    x 1.997250 0.000000 0.068660 
#    y 0.000000 2.279140 0.000000 
#    z 0.068660 0.000000 2.080740 
# 
# From -- ./inp_files/17628.got.cif
#   From: 2010.05.17/outbox.cif.g08.bks.cpg/sg14_9_cif.got.tgz:17628.got - 2010.06.03 17:49:19.
