data_PCOD9247424
_publ_section_title
;
Structure prediction by ZEFSAII (Michael W. Deem and Ramdas Pophale) SiO2 
 PCOD9247424
Probable space group: P 21/C
;
_chemical_formula_sum "Si O2"
_cell_formula_units_Z 28
_cell_length_a 7.179670
_cell_length_b 20.121104
_cell_length_c 10.617546
_cell_angle_alpha 90.000000
_cell_angle_beta 67.116161
_cell_angle_gamma 90.000000
_cell_volume 1413.120556
_symmetry_space_group_name_H-M "P 21/C"
_symmetry_group_IT_number 14
_symmetry_cell_setting 'monoclinic'
loop_
_space_group_symop_operation_xyz
x,y,z
-x,1/2+y,1/2-z
-x,-y,-z
x,1/2-y,1/2+z
loop_
_atom_site_type_symbol
_atom_site_label
_atom_site_fract_x
_atom_site_fract_y
_atom_site_fract_z
Si Si1 0.946508 0.732783 0.460634
Si Si2 0.725571 0.471372 0.924156
Si Si3 0.913556 0.087567 0.119204
Si Si4 0.015399 0.577922 0.804933
Si Si5 0.274913 0.661380 0.911278
Si Si6 0.251297 0.189907 0.727638
Si Si7 0.265960 0.508596 0.545986
O O1 0.806268 0.717817 0.619255
O O2 0.829953 0.768481 0.373866
O O3 0.045550 0.665371 0.379619
O O4 0.126467 0.777060 0.474055
O O5 0.798477 0.449691 0.764397
O O6 0.869637 0.532569 0.929090
O O7 0.500000 0.500000 0.000000
O O8 0.744285 0.402403 0.993340
O O9 0.780627 0.069970 0.033115
O O10 0.133143 0.053872 0.035961
O O11 0.859451 0.618358 0.758055
O O12 0.171226 0.632323 0.813597
O O13 0.163428 0.525414 0.703910
O O14 0.507522 0.681786 0.843501
O O15 0.500000 0.500000 0.500000
#
# Coordination Sequence:
#
# PCOD9247424 Si02
#       7
#     4   4   4   4   4   4   4
#     4  11  25  45  66 100 139 175 231 274 337 415
#     4  11  22  41  68  95 136 174 221 281 338 395
#     4  10  23  41  62  95 136 163 221 278 320 407
#     4  10  22  41  65  99 130 170 220 278 330 404
#     4  11  25  42  68  94 135 180 222 269 344 398
#     4  11  24  44  69  94 133 181 222 280 337 399
#     4  10  22  37  66  98 125 165 213 268 341 384
#
# _framework density 19.814304
#
# number of rings (size 3 to 8) (size 9 to 14) (size 15 to 20)
#    0.000    1.429    2.857    1.286    4.000    4.571 
#    0.000    0.000    0.000    0.000    0.000    0.000 
#    0.000    0.000    0.000    0.000    0.000    0.000 
#
# Total GULP energy -155938.163417 kJ/mol
# GULP energy per Si atom -5569.220122 kJ/mol
# Density = 1.976921 g / cm^3
# Si number density = 19.814304 Si / 1000 Ang^3
#
#
#
# Elastic Constant Matrix: (Units=GPa)
#
#
# Indices 1 2 3 4 5 6 
#
# 1 142.0122 41.4493 45.9601 0.0000 -37.2121 0.0000
# 2 41.4493 98.7718 18.3740 0.0000 -17.6224 0.0000
# 3 45.9601 18.3740 74.5048 0.0000 -17.9323 0.0000
# 4 0.0000 0.0000 0.0000 26.7470 0.0000 5.4822
# 5 -37.2121 -17.6224 -17.9323 0.0000 28.2306 0.0000
# 6 0.0000 0.0000 0.0000 5.4822 0.0000 28.4465
#
#
#
# Elastic Compliance Matrix: (Units=1/GPa)
#
#
# Indices 1 2 3 4 5 6 
#
# 1 0.012160 -0.002193 -0.004051 0.000000 0.012086 0.000000
# 2 -0.002193 0.011896 -0.000578 0.000000 0.004168 0.000000
# 3 -0.004051 -0.000578 0.017343 0.000000 0.005316 0.000000
# 4 0.000000 0.000000 0.000000 0.038925 0.000000 -0.007502
# 5 0.012086 0.004168 0.005316 0.000000 0.057332 0.000000
# 6 0.000000 0.000000 0.000000 -0.007502 0.000000 0.036599
#
#
# Mechanical properties :
#
#
# Convention : Reuss Voigt Hill
#
# Bulk Modulus (GPa) = 36.02985 58.53952 47.28468
# Shear Modulus (GPa) = 25.36135 30.65185 28.00660
#
# Velocity S-wave (km/s) = 3.58152 3.93740 3.76367
# Velocity P-wave (km/s) = 5.94359 7.09077 6.54238
#
# Compressibility (1/GPa) = 0.02775477
#
# Stress axis : x y z
#
# Youngs Moduli (GPa) = 82.23809 84.06396 57.66026
#
# Poissons Ratio (x) = 0.18434 0.23360
# Poissons Ratio (y) = 0.18033 0.03331
# Poissons Ratio (z) = 0.33317 0.04857
#
# Static dielectric constant tensor:
#      x y z
#    x 1.739030 0.000000 0.025750 
#    y 0.000000 1.739110 0.000000 
#    z 0.025750 0.000000 1.745570 
# 
# From -- ./inp_files/21698.got.cif
#   From: 2010.05.17/outbox.cif.g08.bks.cpg/sg14_11_cif.got.tgz:21698.got - 2010.06.03 17:49:19.
