data_PCOD9247501
_publ_section_title
;
Structure prediction by ZEFSAII (Michael W. Deem and Ramdas Pophale) SiO2 
 PCOD9247501
Probable space group: P 21/C
;
_chemical_formula_sum "Si O2"
_cell_formula_units_Z 20
_cell_length_a 12.864992
_cell_length_b 11.937549
_cell_length_c 14.358082
_cell_angle_alpha 90.000000
_cell_angle_beta 24.848321
_cell_angle_gamma 90.000000
_cell_volume 926.606344
_symmetry_space_group_name_H-M "P 21/C"
_symmetry_group_IT_number 14
_symmetry_cell_setting 'monoclinic'
loop_
_space_group_symop_operation_xyz
x,y,z
-x,1/2+y,1/2-z
-x,-y,-z
x,1/2-y,1/2+z
loop_
_atom_site_type_symbol
_atom_site_label
_atom_site_fract_x
_atom_site_fract_y
_atom_site_fract_z
Si Si1 0.992422 0.114346 0.564652
Si Si2 0.967832 0.257125 0.910301
Si Si3 0.513094 0.379831 0.723715
Si Si4 0.696103 0.943243 0.407108
Si Si5 0.144612 0.470636 0.653844
O O1 0.881726 0.202300 0.582367
O O2 0.269101 0.152707 0.365679
O O3 0.000000 0.000000 0.500000
O O4 0.869591 0.074337 0.760580
O O5 0.159988 0.156022 0.761612
O O6 0.107364 0.357496 0.742229
O O7 0.733513 0.209843 0.044280
O O8 0.611570 0.498775 0.602476
O O9 0.436354 0.397441 0.892694
O O10 0.500000 0.000000 0.500000
O O11 0.913547 0.022128 0.271276
#
# Coordination Sequence:
#
# PCOD9247501 Si02
#       5
#     4   4   4   4   4
#     4   9  20  39  63  91 118 158 214 246 306 374
#     4  10  22  38  63  94 119 168 203 252 322 362
#     4  10  22  41  60  89 131 157 204 267 298 365
#     4  10  23  41  58  92 125 163 207 247 314 375
#     4   9  21  41  61  92 124 160 213 254 304 376
#
# _framework density 21.584139
#
# number of rings (size 3 to 8) (size 9 to 14) (size 15 to 20)
#    0.000    2.400    0.000    0.000    2.800   12.800 
#   14.400    0.000    0.000    0.000    0.000    0.000 
#    0.000    0.000    0.000    0.000    0.000    0.000 
#
# Total GULP energy -111621.839725 kJ/mol
# GULP energy per Si atom -5581.091986 kJ/mol
# Density = 2.153501 g / cm^3
# Si number density = 21.584139 Si / 1000 Ang^3
#
#
#
# Elastic Constant Matrix: (Units=GPa)
#
#
# Indices 1 2 3 4 5 6 
#
# 1 106.4192 26.2334 -5.9365 0.0000 -7.2119 0.0000
# 2 26.2334 57.7607 1.2147 0.0000 -20.1432 0.0000
# 3 -5.9365 1.2147 20.6158 0.0000 3.7214 0.0000
# 4 0.0000 0.0000 0.0000 13.8849 0.0000 6.1836
# 5 -7.2119 -20.1432 3.7214 0.0000 11.0719 0.0000
# 6 0.0000 0.0000 0.0000 6.1836 0.0000 28.8598
#
#
#
# Elastic Compliance Matrix: (Units=1/GPa)
#
#
# Indices 1 2 3 4 5 6 
#
# 1 0.011212 -0.009161 0.005811 0.000000 -0.011317 0.000000
# 2 -0.009161 0.063597 -0.027886 0.000000 0.119109 0.000000
# 3 0.005811 -0.027886 0.064192 0.000000 -0.068523 0.000000
# 4 0.000000 0.000000 0.000000 0.079618 0.000000 -0.017059
# 5 -0.011317 0.119109 -0.068523 0.000000 0.322676 0.000000
# 6 0.000000 0.000000 0.000000 -0.017059 0.000000 0.038305
#
#
# Mechanical properties :
#
#
# Convention : Reuss Voigt Hill
#
# Bulk Modulus (GPa) = 13.06662 25.31318 19.18990
# Shear Modulus (GPa) = 7.48971 21.64891 14.56931
#
# Velocity S-wave (km/s) = 1.86482 3.17045 2.60090
# Velocity P-wave (km/s) = 3.27165 5.01553 4.23433
#
# Compressibility (1/GPa) = 0.07653089
#
# Stress axis : x y z
#
# Youngs Moduli (GPa) = 89.18741 15.72392 15.57825
#
# Poissons Ratio (x) = 0.14405 -0.09053
# Poissons Ratio (y) = 0.81705 0.43441
# Poissons Ratio (z) = -0.51829 0.43847
#
# Static dielectric constant tensor:
#      x y z
#    x 1.776900 0.000000 0.013370 
#    y 0.000000 1.789840 0.000000 
#    z 0.013370 0.000000 1.789260 
# 
# From -- ./inp_files/44570.got.cif
#   From: 2010.05.17/outbox.cif.g08.bks.cpg/sg14_23_cif.got.tgz:44570.got - 2010.06.03 17:49:19.
