data_PCOD9247422
_publ_section_title
;
Structure prediction by ZEFSAII (Michael W. Deem and Ramdas Pophale) SiO2 
 PCOD9247422
Probable space group: P 21/C
;
_chemical_formula_sum "Si O2"
_cell_formula_units_Z 24
_cell_length_a 11.520714
_cell_length_b 10.948627
_cell_length_c 8.527206
_cell_angle_alpha 90.000000
_cell_angle_beta 92.144228
_cell_angle_gamma 90.000000
_cell_volume 1074.834543
_symmetry_space_group_name_H-M "P 21/C"
_symmetry_group_IT_number 14
_symmetry_cell_setting 'monoclinic'
loop_
_space_group_symop_operation_xyz
x,y,z
-x,1/2+y,1/2-z
-x,-y,-z
x,1/2-y,1/2+z
loop_
_atom_site_type_symbol
_atom_site_label
_atom_site_fract_x
_atom_site_fract_y
_atom_site_fract_z
Si Si1 0.004145 0.118026 0.115114
Si Si2 0.128423 0.769940 0.622337
Si Si3 0.220491 0.991031 0.206812
Si Si4 0.643242 0.135539 0.544769
Si Si5 0.385687 0.419625 0.494502
Si Si6 0.520233 0.775714 0.723970
O O1 0.912096 0.131519 0.251744
O O2 0.975104 0.233609 0.003075
O O3 0.128768 0.100577 0.203692
O O4 0.000000 0.000000 0.000000
O O5 0.157860 0.641044 0.707985
O O6 0.243899 0.810420 0.536611
O O7 0.309996 0.981486 0.356784
O O8 0.278411 0.996181 0.035185
O O9 0.584874 0.218426 0.678103
O O10 0.542671 0.136865 0.406647
O O11 0.500000 0.500000 0.500000
O O12 0.396041 0.339189 0.650188
O O13 0.403313 0.330076 0.351839
#
# Coordination Sequence:
#
# PCOD9247422 Si02
#       6
#     4   4   4   4   4   4
#     4  10  24  40  65  96 125 164 214 275 318 379
#     4  11  20  42  66  90 129 164 221 266 318 390
#     4  11  22  38  65  91 125 174 213 260 327 379
#     4  11  18  38  65  93 120 172 211 257 317 381
#     4  11  22  42  64  95 135 172 217 266 320 386
#     4  10  22  37  66  96 132 169 213 271 313 384
#
# _framework density 22.32902
#
# number of rings (size 3 to 8) (size 9 to 14) (size 15 to 20)
#    0.000    1.333    5.000    1.000    0.000    4.000 
#    0.000    0.000    0.000    0.000    0.000    0.000 
#    0.000    0.000    0.000    0.000    0.000    0.000 
#
# Total GULP energy -133743.916771 kJ/mol
# GULP energy per Si atom -5572.663199 kJ/mol
# Density = 2.227820 g / cm^3
# Si number density = 22.329020 Si / 1000 Ang^3
#
#
#
# Elastic Constant Matrix: (Units=GPa)
#
#
# Indices 1 2 3 4 5 6 
#
# 1 82.4641 16.2632 25.3190 0.0000 -16.4714 0.0000
# 2 16.2632 43.8981 27.4685 0.0000 -17.5690 0.0000
# 3 25.3190 27.4685 106.9141 0.0000 -19.1894 0.0000
# 4 0.0000 0.0000 0.0000 27.4659 0.0000 -12.1582
# 5 -16.4714 -17.5690 -19.1894 0.0000 37.2211 0.0000
# 6 0.0000 0.0000 0.0000 -12.1582 0.0000 36.2623
#
#
#
# Elastic Compliance Matrix: (Units=1/GPa)
#
#
# Indices 1 2 3 4 5 6 
#
# 1 0.014009 -0.002310 -0.001991 0.000000 0.004082 0.000000
# 2 -0.002310 0.031522 -0.005581 0.000000 0.010980 0.000000
# 3 -0.001991 -0.005581 0.011711 0.000000 0.002522 0.000000
# 4 0.000000 0.000000 0.000000 0.042754 0.000000 0.014335
# 5 0.004082 0.010980 0.002522 0.000000 0.035156 0.000000
# 6 0.000000 0.000000 0.000000 0.014335 0.000000 0.032383
#
#
# Mechanical properties :
#
#
# Convention : Reuss Voigt Hill
#
# Bulk Modulus (GPa) = 26.68244 41.26419 33.97332
# Shear Modulus (GPa) = 25.02581 31.13823 28.08202
#
# Velocity S-wave (km/s) = 3.35143 3.73838 3.55018
# Velocity P-wave (km/s) = 5.19150 6.09542 5.66153
#
# Compressibility (1/GPa) = 0.03747783
#
# Stress axis : x y z
#
# Youngs Moduli (GPa) = 71.38333 31.72345 85.38628
#
# Poissons Ratio (x) = 0.07328 0.17003
# Poissons Ratio (y) = 0.16490 0.47655
# Poissons Ratio (z) = 0.14215 0.17705
#
# Static dielectric constant tensor:
#      x y z
#    x 1.948440 0.000000 0.046520 
#    y 0.000000 1.870030 0.000000 
#    z 0.046520 0.000000 1.876690 
# 
# From -- ./inp_files/12378.got.cif
#   From: 2010.05.17/outbox.cif.g08.bks.cpg/sg14_7_cif.got.tgz:12378.got - 2010.06.03 17:49:19.
