data_PCOD9247559
_publ_section_title
;
Structure prediction by ZEFSAII (Michael W. Deem and Ramdas Pophale) SiO2 
 PCOD9247559
Probable space group: P 21/C
;
_chemical_formula_sum "Si O2"
_cell_formula_units_Z 30
_cell_length_a 13.297019
_cell_length_b 17.572956
_cell_length_c 13.973427
_cell_angle_alpha 90.000000
_cell_angle_beta 159.151009
_cell_angle_gamma 90.000000
_cell_volume 1162.084063
_symmetry_space_group_name_H-M "P 21/C"
_symmetry_group_IT_number 14
_symmetry_cell_setting 'monoclinic'
loop_
_space_group_symop_operation_xyz
x,y,z
-x,1/2+y,1/2-z
-x,-y,-z
x,1/2-y,1/2+z
loop_
_atom_site_type_symbol
_atom_site_label
_atom_site_fract_x
_atom_site_fract_y
_atom_site_fract_z
Si Si1 0.715009 0.916653 0.153514
Si Si2 0.455048 0.744984 0.118165
Si Si3 0.458720 0.680728 0.914523
Si Si4 0.500000 0.500000 0.000000
Si Si5 0.934452 0.157519 0.105050
Si Si6 0.740871 0.504865 0.417558
Si Si7 0.732457 0.986665 0.353995
Si Si8 0.895162 0.665440 0.641352
O O1 0.776733 0.844134 0.143539
O O2 0.961059 0.979785 0.351536
O O3 0.727953 0.913145 0.280283
O O4 0.426149 0.950916 0.854365
O O5 0.225204 0.680982 0.943792
O O6 0.475868 0.734667 0.022616
O O7 0.278945 0.817747 0.000309
O O8 0.737368 0.722742 0.427644
O O9 0.744585 0.683483 0.106065
O O10 0.431114 0.593268 0.923646
O O11 0.201400 0.692373 0.612365
O O12 0.323714 0.480754 0.748420
O O13 0.948324 0.066208 0.111733
O O14 0.455817 0.480728 0.219727
O O15 0.854414 0.581881 0.562103
#
# Coordination Sequence:
#
# PCOD9247559 Si02
#       8
#     4   4   4   2   4   4   4   4
#     4   9  18  33  58  89 128 163 215 273 326 397
#     4  12  25  47  70 104 138 190 231 294 350 437
#     4  11  25  45  74 103 140 184 237 293 364 421
#     4  10  22  38  72 108 140 168 240 300 360 406
#     4  11  27  46  68 101 146 181 235 288 359 425
#     4  10  22  41  68 104 140 181 227 297 356 420
#     4   9  18  34  56  88 128 169 209 266 336 398
#     4  11  22  39  73 101 135 177 239 284 352 412
#
# _framework density 25.815688000000002
#
# number of rings (size 3 to 8) (size 9 to 14) (size 15 to 20)
#    0.000    1.600    1.333    3.200    1.867    4.267 
#    4.800    0.000    0.000    0.000    0.000    0.000 
#    0.000    0.000    0.000    0.000    0.000    0.000 
#
# Total GULP energy -167478.376300 kJ/mol
# GULP energy per Si atom -5582.612543 kJ/mol
# Density = 2.575693 g / cm^3
# Si number density = 25.815688 Si / 1000 Ang^3
#
#
#
# Elastic Constant Matrix: (Units=GPa)
#
#
# Indices 1 2 3 4 5 6 
#
# 1 61.7379 3.7400 8.1300 0.0000 0.7613 0.0000
# 2 3.7400 61.9237 12.4118 0.0000 -21.2574 0.0000
# 3 8.1300 12.4118 70.8354 0.0000 -8.5371 0.0000
# 4 0.0000 0.0000 0.0000 26.8159 0.0000 -6.5918
# 5 0.7613 -21.2574 -8.5371 0.0000 36.6426 0.0000
# 6 0.0000 0.0000 0.0000 -6.5918 0.0000 25.8763
#
#
#
# Elastic Compliance Matrix: (Units=1/GPa)
#
#
# Indices 1 2 3 4 5 6 
#
# 1 0.016529 -0.001112 -0.001874 0.000000 -0.001425 0.000000
# 2 -0.001112 0.020574 -0.002095 0.000000 0.011470 0.000000
# 3 -0.001874 -0.002095 0.014978 0.000000 0.002313 0.000000
# 4 0.000000 0.000000 0.000000 0.039783 0.000000 0.010134
# 5 -0.001425 0.011470 0.002313 0.000000 0.034513 0.000000
# 6 0.000000 0.000000 0.000000 0.010134 0.000000 0.041227
#
#
# Mechanical properties :
#
#
# Convention : Reuss Voigt Hill
#
# Bulk Modulus (GPa) = 23.85537 27.00674 25.43105
# Shear Modulus (GPa) = 26.07716 29.21463 27.64590
#
# Velocity S-wave (km/s) = 3.18170 3.36767 3.27600
# Velocity P-wave (km/s) = 4.77057 5.06020 4.91752
#
# Compressibility (1/GPa) = 0.04191929
#
# Stress axis : x y z
#
# Youngs Moduli (GPa) = 60.49890 48.60619 66.76371
#
# Poissons Ratio (x) = 0.05405 0.12512
# Poissons Ratio (y) = 0.06727 0.13986
# Poissons Ratio (z) = 0.11338 0.10182
#
# Static dielectric constant tensor:
#      x y z
#    x 2.111660 0.000000 0.066150 
#    y 0.000000 2.091420 0.000000 
#    z 0.066150 0.000000 1.928070 
# 
# From -- ./inp_files/47621.got.cif
#   From: 2010.05.17/outbox.cif.g08.bks.cpg/sg14_24_cif.got.tgz:47621.got - 2010.06.03 17:49:19.
