data_PCOD9247699
_publ_section_title
;
Structure prediction by ZEFSAII (Michael W. Deem and Ramdas Pophale) SiO2 
 PCOD9247699
Probable space group: P 21/C
;
_chemical_formula_sum "Si O2"
_cell_formula_units_Z 30
_cell_length_a 9.760843
_cell_length_b 7.264267
_cell_length_c 28.338969
_cell_angle_alpha 90.000000
_cell_angle_beta 140.990620
_cell_angle_gamma 90.000000
_cell_volume 1264.802634
_symmetry_space_group_name_H-M "P 21/C"
_symmetry_group_IT_number 14
_symmetry_cell_setting 'monoclinic'
loop_
_space_group_symop_operation_xyz
x,y,z
-x,1/2+y,1/2-z
-x,-y,-z
x,1/2-y,1/2+z
loop_
_atom_site_type_symbol
_atom_site_label
_atom_site_fract_x
_atom_site_fract_y
_atom_site_fract_z
Si Si1 0.772831 0.336532 0.839182
Si Si2 0.596437 0.874831 0.367384
Si Si3 0.281195 0.706141 0.926222
Si Si4 0.319704 0.394979 0.352314
Si Si5 0.842612 0.191951 0.708928
Si Si6 0.500000 0.500000 0.500000
Si Si7 0.740215 0.858933 0.513423
Si Si8 0.502623 0.022528 0.808037
O O1 0.707315 0.478932 0.863105
O O2 0.630743 0.152708 0.806317
O O3 0.712758 0.446729 0.775682
O O4 0.023440 0.288247 0.911804
O O5 0.336473 0.908004 0.306628
O O6 0.697140 0.879135 0.446777
O O7 0.624022 0.666136 0.355184
O O8 0.174436 0.626651 0.850367
O O9 0.234419 0.913315 0.927036
O O10 0.278883 0.553306 0.964997
O O11 0.539114 0.762290 0.980855
O O12 0.251492 0.604431 0.322373
O O13 0.459075 0.392420 0.436318
O O14 0.454844 0.353172 0.341181
O O15 0.087011 0.297073 0.292222
#
# Coordination Sequence:
#
# PCOD9247699 Si02
#       8
#     4   4   4   4   4   2   4   4
#     4  12  24  44  67  93 129 187 217 283 338 399
#     4  10  23  44  61  97 130 168 228 282 328 421
#     4   9  20  41  62  97 131 167 219 287 333 418
#     4  10  22  39  65  97 130 174 219 283 343 409
#     4   9  20  38  63  92 130 165 221 273 340 402
#     4  10  22  40  62 104 138 166 220 282 354 404
#     4  10  22  41  68  91 131 172 222 276 351 389
#     4  11  25  44  65  93 138 172 236 278 332 415
#
# _framework density 23.719116
#
# number of rings (size 3 to 8) (size 9 to 14) (size 15 to 20)
#    0.000    1.867    1.333    2.000    3.733    4.800 
#    2.400    0.000    0.000    0.000    0.000    0.000 
#    0.000    0.000    0.000    0.000    0.000    0.000 
#
# Total GULP energy -167315.516788 kJ/mol
# GULP energy per Si atom -5577.183893 kJ/mol
# Density = 2.366513 g / cm^3
# Si number density = 23.719116 Si / 1000 Ang^3
#
#
#
# Elastic Constant Matrix: (Units=GPa)
#
#
# Indices 1 2 3 4 5 6 
#
# 1 71.5114 24.4118 55.4648 0.0000 -17.6464 0.0000
# 2 24.4118 80.8168 0.8452 0.0000 -0.6429 0.0000
# 3 55.4648 0.8452 106.0586 0.0000 -18.6222 0.0000
# 4 0.0000 0.0000 0.0000 35.3854 0.0000 -7.1047
# 5 -17.6464 -0.6429 -18.6222 0.0000 46.4433 0.0000
# 6 0.0000 0.0000 0.0000 -7.1047 0.0000 35.9874
#
#
#
# Elastic Compliance Matrix: (Units=1/GPa)
#
#
# Indices 1 2 3 4 5 6 
#
# 1 0.029412 -0.008692 -0.014384 0.000000 0.005288 0.000000
# 2 -0.008692 0.014944 0.004177 0.000000 -0.001421 0.000000
# 3 -0.014384 0.004177 0.017177 0.000000 0.001480 0.000000
# 4 0.000000 0.000000 0.000000 0.029427 0.000000 0.005809
# 5 0.005288 -0.001421 0.001480 0.000000 0.024114 0.000000
# 6 0.000000 0.000000 0.000000 0.005809 0.000000 0.028934
#
#
# Mechanical properties :
#
#
# Convention : Reuss Voigt Hill
#
# Bulk Modulus (GPa) = 42.12927 46.64783 44.38855
# Shear Modulus (GPa) = 26.35494 35.40755 30.88125
#
# Velocity S-wave (km/s) = 3.33697 3.86785 3.61218
# Velocity P-wave (km/s) = 5.71380 6.29734 6.01265
#
# Compressibility (1/GPa) = 0.02373647
#
# Stress axis : x y z
#
# Youngs Moduli (GPa) = 34.00013 66.91590 58.21579
#
# Poissons Ratio (x) = 0.58161 0.83735
# Poissons Ratio (y) = 0.29552 -0.24316
# Poissons Ratio (z) = 0.48904 -0.27950
#
# Static dielectric constant tensor:
#      x y z
#    x 1.987280 0.000000 -0.004820 
#    y 0.000000 2.055210 0.000000 
#    z -0.004820 0.000000 1.936460 
# 
# From -- ./inp_files/76520.got.cif
#   From: 2010.05.17/outbox.cif.g08.bks.cpg/sg14_39_cif.got.tgz:76520.got - 2010.06.03 17:49:19.
