data_PCOD9247467
_publ_section_title
;
Structure prediction by ZEFSAII (Michael W. Deem and Ramdas Pophale) SiO2 
 PCOD9247467
Probable space group: P 21/C
;
_chemical_formula_sum "Si O2"
_cell_formula_units_Z 32
_cell_length_a 18.372817
_cell_length_b 10.436617
_cell_length_c 12.824939
_cell_angle_alpha 90.000000
_cell_angle_beta 36.360543
_cell_angle_gamma 90.000000
_cell_volume 1457.962033
_symmetry_space_group_name_H-M "P 21/C"
_symmetry_group_IT_number 14
_symmetry_cell_setting 'monoclinic'
loop_
_space_group_symop_operation_xyz
x,y,z
-x,1/2+y,1/2-z
-x,-y,-z
x,1/2-y,1/2+z
loop_
_atom_site_type_symbol
_atom_site_label
_atom_site_fract_x
_atom_site_fract_y
_atom_site_fract_z
Si Si1 0.451256 0.604126 0.636872
Si Si2 0.738114 0.174756 0.489031
Si Si3 0.126099 0.163782 0.084621
Si Si4 0.116351 0.593217 0.366607
Si Si5 0.482896 0.787720 0.414490
Si Si6 0.647151 0.758105 0.045869
Si Si7 0.915709 0.358595 0.380136
Si Si8 0.687333 0.596251 0.795361
O O1 0.500000 0.500000 0.500000
O O2 0.324127 0.592062 0.847036
O O3 0.441044 0.723945 0.569888
O O4 0.558431 0.634735 0.596865
O O5 0.850029 0.122903 0.290482
O O6 0.631137 0.191933 0.528293
O O7 0.789262 0.306607 0.476940
O O8 0.222933 0.186792 0.066880
O O9 0.027024 0.277214 0.203071
O O10 0.080383 0.013917 0.137947
O O11 0.208470 0.178200 0.885029
O O12 0.082002 0.686765 0.500578
O O13 0.241786 0.533878 0.267928
O O14 0.000000 0.500000 0.500000
O O15 0.570701 0.903003 0.353117
O O16 0.575989 0.708445 0.231250
O O17 0.660510 0.654150 0.939513
#
# Coordination Sequence:
#
# PCOD9247467 Si02
#       8
#     4   4   4   4   4   4   4   4
#     4  10  22  38  60  95 129 162 210 266 332 401
#     4  11  23  40  63  91 129 173 212 276 339 383
#     4  10  22  42  65  93 132 176 225 280 331 391
#     4  11  23  41  67  93 128 179 230 272 328 402
#     4   9  20  38  59  90 130 164 214 263 334 402
#     4   9  19  38  62  91 124 170 212 267 330 391
#     4  11  24  43  65  95 133 174 231 280 329 401
#     4   9  19  38  62  91 126 172 226 266 321 410
#
# _framework density 21.948446000000001
#
# number of rings (size 3 to 8) (size 9 to 14) (size 15 to 20)
#    0.000    2.000    0.000    3.000    3.500    0.500 
#    6.750    1.250    0.000    0.000    0.000    0.000 
#    0.000    0.000    0.000    0.000    0.000    0.000 
#
# Total GULP energy -178202.642915 kJ/mol
# GULP energy per Si atom -5568.832591 kJ/mol
# Density = 2.189849 g / cm^3
# Si number density = 21.948446 Si / 1000 Ang^3
#
#
#
# Elastic Constant Matrix: (Units=GPa)
#
#
# Indices 1 2 3 4 5 6 
#
# 1 123.9119 19.4904 36.6116 0.0000 -1.9255 0.0000
# 2 19.4904 35.6308 28.8816 0.0000 -10.1525 0.0000
# 3 36.6116 28.8816 127.1796 0.0000 10.9018 0.0000
# 4 0.0000 0.0000 0.0000 30.2564 0.0000 5.2632
# 5 -1.9255 -10.1525 10.9018 0.0000 34.0860 0.0000
# 6 0.0000 0.0000 0.0000 5.2632 0.0000 25.4394
#
#
#
# Elastic Compliance Matrix: (Units=1/GPa)
#
#
# Indices 1 2 3 4 5 6 
#
# 1 0.009168 -0.003494 -0.001852 0.000000 0.000069 0.000000
# 2 -0.003494 0.042549 -0.010000 0.000000 0.015674 0.000000
# 3 -0.001852 -0.010000 0.011239 0.000000 -0.006678 0.000000
# 4 0.000000 0.000000 0.000000 0.034285 0.000000 -0.007093
# 5 0.000069 0.015674 -0.006678 0.000000 0.036146 0.000000
# 6 0.000000 0.000000 0.000000 -0.007093 0.000000 0.040777
#
#
# Mechanical properties :
#
#
# Convention : Reuss Voigt Hill
#
# Bulk Modulus (GPa) = 30.99420 50.74329 40.86875
# Shear Modulus (GPa) = 23.18988 31.40561 27.29775
#
# Velocity S-wave (km/s) = 3.25401 3.78680 3.53047
# Velocity P-wave (km/s) = 5.31696 6.50302 5.93967
#
# Compressibility (1/GPa) = 0.03226410
#
# Stress axis : x y z
#
# Youngs Moduli (GPa) = 109.07442 23.50213 88.97293
#
# Poissons Ratio (x) = 0.08212 0.16475
# Poissons Ratio (y) = 0.38115 0.88976
# Poissons Ratio (z) = 0.20197 0.23503
#
# Static dielectric constant tensor:
#      x y z
#    x 1.824340 0.000000 0.008600 
#    y 0.000000 1.857840 0.000000 
#    z 0.008600 0.000000 1.891600 
# 
# From -- ./inp_files/33927.got.cif
#   From: 2010.05.17/outbox.cif.g08.bks.cpg/sg14_17_cif.got.tgz:33927.got - 2010.06.03 17:49:19.
