data_PCOD9247724
_publ_section_title
;
Structure prediction by ZEFSAII (Michael W. Deem and Ramdas Pophale) SiO2 
 PCOD9247724
Probable space group: P 21/C
;
_chemical_formula_sum "Si O2"
_cell_formula_units_Z 28
_cell_length_a 10.022929
_cell_length_b 8.924051
_cell_length_c 14.347742
_cell_angle_alpha 90.000000
_cell_angle_beta 72.675680
_cell_angle_gamma 90.000000
_cell_volume 1225.116464
_symmetry_space_group_name_H-M "P 21/C"
_symmetry_group_IT_number 14
_symmetry_cell_setting 'monoclinic'
loop_
_space_group_symop_operation_xyz
x,y,z
-x,1/2+y,1/2-z
-x,-y,-z
x,1/2-y,1/2+z
loop_
_atom_site_type_symbol
_atom_site_label
_atom_site_fract_x
_atom_site_fract_y
_atom_site_fract_z
Si Si1 0.819540 0.126905 0.753946
Si Si2 0.993984 0.332947 0.042207
Si Si3 0.714967 0.464497 0.769865
Si Si4 0.385728 0.442372 0.819344
Si Si5 0.773106 0.133172 0.971235
Si Si6 0.749515 0.849447 0.094314
Si Si7 0.349091 0.569100 0.019095
O O1 0.951972 0.139666 0.658242
O O2 0.749426 0.289657 0.752353
O O3 0.847565 0.102839 0.857194
O O4 0.709610 0.998476 0.745557
O O5 0.878679 0.226011 0.015540
O O6 0.135123 0.246069 0.985208
O O7 0.000000 0.500000 0.000000
O O8 0.549264 0.481329 0.780683
O O9 0.796363 0.569280 0.680803
O O10 0.737524 0.494034 0.875400
O O11 0.367326 0.268332 0.848725
O O12 0.314716 0.527547 0.921303
O O13 0.651908 0.252291 0.973433
O O14 0.714772 0.987703 0.034220
O O15 0.500000 0.500000 0.000000
#
# Coordination Sequence:
#
# PCOD9247724 Si02
#       7
#     4   4   4   4   4   4   4
#     4  11  23  44  66  95 137 176 223 280 351 402
#     4  12  24  47  68  92 137 180 224 285 346 412
#     4  10  22  39  67  94 129 176 223 276 334 406
#     4  11  21  42  63  95 136 178 218 276 344 401
#     4  11  24  42  67 103 132 174 233 285 336 417
#     4  12  24  41  68 100 130 177 229 283 340 409
#     4   9  19  40  67  93 131 177 220 272 336 398
#
# _framework density 22.854969000000001
#
# number of rings (size 3 to 8) (size 9 to 14) (size 15 to 20)
#    0.000    1.143    4.286    1.286    0.000    3.429 
#    5.143   11.429    0.000    0.000    0.000    0.000 
#    0.000    0.000    0.000    0.000    0.000    0.000 
#
# Total GULP energy -156311.487167 kJ/mol
# GULP energy per Si atom -5582.553113 kJ/mol
# Density = 2.280295 g / cm^3
# Si number density = 22.854969 Si / 1000 Ang^3
#
#
#
# Elastic Constant Matrix: (Units=GPa)
#
#
# Indices 1 2 3 4 5 6 
#
# 1 41.2792 1.8680 -7.6824 0.0000 -14.0481 0.0000
# 2 1.8680 100.4186 37.8057 0.0000 -6.7980 0.0000
# 3 -7.6824 37.8057 133.8318 0.0000 10.7531 0.0000
# 4 0.0000 0.0000 0.0000 41.2900 0.0000 -5.3751
# 5 -14.0481 -6.7980 10.7531 0.0000 29.2068 0.0000
# 6 0.0000 0.0000 0.0000 -5.3751 0.0000 19.2406
#
#
#
# Elastic Compliance Matrix: (Units=1/GPa)
#
#
# Indices 1 2 3 4 5 6 
#
# 1 0.029011 0.000209 0.000496 0.000000 0.013820 0.000000
# 2 0.000209 0.011586 -0.003592 0.000000 0.004120 0.000000
# 3 0.000496 -0.003592 0.008824 0.000000 -0.003846 0.000000
# 4 0.000000 0.000000 0.000000 0.025133 0.000000 0.007021
# 5 0.013820 0.004120 -0.003846 0.000000 0.043261 0.000000
# 6 0.000000 0.000000 0.000000 0.007021 0.000000 0.053935
#
#
# Mechanical properties :
#
#
# Convention : Reuss Voigt Hill
#
# Bulk Modulus (GPa) = 22.91073 37.72360 30.31716
# Shear Modulus (GPa) = 26.03183 34.18337 30.10760
#
# Velocity S-wave (km/s) = 3.37857 3.87158 3.63345
# Velocity P-wave (km/s) = 5.02651 6.04375 5.55845
#
# Compressibility (1/GPa) = 0.04364767
#
# Stress axis : x y z
#
# Youngs Moduli (GPa) = 34.46926 86.31460 113.32484
#
# Poissons Ratio (x) = -0.01806 -0.05619
# Poissons Ratio (y) = -0.00721 0.40703
# Poissons Ratio (z) = -0.01709 0.31002
#
# Static dielectric constant tensor:
#      x y z
#    x 1.892860 0.000000 0.015910 
#    y 0.000000 1.839170 0.000000 
#    z 0.015910 0.000000 1.895830 
# 
# From -- ./inp_files/43629.got.cif
#   From: 2010.05.17/outbox.cif.g08.bks.cpg/sg14_22_cif.got.tgz:43629.got - 2010.06.03 17:49:19.
