data_PCOD9247751
_publ_section_title
;
Structure prediction by ZEFSAII (Michael W. Deem and Ramdas Pophale) SiO2 
 PCOD9247751
Probable space group: P 21/C
;
_chemical_formula_sum "Si O2"
_cell_formula_units_Z 28
_cell_length_a 7.158416
_cell_length_b 11.954226
_cell_length_c 26.725264
_cell_angle_alpha 90.000000
_cell_angle_beta 26.520826
_cell_angle_gamma 90.000000
_cell_volume 1021.184719
_symmetry_space_group_name_H-M "P 21/C"
_symmetry_group_IT_number 14
_symmetry_cell_setting 'monoclinic'
loop_
_space_group_symop_operation_xyz
x,y,z
-x,1/2+y,1/2-z
-x,-y,-z
x,1/2-y,1/2+z
loop_
_atom_site_type_symbol
_atom_site_label
_atom_site_fract_x
_atom_site_fract_y
_atom_site_fract_z
Si Si1 0.486020 0.504156 0.302097
Si Si2 0.771174 0.416569 0.334763
Si Si3 0.116414 0.786544 0.941451
Si Si4 0.772583 0.923361 0.630987
Si Si5 0.410017 0.426660 0.937369
Si Si6 0.953459 0.256443 0.862907
Si Si7 0.396539 0.876260 0.973884
O O1 0.792572 0.455105 0.271825
O O2 0.362275 0.633013 0.344640
O O3 0.630976 0.498635 0.210512
O O4 0.048510 0.438673 0.412675
O O5 0.074589 0.328572 0.289475
O O6 0.715213 0.525587 0.383351
O O7 0.325483 0.350534 0.442252
O O8 0.371927 0.797145 0.931764
O O9 0.977303 0.661415 0.963772
O O10 0.526410 0.931423 0.637722
O O11 0.770535 0.799882 0.656503
O O12 0.238449 0.960538 0.502704
O O13 0.776507 0.367627 0.879514
O O14 0.567160 0.194006 0.984456
#
# Coordination Sequence:
#
# PCOD9247751 Si02
#       7
#     4   4   4   4   4   4   4
#     4   9  19  36  58  88 116 146 187 246 297 337
#     4   8  17  33  59  86 113 140 188 243 284 347
#     4   8  15  35  60  81 108 147 195 229 283 344
#     4  11  23  39  59  79 123 158 190 234 290 347
#     4  10  22  40  57  81 112 161 200 229 274 359
#     4  11  20  36  62  83 110 154 198 232 287 346
#     4   9  16  33  62  86 110 146 187 242 298 332
#
# _framework density 27.419135000000001
#
# number of rings (size 3 to 8) (size 9 to 14) (size 15 to 20)
#    0.000    2.571    1.429    2.571    0.000    1.143 
#    2.571    2.857    0.000    0.000    0.000    0.000 
#    0.000    0.000    0.000    0.000    0.000    0.000 
#
# Total GULP energy -156697.460606 kJ/mol
# GULP energy per Si atom -5596.337879 kJ/mol
# Density = 2.735673 g / cm^3
# Si number density = 27.419135 Si / 1000 Ang^3
#
#
#
# Elastic Constant Matrix: (Units=GPa)
#
#
# Indices 1 2 3 4 5 6 
#
# 1 136.4539 31.0206 52.6178 0.0000 35.6762 0.0000
# 2 31.0206 108.7481 30.6610 0.0000 18.7662 0.0000
# 3 52.6178 30.6610 128.4849 0.0000 38.7703 0.0000
# 4 0.0000 0.0000 0.0000 31.0232 0.0000 16.2629
# 5 35.6762 18.7662 38.7703 0.0000 55.2513 0.0000
# 6 0.0000 0.0000 0.0000 16.2629 0.0000 60.4833
#
#
#
# Elastic Compliance Matrix: (Units=1/GPa)
#
#
# Indices 1 2 3 4 5 6 
#
# 1 0.009625 -0.001370 -0.002385 0.000000 -0.004076 0.000000
# 2 -0.001370 0.010260 -0.001399 0.000000 -0.001619 0.000000
# 3 -0.002385 -0.001399 0.010765 0.000000 -0.005539 0.000000
# 4 0.000000 0.000000 0.000000 0.037523 0.000000 -0.010089
# 5 -0.004076 -0.001619 -0.005539 0.000000 0.025168 0.000000
# 6 0.000000 0.000000 0.000000 -0.010089 0.000000 0.019246
#
#
# Mechanical properties :
#
#
# Convention : Reuss Voigt Hill
#
# Bulk Modulus (GPa) = 49.15735 66.92062 58.03898
# Shear Modulus (GPa) = 38.55786 46.64406 42.60096
#
# Velocity S-wave (km/s) = 3.75405 4.12897 3.94597
# Velocity P-wave (km/s) = 6.06280 6.86955 6.47875
#
# Compressibility (1/GPa) = 0.02034284
#
# Stress axis : x y z
#
# Youngs Moduli (GPa) = 103.89303 97.46522 92.89516
#
# Poissons Ratio (x) = 0.13351 0.22154
# Poissons Ratio (y) = 0.14231 0.12996
# Poissons Ratio (z) = 0.24777 0.13636
#
# Static dielectric constant tensor:
#      x y z
#    x 2.124180 0.000000 -0.050680 
#    y 0.000000 2.153970 0.000000 
#    z -0.050680 0.000000 2.133380 
# 
# From -- ./inp_files/76685.got.cif
#   From: 2010.05.17/outbox.cif.g08.bks.cpg/sg14_39_cif.got.tgz:76685.got - 2010.06.03 17:49:19.
