data_PCOD9247991
_publ_section_title
;
Structure prediction by ZEFSAII (Michael W. Deem and Ramdas Pophale) SiO2 
 PCOD9247991
Probable space group: P 21/C
;
_chemical_formula_sum "Si O2"
_cell_formula_units_Z 28
_cell_length_a 8.091543
_cell_length_b 20.497877
_cell_length_c 9.030033
_cell_angle_alpha 90.000000
_cell_angle_beta 126.496897
_cell_angle_gamma 90.000000
_cell_volume 1203.997797
_symmetry_space_group_name_H-M "P 21/C"
_symmetry_group_IT_number 14
_symmetry_cell_setting 'monoclinic'
loop_
_space_group_symop_operation_xyz
x,y,z
-x,1/2+y,1/2-z
-x,-y,-z
x,1/2-y,1/2+z
loop_
_atom_site_type_symbol
_atom_site_label
_atom_site_fract_x
_atom_site_fract_y
_atom_site_fract_z
Si Si1 0.339126 0.409538 0.991844
Si Si2 0.148487 0.679273 0.043329
Si Si3 0.704283 0.851652 0.224375
Si Si4 0.632701 0.449159 0.893280
Si Si5 0.228840 0.039909 0.972920
Si Si6 0.302957 0.787337 0.940157
Si Si7 0.958350 0.099187 0.081569
O O1 0.373873 0.364480 0.150994
O O2 0.275974 0.480735 0.020603
O O3 0.537453 0.422155 0.996499
O O4 0.153788 0.386357 0.789875
O O5 0.209869 0.603479 0.084636
O O6 0.297051 0.717291 0.011447
O O7 0.182431 0.709483 0.222217
O O8 0.920084 0.684467 0.858494
O O9 0.738591 0.920183 0.159199
O O10 0.534638 0.812065 0.043702
O O11 0.438928 0.457597 0.680036
O O12 0.161368 0.964919 0.922909
O O13 0.052428 0.077391 0.973927
O O14 0.188601 0.838877 0.987576
#
# Coordination Sequence:
#
# PCOD9247991 Si02
#       7
#     4   4   4   4   4   4   4
#     4  10  22  40  73 106 137 179 219 288 346 411
#     4  12  29  48  69  99 137 186 232 284 334 408
#     4  12  26  44  76 102 134 178 230 286 346 408
#     4  10  22  44  67 103 144 176 226 279 350 403
#     4  10  22  40  73 106 137 179 219 288 346 411
#     4  12  29  48  69  99 137 186 232 284 334 408
#     4  10  22  44  67 103 144 176 226 279 350 403
#
# _framework density 23.255858
#
# number of rings (size 3 to 8) (size 9 to 14) (size 15 to 20)
#    0.000    1.143    2.857    1.714    6.000    8.000 
#    0.000    0.000    0.000    0.000    0.000    0.000 
#    0.000    0.000    0.000    0.000    0.000    0.000 
#
# Total GULP energy -156856.339862 kJ/mol
# GULP energy per Si atom -5602.012138 kJ/mol
# Density = 2.320293 g / cm^3
# Si number density = 23.255858 Si / 1000 Ang^3
#
#
#
# Elastic Constant Matrix: (Units=GPa)
#
#
# Indices 1 2 3 4 5 6 
#
# 1 36.0321 -1.2244 15.2341 0.0000 4.2043 0.0000
# 2 -1.2244 43.6100 2.7124 0.0000 4.3564 0.0000
# 3 15.2341 2.7124 46.3774 0.0000 0.9207 0.0000
# 4 0.0000 0.0000 0.0000 18.0276 0.0000 -4.8965
# 5 4.2043 4.3564 0.9207 0.0000 41.0183 0.0000
# 6 0.0000 0.0000 0.0000 -4.8965 0.0000 31.0814
#
#
#
# Elastic Compliance Matrix: (Units=1/GPa)
#
#
# Indices 1 2 3 4 5 6 
#
# 1 0.032778 0.001925 -0.010814 0.000000 -0.003321 0.000000
# 2 0.001925 0.023369 -0.001947 0.000000 -0.002635 0.000000
# 3 -0.010814 -0.001947 0.025213 0.000000 0.000749 0.000000
# 4 0.000000 0.000000 0.000000 0.057950 0.000000 0.009129
# 5 -0.003321 -0.002635 0.000749 0.000000 0.024983 0.000000
# 6 0.000000 0.000000 0.000000 0.009129 0.000000 0.033612
#
#
# Mechanical properties :
#
#
# Convention : Reuss Voigt Hill
#
# Bulk Modulus (GPa) = 16.75351 17.71818 17.23584
# Shear Modulus (GPa) = 20.87926 25.31196 23.09561
#
# Velocity S-wave (km/s) = 2.99959 3.30269 3.15478
# Velocity P-wave (km/s) = 4.38365 4.70946 4.54947
#
# Compressibility (1/GPa) = 0.05968900
#
# Stress axis : x y z
#
# Youngs Moduli (GPa) = 30.50838 42.79189 39.66172
#
# Poissons Ratio (x) = -0.08236 0.42888
# Poissons Ratio (y) = -0.05872 0.07721
# Poissons Ratio (z) = 0.32990 0.08330
#
# Static dielectric constant tensor:
#      x y z
#    x 1.878940 0.000000 -0.007850 
#    y 0.000000 1.875390 0.000000 
#    z -0.007850 0.000000 1.838580 
# 
# From -- ./inp_files/10448.got.cif
#   From: 2010.05.17/outbox.cif.g08.bks.cpg/sg14_6_cif.got.tgz:10448.got - 2010.06.03 17:49:19.
