data_PCOD9247346
_publ_section_title
;
Structure prediction by ZEFSAII (Michael W. Deem and Ramdas Pophale) SiO2 
 PCOD9247346
Probable space group: P 21/C
;
_chemical_formula_sum "Si O2"
_cell_formula_units_Z 20
_cell_length_a 11.344906
_cell_length_b 11.886067
_cell_length_c 7.363990
_cell_angle_alpha 90.000000
_cell_angle_beta 72.571138
_cell_angle_gamma 90.000000
_cell_volume 947.417525
_symmetry_space_group_name_H-M "P 21/C"
_symmetry_group_IT_number 14
_symmetry_cell_setting 'monoclinic'
loop_
_space_group_symop_operation_xyz
x,y,z
-x,1/2+y,1/2-z
-x,-y,-z
x,1/2-y,1/2+z
loop_
_atom_site_type_symbol
_atom_site_label
_atom_site_fract_x
_atom_site_fract_y
_atom_site_fract_z
Si Si1 0.457861 0.349219 0.025051
Si Si2 0.890382 0.416229 0.491548
Si Si3 0.531753 0.381973 0.399230
Si Si4 0.705625 0.039011 0.361141
Si Si5 0.188283 0.835255 0.342705
O O1 0.486951 0.385179 0.214941
O O2 0.341100 0.423199 0.025888
O O3 0.452503 0.216593 0.026565
O O4 0.583203 0.388620 0.869078
O O5 0.774715 0.477782 0.640515
O O6 0.891882 0.398327 0.273750
O O7 0.869193 0.288074 0.583737
O O8 0.000000 0.500000 0.500000
O O9 0.500000 0.500000 0.500000
O O10 0.675484 0.342599 0.318446
O O11 0.786770 0.103335 0.476000
#
# Coordination Sequence:
#
# PCOD9247346 Si02
#       5
#     4   4   4   4   4
#     4  10  22  36  65 101 136 171 216 262 332 403
#     4  12  24  43  72  95 124 177 233 273 332 395
#     4  11  22  37  68  98 140 176 215 260 338 410
#     4  10  22  42  65  96 134 174 217 269 330 397
#     4  11  22  44  69  94 133 178 218 280 338 381
#
# _framework density 21.110016000000002
#
# number of rings (size 3 to 8) (size 9 to 14) (size 15 to 20)
#    0.000    1.200    4.000    2.400    8.400    0.800 
#    0.000    4.000    0.000    0.000    0.000    0.000 
#    0.000    0.000    0.000    0.000    0.000    0.000 
#
# Total GULP energy -111445.479781 kJ/mol
# GULP energy per Si atom -5572.273989 kJ/mol
# Density = 2.106197 g / cm^3
# Si number density = 21.110016 Si / 1000 Ang^3
#
#
#
# Elastic Constant Matrix: (Units=GPa)
#
#
# Indices 1 2 3 4 5 6 
#
# 1 70.4535 48.6807 21.2572 0.0000 13.2045 0.0000
# 2 48.6807 161.4411 11.6955 0.0000 -3.1425 0.0000
# 3 21.2572 11.6955 42.8317 0.0000 -3.1575 0.0000
# 4 0.0000 0.0000 0.0000 28.9614 0.0000 -4.4997
# 5 13.2045 -3.1425 -3.1575 0.0000 27.5670 0.0000
# 6 0.0000 0.0000 0.0000 -4.4997 0.0000 34.5378
#
#
#
# Elastic Compliance Matrix: (Units=1/GPa)
#
#
# Indices 1 2 3 4 5 6 
#
# 1 0.025245 -0.007045 -0.011654 0.000000 -0.014230 0.000000
# 2 -0.007045 0.008293 0.001564 0.000000 0.004499 0.000000
# 3 -0.011654 0.001564 0.029377 0.000000 0.009125 0.000000
# 4 0.000000 0.000000 0.000000 0.035242 0.000000 0.004591
# 5 -0.014230 0.004499 0.009125 0.000000 0.044650 0.000000
# 6 0.000000 0.000000 0.000000 0.004591 0.000000 0.029552
#
#
# Mechanical properties :
#
#
# Convention : Reuss Voigt Hill
#
# Bulk Modulus (GPa) = 34.91208 48.66591 41.78899
# Shear Modulus (GPa) = 23.12917 31.08611 27.10764
#
# Velocity S-wave (km/s) = 3.31365 3.84158 3.58734
# Velocity P-wave (km/s) = 5.58699 6.54068 6.08255
#
# Compressibility (1/GPa) = 0.02864338
#
# Stress axis : x y z
#
# Youngs Moduli (GPa) = 39.61190 120.58572 34.04037
#
# Poissons Ratio (x) = 0.84953 0.39672
# Poissons Ratio (y) = 0.27907 -0.05323
# Poissons Ratio (z) = 0.46165 -0.18855
#
# Static dielectric constant tensor:
#      x y z
#    x 1.848110 0.000000 -0.022830 
#    y 0.000000 1.421510 0.000000 
#    z -0.022830 0.000000 1.830630 
# 
# From -- ./inp_files/12202.got.cif
#   From: 2010.05.17/outbox.cif.g08.bks.cpg/sg14_7_cif.got.tgz:12202.got - 2010.06.03 17:49:19.
