data_PCOD9247760
_publ_section_title
;
Structure prediction by ZEFSAII (Michael W. Deem and Ramdas Pophale) SiO2 
 PCOD9247760
Probable space group: P 21/C
;
_chemical_formula_sum "Si O2"
_cell_formula_units_Z 30
_cell_length_a 7.850235
_cell_length_b 11.145960
_cell_length_c 13.516300
_cell_angle_alpha 90.000000
_cell_angle_beta 90.524527
_cell_angle_gamma 90.000000
_cell_volume 1182.605137
_symmetry_space_group_name_H-M "P 21/C"
_symmetry_group_IT_number 14
_symmetry_cell_setting 'monoclinic'
loop_
_space_group_symop_operation_xyz
x,y,z
-x,1/2+y,1/2-z
-x,-y,-z
x,1/2-y,1/2+z
loop_
_atom_site_type_symbol
_atom_site_label
_atom_site_fract_x
_atom_site_fract_y
_atom_site_fract_z
Si Si1 0.715979 0.498347 0.613391
Si Si2 0.944515 0.061071 0.282946
Si Si3 0.228812 0.916487 0.106227
Si Si4 0.782648 0.845361 0.388832
Si Si5 0.622197 0.613708 0.283231
Si Si6 0.500000 0.500000 0.000000
Si Si7 0.114368 0.237220 0.901345
Si Si8 0.615920 0.177348 0.382533
O O1 0.881681 0.440987 0.668951
O O2 0.732849 0.478676 0.497144
O O3 0.545773 0.436710 0.656921
O O4 0.740692 0.641429 0.627556
O O5 0.780197 0.129448 0.328741
O O6 0.087859 0.149777 0.328115
O O7 0.920887 0.925599 0.327976
O O8 0.373553 0.818276 0.124465
O O9 0.055147 0.843574 0.099090
O O10 0.237873 0.011212 0.194619
O O11 0.689995 0.738436 0.328391
O O12 0.641916 0.938035 0.428107
O O13 0.860011 0.787849 0.488535
O O14 0.551732 0.622596 0.170950
O O15 0.603720 0.370738 0.992845
#
# Coordination Sequence:
#
# PCOD9247760 Si02
#       8
#     4   4   4   4   4   2   4   4
#     4  11  23  42  67 100 135 168 228 273 330 397
#     4   9  23  44  62  97 134 177 222 266 332 400
#     4  11  23  43  66  97 135 174 220 271 340 395
#     4  11  23  42  68  92 137 173 224 274 332 396
#     4  11  24  40  69 101 130 173 217 282 332 392
#     4  10  22  40  60 100 120 174 220 270 328 384
#     4  11  24  44  66  96 135 181 217 273 335 402
#     4   9  22  40  65  94 136 168 217 275 329 399
#
# _framework density 25.367723999999999
#
# number of rings (size 3 to 8) (size 9 to 14) (size 15 to 20)
#    0.000    1.600    1.333    2.000    7.467    1.067 
#    4.800    0.000    0.000    0.000    0.000    0.000 
#    0.000    0.000    0.000    0.000    0.000    0.000 
#
# Total GULP energy -167300.992840 kJ/mol
# GULP energy per Si atom -5576.699761 kJ/mol
# Density = 2.530999 g / cm^3
# Si number density = 25.367724 Si / 1000 Ang^3
#
#
#
# Elastic Constant Matrix: (Units=GPa)
#
#
# Indices 1 2 3 4 5 6 
#
# 1 81.6512 22.7344 -4.2946 0.0000 31.1175 0.0000
# 2 22.7344 150.2559 12.3848 0.0000 10.3759 0.0000
# 3 -4.2946 12.3848 32.4458 0.0000 8.3822 0.0000
# 4 0.0000 0.0000 0.0000 39.2112 0.0000 2.2887
# 5 31.1175 10.3759 8.3822 0.0000 27.4855 0.0000
# 6 0.0000 0.0000 0.0000 2.2887 0.0000 52.3030
#
#
#
# Elastic Compliance Matrix: (Units=1/GPa)
#
#
# Indices 1 2 3 4 5 6 
#
# 1 0.026010 -0.002762 0.012848 0.000000 -0.032323 0.000000
# 2 -0.002762 0.007262 -0.003514 0.000000 0.001458 0.000000
# 3 0.012848 -0.003514 0.040466 0.000000 -0.025560 0.000000
# 4 0.000000 0.000000 0.000000 0.025568 0.000000 -0.001119
# 5 -0.032323 0.001458 -0.025560 0.000000 0.080222 0.000000
# 6 0.000000 0.000000 0.000000 -0.001119 0.000000 0.019168
#
#
# Mechanical properties :
#
#
# Convention : Reuss Voigt Hill
#
# Bulk Modulus (GPa) = 11.51004 36.22245 23.86624
# Shear Modulus (GPa) = 23.30839 39.36850 31.33845
#
# Velocity S-wave (km/s) = 3.03449 3.94371 3.51859
# Velocity P-wave (km/s) = 4.10179 5.92005 5.09273
#
# Compressibility (1/GPa) = 0.08688065
#
# Stress axis : x y z
#
# Youngs Moduli (GPa) = 38.44605 137.69768 24.71220
#
# Poissons Ratio (x) = 0.38038 -0.31750
# Poissons Ratio (y) = 0.10620 0.08685
# Poissons Ratio (z) = -0.49394 0.48391
#
# Static dielectric constant tensor:
#      x y z
#    x 2.173410 0.000000 0.046820 
#    y 0.000000 2.062130 0.000000 
#    z 0.046820 0.000000 2.102600 
# 
# From -- ./inp_files/40061.got.cif
#   From: 2010.05.17/outbox.cif.g08.bks.cpg/sg14_21_cif.got.tgz:40061.got - 2010.06.03 17:49:19.
