data_PCOD9247677
_publ_section_title
;
Structure prediction by ZEFSAII (Michael W. Deem and Ramdas Pophale) SiO2 
 PCOD9247677
Probable space group: P 21/C
;
_chemical_formula_sum "Si O2"
_cell_formula_units_Z 32
_cell_length_a 25.073305
_cell_length_b 9.572825
_cell_length_c 9.174964
_cell_angle_alpha 90.000000
_cell_angle_beta 38.177099
_cell_angle_gamma 90.000000
_cell_volume 1361.164986
_symmetry_space_group_name_H-M "P 21/C"
_symmetry_group_IT_number 14
_symmetry_cell_setting 'monoclinic'
loop_
_space_group_symop_operation_xyz
x,y,z
-x,1/2+y,1/2-z
-x,-y,-z
x,1/2-y,1/2+z
loop_
_atom_site_type_symbol
_atom_site_label
_atom_site_fract_x
_atom_site_fract_y
_atom_site_fract_z
Si Si1 0.895938 0.664030 0.673814
Si Si2 0.143003 0.552833 0.794654
Si Si3 0.751127 0.569343 0.168874
Si Si4 0.727080 0.186792 0.499840
Si Si5 0.990567 0.257363 0.312157
Si Si6 0.554477 0.909778 0.092272
Si Si7 0.534710 0.211535 0.997368
Si Si8 0.157029 0.554786 0.452777
O O1 0.934050 0.763609 0.468702
O O2 0.971624 0.660092 0.631067
O O3 0.877660 0.531423 0.610226
O O4 0.806623 0.676703 0.952748
O O5 0.193966 0.471461 0.808874
O O6 0.203220 0.690456 0.635696
O O7 0.145484 0.479909 0.631419
O O8 0.048859 0.609037 0.046811
O O9 0.654924 0.617170 0.409815
O O10 0.741134 0.427678 0.095448
O O11 0.629110 0.235322 0.724707
O O12 0.749344 0.109853 0.298443
O O13 0.908479 0.316864 0.403779
O O14 0.497709 0.843445 0.342031
O O15 0.540330 0.074591 0.090780
O O16 0.528737 0.832758 0.997016
#
# Coordination Sequence:
#
# PCOD9247677 Si02
#       8
#     4   4   4   4   4   4   4   4
#     4  11  25  42  64  88 135 171 218 280 339 407
#     4  11  22  38  66  99 131 168 232 282 343 417
#     4  10  24  43  65  97 138 178 225 290 355 420
#     4   9  20  39  67 100 130 176 224 288 347 408
#     4  11  23  40  64  96 125 175 224 276 341 407
#     4  10  24  46  69 106 142 189 237 294 358 424
#     4  10  23  44  74 103 146 185 239 296 353 435
#     4  10  22  39  64  96 131 169 220 288 338 405
#
# _framework density 23.509274000000001
#
# number of rings (size 3 to 8) (size 9 to 14) (size 15 to 20)
#    0.000    1.750    1.250    1.875   10.500    3.000 
#    0.000    0.000    0.000    0.000    0.000    0.000 
#    0.000    0.000    0.000    0.000    0.000    0.000 
#
# Total GULP energy -178813.609055 kJ/mol
# GULP energy per Si atom -5587.925283 kJ/mol
# Density = 2.345577 g / cm^3
# Si number density = 23.509274 Si / 1000 Ang^3
#
#
#
# Elastic Constant Matrix: (Units=GPa)
#
#
# Indices 1 2 3 4 5 6 
#
# 1 104.4082 13.9696 71.4812 0.0000 1.8953 0.0000
# 2 13.9696 36.0546 31.6495 0.0000 -8.9254 0.0000
# 3 71.4812 31.6495 167.2993 0.0000 -8.2431 0.0000
# 4 0.0000 0.0000 0.0000 32.1856 0.0000 -1.0756
# 5 1.8953 -8.9254 -8.2431 0.0000 38.9338 0.0000
# 6 0.0000 0.0000 0.0000 -1.0756 0.0000 20.5683
#
#
#
# Elastic Compliance Matrix: (Units=1/GPa)
#
#
# Indices 1 2 3 4 5 6 
#
# 1 0.013693 -0.000708 -0.005818 0.000000 -0.002061 0.000000
# 2 -0.000708 0.034930 -0.005971 0.000000 0.006778 0.000000
# 3 -0.005818 -0.005971 0.009640 0.000000 0.000955 0.000000
# 4 0.000000 0.000000 0.000000 0.031124 0.000000 0.001628
# 5 -0.002061 0.006778 0.000955 0.000000 0.027541 0.000000
# 6 0.000000 0.000000 0.000000 0.001628 0.000000 0.048704
#
#
# Mechanical properties :
#
#
# Convention : Reuss Voigt Hill
#
# Bulk Modulus (GPa) = 30.05962 60.21806 45.13884
# Shear Modulus (GPa) = 24.78721 31.04832 27.91776
#
# Velocity S-wave (km/s) = 3.25061 3.63806 3.44978
# Velocity P-wave (km/s) = 5.18678 6.58161 5.92538
#
# Compressibility (1/GPa) = 0.03326722
#
# Stress axis : x y z
#
# Youngs Moduli (GPa) = 73.02831 28.62881 103.73486
#
# Poissons Ratio (x) = 0.02028 0.60355
# Poissons Ratio (y) = 0.05173 0.61944
# Poissons Ratio (z) = 0.42489 0.17095
#
# Static dielectric constant tensor:
#      x y z
#    x 1.858340 0.000000 0.025960 
#    y 0.000000 2.009910 0.000000 
#    z 0.025960 0.000000 1.885990 
# 
# From -- ./inp_files/19477.got.cif
#   From: 2010.05.17/outbox.cif.g08.bks.cpg/sg14_10_cif.got.tgz:19477.got - 2010.06.03 17:49:19.
