data_PCOD9247939
_publ_section_title
;
Structure prediction by ZEFSAII (Michael W. Deem and Ramdas Pophale) SiO2 
 PCOD9247939
Probable space group: P 21/C
;
_chemical_formula_sum "Si O2"
_cell_formula_units_Z 28
_cell_length_a 20.036804
_cell_length_b 13.469520
_cell_length_c 8.803747
_cell_angle_alpha 90.000000
_cell_angle_beta 32.949008
_cell_angle_gamma 90.000000
_cell_volume 1292.293410
_symmetry_space_group_name_H-M "P 21/C"
_symmetry_group_IT_number 14
_symmetry_cell_setting 'monoclinic'
loop_
_space_group_symop_operation_xyz
x,y,z
-x,1/2+y,1/2-z
-x,-y,-z
x,1/2-y,1/2+z
loop_
_atom_site_type_symbol
_atom_site_label
_atom_site_fract_x
_atom_site_fract_y
_atom_site_fract_z
Si Si1 0.802847 0.304013 0.779258
Si Si2 0.711597 0.765906 0.201648
Si Si3 0.966821 0.043211 0.811160
Si Si4 0.227760 0.055815 0.391793
Si Si5 0.031451 0.154655 0.373983
Si Si6 0.397861 0.131317 0.315203
Si Si7 0.319219 0.859732 0.170426
O O1 0.698442 0.236018 0.901165
O O2 0.848031 0.401373 0.602896
O O3 0.921809 0.231980 0.555496
O O4 0.756282 0.333687 0.033549
O O5 0.738204 0.662779 0.240778
O O6 0.613521 0.731784 0.264007
O O7 0.664760 0.848740 0.404222
O O8 0.838868 0.790680 0.878120
O O9 0.083368 0.053461 0.700955
O O10 0.005555 0.101830 0.583624
O O11 0.957754 0.929290 0.777244
O O12 0.315883 0.055457 0.372171
O O13 0.257492 0.961915 0.229766
O O14 0.540406 0.112934 0.065451
#
# Coordination Sequence:
#
# PCOD9247939 Si02
#       7
#     4   4   4   4   4   4   4
#     4  12  24  41  68  94 129 173 204 266 327 378
#     4  10  22  40  67  90 125 169 208 260 314 367
#     4  11  23  41  63  96 130 164 206 264 329 374
#     4  10  23  39  68  92 125 164 214 265 310 373
#     4  11  23  41  63  95 135 159 212 263 317 391
#     4  10  23  43  63  92 127 169 213 261 302 381
#     4  12  25  44  64  95 130 168 216 260 322 375
#
# _framework density 21.666905
#
# number of rings (size 3 to 8) (size 9 to 14) (size 15 to 20)
#    0.857    0.286    4.286    2.143    2.000    1.714 
#    0.000    0.000    0.000    3.429    0.000    0.000 
#    0.000    0.000    0.000    0.000    0.000    0.000 
#
# Total GULP energy -156288.594530 kJ/mol
# GULP energy per Si atom -5581.735519 kJ/mol
# Density = 2.161759 g / cm^3
# Si number density = 21.666905 Si / 1000 Ang^3
#
#
#
# Elastic Constant Matrix: (Units=GPa)
#
#
# Indices 1 2 3 4 5 6 
#
# 1 38.0991 -0.0336 5.8039 0.0000 -9.8961 0.0000
# 2 -0.0336 72.5390 17.3154 0.0000 -1.8362 0.0000
# 3 5.8039 17.3154 49.3814 0.0000 5.6684 0.0000
# 4 0.0000 0.0000 0.0000 28.5237 0.0000 -6.1860
# 5 -9.8961 -1.8362 5.6684 0.0000 23.3791 0.0000
# 6 0.0000 0.0000 0.0000 -6.1860 0.0000 30.3027
#
#
#
# Elastic Compliance Matrix: (Units=1/GPa)
#
#
# Indices 1 2 3 4 5 6 
#
# 1 0.030975 0.001810 -0.005962 0.000000 0.014699 0.000000
# 2 0.001810 0.015298 -0.005969 0.000000 0.003415 0.000000
# 3 -0.005962 -0.005969 0.024057 0.000000 -0.008826 0.000000
# 4 0.000000 0.000000 0.000000 0.036683 0.000000 0.007488
# 5 0.014699 0.003415 -0.008826 0.000000 0.051403 0.000000
# 6 0.000000 0.000000 0.000000 0.007488 0.000000 0.034529
#
#
# Mechanical properties :
#
#
# Convention : Reuss Voigt Hill
#
# Bulk Modulus (GPa) = 19.96514 22.91011 21.43763
# Shear Modulus (GPa) = 21.75009 25.57002 23.66005
#
# Velocity S-wave (km/s) = 3.17178 3.43905 3.30811
# Velocity P-wave (km/s) = 4.75901 5.13479 4.95047
#
# Compressibility (1/GPa) = 0.05008730
#
# Stress axis : x y z
#
# Youngs Moduli (GPa) = 32.28377 65.36918 41.56739
#
# Poissons Ratio (x) = -0.11830 0.24784
# Poissons Ratio (y) = -0.05842 0.24811
# Poissons Ratio (z) = 0.19249 0.39017
#
# Static dielectric constant tensor:
#      x y z
#    x 1.818270 0.000000 -0.004070 
#    y 0.000000 1.803310 0.000000 
#    z -0.004070 0.000000 1.724800 
# 
# From -- ./inp_files/19109.got.cif
#   From: 2010.05.17/outbox.cif.g08.bks.cpg/sg14_10_cif.got.tgz:19109.got - 2010.06.03 17:49:19.
