data_PCOD9247566
_publ_section_title
;
Structure prediction by ZEFSAII (Michael W. Deem and Ramdas Pophale) SiO2 
 PCOD9247566
Probable space group: P 21/C
;
_chemical_formula_sum "Si O2"
_cell_formula_units_Z 30
_cell_length_a 9.776963
_cell_length_b 14.583271
_cell_length_c 9.331065
_cell_angle_alpha 90.000000
_cell_angle_beta 75.697707
_cell_angle_gamma 90.000000
_cell_volume 1289.188817
_symmetry_space_group_name_H-M "P 21/C"
_symmetry_group_IT_number 14
_symmetry_cell_setting 'monoclinic'
loop_
_space_group_symop_operation_xyz
x,y,z
-x,1/2+y,1/2-z
-x,-y,-z
x,1/2-y,1/2+z
loop_
_atom_site_type_symbol
_atom_site_label
_atom_site_fract_x
_atom_site_fract_y
_atom_site_fract_z
Si Si1 0.076616 0.702744 0.638465
Si Si2 0.582335 0.925580 0.174386
Si Si3 0.257767 0.137847 0.264533
Si Si4 0.883699 0.739629 0.943762
Si Si5 0.282978 0.535669 0.603506
Si Si6 0.515218 0.266141 0.767581
Si Si7 0.312035 0.834263 0.509530
Si Si8 0.500000 0.000000 0.500000
O O1 0.191845 0.624191 0.597032
O O2 0.158912 0.800214 0.598629
O O3 0.001990 0.695002 0.811030
O O4 0.963658 0.697989 0.540088
O O5 0.433266 0.934990 0.129878
O O6 0.597679 0.816048 0.186492
O O7 0.576765 0.967986 0.332657
O O8 0.692364 0.977542 0.046763
O O9 0.202176 0.168505 0.434661
O O10 0.204854 0.203360 0.150066
O O11 0.428205 0.149806 0.222625
O O12 0.216767 0.035574 0.233100
O O13 0.574873 0.300582 0.900927
O O14 0.641357 0.223495 0.642343
O O15 0.355634 0.939712 0.485983
#
# Coordination Sequence:
#
# PCOD9247566 Si02
#       8
#     4   4   4   4   4   4   4   2
#     4  11  24  42  68  93 131 177 216 276 325 389
#     4  10  22  39  58 104 131 165 207 260 346 405
#     4  11  23  43  67  93 127 175 222 271 319 391
#     4  10  25  45  64  89 126 184 230 259 322 382
#     4  11  23  39  67  94 132 167 216 276 326 394
#     4  11  21  38  66  93 129 163 205 264 335 391
#     4  11  22  38  63  99 126 168 200 266 337 387
#     4  10  24  34  58  94 140 158 206 250 320 410
#
# _framework density 23.270447999999998
#
# number of rings (size 3 to 8) (size 9 to 14) (size 15 to 20)
#    0.000    1.333    1.333    4.000    7.467    2.133 
#    0.000    0.000    5.867    0.000    0.000    0.000 
#    0.000    0.000    0.000    0.000    0.000    0.000 
#
# Total GULP energy -167346.861438 kJ/mol
# GULP energy per Si atom -5578.228715 kJ/mol
# Density = 2.321748 g / cm^3
# Si number density = 23.270448 Si / 1000 Ang^3
#
#
#
# Elastic Constant Matrix: (Units=GPa)
#
#
# Indices 1 2 3 4 5 6 
#
# 1 40.8445 7.9780 17.7821 0.0000 4.0855 0.0000
# 2 7.9780 40.7473 7.5219 0.0000 4.4988 0.0000
# 3 17.7821 7.5219 128.6096 0.0000 0.7556 0.0000
# 4 0.0000 0.0000 0.0000 26.2358 0.0000 5.8044
# 5 4.0855 4.4988 0.7556 0.0000 34.3761 0.0000
# 6 0.0000 0.0000 0.0000 5.8044 0.0000 16.5702
#
#
#
# Elastic Compliance Matrix: (Units=1/GPa)
#
#
# Indices 1 2 3 4 5 6 
#
# 1 0.027110 -0.004382 -0.003477 0.000000 -0.002572 0.000000
# 2 -0.004382 0.025878 -0.000891 0.000000 -0.002846 0.000000
# 3 -0.003477 -0.000891 0.008306 0.000000 0.000347 0.000000
# 4 0.000000 0.000000 0.000000 0.041318 0.000000 -0.014473
# 5 -0.002572 -0.002846 0.000347 0.000000 0.029761 0.000000
# 6 0.000000 0.000000 0.000000 -0.014473 0.000000 0.065419
#
#
# Mechanical properties :
#
#
# Convention : Reuss Voigt Hill
#
# Bulk Modulus (GPa) = 22.83388 30.75171 26.79279
# Shear Modulus (GPa) = 21.74950 27.23104 24.49027
#
# Velocity S-wave (km/s) = 3.06051 3.42453 3.24762
# Velocity P-wave (km/s) = 4.72468 5.37402 5.05978
#
# Compressibility (1/GPa) = 0.04379458
#
# Stress axis : x y z
#
# Youngs Moduli (GPa) = 36.88666 38.64263 120.39086
#
# Poissons Ratio (x) = 0.16934 0.41859
# Poissons Ratio (y) = 0.16164 0.10726
# Poissons Ratio (z) = 0.12825 0.03443
#
# Static dielectric constant tensor:
#      x y z
#    x 1.878060 0.000000 -0.029120 
#    y 0.000000 1.942020 0.000000 
#    z -0.029120 0.000000 1.877840 
# 
# From -- ./inp_files/13279.got.cif
#   From: 2010.05.17/outbox.cif.g08.bks.cpg/sg14_7_cif.got.tgz:13279.got - 2010.06.03 17:49:19.
