data_PCOD9247184
_publ_section_title
;
Structure prediction by ZEFSAII (Michael W. Deem and Ramdas Pophale) SiO2 
 PCOD9247184
Probable space group: P 21/C
;
_chemical_formula_sum "Si O2"
_cell_formula_units_Z 24
_cell_length_a 11.366772
_cell_length_b 7.521322
_cell_length_c 13.416341
_cell_angle_alpha 90.000000
_cell_angle_beta 51.810878
_cell_angle_gamma 90.000000
_cell_volume 901.516662
_symmetry_space_group_name_H-M "P 21/C"
_symmetry_group_IT_number 14
_symmetry_cell_setting 'monoclinic'
loop_
_space_group_symop_operation_xyz
x,y,z
-x,1/2+y,1/2-z
-x,-y,-z
x,1/2-y,1/2+z
loop_
_atom_site_type_symbol
_atom_site_label
_atom_site_fract_x
_atom_site_fract_y
_atom_site_fract_z
Si Si1 0.902157 0.754445 0.678314
Si Si2 0.136685 0.454945 0.594875
Si Si3 0.536617 0.458622 0.597138
Si Si4 0.362253 0.902047 0.521171
Si Si5 0.751591 0.475535 0.117957
Si Si6 0.171903 0.635538 0.308557
O O1 0.856597 0.869177 0.799030
O O2 0.871833 0.896571 0.607985
O O3 0.805219 0.578463 0.700639
O O4 0.057231 0.651818 0.627569
O O5 0.434863 0.749844 0.417358
O O6 0.214285 0.770887 0.371749
O O7 0.006345 0.346888 0.608472
O O8 0.500000 0.500000 0.500000
O O9 0.696924 0.547670 0.534596
O O10 0.405875 0.495384 0.742616
O O11 0.500000 0.000000 0.500000
O O12 0.264032 0.009291 0.492202
O O13 0.262846 0.818048 0.661120
#
# Coordination Sequence:
#
# PCOD9247184 Si02
#       6
#     4   4   4   4   4   4
#     4  10  21  44  80 115 151 210 257 320 381 462
#     4  10  22  45  82 107 163 201 255 324 390 452
#     4  12  24  48  76 112 157 204 255 328 387 457
#     4  12  28  50  79 116 155 206 259 328 395 469
#     4  12  26  50  82 114 158 201 275 317 388 476
#     4  10  25  49  80 111 157 205 263 316 393 456
#
# _framework density 26.621804999999998
#
# number of rings (size 3 to 8) (size 9 to 14) (size 15 to 20)
#    1.000    0.000    3.333    3.000    2.333    0.000 
#    3.000    4.167    3.667    0.000    0.000    0.000 
#    0.000    0.000    0.000    0.000    0.000    0.000 
#
# Total GULP energy -134283.859131 kJ/mol
# GULP energy per Si atom -5595.160797 kJ/mol
# Density = 2.656121 g / cm^3
# Si number density = 26.621805 Si / 1000 Ang^3
#
#
#
# Elastic Constant Matrix: (Units=GPa)
#
#
# Indices 1 2 3 4 5 6 
#
# 1 156.6384 70.6073 50.5282 0.0000 17.4185 0.0000
# 2 70.6073 137.2166 48.1170 0.0000 12.7771 0.0000
# 3 50.5282 48.1170 136.9909 0.0000 -4.0324 0.0000
# 4 0.0000 0.0000 0.0000 42.2950 0.0000 -6.1256
# 5 17.4185 12.7771 -4.0324 0.0000 58.8115 0.0000
# 6 0.0000 0.0000 0.0000 -6.1256 0.0000 54.6578
#
#
#
# Elastic Compliance Matrix: (Units=1/GPa)
#
#
# Indices 1 2 3 4 5 6 
#
# 1 0.008932 -0.003690 -0.002057 0.000000 -0.001985 0.000000
# 2 -0.003690 0.010080 -0.002216 0.000000 -0.001249 0.000000
# 3 -0.002057 -0.002216 0.008887 0.000000 0.001700 0.000000
# 4 0.000000 0.000000 0.000000 0.024034 0.000000 0.002694
# 5 -0.001985 -0.001249 0.001700 0.000000 0.017979 0.000000
# 6 0.000000 0.000000 0.000000 0.002694 0.000000 0.018598
#
#
# Mechanical properties :
#
#
# Convention : Reuss Voigt Hill
#
# Bulk Modulus (GPa) = 83.52417 85.48342 84.50380
# Shear Modulus (GPa) = 46.11476 48.59243 47.35359
#
# Velocity S-wave (km/s) = 4.16651 4.27697 4.22210
# Velocity P-wave (km/s) = 7.38843 7.52130 7.45516
#
# Compressibility (1/GPa) = 0.01197258
#
# Stress axis : x y z
#
# Youngs Moduli (GPa) = 111.96261 99.20731 112.52579
#
# Poissons Ratio (x) = 0.36606 0.23143
# Poissons Ratio (y) = 0.41313 0.24939
# Poissons Ratio (z) = 0.23028 0.21987
#
# Static dielectric constant tensor:
#      x y z
#    x 2.121410 0.000000 0.006880 
#    y 0.000000 2.126330 0.000000 
#    z 0.006880 0.000000 2.082590 
# 
# From -- ./inp_files/28966.got.cif
#   From: 2010.05.17/outbox.cif.g08.bks.cpg/sg14_15_cif.got.tgz:28966.got - 2010.06.03 17:49:19.
