data_PCOD9247247
_publ_section_title
;
Structure prediction by ZEFSAII (Michael W. Deem and Ramdas Pophale) SiO2 
 PCOD9247247
Probable space group: P 21/C
;
_chemical_formula_sum "Si O2"
_cell_formula_units_Z 20
_cell_length_a 19.219176
_cell_length_b 5.154599
_cell_length_c 9.916666
_cell_angle_alpha 90.000000
_cell_angle_beta 46.277333
_cell_angle_gamma 90.000000
_cell_volume 709.985770
_symmetry_space_group_name_H-M "P 21/C"
_symmetry_group_IT_number 14
_symmetry_cell_setting 'monoclinic'
loop_
_space_group_symop_operation_xyz
x,y,z
-x,1/2+y,1/2-z
-x,-y,-z
x,1/2-y,1/2+z
loop_
_atom_site_type_symbol
_atom_site_label
_atom_site_fract_x
_atom_site_fract_y
_atom_site_fract_z
Si Si1 0.160011 0.445622 0.252173
Si Si2 0.683579 0.261431 0.306144
Si Si3 0.001505 0.769821 0.336880
Si Si4 0.517066 0.762541 0.817101
Si Si5 0.719945 0.554021 0.522942
O O1 0.256098 0.534335 0.200202
O O2 0.098606 0.695082 0.287663
O O3 0.087519 0.294273 0.447497
O O4 0.192212 0.251392 0.090751
O O5 0.703988 0.489018 0.386210
O O6 0.567452 0.251174 0.459677
O O7 0.722202 0.213915 0.103953
O O8 0.997559 0.057128 0.284231
O O9 0.511809 0.034648 0.747889
O O10 0.626280 0.700326 0.708552
#
# Coordination Sequence:
#
# PCOD9247247 Si02
#       5
#     4   4   4   4   4
#     4  11  26  46  75 108 149 201 251 314 380 454
#     4  11  25  44  75 109 154 203 253 309 373 449
#     4  11  28  49  77 107 149 192 256 318 387 449
#     4  10  21  46  69 109 152 202 251 307 365 439
#     4  11  25  46  73 113 152 203 254 308 375 447
#
# _framework density 28.16958
#
# number of rings (size 3 to 8) (size 9 to 14) (size 15 to 20)
#    0.000    1.200    2.000    1.800    8.400    3.200 
#    0.000    5.000    0.000    0.000    0.000    0.000 
#    0.000    0.000    0.000    0.000    0.000    0.000 
#
# Total GULP energy -112198.228268 kJ/mol
# GULP energy per Si atom -5609.911413 kJ/mol
# Density = 2.810547 g / cm^3
# Si number density = 28.169580 Si / 1000 Ang^3
#
#
#
# Elastic Constant Matrix: (Units=GPa)
#
#
# Indices 1 2 3 4 5 6 
#
# 1 105.8869 32.0988 28.6231 0.0000 -2.5057 0.0000
# 2 32.0988 91.3506 16.7731 0.0000 0.7330 0.0000
# 3 28.6231 16.7731 146.6151 0.0000 -16.4999 0.0000
# 4 0.0000 0.0000 0.0000 50.2749 0.0000 4.2706
# 5 -2.5057 0.7330 -16.4999 0.0000 39.1750 0.0000
# 6 0.0000 0.0000 0.0000 4.2706 0.0000 45.4188
#
#
#
# Elastic Compliance Matrix: (Units=1/GPa)
#
#
# Indices 1 2 3 4 5 6 
#
# 1 0.010988 -0.003543 -0.001736 0.000000 0.000038 0.000000
# 2 -0.003543 0.012347 -0.000811 0.000000 -0.000799 0.000000
# 3 -0.001736 -0.000811 0.007602 0.000000 0.003106 0.000000
# 4 0.000000 0.000000 0.000000 0.020051 0.000000 -0.001885
# 5 0.000038 -0.000799 0.003106 0.000000 0.026852 0.000000
# 6 0.000000 0.000000 0.000000 -0.001885 0.000000 0.022195
#
#
# Mechanical properties :
#
#
# Convention : Reuss Voigt Hill
#
# Bulk Modulus (GPa) = 53.30889 55.42696 54.36793
# Shear Modulus (GPa) = 42.20659 44.73092 43.46876
#
# Velocity S-wave (km/s) = 3.87499 3.98919 3.93251
# Velocity P-wave (km/s) = 6.24389 6.39821 6.32152
#
# Compressibility (1/GPa) = 0.01875860
#
# Stress axis : x y z
#
# Youngs Moduli (GPa) = 91.00826 80.99179 131.54948
#
# Poissons Ratio (x) = 0.28692 0.22831
# Poissons Ratio (y) = 0.32241 0.10667
# Poissons Ratio (z) = 0.15795 0.06567
#
# Static dielectric constant tensor:
#      x y z
#    x 2.212120 0.000000 0.004000 
#    y 0.000000 2.153790 0.000000 
#    z 0.004000 0.000000 2.117310 
# 
# From -- ./inp_files/18417.got.cif
#   From: 2010.05.17/outbox.cif.g08.bks.cpg/sg14_10_cif.got.tgz:18417.got - 2010.06.03 17:49:19.
