data_PCOD9247282
_publ_section_title
;
Structure prediction by ZEFSAII (Michael W. Deem and Ramdas Pophale) SiO2 
 PCOD9247282
Probable space group: P 21/C
;
_chemical_formula_sum "Si O2"
_cell_formula_units_Z 32
_cell_length_a 13.640461
_cell_length_b 7.020477
_cell_length_c 14.461299
_cell_angle_alpha 90.000000
_cell_angle_beta 57.987998
_cell_angle_gamma 90.000000
_cell_volume 1174.266303
_symmetry_space_group_name_H-M "P 21/C"
_symmetry_group_IT_number 14
_symmetry_cell_setting 'monoclinic'
loop_
_space_group_symop_operation_xyz
x,y,z
-x,1/2+y,1/2-z
-x,-y,-z
x,1/2-y,1/2+z
loop_
_atom_site_type_symbol
_atom_site_label
_atom_site_fract_x
_atom_site_fract_y
_atom_site_fract_z
Si Si1 0.244194 0.863783 0.852698
Si Si2 0.066128 0.999999 0.716935
Si Si3 0.499996 0.353155 0.786429
Si Si4 0.000002 0.750001 0.903879
Si Si5 0.500003 0.237004 0.591076
Si Si6 0.748005 0.230775 0.464647
Si Si7 0.755813 0.636216 0.096895
Si Si8 0.747999 0.769228 0.287357
O O1 0.370259 0.768977 0.768016
O O2 0.243299 0.895692 0.964122
O O3 0.119871 0.767359 0.897831
O O4 0.247952 0.046377 0.783404
O O5 0.149144 0.818648 0.655171
O O6 0.997854 0.938839 0.841072
O O7 0.997853 0.061164 0.661074
O O8 0.149151 0.181344 0.695676
O O9 0.499999 0.388847 0.674843
O O10 0.499996 0.538084 0.851780
O O11 0.370251 0.268979 0.861726
O O12 0.880136 0.732641 0.017705
O O13 0.622579 0.244978 0.479117
O O14 0.377429 0.244978 0.601689
O O15 0.752056 0.046380 0.531358
O O16 0.756703 0.604310 0.207426
#
# Coordination Sequence:
#
# PCOD9247282 Si02
#       8
#     4   4   4   4   4   4   4   4
#     4   9  18  32  52  74  96 127 166 199 240 291
#     4  10  22  35  48  71 102 130 160 202 252 290
#     4   8  14  28  48  71  96 121 156 204 238 278
#     4  10  22  36  50  72  98 132 168 202 246 290
#     4   8  14  27  48  72  98 123 156 198 240 287
#     4   9  18  32  51  75  99 128 162 200 244 290
#     4   9  18  32  52  74  96 127 166 199 240 291
#     4   9  18  32  51  75  99 128 162 200 244 290
#
# _framework density 27.251056999999999
#
# number of rings (size 3 to 8) (size 9 to 14) (size 15 to 20)
#    0.000    3.000    0.000    0.000    0.000    7.500 
#    0.000    1.250    0.000    0.750    0.000    0.000 
#    0.000    0.000    0.000    0.000    0.000    0.000 
#
# Total GULP energy -178479.996681 kJ/mol
# GULP energy per Si atom -5577.499896 kJ/mol
# Density = 2.718903 g / cm^3
# Si number density = 27.251057 Si / 1000 Ang^3
#
#
#
# Elastic Constant Matrix: (Units=GPa)
#
#
# Indices 1 2 3 4 5 6 
#
# 1 164.8255 22.3017 52.6576 0.0000 -56.2448 0.0000
# 2 22.3017 43.0962 5.3721 0.0000 -14.6657 0.0000
# 3 52.6576 5.3721 67.8301 0.0000 -27.7422 0.0000
# 4 0.0000 0.0000 0.0000 33.5277 0.0000 8.1564
# 5 -56.2448 -14.6657 -27.7422 0.0000 48.2864 0.0000
# 6 0.0000 0.0000 0.0000 8.1564 0.0000 24.1131
#
#
#
# Elastic Compliance Matrix: (Units=1/GPa)
#
#
# Indices 1 2 3 4 5 6 
#
# 1 0.011078 -0.001848 -0.004452 0.000000 0.009785 0.000000
# 2 -0.001848 0.026308 0.002273 0.000000 0.007143 0.000000
# 3 -0.004452 0.002273 0.021150 0.000000 0.007656 0.000000
# 4 0.000000 0.000000 0.000000 0.032501 0.000000 -0.010994
# 5 0.009785 0.007143 0.007656 0.000000 0.038676 0.000000
# 6 0.000000 0.000000 0.000000 -0.010994 0.000000 0.045190
#
#
# Mechanical properties :
#
#
# Convention : Reuss Voigt Hill
#
# Bulk Modulus (GPa) = 19.80903 48.49052 34.14977
# Shear Modulus (GPa) = 25.02693 34.21346 29.62020
#
# Velocity S-wave (km/s) = 3.03377 3.54714 3.30045
# Velocity P-wave (km/s) = 4.42228 5.88293 5.20410
#
# Compressibility (1/GPa) = 0.05048203
#
# Stress axis : x y z
#
# Youngs Moduli (GPa) = 90.26512 38.01150 47.28111
#
# Poissons Ratio (x) = 0.07025 0.21049
# Poissons Ratio (y) = 0.16681 -0.10746
# Poissons Ratio (z) = 0.40185 -0.08639
#
# Static dielectric constant tensor:
#      x y z
#    x 2.106870 0.000000 -0.018370 
#    y 0.000000 2.346820 0.000000 
#    z -0.018370 0.000000 2.085680 
# 
# From -- ./inp_files/46507.got.cif
#   From: 2010.05.17/outbox.cif.g08.bks.cpg/sg14_24_cif.got.tgz:46507.got - 2010.06.03 17:49:19.
