data_PCOD9247874
_publ_section_title
;
Structure prediction by ZEFSAII (Michael W. Deem and Ramdas Pophale) SiO2 
 PCOD9247874
Probable space group: P 21/C
;
_chemical_formula_sum "Si O2"
_cell_formula_units_Z 32
_cell_length_a 26.647820
_cell_length_b 7.619186
_cell_length_c 13.961828
_cell_angle_alpha 90.000000
_cell_angle_beta 24.636555
_cell_angle_gamma 90.000000
_cell_volume 1181.690130
_symmetry_space_group_name_H-M "P 21/C"
_symmetry_group_IT_number 14
_symmetry_cell_setting 'monoclinic'
loop_
_space_group_symop_operation_xyz
x,y,z
-x,1/2+y,1/2-z
-x,-y,-z
x,1/2-y,1/2+z
loop_
_atom_site_type_symbol
_atom_site_label
_atom_site_fract_x
_atom_site_fract_y
_atom_site_fract_z
Si Si1 0.670702 0.338765 0.836086
Si Si2 0.325229 0.058179 0.388609
Si Si3 0.848755 0.415350 0.262339
Si Si4 0.414646 0.674195 0.222823
Si Si5 0.039458 0.303668 0.059237
Si Si6 0.446889 0.260028 0.348856
Si Si7 0.249081 0.060327 0.316779
Si Si8 0.868909 0.060995 0.127052
O O1 0.599186 0.382581 0.862902
O O2 0.777267 0.453996 0.696407
O O3 0.735997 0.149793 0.702808
O O4 0.577849 0.317757 0.085149
O O5 0.392004 0.178110 0.348640
O O6 0.290560 0.137077 0.346785
O O7 0.407540 0.886789 0.229424
O O8 0.205150 0.994679 0.650018
O O9 0.707766 0.395120 0.517343
O O10 0.886539 0.603071 0.156171
O O11 0.896481 0.264094 0.104711
O O12 0.908357 0.378054 0.262252
O O13 0.519400 0.641402 0.117474
O O14 0.117451 0.370353 0.013825
O O15 0.036690 0.093816 0.054490
O O16 0.346803 0.385927 0.567225
#
# Coordination Sequence:
#
# PCOD9247874 Si02
#       8
#     4   4   4   4   4   4   4   4
#     4  11  23  41  67  97 136 180 228 280 348 403
#     4  10  22  40  64  98 133 180 228 274 347 402
#     4  10  22  44  70  98 134 182 220 281 346 395
#     4  10  22  43  67  95 136 180 228 284 340 410
#     4  11  22  42  71 100 134 175 231 277 335 412
#     4  12  20  38  68  99 133 182 226 280 344 411
#     4  11  23  41  68  96 138 180 224 286 343 408
#     4  11  21  45  67  97 136 178 225 283 329 413
#
# _framework density 27.079858999999999
#
# number of rings (size 3 to 8) (size 9 to 14) (size 15 to 20)
#    0.000    1.250    5.000    1.875    0.000    2.000 
#    2.250    5.625    0.000    0.000    0.000    0.000 
#    0.000    0.000    0.000    0.000    0.000    0.000 
#
# Total GULP energy -179226.751880 kJ/mol
# GULP energy per Si atom -5600.835996 kJ/mol
# Density = 2.701822 g / cm^3
# Si number density = 27.079859 Si / 1000 Ang^3
#
#
#
# Elastic Constant Matrix: (Units=GPa)
#
#
# Indices 1 2 3 4 5 6 
#
# 1 254.6249 39.3329 41.9099 0.0000 -19.6761 0.0000
# 2 39.3329 73.4491 7.1134 0.0000 10.0213 0.0000
# 3 41.9099 7.1134 29.1184 0.0000 -8.9506 0.0000
# 4 0.0000 0.0000 0.0000 27.2413 0.0000 0.7441
# 5 -19.6761 10.0213 -8.9506 0.0000 43.2678 0.0000
# 6 0.0000 0.0000 0.0000 0.7441 0.0000 54.0618
#
#
#
# Elastic Compliance Matrix: (Units=1/GPa)
#
#
# Indices 1 2 3 4 5 6 
#
# 1 0.005589 -0.002559 -0.006895 0.000000 0.001708 0.000000
# 2 -0.002559 0.015870 -0.001796 0.000000 -0.005211 0.000000
# 3 -0.006895 -0.001796 0.046848 0.000000 0.006972 0.000000
# 4 0.000000 0.000000 0.000000 0.036723 0.000000 -0.000505
# 5 0.001708 -0.005211 0.006972 0.000000 0.026538 0.000000
# 6 0.000000 0.000000 0.000000 -0.000505 0.000000 0.018504
#
#
# Mechanical properties :
#
#
# Convention : Reuss Voigt Hill
#
# Bulk Modulus (GPa) = 21.83002 59.32276 40.57639
# Shear Modulus (GPa) = 26.61837 42.83659 34.72748
#
# Velocity S-wave (km/s) = 3.13862 3.98158 3.58496
# Velocity P-wave (km/s) = 4.60580 6.56441 5.67031
#
# Compressibility (1/GPa) = 0.04580848
#
# Stress axis : x y z
#
# Youngs Moduli (GPa) = 178.91018 63.01241 21.34566
#
# Poissons Ratio (x) = 0.16122 0.14717
# Poissons Ratio (y) = 0.45774 0.03834
# Poissons Ratio (z) = 1.23354 0.11318
#
# Static dielectric constant tensor:
#      x y z
#    x 2.108120 0.000000 -0.032200 
#    y 0.000000 2.184860 0.000000 
#    z -0.032200 0.000000 2.072720 
# 
# From -- ./inp_files/51233.got.cif
#   From: 2010.05.17/outbox.cif.g08.bks.cpg/sg14_26_cif.got.tgz:51233.got - 2010.06.03 17:49:19.
