data_PCOD9247108
_publ_section_title
;
Structure prediction by ZEFSAII (Michael W. Deem and Ramdas Pophale) SiO2 
 PCOD9247108
Probable space group: P 21/C
;
_chemical_formula_sum "Si O2"
_cell_formula_units_Z 28
_cell_length_a 5.152946
_cell_length_b 19.761465
_cell_length_c 10.353414
_cell_angle_alpha 90.000000
_cell_angle_beta 95.118933
_cell_angle_gamma 90.000000
_cell_volume 1050.080809
_symmetry_space_group_name_H-M "P 21/C"
_symmetry_group_IT_number 14
_symmetry_cell_setting 'monoclinic'
loop_
_space_group_symop_operation_xyz
x,y,z
-x,1/2+y,1/2-z
-x,-y,-z
x,1/2-y,1/2+z
loop_
_atom_site_type_symbol
_atom_site_label
_atom_site_fract_x
_atom_site_fract_y
_atom_site_fract_z
Si Si1 0.711024 0.940602 0.001988
Si Si2 0.307069 0.439283 0.949735
Si Si3 0.102935 0.740784 0.350778
Si Si4 0.420715 0.189605 0.301755
Si Si5 0.051752 0.507542 0.730011
Si Si6 0.580274 0.128453 0.678874
Si Si7 0.533199 0.192360 0.949778
O O1 0.891738 0.956865 0.887027
O O2 0.585136 0.868124 0.973976
O O3 0.842702 0.945721 0.148780
O O4 0.500000 0.000000 0.000000
O O5 0.411281 0.388685 0.842197
O O6 0.044422 0.468228 0.867696
O O7 0.500000 0.500000 0.000000
O O8 0.337994 0.392264 0.077446
O O9 0.310610 0.707493 0.258893
O O10 0.197958 0.819261 0.366659
O O11 0.173769 0.704884 0.489459
O O12 0.822268 0.719257 0.289277
O O13 0.408669 0.233833 0.434639
O O14 0.284364 0.559264 0.769084
O O15 0.504354 0.165870 0.804992
#
# Coordination Sequence:
#
# PCOD9247108 Si02
#       7
#     4   4   4   4   4   4   4
#     4  11  22  38  64 101 130 179 228 287 348 409
#     4  10  22  45  70  99 143 183 237 290 361 427
#     4  11  25  43  75  99 140 181 240 291 352 416
#     4  11  25  46  70 105 136 186 237 291 355 424
#     4  10  22  40  69  93 138 177 234 286 349 426
#     4  10  21  44  65 101 133 184 226 295 353 419
#     4  11  23  43  70  98 141 177 234 294 353 423
#
# _framework density 26.664614
#
# number of rings (size 3 to 8) (size 9 to 14) (size 15 to 20)
#    0.000    1.429    2.857    1.714    2.000    3.429 
#    0.000    1.429    0.000    0.000    0.000    0.000 
#    0.000    0.000    0.000    0.000    0.000    0.000 
#
# Total GULP energy -156341.083500 kJ/mol
# GULP energy per Si atom -5583.610125 kJ/mol
# Density = 2.660392 g / cm^3
# Si number density = 26.664614 Si / 1000 Ang^3
#
#
#
# Elastic Constant Matrix: (Units=GPa)
#
#
# Indices 1 2 3 4 5 6 
#
# 1 74.5542 14.5229 33.4901 0.0000 18.8912 0.0000
# 2 14.5229 109.6430 34.7101 0.0000 7.6878 0.0000
# 3 33.4901 34.7101 170.3538 0.0000 38.3888 0.0000
# 4 0.0000 0.0000 0.0000 68.6683 0.0000 6.8543
# 5 18.8912 7.6878 38.3888 0.0000 45.6266 0.0000
# 6 0.0000 0.0000 0.0000 6.8543 0.0000 22.7039
#
#
#
# Elastic Compliance Matrix: (Units=1/GPa)
#
#
# Indices 1 2 3 4 5 6 
#
# 1 0.015648 -0.001181 -0.001753 0.000000 -0.004805 0.000000
# 2 -0.001181 0.009839 -0.001862 0.000000 0.000398 0.000000
# 3 -0.001753 -0.001862 0.007848 0.000000 -0.005563 0.000000
# 4 0.000000 0.000000 0.000000 0.015015 0.000000 -0.004533
# 5 -0.004805 0.000398 -0.005563 0.000000 0.028520 0.000000
# 6 0.000000 0.000000 0.000000 -0.004533 0.000000 0.045414
#
#
# Mechanical properties :
#
#
# Convention : Reuss Voigt Hill
#
# Bulk Modulus (GPa) = 42.11819 57.77745 49.94782
# Shear Modulus (GPa) = 35.76794 45.52162 40.64478
#
# Velocity S-wave (km/s) = 3.66649 4.13630 3.90846
# Velocity P-wave (km/s) = 5.80982 6.67287 6.25625
#
# Compressibility (1/GPa) = 0.02374271
#
# Stress axis : x y z
#
# Youngs Moduli (GPa) = 63.90578 101.64120 127.42327
#
# Poissons Ratio (x) = 0.12002 0.22335
# Poissons Ratio (y) = 0.07546 0.23728
# Poissons Ratio (z) = 0.11202 0.18927
#
# Static dielectric constant tensor:
#      x y z
#    x 2.087950 0.000000 -0.054860 
#    y 0.000000 2.194220 0.000000 
#    z -0.054860 0.000000 2.203990 
# 
# From -- ./inp_files/21837.got.cif
#   From: 2010.05.17/outbox.cif.g08.bks.cpg/sg14_11_cif.got.tgz:21837.got - 2010.06.03 17:49:19.
