data_PCOD9247819
_publ_section_title
;
Structure prediction by ZEFSAII (Michael W. Deem and Ramdas Pophale) SiO2 
 PCOD9247819
Probable space group: P 21/C
;
_chemical_formula_sum "Si O2"
_cell_formula_units_Z 24
_cell_length_a 22.604010
_cell_length_b 8.558083
_cell_length_c 10.495651
_cell_angle_alpha 90.000000
_cell_angle_beta 151.807095
_cell_angle_gamma 90.000000
_cell_volume 959.222868
_symmetry_space_group_name_H-M "P 21/C"
_symmetry_group_IT_number 14
_symmetry_cell_setting 'monoclinic'
loop_
_space_group_symop_operation_xyz
x,y,z
-x,1/2+y,1/2-z
-x,-y,-z
x,1/2-y,1/2+z
loop_
_atom_site_type_symbol
_atom_site_label
_atom_site_fract_x
_atom_site_fract_y
_atom_site_fract_z
Si Si1 0.427956 0.214776 0.282683
Si Si2 0.988551 0.449227 0.330323
Si Si3 0.918209 0.092273 0.237761
Si Si4 0.737069 0.925345 0.401465
Si Si5 0.563676 0.072458 0.874201
Si Si6 0.312966 0.742643 0.074569
O O1 0.297848 0.260273 0.103111
O O2 0.443456 0.043227 0.257328
O O3 0.442978 0.338114 0.194608
O O4 0.550668 0.248254 0.600688
O O5 0.974430 0.263136 0.309570
O O6 0.000000 0.500000 0.500000
O O7 0.082898 0.497535 0.397309
O O8 0.860113 0.543299 0.052938
O O9 0.784685 0.139944 0.045110
O O10 0.000000 0.000000 0.500000
O O11 0.735971 0.067222 0.501458
O O12 0.619670 0.967259 0.090855
O O13 0.663583 0.205919 0.025588
#
# Coordination Sequence:
#
# PCOD9247819 Si02
#       6
#     4   4   4   4   4   4
#     4  11  22  38  61  94 126 165 213 265 329 397
#     4  11  25  43  67  98 132 176 228 282 341 403
#     4  11  24  45  69  97 133 176 228 283 341 405
#     4  10  23  41  61  89 125 166 215 268 325 395
#     4  11  21  37  60  87 124 165 208 265 326 389
#     4  10  22  40  63  89 124 168 214 267 329 393
#
# _framework density 25.020251999999999
#
# number of rings (size 3 to 8) (size 9 to 14) (size 15 to 20)
#    0.000    1.333    0.000    6.500    0.000   12.000 
#    0.000    0.000    0.000    0.000    0.000    0.000 
#    0.000    0.000    0.000    0.000    0.000    0.000 
#
# Total GULP energy -134118.362169 kJ/mol
# GULP energy per Si atom -5588.265090 kJ/mol
# Density = 2.496331 g / cm^3
# Si number density = 25.020252 Si / 1000 Ang^3
#
#
#
# Elastic Constant Matrix: (Units=GPa)
#
#
# Indices 1 2 3 4 5 6 
#
# 1 119.1703 38.3900 20.6022 0.0000 9.4986 0.0000
# 2 38.3900 84.9573 25.9462 0.0000 2.3891 0.0000
# 3 20.6022 25.9462 55.9131 0.0000 3.9637 0.0000
# 4 0.0000 0.0000 0.0000 29.1395 0.0000 3.8295
# 5 9.4986 2.3891 3.9637 0.0000 38.0397 0.0000
# 6 0.0000 0.0000 0.0000 3.8295 0.0000 68.9055
#
#
#
# Elastic Compliance Matrix: (Units=1/GPa)
#
#
# Indices 1 2 3 4 5 6 
#
# 1 0.010146 -0.003996 -0.001735 0.000000 -0.002102 0.000000
# 2 -0.003996 0.015289 -0.005667 0.000000 0.000628 0.000000
# 3 -0.001735 -0.005667 0.021255 0.000000 -0.001425 0.000000
# 4 0.000000 0.000000 0.000000 0.034570 0.000000 -0.001921
# 5 -0.002102 0.000628 -0.001425 0.000000 0.026922 0.000000
# 6 0.000000 0.000000 0.000000 -0.001921 0.000000 0.014619
#
#
# Mechanical properties :
#
#
# Convention : Reuss Voigt Hill
#
# Bulk Modulus (GPa) = 41.85115 47.76860 44.80988
# Shear Modulus (GPa) = 32.55985 38.89042 35.72514
#
# Velocity S-wave (km/s) = 3.61132 3.94681 3.78279
# Velocity P-wave (km/s) = 5.84398 6.31690 6.08503
#
# Compressibility (1/GPa) = 0.02389420
#
# Stress axis : x y z
#
# Youngs Moduli (GPa) = 98.56035 65.40537 47.04734
#
# Poissons Ratio (x) = 0.26134 0.08164
# Poissons Ratio (y) = 0.39381 0.26662
# Poissons Ratio (z) = 0.17104 0.37066
#
# Static dielectric constant tensor:
#      x y z
#    x 2.076080 0.000000 -0.009310 
#    y 0.000000 1.982160 0.000000 
#    z -0.009310 0.000000 2.040750 
# 
# From -- ./inp_files/35787.got.cif
#   From: 2010.05.17/outbox.cif.g08.bks.cpg/sg14_18_cif.got.tgz:35787.got - 2010.06.03 17:49:19.
