data_PCOD9247720
_publ_section_title
;
Structure prediction by ZEFSAII (Michael W. Deem and Ramdas Pophale) SiO2 
 PCOD9247720
Probable space group: P 21/C
;
_chemical_formula_sum "Si O2"
_cell_formula_units_Z 20
_cell_length_a 22.442773
_cell_length_b 7.931845
_cell_length_c 12.903838
_cell_angle_alpha 90.000000
_cell_angle_beta 22.056254
_cell_angle_gamma 90.000000
_cell_volume 862.579113
_symmetry_space_group_name_H-M "P 21/C"
_symmetry_group_IT_number 14
_symmetry_cell_setting 'monoclinic'
loop_
_space_group_symop_operation_xyz
x,y,z
-x,1/2+y,1/2-z
-x,-y,-z
x,1/2-y,1/2+z
loop_
_atom_site_type_symbol
_atom_site_label
_atom_site_fract_x
_atom_site_fract_y
_atom_site_fract_z
Si Si1 0.064815 0.777067 0.917057
Si Si2 0.349823 0.569896 0.436483
Si Si3 0.248881 0.202435 0.951520
Si Si4 0.149905 0.402579 0.396862
Si Si5 0.421295 0.151773 0.995575
O O1 0.898090 0.770516 0.246225
O O2 0.014682 0.829341 0.881880
O O3 0.165620 0.608206 0.754931
O O4 0.165958 0.920869 0.812600
O O5 0.361533 0.417105 0.336920
O O6 0.423284 0.735367 0.265961
O O7 0.428425 0.517797 0.418539
O O8 0.167436 0.088123 0.992039
O O9 0.349459 0.343974 0.727144
O O10 0.287994 0.267492 0.151445
#
# Coordination Sequence:
#
# PCOD9247720 Si02
#       5
#     4   4   4   4   4
#     4  11  22  40  67  95 127 161 208 265 311 372
#     4  12  23  43  65  91 129 170 207 260 321 359
#     4  10  22  39  67  91 123 166 210 254 309 380
#     4   9  23  39  64  94 130 158 208 256 315 371
#     4  10  24  40  62  89 127 168 209 255 309 378
#
# _framework density 23.186278999999999
#
# number of rings (size 3 to 8) (size 9 to 14) (size 15 to 20)
#    1.200    0.400    2.000    2.400    5.600    0.000 
#    0.000    1.000    0.000    0.000    0.000    0.000 
#    0.000    0.000    0.000    0.000    0.000    0.000 
#
# Total GULP energy -111552.112323 kJ/mol
# GULP energy per Si atom -5577.605616 kJ/mol
# Density = 2.313351 g / cm^3
# Si number density = 23.186279 Si / 1000 Ang^3
#
#
#
# Elastic Constant Matrix: (Units=GPa)
#
#
# Indices 1 2 3 4 5 6 
#
# 1 76.7163 -6.3322 -5.6542 0.0000 10.9516 0.0000
# 2 -6.3322 24.9969 2.6269 0.0000 6.9588 0.0000
# 3 -5.6542 2.6269 72.2825 0.0000 14.3836 0.0000
# 4 0.0000 0.0000 0.0000 37.6515 0.0000 -11.7877
# 5 10.9516 6.9588 14.3836 0.0000 18.8592 0.0000
# 6 0.0000 0.0000 0.0000 -11.7877 0.0000 26.7381
#
#
#
# Elastic Compliance Matrix: (Units=1/GPa)
#
#
# Indices 1 2 3 4 5 6 
#
# 1 0.016195 0.007974 0.004048 0.000000 -0.015434 0.000000
# 2 0.007974 0.048745 0.003953 0.000000 -0.025631 0.000000
# 3 0.004048 0.003953 0.017408 0.000000 -0.017086 0.000000
# 4 0.000000 0.000000 0.000000 0.030812 0.000000 0.013584
# 5 -0.015434 -0.025631 -0.017086 0.000000 0.084476 0.000000
# 6 0.000000 0.000000 0.000000 0.013584 0.000000 0.043388
#
#
# Mechanical properties :
#
#
# Convention : Reuss Voigt Hill
#
# Bulk Modulus (GPa) = 8.74919 17.25298 13.00108
# Shear Modulus (GPa) = 20.22876 28.87344 24.55110
#
# Velocity S-wave (km/s) = 2.95692 3.53268 3.25755
# Velocity P-wave (km/s) = 3.92931 4.90887 4.44615
#
# Compressibility (1/GPa) = 0.11429629
#
# Stress axis : x y z
#
# Youngs Moduli (GPa) = 61.74809 20.51503 57.44631
#
# Poissons Ratio (x) = -0.16358 -0.23256
# Poissons Ratio (y) = -0.49236 -0.22706
# Poissons Ratio (z) = -0.24997 -0.08109
#
# Static dielectric constant tensor:
#      x y z
#    x 1.880210 0.000000 -0.004170 
#    y 0.000000 1.913040 0.000000 
#    z -0.004170 0.000000 1.878170 
# 
# From -- ./inp_files/43253.got.cif
#   From: 2010.05.17/outbox.cif.g08.bks.cpg/sg14_22_cif.got.tgz:43253.got - 2010.06.03 17:49:19.
