data_PCOD9247657
_publ_section_title
;
Structure prediction by ZEFSAII (Michael W. Deem and Ramdas Pophale) SiO2 
 PCOD9247657
Probable space group: P 21/C
;
_chemical_formula_sum "Si O2"
_cell_formula_units_Z 28
_cell_length_a 6.611381
_cell_length_b 17.655236
_cell_length_c 14.922649
_cell_angle_alpha 90.000000
_cell_angle_beta 126.366766
_cell_angle_gamma 90.000000
_cell_volume 1402.606438
_symmetry_space_group_name_H-M "P 21/C"
_symmetry_group_IT_number 14
_symmetry_cell_setting 'monoclinic'
loop_
_space_group_symop_operation_xyz
x,y,z
-x,1/2+y,1/2-z
-x,-y,-z
x,1/2-y,1/2+z
loop_
_atom_site_type_symbol
_atom_site_label
_atom_site_fract_x
_atom_site_fract_y
_atom_site_fract_z
Si Si1 0.713761 0.421410 0.610686
Si Si2 0.851193 0.076764 0.335275
Si Si3 0.310223 0.403494 0.190244
Si Si4 0.260917 0.838932 0.073938
Si Si5 0.785106 0.165479 0.488896
Si Si6 0.563052 0.581213 0.973650
Si Si7 0.121675 0.050544 0.953507
O O1 0.796939 0.385433 0.725671
O O2 0.746684 0.373996 0.528466
O O3 0.875314 0.498231 0.634298
O O4 0.418134 0.437977 0.546085
O O5 0.717951 0.111435 0.387047
O O6 0.141478 0.088023 0.432709
O O7 0.778369 0.988467 0.309135
O O8 0.480473 0.365705 0.311281
O O9 0.473468 0.413074 0.142399
O O10 0.061609 0.355702 0.099454
O O11 0.232020 0.749991 0.052451
O O12 0.038177 0.873247 0.077900
O O13 0.591304 0.145578 0.516203
O O14 0.500000 0.500000 0.000000
O O15 0.000000 0.000000 0.000000
#
# Coordination Sequence:
#
# PCOD9247657 Si02
#       7
#     4   4   4   4   4   4   4
#     4  10  22  39  63  96 129 165 218 260 314 395
#     4  11  22  39  68  96 125 165 224 276 314 388
#     4  11  23  42  66  94 125 171 223 269 318 391
#     4  11  26  41  64  97 137 175 206 271 340 393
#     4  11  25  43  62  96 135 165 221 272 328 387
#     4  11  21  40  68  93 117 169 223 271 320 377
#     4   9  19  38  59  87 124 166 207 251 309 382
#
# _framework density 19.962834000000001
#
# number of rings (size 3 to 8) (size 9 to 14) (size 15 to 20)
#    0.000    1.429    2.857    3.429    2.000    9.143 
#    0.000    0.000    0.000    0.000    0.000    0.000 
#    0.000    0.000    0.000    0.000    0.000    0.000 
#
# Total GULP energy -156242.188029 kJ/mol
# GULP energy per Si atom -5580.078144 kJ/mol
# Density = 1.991740 g / cm^3
# Si number density = 19.962834 Si / 1000 Ang^3
#
#
#
# Elastic Constant Matrix: (Units=GPa)
#
#
# Indices 1 2 3 4 5 6 
#
# 1 96.7520 29.9889 18.2109 0.0000 -10.6375 0.0000
# 2 29.9889 119.0438 32.4428 0.0000 7.0062 0.0000
# 3 18.2109 32.4428 108.3316 0.0000 -23.7963 0.0000
# 4 0.0000 0.0000 0.0000 17.1406 0.0000 -6.0135
# 5 -10.6375 7.0062 -23.7963 0.0000 26.4597 0.0000
# 6 0.0000 0.0000 0.0000 -6.0135 0.0000 17.2787
#
#
#
# Elastic Compliance Matrix: (Units=1/GPa)
#
#
# Indices 1 2 3 4 5 6 
#
# 1 0.012015 -0.003482 0.000357 0.000000 0.006073 0.000000
# 2 -0.003482 0.011017 -0.004564 0.000000 -0.008421 0.000000
# 3 0.000357 -0.004564 0.013502 0.000000 0.013495 0.000000
# 4 0.000000 0.000000 0.000000 0.066455 0.000000 0.023128
# 5 0.006073 -0.008421 0.013495 0.000000 0.054601 0.000000
# 6 0.000000 0.000000 0.000000 0.023128 0.000000 0.065924
#
#
# Mechanical properties :
#
#
# Convention : Reuss Voigt Hill
#
# Bulk Modulus (GPa) = 47.26535 53.93473 50.60004
# Shear Modulus (GPa) = 20.32986 28.40812 24.36899
#
# Velocity S-wave (km/s) = 3.19468 3.77643 3.49767
# Velocity P-wave (km/s) = 6.11032 6.78907 6.45862
#
# Compressibility (1/GPa) = 0.02115715
#
# Stress axis : x y z
#
# Youngs Moduli (GPa) = 83.22653 90.77120 74.06337
#
# Poissons Ratio (x) = 0.31603 -0.02643
# Poissons Ratio (y) = 0.28976 0.33801
# Poissons Ratio (z) = -0.02970 0.41426
#
# Static dielectric constant tensor:
#      x y z
#    x 1.750610 0.000000 -0.018510 
#    y 0.000000 1.720870 0.000000 
#    z -0.018510 0.000000 1.710800 
# 
# From -- ./inp_files/37897.got.cif
#   From: 2010.05.17/outbox.cif.g08.bks.cpg/sg14_19_cif.got.tgz:37897.got - 2010.06.03 17:49:19.
