data_PCOD9247728
_publ_section_title
;
Structure prediction by ZEFSAII (Michael W. Deem and Ramdas Pophale) SiO2 
 PCOD9247728
Probable space group: P 21/C
;
_chemical_formula_sum "Si O2"
_cell_formula_units_Z 28
_cell_length_a 9.543367
_cell_length_b 14.673833
_cell_length_c 11.511796
_cell_angle_alpha 90.000000
_cell_angle_beta 137.914075
_cell_angle_gamma 90.000000
_cell_volume 1080.491688
_symmetry_space_group_name_H-M "P 21/C"
_symmetry_group_IT_number 14
_symmetry_cell_setting 'monoclinic'
loop_
_space_group_symop_operation_xyz
x,y,z
-x,1/2+y,1/2-z
-x,-y,-z
x,1/2-y,1/2+z
loop_
_atom_site_type_symbol
_atom_site_label
_atom_site_fract_x
_atom_site_fract_y
_atom_site_fract_z
Si Si1 0.073353 0.987522 0.914927
Si Si2 0.702554 0.732532 0.157520
Si Si3 0.259268 0.082762 0.482191
Si Si4 0.402970 0.888489 0.584971
Si Si5 0.968890 0.179231 0.785059
Si Si6 0.417372 0.905717 0.002101
Si Si7 0.101028 0.657997 0.110983
O O1 0.107076 0.089157 0.885160
O O2 0.284834 0.929827 0.034591
O O3 0.896302 0.944957 0.720828
O O4 0.000000 0.000000 0.000000
O O5 0.645389 0.677969 0.002438
O O6 0.621950 0.663095 0.206987
O O7 0.935531 0.763294 0.264425
O O8 0.583593 0.825706 0.112847
O O9 0.110624 0.098313 0.502867
O O10 0.411781 0.997570 0.588935
O O11 0.253389 0.861394 0.599049
O O12 0.261140 0.854229 0.389915
O O13 0.965008 0.239159 0.898990
O O14 0.244165 0.868438 0.807831
O O15 0.500000 0.000000 0.000000
#
# Coordination Sequence:
#
# PCOD9247728 Si02
#       7
#     4   4   4   4   4   4   4
#     4  10  22  39  68  90 125 171 214 259 320 382
#     4  11  22  41  64  90 130 165 206 268 320 378
#     4   9  22  42  63  92 128 164 211 268 320 377
#     4  11  22  42  66  91 128 169 217 260 322 389
#     4  10  22  41  61  94 130 168 210 272 317 375
#     4  11  22  42  62  92 133 163 212 268 319 378
#     4  10  22  40  65  93 127 173 213 262 326 382
#
# _framework density 25.914128000000002
#
# number of rings (size 3 to 8) (size 9 to 14) (size 15 to 20)
#    0.000    1.714    2.857    0.857    2.000    1.143 
#    5.143    0.000    0.000    0.000    0.000    0.000 
#    0.000    0.000    0.000    0.000    0.000    0.000 
#
# Total GULP energy -156580.929012 kJ/mol
# GULP energy per Si atom -5592.176036 kJ/mol
# Density = 2.585515 g / cm^3
# Si number density = 25.914128 Si / 1000 Ang^3
#
#
#
# Elastic Constant Matrix: (Units=GPa)
#
#
# Indices 1 2 3 4 5 6 
#
# 1 152.9943 22.4931 8.6420 0.0000 -17.6952 0.0000
# 2 22.4931 125.8892 15.7671 0.0000 7.8272 0.0000
# 3 8.6420 15.7671 48.8197 0.0000 0.0573 0.0000
# 4 0.0000 0.0000 0.0000 12.2373 0.0000 7.4477
# 5 -17.6952 7.8272 0.0573 0.0000 27.8556 0.0000
# 6 0.0000 0.0000 0.0000 7.4477 0.0000 58.4600
#
#
#
# Elastic Compliance Matrix: (Units=1/GPa)
#
#
# Indices 1 2 3 4 5 6 
#
# 1 0.007403 -0.001539 -0.000819 0.000000 0.005137 0.000000
# 2 -0.001539 0.008751 -0.002550 0.000000 -0.003432 0.000000
# 3 -0.000819 -0.002550 0.021452 0.000000 0.000152 0.000000
# 4 0.000000 0.000000 0.000000 0.088586 0.000000 -0.011286
# 5 0.005137 -0.003432 0.000152 0.000000 0.040127 0.000000
# 6 0.000000 0.000000 0.000000 -0.011286 0.000000 0.018543
#
#
# Mechanical properties :
#
#
# Convention : Reuss Voigt Hill
#
# Bulk Modulus (GPa) = 35.98559 46.83420 41.40990
# Shear Modulus (GPa) = 24.51671 38.43063 31.47367
#
# Velocity S-wave (km/s) = 3.07917 3.85515 3.48880
# Velocity P-wave (km/s) = 5.15348 6.15860 5.67832
#
# Compressibility (1/GPa) = 0.02778890
#
# Stress axis : x y z
#
# Youngs Moduli (GPa) = 135.08142 114.26886 46.61597
#
# Poissons Ratio (x) = 0.17592 0.03819
# Poissons Ratio (y) = 0.20796 0.11886
# Poissons Ratio (z) = 0.11067 0.29137
#
# Static dielectric constant tensor:
#      x y z
#    x 3.090200 0.000000 -0.763140 
#    y 0.000000 1.950690 0.000000 
#    z -0.763140 0.000000 2.557110 
# 
# From -- ./inp_files/25376.got.cif
#   From: 2010.05.17/outbox.cif.g08.bks.cpg/sg14_13_cif.got.tgz:25376.got - 2010.06.03 17:49:19.
