data_PCOD9247412
_publ_section_title
;
Structure prediction by ZEFSAII (Michael W. Deem and Ramdas Pophale) SiO2 
 PCOD9247412
Probable space group: P 21/C
;
_chemical_formula_sum "Si O2"
_cell_formula_units_Z 20
_cell_length_a 13.067221
_cell_length_b 11.554825
_cell_length_c 12.974806
_cell_angle_alpha 90.000000
_cell_angle_beta 30.242341
_cell_angle_gamma 90.000000
_cell_volume 986.696639
_symmetry_space_group_name_H-M "P 21/C"
_symmetry_group_IT_number 14
_symmetry_cell_setting 'monoclinic'
loop_
_space_group_symop_operation_xyz
x,y,z
-x,1/2+y,1/2-z
-x,-y,-z
x,1/2-y,1/2+z
loop_
_atom_site_type_symbol
_atom_site_label
_atom_site_fract_x
_atom_site_fract_y
_atom_site_fract_z
Si Si1 0.095284 0.124080 0.902796
Si Si2 0.271791 0.451807 0.698718
Si Si3 0.792227 0.742379 0.898991
Si Si4 0.142492 0.798089 0.261383
Si Si5 0.582485 0.765791 0.776742
O O1 0.172280 0.149439 0.721120
O O2 0.292373 0.150499 0.802091
O O3 0.921727 0.215654 0.088467
O O4 0.000000 0.000000 0.000000
O O5 0.500000 0.500000 0.500000
O O6 0.225428 0.364927 0.644547
O O7 0.142617 0.568517 0.798987
O O8 0.282637 0.368835 0.789302
O O9 0.982028 0.730730 0.810891
O O10 0.595466 0.723427 0.142541
O O11 0.364212 0.770866 0.020205
#
# Coordination Sequence:
#
# PCOD9247412 Si02
#       5
#     4   4   4   4   4
#     4  10  23  41  58  90 132 161 198 254 316 371
#     4   9  20  42  65  89 126 162 212 259 311 374
#     4  10  22  37  64  92 127 158 213 256 307 373
#     4  10  22  40  65  91 122 167 210 253 314 370
#     4   9  21  42  61  95 121 162 210 256 309 372
#
# _framework density 20.269653999999999
#
# number of rings (size 3 to 8) (size 9 to 14) (size 15 to 20)
#    0.000    2.400    0.000    0.000    5.600   12.800 
#    7.200    0.000    0.000    0.000    0.000    0.000 
#    0.000    0.000    0.000    0.000    0.000    0.000 
#
# Total GULP energy -111476.635341 kJ/mol
# GULP energy per Si atom -5573.831767 kJ/mol
# Density = 2.022352 g / cm^3
# Si number density = 20.269654 Si / 1000 Ang^3
#
#
#
# Elastic Constant Matrix: (Units=GPa)
#
#
# Indices 1 2 3 4 5 6 
#
# 1 55.7108 19.2074 10.7745 0.0000 6.8218 0.0000
# 2 19.2074 128.7946 19.8747 0.0000 10.1569 0.0000
# 3 10.7745 19.8747 121.1369 0.0000 12.4654 0.0000
# 4 0.0000 0.0000 0.0000 22.6355 0.0000 -11.3061
# 5 6.8218 10.1569 12.4654 0.0000 44.7522 0.0000
# 6 0.0000 0.0000 0.0000 -11.3061 0.0000 25.4488
#
#
#
# Elastic Compliance Matrix: (Units=1/GPa)
#
#
# Indices 1 2 3 4 5 6 
#
# 1 0.019290 -0.002547 -0.001086 0.000000 -0.002060 0.000000
# 2 -0.002547 0.008399 -0.001025 0.000000 -0.001233 0.000000
# 3 -0.001086 -0.001025 0.008729 0.000000 -0.002033 0.000000
# 4 0.000000 0.000000 0.000000 0.056778 0.000000 0.025225
# 5 -0.002060 -0.001233 -0.002033 0.000000 0.023505 0.000000
# 6 0.000000 0.000000 0.000000 0.025225 0.000000 0.050501
#
#
# Mechanical properties :
#
#
# Convention : Reuss Voigt Hill
#
# Bulk Modulus (GPa) = 36.89510 45.03950 40.96730
# Shear Modulus (GPa) = 26.94654 35.61967 31.28310
#
# Velocity S-wave (km/s) = 3.65005 4.19655 3.93281
# Velocity P-wave (km/s) = 6.00046 6.76386 6.39356
#
# Compressibility (1/GPa) = 0.02710387
#
# Stress axis : x y z
#
# Youngs Moduli (GPa) = 51.83992 119.05557 114.55971
#
# Poissons Ratio (x) = 0.30320 0.12441
# Poissons Ratio (y) = 0.13202 0.11739
# Poissons Ratio (z) = 0.05630 0.12200
#
# Static dielectric constant tensor:
#      x y z
#    x 1.756500 0.000000 -0.047920 
#    y 0.000000 1.731490 0.000000 
#    z -0.047920 0.000000 1.907420 
# 
# From -- ./inp_files/32299.got.cif
#   From: 2010.05.17/outbox.cif.g08.bks.cpg/sg14_17_cif.got.tgz:32299.got - 2010.06.03 17:49:19.
