data_PCOD9247101
_publ_section_title
;
Structure prediction by ZEFSAII (Michael W. Deem and Ramdas Pophale) SiO2 
 PCOD9247101
Probable space group: P 21/C
;
_chemical_formula_sum "Si O2"
_cell_formula_units_Z 28
_cell_length_a 12.489282
_cell_length_b 14.395691
_cell_length_c 17.659444
_cell_angle_alpha 90.000000
_cell_angle_beta 160.127082
_cell_angle_gamma 90.000000
_cell_volume 1079.301997
_symmetry_space_group_name_H-M "P 21/C"
_symmetry_group_IT_number 14
_symmetry_cell_setting 'monoclinic'
loop_
_space_group_symop_operation_xyz
x,y,z
-x,1/2+y,1/2-z
-x,-y,-z
x,1/2-y,1/2+z
loop_
_atom_site_type_symbol
_atom_site_label
_atom_site_fract_x
_atom_site_fract_y
_atom_site_fract_z
Si Si1 0.164678 0.897945 0.874629
Si Si2 0.720000 0.769375 0.051987
Si Si3 0.668240 0.109971 0.749450
Si Si4 0.299838 0.873572 0.677487
Si Si5 0.222491 0.415031 0.729812
Si Si6 0.266541 0.290106 0.269709
Si Si7 0.900587 0.545206 0.049767
O O1 0.011355 0.800959 0.742531
O O2 0.992600 0.921507 0.838008
O O3 0.090173 0.964961 0.754963
O O4 0.524242 0.870742 0.128174
O O5 0.135639 0.586225 0.143839
O O6 0.640613 0.837912 0.930413
O O7 0.748191 0.815831 0.152051
O O8 0.394677 0.112742 0.630939
O O9 0.588738 0.201256 0.649438
O O10 0.603396 0.013187 0.662131
O O11 0.003639 0.097851 0.010323
O O12 0.079597 0.792648 0.496987
O O13 0.733759 0.046982 0.407296
O O14 0.393681 0.315387 0.848044
#
# Coordination Sequence:
#
# PCOD9247101 Si02
#       7
#     4   4   4   4   4   4   4
#     4  10  22  41  65  97 135 171 219 274 331 386
#     4  10  22  42  65  93 130 166 220 271 317 396
#     4  10  21  44  63  95 133 170 216 269 330 382
#     4  11  22  44  67  96 130 172 223 266 329 392
#     4  10  22  40  67  94 127 175 216 268 326 391
#     4  11  22  40  67  95 128 173 215 272 322 386
#     4  10  23  41  67  93 134 173 213 275 328 388
#
# _framework density 25.942692999999998
#
# number of rings (size 3 to 8) (size 9 to 14) (size 15 to 20)
#    0.000    1.714    2.857    0.857    0.000    8.000 
#   12.857    0.000    0.000    0.000    0.000    0.000 
#    0.000    0.000    0.000    0.000    0.000    0.000 
#
# Total GULP energy -156600.532237 kJ/mol
# GULP energy per Si atom -5592.876151 kJ/mol
# Density = 2.588365 g / cm^3
# Si number density = 25.942693 Si / 1000 Ang^3
#
#
#
# Elastic Constant Matrix: (Units=GPa)
#
#
# Indices 1 2 3 4 5 6 
#
# 1 78.6042 25.4186 9.8897 0.0000 -18.6163 0.0000
# 2 25.4186 83.7810 -0.9174 0.0000 -14.1268 0.0000
# 3 9.8897 -0.9174 74.0464 0.0000 -26.1476 0.0000
# 4 0.0000 0.0000 0.0000 39.5093 0.0000 -7.9441
# 5 -18.6163 -14.1268 -26.1476 0.0000 32.1469 0.0000
# 6 0.0000 0.0000 0.0000 -7.9441 0.0000 30.2029
#
#
#
# Elastic Compliance Matrix: (Units=1/GPa)
#
#
# Indices 1 2 3 4 5 6 
#
# 1 0.015657 -0.003356 0.000769 0.000000 0.008218 0.000000
# 2 -0.003356 0.014114 0.002984 0.000000 0.006686 0.000000
# 3 0.000769 0.002984 0.019725 0.000000 0.017801 0.000000
# 4 0.000000 0.000000 0.000000 0.026724 0.000000 0.007029
# 5 0.008218 0.006686 0.017801 0.000000 0.053283 0.000000
# 6 0.000000 0.000000 0.000000 0.007029 0.000000 0.034958
#
#
# Mechanical properties :
#
#
# Convention : Reuss Voigt Hill
#
# Bulk Modulus (GPa) = 19.88453 33.91258 26.89855
# Shear Modulus (GPa) = 27.71159 33.84123 30.77641
#
# Velocity S-wave (km/s) = 3.27186 3.61565 3.44804
# Velocity P-wave (km/s) = 4.68560 5.52549 5.12279
#
# Compressibility (1/GPa) = 0.05029036
#
# Stress axis : x y z
#
# Youngs Moduli (GPa) = 63.87049 70.85079 50.69666
#
# Poissons Ratio (x) = 0.23778 -0.03899
# Poissons Ratio (y) = 0.21436 -0.15129
# Poissons Ratio (z) = -0.04912 -0.21143
#
# Static dielectric constant tensor:
#      x y z
#    x 2.000160 0.000000 -0.012330 
#    y 0.000000 2.120030 0.000000 
#    z -0.012330 0.000000 2.055780 
# 
# From -- ./inp_files/68781.got.cif
#   From: 2010.05.17/outbox.cif.g08.bks.cpg/sg14_35_cif.got.tgz:68781.got - 2010.06.03 17:49:19.
