data_PCOD9247373
_publ_section_title
;
Structure prediction by ZEFSAII (Michael W. Deem and Ramdas Pophale) SiO2 
 PCOD9247373
Probable space group: P 21/C
;
_chemical_formula_sum "Si O2"
_cell_formula_units_Z 32
_cell_length_a 9.838298
_cell_length_b 24.330155
_cell_length_c 5.549347
_cell_angle_alpha 90.000000
_cell_angle_beta 113.637542
_cell_angle_gamma 90.000000
_cell_volume 1216.885495
_symmetry_space_group_name_H-M "P 21/C"
_symmetry_group_IT_number 14
_symmetry_cell_setting 'monoclinic'
loop_
_space_group_symop_operation_xyz
x,y,z
-x,1/2+y,1/2-z
-x,-y,-z
x,1/2-y,1/2+z
loop_
_atom_site_type_symbol
_atom_site_label
_atom_site_fract_x
_atom_site_fract_y
_atom_site_fract_z
Si Si1 0.694730 0.553707 0.108663
Si Si2 0.777802 0.341937 0.406590
Si Si3 0.145322 0.224225 0.283103
Si Si4 0.052778 0.389763 0.466828
Si Si5 0.477536 0.232750 0.052309
Si Si6 0.471725 0.381468 0.339172
Si Si7 0.144521 0.654005 0.023852
Si Si8 0.386638 0.555663 0.183907
O O1 0.828692 0.564278 0.386479
O O2 0.535157 0.557246 0.127215
O O3 0.675735 0.602954 0.903084
O O4 0.701953 0.497353 0.966561
O O5 0.607149 0.357893 0.279227
O O6 0.826384 0.311579 0.198875
O O7 0.888434 0.395644 0.468999
O O8 0.823080 0.319166 0.697973
O O9 0.094579 0.235346 0.524775
O O10 0.112713 0.165452 0.140703
O O11 0.321977 0.234589 0.435074
O O12 0.009123 0.376542 0.158679
O O13 0.552276 0.248070 0.356307
O O14 0.446287 0.167574 0.011794
O O15 0.540331 0.436951 0.500598
O O16 0.273548 0.607010 0.102567
#
# Coordination Sequence:
#
# PCOD9247373 Si02
#       8
#     4   4   4   4   4   4   4   4
#     4  11  21  39  63 102 126 171 220 270 327 384
#     4   9  21  40  64  90 120 179 206 254 319 390
#     4  10  22  37  58  90 125 155 205 264 321 380
#     4  10  23  38  66  89 133 166 216 263 334 370
#     4  10  23  39  62  97 124 161 215 262 322 386
#     4  11  22  41  68  87 140 167 216 267 332 377
#     4   9  20  42  62  87 128 168 213 250 319 371
#     4  10  23  38  65  95 134 170 223 265 325 389
#
# _framework density 26.29664
#
# number of rings (size 3 to 8) (size 9 to 14) (size 15 to 20)
#    0.750    1.250    1.250    1.875    7.000    1.500 
#    0.000    3.750    0.000    0.000    0.000    0.000 
#    0.000    0.000    0.000    0.000    0.000    0.000 
#
# Total GULP energy -178533.749856 kJ/mol
# GULP energy per Si atom -5579.179683 kJ/mol
# Density = 2.623679 g / cm^3
# Si number density = 26.296640 Si / 1000 Ang^3
#
#
#
# Elastic Constant Matrix: (Units=GPa)
#
#
# Indices 1 2 3 4 5 6 
#
# 1 65.0073 10.9526 22.0962 0.0000 12.2439 0.0000
# 2 10.9526 58.2226 1.2569 0.0000 7.1050 0.0000
# 3 22.0962 1.2569 178.1002 0.0000 -10.9793 0.0000
# 4 0.0000 0.0000 0.0000 31.9560 0.0000 10.0553
# 5 12.2439 7.1050 -10.9793 0.0000 59.4423 0.0000
# 6 0.0000 0.0000 0.0000 10.0553 0.0000 18.3400
#
#
#
# Elastic Compliance Matrix: (Units=1/GPa)
#
#
# Indices 1 2 3 4 5 6 
#
# 1 0.017343 -0.002763 -0.002359 0.000000 -0.003678 0.000000
# 2 -0.002763 0.017881 0.000121 0.000000 -0.001546 0.000000
# 3 -0.002359 0.000121 0.006004 0.000000 0.001580 0.000000
# 4 0.000000 0.000000 0.000000 0.037817 0.000000 -0.020734
# 5 -0.003678 -0.001546 0.001580 0.000000 0.018057 0.000000
# 6 0.000000 0.000000 0.000000 -0.020734 0.000000 0.065894
#
#
# Mechanical properties :
#
#
# Convention : Reuss Voigt Hill
#
# Bulk Modulus (GPa) = 32.02316 41.10460 36.56388
# Shear Modulus (GPa) = 27.26193 39.74930 33.50561
#
# Velocity S-wave (km/s) = 3.22329 3.89211 3.57338
# Velocity P-wave (km/s) = 5.10459 5.98858 5.56417
#
# Compressibility (1/GPa) = 0.03122740
#
# Stress axis : x y z
#
# Youngs Moduli (GPa) = 57.66073 55.92464 166.55445
#
# Poissons Ratio (x) = 0.15451 0.39288
# Poissons Ratio (y) = 0.15930 -0.02020
# Poissons Ratio (z) = 0.13601 -0.00678
#
# Static dielectric constant tensor:
#      x y z
#    x 2.168760 0.000000 -0.086470 
#    y 0.000000 2.093610 0.000000 
#    z -0.086470 0.000000 2.177900 
# 
# From -- ./inp_files/3318.got.cif
#   From: 2010.05.17/outbox.cif.g08.bks.cpg/sg14_2_cif.got.tgz:3318.got - 2010.06.03 17:49:19.
