data_PCOD9247941
_publ_section_title
;
Structure prediction by ZEFSAII (Michael W. Deem and Ramdas Pophale) SiO2 
 PCOD9247941
Probable space group: P 21/C
;
_chemical_formula_sum "Si O2"
_cell_formula_units_Z 32
_cell_length_a 14.889074
_cell_length_b 11.506868
_cell_length_c 9.342756
_cell_angle_alpha 90.000000
_cell_angle_beta 51.669481
_cell_angle_gamma 90.000000
_cell_volume 1255.633664
_symmetry_space_group_name_H-M "P 21/C"
_symmetry_group_IT_number 14
_symmetry_cell_setting 'monoclinic'
loop_
_space_group_symop_operation_xyz
x,y,z
-x,1/2+y,1/2-z
-x,-y,-z
x,1/2-y,1/2+z
loop_
_atom_site_type_symbol
_atom_site_label
_atom_site_fract_x
_atom_site_fract_y
_atom_site_fract_z
Si Si1 0.274467 0.209004 0.221006
Si Si2 0.691086 0.106681 0.385550
Si Si3 0.833125 0.930418 0.127392
Si Si4 0.649590 0.172125 0.060811
Si Si5 0.001426 0.405527 0.292137
Si Si6 0.845423 0.189476 0.454082
Si Si7 0.844803 0.476751 0.209537
Si Si8 0.397518 0.118358 0.372637
O O1 0.202915 0.303382 0.383379
O O2 0.356345 0.145122 0.252739
O O3 0.186833 0.111580 0.251355
O O4 0.343658 0.285138 0.034899
O O5 0.617406 0.222072 0.483037
O O6 0.816365 0.152968 0.319764
O O7 0.725774 0.018022 0.226351
O O8 0.639558 0.011074 0.545936
O O9 0.877714 0.911000 0.247420
O O10 0.930357 0.991986 0.941161
O O11 0.729517 0.237246 0.099499
O O12 0.534515 0.123744 0.239050
O O13 0.737083 0.086284 0.895122
O O14 0.948928 0.277475 0.370902
O O15 0.960847 0.432150 0.171319
O O16 0.848194 0.077968 0.549012
#
# Coordination Sequence:
#
# PCOD9247941 Si02
#       8
#     4   4   4   4   4   4   4   4
#     4  11  24  41  62  94 132 163 208 262 317 374
#     4   9  20  42  61  85 129 159 202 263 305 359
#     4  10  22  43  60  89 133 157 201 265 317 373
#     4   9  22  36  63  90 120 160 207 260 301 369
#     4  10  22  40  67  92 116 170 208 254 323 377
#     4   9  20  40  62  92 120 156 209 264 299 371
#     4  11  21  40  66  90 122 164 213 254 310 379
#     4  11  23  40  63  93 126 172 207 260 317 373
#
# _framework density 25.485137999999999
#
# number of rings (size 3 to 8) (size 9 to 14) (size 15 to 20)
#    0.750    1.250    1.250    1.500    3.500    1.500 
#    6.750    2.500    0.000    0.000    0.000    0.000 
#    0.000    0.000    0.000    0.000    0.000    0.000 
#
# Total GULP energy -178731.149800 kJ/mol
# GULP energy per Si atom -5585.348431 kJ/mol
# Density = 2.542713 g / cm^3
# Si number density = 25.485138 Si / 1000 Ang^3
#
#
#
# Elastic Constant Matrix: (Units=GPa)
#
#
# Indices 1 2 3 4 5 6 
#
# 1 67.5630 -3.7002 4.7029 0.0000 -11.7205 0.0000
# 2 -3.7002 140.9022 16.0120 0.0000 -23.5819 0.0000
# 3 4.7029 16.0120 43.9269 0.0000 -12.3371 0.0000
# 4 0.0000 0.0000 0.0000 35.9196 0.0000 -2.8157
# 5 -11.7205 -23.5819 -12.3371 0.0000 45.0134 0.0000
# 6 0.0000 0.0000 0.0000 -2.8157 0.0000 33.5671
#
#
#
# Elastic Compliance Matrix: (Units=1/GPa)
#
#
# Indices 1 2 3 4 5 6 
#
# 1 0.015715 0.001268 -0.000876 0.000000 0.004516 0.000000
# 2 0.001268 0.008020 -0.001935 0.000000 0.004001 0.000000
# 3 -0.000876 -0.001935 0.025152 0.000000 0.005651 0.000000
# 4 0.000000 0.000000 0.000000 0.028024 0.000000 0.002351
# 5 0.004516 0.004001 0.005651 0.000000 0.027037 0.000000
# 6 0.000000 0.000000 0.000000 0.002351 0.000000 0.029988
#
#
# Mechanical properties :
#
#
# Convention : Reuss Voigt Hill
#
# Bulk Modulus (GPa) = 21.83451 31.82463 26.82957
# Shear Modulus (GPa) = 32.83225 38.59185 35.71205
#
# Velocity S-wave (km/s) = 3.59317 3.89561 3.74744
# Velocity P-wave (km/s) = 5.07943 5.72267 5.41062
#
# Compressibility (1/GPa) = 0.04579906
#
# Stress axis : x y z
#
# Youngs Moduli (GPa) = 63.63407 124.68781 39.75889
#
# Poissons Ratio (x) = -0.15811 0.03484
# Poissons Ratio (y) = -0.08069 0.07695
# Poissons Ratio (z) = 0.05577 0.24132
#
# Static dielectric constant tensor:
#      x y z
#    x 2.123830 0.000000 0.149390 
#    y 0.000000 2.031430 0.000000 
#    z 0.149390 0.000000 2.123270 
# 
# From -- ./inp_files/33813.got.cif
#   From: 2010.05.17/outbox.cif.g08.bks.cpg/sg14_17_cif.got.tgz:33813.got - 2010.06.03 17:49:19.
