data_PCOD9247703
_publ_section_title
;
Structure prediction by ZEFSAII (Michael W. Deem and Ramdas Pophale) SiO2 
 PCOD9247703
Probable space group: P 21/C
;
_chemical_formula_sum "Si O2"
_cell_formula_units_Z 32
_cell_length_a 14.744875
_cell_length_b 12.024403
_cell_length_c 9.170505
_cell_angle_alpha 90.000000
_cell_angle_beta 84.917658
_cell_angle_gamma 90.000000
_cell_volume 1619.522698
_symmetry_space_group_name_H-M "P 21/C"
_symmetry_group_IT_number 14
_symmetry_cell_setting 'monoclinic'
loop_
_space_group_symop_operation_xyz
x,y,z
-x,1/2+y,1/2-z
-x,-y,-z
x,1/2-y,1/2+z
loop_
_atom_site_type_symbol
_atom_site_label
_atom_site_fract_x
_atom_site_fract_y
_atom_site_fract_z
Si Si1 0.436923 0.399472 0.058980
Si Si2 0.307845 0.150316 0.313123
Si Si3 0.380279 0.021613 0.867443
Si Si4 0.150725 0.033301 0.499524
Si Si5 0.034516 0.659171 0.904005
Si Si6 0.991824 0.877426 0.070161
Si Si7 0.212366 0.386820 0.307578
Si Si8 0.477240 0.342136 0.581092
O O1 0.382816 0.453637 0.197344
O O2 0.490978 0.288627 0.095404
O O3 0.500000 0.500000 0.000000
O O4 0.366683 0.351812 0.952088
O O5 0.222854 0.072132 0.366515
O O6 0.266027 0.270074 0.279593
O O7 0.387642 0.121167 0.186881
O O8 0.431303 0.907627 0.892652
O O9 0.273949 0.040758 0.911326
O O10 0.445674 0.114947 0.928258
O O11 0.190513 0.052804 0.656816
O O12 0.059344 0.108499 0.515811
O O13 0.115937 0.910270 0.466251
O O14 0.031810 0.638005 0.729316
O O15 0.034049 0.787075 0.953741
O O16 0.883923 0.857894 0.106392
O O17 0.000000 0.000000 0.000000
#
# Coordination Sequence:
#
# PCOD9247703 Si02
#       8
#     4   4   4   4   4   4   4   4
#     4  12  22  39  63  92 127 172 217 273 332 394
#     4  12  20  38  68  99 120 169 232 272 320 397
#     4  11  23  38  60  94 131 165 214 274 323 382
#     4  10  22  39  65  98 134 167 217 283 338 393
#     4  10  24  43  66 101 137 173 222 279 352 401
#     4  11  26  43  73 100 136 182 226 280 345 414
#     4  11  22  39  68  98 127 171 228 278 328 397
#     4  11  23  38  61  95 133 167 217 274 329 392
#
# _framework density 19.758908000000002
#
# number of rings (size 3 to 8) (size 9 to 14) (size 15 to 20)
#    0.000    1.000    6.250    0.000    5.250    1.000 
#    0.000    1.250    0.000    0.000    0.000    0.000 
#    0.000    0.000    0.000    0.000    0.000    0.000 
#
# Total GULP energy -178363.553407 kJ/mol
# GULP energy per Si atom -5573.861044 kJ/mol
# Density = 1.971394 g / cm^3
# Si number density = 19.758908 Si / 1000 Ang^3
#
#
#
# Elastic Constant Matrix: (Units=GPa)
#
#
# Indices 1 2 3 4 5 6 
#
# 1 89.8809 44.8806 20.5802 0.0000 19.5579 0.0000
# 2 44.8806 124.4081 32.2728 0.0000 13.4898 0.0000
# 3 20.5802 32.2728 70.6859 0.0000 9.2261 0.0000
# 4 0.0000 0.0000 0.0000 22.5072 0.0000 -3.2383
# 5 19.5579 13.4898 9.2261 0.0000 29.4818 0.0000
# 6 0.0000 0.0000 0.0000 -3.2383 0.0000 38.2833
#
#
#
# Elastic Compliance Matrix: (Units=1/GPa)
#
#
# Indices 1 2 3 4 5 6 
#
# 1 0.015288 -0.004294 -0.001484 0.000000 -0.007713 0.000000
# 2 -0.004294 0.010584 -0.003463 0.000000 -0.000911 0.000000
# 3 -0.001484 -0.003463 0.016499 0.000000 -0.002594 0.000000
# 4 0.000000 0.000000 0.000000 0.044978 0.000000 0.003805
# 5 -0.007713 -0.000911 -0.002594 0.000000 0.040264 0.000000
# 6 0.000000 0.000000 0.000000 0.003805 0.000000 0.026443
#
#
# Mechanical properties :
#
#
# Convention : Reuss Voigt Hill
#
# Bulk Modulus (GPa) = 41.86071 53.38245 47.62158
# Shear Modulus (GPa) = 27.70060 30.53722 29.11891
#
# Velocity S-wave (km/s) = 3.74830 3.93554 3.84306
# Velocity P-wave (km/s) = 6.32176 6.90846 6.62161
#
# Compressibility (1/GPa) = 0.02388875
#
# Stress axis : x y z
#
# Youngs Moduli (GPa) = 65.41075 94.47969 60.60973
#
# Poissons Ratio (x) = 0.40569 0.08994
# Poissons Ratio (y) = 0.28087 0.20992
# Poissons Ratio (z) = 0.09707 0.32722
#
# Static dielectric constant tensor:
#      x y z
#    x 1.898120 0.000000 0.054050 
#    y 0.000000 1.724500 0.000000 
#    z 0.054050 0.000000 1.858900 
# 
# From -- ./inp_files/15565.got.cif
#   From: 2010.05.17/outbox.cif.g08.bks.cpg/sg14_8_cif.got.tgz:15565.got - 2010.06.03 17:49:19.
