data_PCOD9247460
_publ_section_title
;
Structure prediction by ZEFSAII (Michael W. Deem and Ramdas Pophale) SiO2 
 PCOD9247460
Probable space group: P 21/C
;
_chemical_formula_sum "Si O2"
_cell_formula_units_Z 28
_cell_length_a 7.623173
_cell_length_b 7.225054
_cell_length_c 23.719857
_cell_angle_alpha 90.000000
_cell_angle_beta 70.384608
_cell_angle_gamma 90.000000
_cell_volume 1230.622263
_symmetry_space_group_name_H-M "P 21/C"
_symmetry_group_IT_number 14
_symmetry_cell_setting 'monoclinic'
loop_
_space_group_symop_operation_xyz
x,y,z
-x,1/2+y,1/2-z
-x,-y,-z
x,1/2-y,1/2+z
loop_
_atom_site_type_symbol
_atom_site_label
_atom_site_fract_x
_atom_site_fract_y
_atom_site_fract_z
Si Si1 0.434031 0.040486 0.306058
Si Si2 0.767981 0.427790 0.558049
Si Si3 0.952471 0.276767 0.439703
Si Si4 0.796003 0.909773 0.311661
Si Si5 0.043351 0.617930 0.886203
Si Si6 0.471737 0.958967 0.175581
Si Si7 0.081258 0.833675 0.185577
O O1 0.575988 0.910322 0.325632
O O2 0.502857 0.044782 0.233965
O O3 0.452422 0.248103 0.327287
O O4 0.226063 0.961947 0.333911
O O5 0.874232 0.625156 0.547764
O O6 0.888084 0.283233 0.582261
O O7 0.576696 0.453889 0.611474
O O8 0.774434 0.342919 0.494839
O O9 0.954518 0.356764 0.376346
O O10 0.969530 0.056391 0.430636
O O11 0.846004 0.125526 0.314648
O O12 0.891823 0.821001 0.356102
O O13 0.900487 0.853718 0.243346
O O14 0.250676 0.958316 0.189197
#
# Coordination Sequence:
#
# PCOD9247460 Si02
#       7
#     4   4   4   4   4   4   4
#     4  11  22  38  61  95 133 160 203 270 319 376
#     4  11  23  40  67  90 121 171 216 250 312 374
#     4  10  23  43  63  89 126 169 210 262 302 373
#     4  10  23  36  61  94 125 160 204 260 324 375
#     4  11  22  43  65  93 125 165 209 261 319 371
#     4  11  22  38  60  94 129 163 211 260 318 381
#     4  10  22  38  60  89 131 161 206 264 316 376
#
# _framework density 22.752718999999999
#
# number of rings (size 3 to 8) (size 9 to 14) (size 15 to 20)
#    0.000    1.429    2.857    2.143    6.000    1.714 
#    0.000    0.000    0.000    3.429    0.000    0.000 
#    0.000    0.000    0.000    0.000    0.000    0.000 
#
# Total GULP energy -156685.022646 kJ/mol
# GULP energy per Si atom -5595.893666 kJ/mol
# Density = 2.270093 g / cm^3
# Si number density = 22.752719 Si / 1000 Ang^3
#
#
#
# Elastic Constant Matrix: (Units=GPa)
#
#
# Indices 1 2 3 4 5 6 
#
# 1 54.3715 11.2783 -15.3297 0.0000 1.9128 0.0000
# 2 11.2783 63.4724 16.2954 0.0000 -1.7027 0.0000
# 3 -15.3297 16.2954 78.9538 0.0000 -3.9186 0.0000
# 4 0.0000 0.0000 0.0000 33.1889 0.0000 0.9385
# 5 1.9128 -1.7027 -3.9186 0.0000 29.8389 0.0000
# 6 0.0000 0.0000 0.0000 0.9385 0.0000 22.2566
#
#
#
# Elastic Compliance Matrix: (Units=1/GPa)
#
#
# Indices 1 2 3 4 5 6 
#
# 1 0.020893 -0.005034 0.005048 0.000000 -0.000964 0.000000
# 2 -0.005034 0.017857 -0.004627 0.000000 0.000734 0.000000
# 3 0.005048 -0.004627 0.014667 0.000000 0.001339 0.000000
# 4 0.000000 0.000000 0.000000 0.030167 0.000000 -0.001272
# 5 -0.000964 0.000734 0.001339 0.000000 0.033793 0.000000
# 6 0.000000 0.000000 0.000000 -0.001272 0.000000 0.044984
#
#
# Mechanical properties :
#
#
# Convention : Reuss Voigt Hill
#
# Bulk Modulus (GPa) = 22.62883 24.58728 23.60806
# Shear Modulus (GPa) = 26.83596 29.36046 28.09821
#
# Velocity S-wave (km/s) = 3.43805 3.59613 3.51798
# Velocity P-wave (km/s) = 5.07222 5.29836 5.18653
#
# Compressibility (1/GPa) = 0.04419141
#
# Stress axis : x y z
#
# Youngs Moduli (GPa) = 47.86203 56.00084 68.18000
#
# Poissons Ratio (x) = 0.28193 -0.34417
# Poissons Ratio (y) = 0.24095 0.31544
# Poissons Ratio (z) = -0.24160 0.25909
#
# Static dielectric constant tensor:
#      x y z
#    x 1.856520 0.000000 0.010410 
#    y 0.000000 1.890860 0.000000 
#    z 0.010410 0.000000 1.837160 
# 
# From -- ./inp_files/71751.got.cif
#   From: 2010.05.17/outbox.cif.g08.bks.cpg/sg14_36_cif.got.tgz:71751.got - 2010.06.03 17:49:19.
