data_PCOD9247540
_publ_section_title
;
Structure prediction by ZEFSAII (Michael W. Deem and Ramdas Pophale) SiO2 
 PCOD9247540
Probable space group: P 21/C
;
_chemical_formula_sum "Si O2"
_cell_formula_units_Z 28
_cell_length_a 8.290715
_cell_length_b 7.387791
_cell_length_c 25.693522
_cell_angle_alpha 90.000000
_cell_angle_beta 49.722259
_cell_angle_gamma 90.000000
_cell_volume 1200.629385
_symmetry_space_group_name_H-M "P 21/C"
_symmetry_group_IT_number 14
_symmetry_cell_setting 'monoclinic'
loop_
_space_group_symop_operation_xyz
x,y,z
-x,1/2+y,1/2-z
-x,-y,-z
x,1/2-y,1/2+z
loop_
_atom_site_type_symbol
_atom_site_label
_atom_site_fract_x
_atom_site_fract_y
_atom_site_fract_z
Si Si1 0.899041 0.897252 0.312622
Si Si2 0.117913 0.306018 0.967128
Si Si3 0.503076 0.531806 0.060509
Si Si4 0.693756 0.285782 0.591194
Si Si5 0.233025 0.800769 0.807791
Si Si6 0.318281 0.279738 0.315416
Si Si7 0.702244 0.592420 0.289070
O O1 0.740019 0.045186 0.369789
O O2 0.759987 0.784436 0.302235
O O3 0.010027 0.770456 0.333028
O O4 0.098121 0.972157 0.239956
O O5 0.330756 0.314614 0.957169
O O6 0.187916 0.275917 0.893283
O O7 0.000000 0.500000 0.000000
O O8 0.930747 0.174551 0.024519
O O9 0.597693 0.353374 0.069646
O O10 0.500000 0.500000 0.000000
O O11 0.716756 0.214541 0.645945
O O12 0.524264 0.445396 0.637217
O O13 0.426044 0.735613 0.730348
O O14 0.249847 0.018097 0.811576
O O15 0.290290 0.136799 0.273972
#
# Coordination Sequence:
#
# PCOD9247540 Si02
#       7
#     4   4   4   4   4   4   4
#     4  11  23  40  68  96 143 173 224 290 343 423
#     4  10  23  40  70  94 134 173 234 277 342 411
#     4  10  22  38  66  99 126 177 221 272 353 414
#     4   9  21  40  61  90 131 167 225 283 333 400
#     4  11  23  41  67  96 133 174 231 287 345 404
#     4  11  25  40  69  99 129 184 235 281 344 409
#     4  10  23  39  64  98 133 176 224 280 350 403
#
# _framework density 23.321103999999998
#
# number of rings (size 3 to 8) (size 9 to 14) (size 15 to 20)
#    0.000    1.714    0.000    3.429   20.000    0.571 
#    0.000    0.000    0.000    6.000    0.000    0.000 
#    0.000    0.000    0.000    0.000    0.000    0.000 
#
# Total GULP energy -156246.339756 kJ/mol
# GULP energy per Si atom -5580.226420 kJ/mol
# Density = 2.326802 g / cm^3
# Si number density = 23.321104 Si / 1000 Ang^3
#
#
#
# Elastic Constant Matrix: (Units=GPa)
#
#
# Indices 1 2 3 4 5 6 
#
# 1 100.1481 12.7009 60.6538 0.0000 -4.2849 0.0000
# 2 12.7009 69.6750 57.7912 0.0000 -7.7689 0.0000
# 3 60.6538 57.7912 178.8961 0.0000 -14.5414 0.0000
# 4 0.0000 0.0000 0.0000 35.7511 0.0000 2.9833
# 5 -4.2849 -7.7689 -14.5414 0.0000 50.6195 0.0000
# 6 0.0000 0.0000 0.0000 2.9833 0.0000 12.3574
#
#
#
# Elastic Compliance Matrix: (Units=1/GPa)
#
#
# Indices 1 2 3 4 5 6 
#
# 1 0.012714 0.001715 -0.004869 0.000000 -0.000059 0.000000
# 2 0.001715 0.019910 -0.006915 0.000000 0.001215 0.000000
# 3 -0.004869 -0.006915 0.009578 0.000000 0.001278 0.000000
# 4 0.000000 0.000000 0.000000 0.028546 0.000000 -0.006892
# 5 -0.000059 0.001215 0.001278 0.000000 0.020304 0.000000
# 6 0.000000 0.000000 0.000000 -0.006892 0.000000 0.082587
#
#
# Mechanical properties :
#
#
# Convention : Reuss Voigt Hill
#
# Bulk Modulus (GPa) = 45.32183 67.89012 56.60597
# Shear Modulus (GPa) = 24.85909 34.25049 29.55479
#
# Velocity S-wave (km/s) = 3.26843 3.83645 3.56378
# Velocity P-wave (km/s) = 5.80685 6.98561 6.42333
#
# Compressibility (1/GPa) = 0.02206442
#
# Stress axis : x y z
#
# Youngs Moduli (GPa) = 78.65121 50.22493 104.40160
#
# Poissons Ratio (x) = -0.08612 0.50838
# Poissons Ratio (y) = -0.13486 0.72189
# Poissons Ratio (z) = 0.38299 0.34728
#
# Static dielectric constant tensor:
#      x y z
#    x 1.924240 0.000000 -0.048580 
#    y 0.000000 1.995710 0.000000 
#    z -0.048580 0.000000 1.898550 
# 
# From -- ./inp_files/76311.got.cif
#   From: 2010.05.17/outbox.cif.g08.bks.cpg/sg14_39_cif.got.tgz:76311.got - 2010.06.03 17:49:19.
