data_PCOD9247548
_publ_section_title
;
Structure prediction by ZEFSAII (Michael W. Deem and Ramdas Pophale) SiO2 
 PCOD9247548
Probable space group: P 21/C
;
_chemical_formula_sum "Si O2"
_cell_formula_units_Z 28
_cell_length_a 5.480156
_cell_length_b 23.694714
_cell_length_c 8.242566
_cell_angle_alpha 90.000000
_cell_angle_beta 92.997394
_cell_angle_gamma 90.000000
_cell_volume 1068.838938
_symmetry_space_group_name_H-M "P 21/C"
_symmetry_group_IT_number 14
_symmetry_cell_setting 'monoclinic'
loop_
_space_group_symop_operation_xyz
x,y,z
-x,1/2+y,1/2-z
-x,-y,-z
x,1/2-y,1/2+z
loop_
_atom_site_type_symbol
_atom_site_label
_atom_site_fract_x
_atom_site_fract_y
_atom_site_fract_z
Si Si1 0.241538 0.050114 0.045545
Si Si2 0.734010 0.728849 0.460526
Si Si3 0.050404 0.811004 0.252874
Si Si4 0.751707 0.975263 0.579396
Si Si5 0.748899 0.435342 0.630869
Si Si6 0.615856 0.281321 0.823063
Si Si7 0.062930 0.621843 0.055550
O O1 0.252056 0.018834 0.224437
O O2 0.495177 0.082196 0.044805
O O3 0.993422 0.085127 0.050062
O O4 0.237645 0.002723 0.906337
O O5 0.939896 0.761963 0.366934
O O6 0.856644 0.690291 0.600794
O O7 0.571281 0.778335 0.535902
O O8 0.545911 0.699416 0.332867
O O9 0.095356 0.865880 0.365206
O O10 0.297477 0.783079 0.196848
O O11 0.799092 0.907764 0.560448
O O12 0.500000 0.000000 0.500000
O O13 0.000000 0.000000 0.500000
O O14 0.773059 0.417550 0.818483
O O15 0.852153 0.319243 0.862485
#
# Coordination Sequence:
#
# PCOD9247548 Si02
#       7
#     4   4   4   4   4   4   4
#     4   9  18  39  64  88 129 166 211 286 333 398
#     4  10  22  38  68  93 140 187 220 289 348 403
#     4  11  21  42  64 101 140 181 233 289 341 429
#     4  11  24  44  66  98 139 179 231 296 353 420
#     4   9  19  36  64  96 120 167 225 269 336 402
#     4  11  21  42  64  99 140 179 232 283 345 428
#     4  11  23  41  70  97 132 189 227 286 362 421
#
# _framework density 26.196650999999999
#
# number of rings (size 3 to 8) (size 9 to 14) (size 15 to 20)
#    0.000    1.714    2.857    1.714    0.000    3.429 
#    2.571    1.429    0.000    0.000    0.000    0.000 
#    0.000    0.000    0.000    0.000    0.000    0.000 
#
# Total GULP energy -156241.370222 kJ/mol
# GULP energy per Si atom -5580.048936 kJ/mol
# Density = 2.613703 g / cm^3
# Si number density = 26.196651 Si / 1000 Ang^3
#
#
#
# Elastic Constant Matrix: (Units=GPa)
#
#
# Indices 1 2 3 4 5 6 
#
# 1 153.8009 23.7733 28.9418 0.0000 11.6251 0.0000
# 2 23.7733 71.5710 34.7689 0.0000 -0.6578 0.0000
# 3 28.9418 34.7689 111.6888 0.0000 23.7428 0.0000
# 4 0.0000 0.0000 0.0000 55.9757 0.0000 7.6237
# 5 11.6251 -0.6578 23.7428 0.0000 55.2289 0.0000
# 6 0.0000 0.0000 0.0000 7.6237 0.0000 24.5848
#
#
#
# Elastic Compliance Matrix: (Units=1/GPa)
#
#
# Indices 1 2 3 4 5 6 
#
# 1 0.007063 -0.001858 -0.001025 0.000000 -0.001068 0.000000
# 2 -0.001858 0.017308 -0.005540 0.000000 0.002979 0.000000
# 3 -0.001025 -0.005540 0.012009 0.000000 -0.005013 0.000000
# 4 0.000000 0.000000 0.000000 0.018653 0.000000 -0.005784
# 5 -0.001068 0.002979 -0.005013 0.000000 0.020522 0.000000
# 6 0.000000 0.000000 0.000000 -0.005784 0.000000 0.042469
#
#
# Mechanical properties :
#
#
# Convention : Reuss Voigt Hill
#
# Bulk Modulus (GPa) = 51.19038 56.89207 54.04123
# Shear Modulus (GPa) = 35.36573 43.79632 39.58102
#
# Velocity S-wave (km/s) = 3.67823 4.09324 3.89127
# Velocity P-wave (km/s) = 6.13371 6.64108 6.39243
#
# Compressibility (1/GPa) = 0.01953492
#
# Stress axis : x y z
#
# Youngs Moduli (GPa) = 141.58950 57.77723 83.26986
#
# Poissons Ratio (x) = 0.10735 0.08532
# Poissons Ratio (y) = 0.26307 0.46129
# Poissons Ratio (z) = 0.14508 0.32007
#
# Static dielectric constant tensor:
#      x y z
#    x 2.111790 0.000000 -0.001290 
#    y 0.000000 2.168510 0.000000 
#    z -0.001290 0.000000 2.074310 
# 
# From -- ./inp_files/6587.got.cif
#   From: 2010.05.17/outbox.cif.g08.bks.cpg/sg14_4_cif.got.tgz:6587.got - 2010.06.03 17:49:19.
