data_PCOD9247214
_publ_section_title
;
Structure prediction by ZEFSAII (Michael W. Deem and Ramdas Pophale) SiO2 
 PCOD9247214
Probable space group: P 21/C
;
_chemical_formula_sum "Si O2"
_cell_formula_units_Z 30
_cell_length_a 16.043387
_cell_length_b 17.495649
_cell_length_c 5.033769
_cell_angle_alpha 90.000000
_cell_angle_beta 61.945266
_cell_angle_gamma 90.000000
_cell_volume 1246.905319
_symmetry_space_group_name_H-M "P 21/C"
_symmetry_group_IT_number 14
_symmetry_cell_setting 'monoclinic'
loop_
_space_group_symop_operation_xyz
x,y,z
-x,1/2+y,1/2-z
-x,-y,-z
x,1/2-y,1/2+z
loop_
_atom_site_type_symbol
_atom_site_label
_atom_site_fract_x
_atom_site_fract_y
_atom_site_fract_z
Si Si1 0.713525 0.299765 0.000330
Si Si2 0.205784 0.292662 0.098613
Si Si3 0.981189 0.203898 0.829889
Si Si4 0.429144 0.578774 0.897992
Si Si5 0.130965 0.576513 0.241786
Si Si6 0.625981 0.515156 0.521770
Si Si7 0.188282 0.063960 0.003586
Si Si8 0.000000 0.000000 0.500000
O O1 0.724958 0.268643 0.687111
O O2 0.943503 0.380279 0.452556
O O3 0.613293 0.342617 0.145951
O O4 0.241307 0.226485 0.249428
O O5 0.215633 0.368761 0.259072
O O6 0.093051 0.292090 0.206496
O O7 0.946681 0.264471 0.102535
O O8 0.542073 0.573417 0.724094
O O9 0.392789 0.514265 0.745998
O O10 0.208997 0.637028 0.043697
O O11 0.390400 0.555075 0.245932
O O12 0.179645 0.512526 0.343344
O O13 0.074547 0.538100 0.091047
O O14 0.728742 0.549794 0.411058
O O15 0.083565 0.067255 0.287369
#
# Coordination Sequence:
#
# PCOD9247214 Si02
#       8
#     4   4   4   4   4   4   4   2
#     4  12  26  44  71 108 153 189 233 303 380 455
#     4  10  24  42  62  85 124 174 225 284 349 402
#     4  10  22  39  58  81 124 177 222 268 335 403
#     4  10  21  45  70 107 133 183 228 295 361 448
#     4  12  26  41  64 100 138 186 244 292 357 419
#     4  10  22  42  76  99 139 174 241 295 362 425
#     4  12  26  43  68 102 137 186 241 308 347 422
#     4  12  28  40  68  96 146 184 254 306 344 408
#
# _framework density 24.059566
#
# number of rings (size 3 to 8) (size 9 to 14) (size 15 to 20)
#    0.000    1.067    2.667    2.800    5.600    0.000 
#    0.000    1.333    0.000    0.000    0.000    0.000 
#    0.000    0.000    0.000    0.000    0.000    0.000 
#
# Total GULP energy -167548.851602 kJ/mol
# GULP energy per Si atom -5584.961720 kJ/mol
# Density = 2.400481 g / cm^3
# Si number density = 24.059566 Si / 1000 Ang^3
#
#
#
# Elastic Constant Matrix: (Units=GPa)
#
#
# Indices 1 2 3 4 5 6 
#
# 1 137.2614 17.4236 15.7744 0.0000 2.8968 0.0000
# 2 17.4236 59.8057 -3.6238 0.0000 1.8902 0.0000
# 3 15.7744 -3.6238 58.5092 0.0000 10.9562 0.0000
# 4 0.0000 0.0000 0.0000 17.4665 0.0000 -6.7573
# 5 2.8968 1.8902 10.9562 0.0000 26.0563 0.0000
# 6 0.0000 0.0000 0.0000 -6.7573 0.0000 17.1416
#
#
#
# Elastic Compliance Matrix: (Units=1/GPa)
#
#
# Indices 1 2 3 4 5 6 
#
# 1 0.007856 -0.002438 -0.002321 0.000000 0.000280 0.000000
# 2 -0.002438 0.017618 0.002103 0.000000 -0.001891 0.000000
# 3 -0.002321 0.002103 0.019351 0.000000 -0.008031 0.000000
# 4 0.000000 0.000000 0.000000 0.067555 0.000000 0.026631
# 5 0.000280 -0.001891 -0.008031 0.000000 0.041862 0.000000
# 6 0.000000 0.000000 0.000000 0.026631 0.000000 0.068836
#
#
# Mechanical properties :
#
#
# Convention : Reuss Voigt Hill
#
# Bulk Modulus (GPa) = 25.30891 34.96941 30.13916
# Shear Modulus (GPa) = 20.69862 27.19967 23.94915
#
# Velocity S-wave (km/s) = 2.93628 3.36596 3.15844
# Velocity P-wave (km/s) = 4.69444 5.44723 5.08479
#
# Compressibility (1/GPa) = 0.03951177
#
# Stress axis : x y z
#
# Youngs Moduli (GPa) = 127.29558 56.75916 51.67607
#
# Poissons Ratio (x) = 0.13839 0.11996
# Poissons Ratio (y) = 0.31037 -0.10866
# Poissons Ratio (z) = 0.29549 -0.11935
#
# Static dielectric constant tensor:
#      x y z
#    x 1.821450 0.000000 -0.035470 
#    y 0.000000 1.938370 0.000000 
#    z -0.035470 0.000000 1.984140 
# 
# From -- ./inp_files/3729.got.cif
#   From: 2010.05.17/outbox.cif.g08.bks.cpg/sg14_2_cif.got.tgz:3729.got - 2010.06.03 17:49:19.
