data_PCOD9247839
_publ_section_title
;
Structure prediction by ZEFSAII (Michael W. Deem and Ramdas Pophale) SiO2 
 PCOD9247839
Probable space group: P 21/C
;
_chemical_formula_sum "Si O2"
_cell_formula_units_Z 32
_cell_length_a 16.944844
_cell_length_b 5.211561
_cell_length_c 13.624611
_cell_angle_alpha 90.000000
_cell_angle_beta 69.706420
_cell_angle_gamma 90.000000
_cell_volume 1128.493135
_symmetry_space_group_name_H-M "P 21/C"
_symmetry_group_IT_number 14
_symmetry_cell_setting 'monoclinic'
loop_
_space_group_symop_operation_xyz
x,y,z
-x,1/2+y,1/2-z
-x,-y,-z
x,1/2-y,1/2+z
loop_
_atom_site_type_symbol
_atom_site_label
_atom_site_fract_x
_atom_site_fract_y
_atom_site_fract_z
Si Si1 0.442508 0.754081 0.536004
Si Si2 0.753054 0.031867 0.233337
Si Si3 0.842588 0.193542 0.528213
Si Si4 0.973896 0.162093 0.629144
Si Si5 0.504860 0.790526 0.200424
Si Si6 0.262354 0.613153 0.587875
Si Si7 0.900378 0.665953 0.770840
Si Si8 0.308739 0.214696 0.403065
O O1 0.500000 0.500000 0.500000
O O2 0.428411 0.744778 0.659180
O O3 0.350965 0.763174 0.527749
O O4 0.500000 0.000000 0.500000
O O5 0.811768 0.079787 0.113567
O O6 0.746966 0.300116 0.294941
O O7 0.801767 0.853589 0.290697
O O8 0.684514 0.868374 0.204823
O O9 0.935386 0.157332 0.535080
O O10 0.767927 0.985395 0.576564
O O11 0.824072 0.290037 0.426483
O O12 0.933220 0.918444 0.701482
O O13 0.070754 0.163431 0.627286
O O14 0.940861 0.421256 0.697619
O O15 0.482042 0.595695 0.297418
O O16 0.592019 0.658979 0.128346
O O17 0.285001 0.365586 0.513076
#
# Coordination Sequence:
#
# PCOD9247839 Si02
#       8
#     4   4   4   4   4   4   4   4
#     4  12  25  46  65  89 128 168 211 268 329 386
#     4  10  22  40  63  95 126 166 217 263 322 381
#     4  10  22  40  64  91 130 169 215 264 320 385
#     4   9  17  34  62  91 125 171 211 258 319 373
#     4  12  27  44  69  95 124 168 221 269 325 388
#     4  11  25  41  63  94 127 171 212 269 324 390
#     4   9  17  34  61  94 125 165 217 259 310 384
#     4  11  23  42  66  89 129 168 211 271 324 387
#
# _framework density 28.356397999999999
#
# number of rings (size 3 to 8) (size 9 to 14) (size 15 to 20)
#    0.000    1.500    2.500    2.250    5.250    1.000 
#    0.000    0.625    0.000    0.750    0.000    0.000 
#    0.000    0.000    0.000    0.000    0.000    0.000 
#
# Total GULP energy -178435.379794 kJ/mol
# GULP energy per Si atom -5576.105619 kJ/mol
# Density = 2.829186 g / cm^3
# Si number density = 28.356398 Si / 1000 Ang^3
#
#
#
# Elastic Constant Matrix: (Units=GPa)
#
#
# Indices 1 2 3 4 5 6 
#
# 1 158.8463 22.0775 20.8458 0.0000 33.2888 0.0000
# 2 22.0775 115.1070 -2.2206 0.0000 1.1368 0.0000
# 3 20.8458 -2.2206 98.1172 0.0000 38.7801 0.0000
# 4 0.0000 0.0000 0.0000 50.6047 0.0000 -14.1540
# 5 33.2888 1.1368 38.7801 0.0000 49.1389 0.0000
# 6 0.0000 0.0000 0.0000 -14.1540 0.0000 57.1034
#
#
#
# Elastic Compliance Matrix: (Units=1/GPa)
#
#
# Indices 1 2 3 4 5 6 
#
# 1 0.007576 -0.001388 0.000545 0.000000 -0.005530 0.000000
# 2 -0.001388 0.008955 0.000302 0.000000 0.000495 0.000000
# 3 0.000545 0.000302 0.014870 0.000000 -0.012111 0.000000
# 4 0.000000 0.000000 0.000000 0.021233 0.000000 0.005263
# 5 -0.005530 0.000495 -0.012111 0.000000 0.033643 0.000000
# 6 0.000000 0.000000 0.000000 0.005263 0.000000 0.018817
#
#
# Mechanical properties :
#
#
# Convention : Reuss Voigt Hill
#
# Bulk Modulus (GPa) = 32.98384 50.38620 41.68502
# Shear Modulus (GPa) = 42.99910 53.46059 48.22985
#
# Velocity S-wave (km/s) = 3.89830 4.34673 4.12860
# Velocity P-wave (km/s) = 5.64973 6.55740 6.12041
#
# Compressibility (1/GPa) = 0.03031788
#
# Stress axis : x y z
#
# Youngs Moduli (GPa) = 132.00123 111.67312 67.25016
#
# Poissons Ratio (x) = 0.15499 -0.03663
# Poissons Ratio (y) = 0.18320 -0.02031
# Poissons Ratio (z) = -0.07190 -0.03372
#
# Static dielectric constant tensor:
#      x y z
#    x 2.209980 0.000000 -0.019180 
#    y 0.000000 2.349910 0.000000 
#    z -0.019180 0.000000 2.357150 
# 
# From -- ./inp_files/48184.got.cif
#   From: 2010.05.17/outbox.cif.g08.bks.cpg/sg14_25_cif.got.tgz:48184.got - 2010.06.03 17:49:19.
