data_PCOD9247118
_publ_section_title
;
Structure prediction by ZEFSAII (Michael W. Deem and Ramdas Pophale) SiO2 
 PCOD9247118
Probable space group: P 21/C
;
_chemical_formula_sum "Si O2"
_cell_formula_units_Z 26
_cell_length_a 13.215833
_cell_length_b 9.930474
_cell_length_c 15.050184
_cell_angle_alpha 90.000000
_cell_angle_beta 140.524204
_cell_angle_gamma 90.000000
_cell_volume 1255.724019
_symmetry_space_group_name_H-M "P 21/C"
_symmetry_group_IT_number 14
_symmetry_cell_setting 'monoclinic'
loop_
_space_group_symop_operation_xyz
x,y,z
-x,1/2+y,1/2-z
-x,-y,-z
x,1/2-y,1/2+z
loop_
_atom_site_type_symbol
_atom_site_label
_atom_site_fract_x
_atom_site_fract_y
_atom_site_fract_z
Si Si1 0.339945 0.444597 0.272124
Si Si2 0.263182 0.322359 0.914168
Si Si3 0.320206 0.923175 0.576036
Si Si4 0.693430 0.977416 0.048491
Si Si5 0.083504 0.822394 0.895594
Si Si6 0.000000 0.000000 0.000000
Si Si7 0.670222 0.861296 0.742072
O O1 0.302328 0.546201 0.168093
O O2 0.272439 0.482415 0.322873
O O3 0.530711 0.444631 0.416797
O O4 0.287994 0.294686 0.210737
O O5 0.342966 0.366127 0.874676
O O6 0.079117 0.292922 0.766647
O O7 0.332988 0.179505 0.992416
O O8 0.276941 0.441909 0.992866
O O9 0.204435 0.801093 0.472236
O O10 0.502538 0.891985 0.674557
O O11 0.835497 0.046235 0.092695
O O12 0.036246 0.867135 0.962200
O O13 0.192475 0.037833 0.134404
#
# Coordination Sequence:
#
# PCOD9247118 Si02
#       7
#     4   4   4   4   4   2   4
#     4  10  23  40  67 100 132 173 234 284 331 417
#     4  10  24  42  66  94 137 176 230 292 348 402
#     4  12  24  41  71 104 133 185 239 284 337 425
#     4  10  21  44  66  91 136 181 220 284 350 400
#     4  11  23  45  64 101 135 182 231 284 350 415
#     4  10  24  42  70  96 144 172 222 294 346 402
#     4  10  22  44  65 102 136 179 232 279 350 420
#
# _framework density 20.705186999999999
#
# number of rings (size 3 to 8) (size 9 to 14) (size 15 to 20)
#    0.000    1.538    1.538    2.308    4.308    0.000 
#    8.308    7.692    0.000    0.000    0.000    0.000 
#    0.000    0.000    0.000    0.000    0.000    0.000 
#
# Total GULP energy -144802.097289 kJ/mol
# GULP energy per Si atom -5569.311434 kJ/mol
# Density = 2.065806 g / cm^3
# Si number density = 20.705187 Si / 1000 Ang^3
#
#
#
# Elastic Constant Matrix: (Units=GPa)
#
#
# Indices 1 2 3 4 5 6 
#
# 1 70.4898 36.5661 20.3421 0.0000 8.1776 0.0000
# 2 36.5661 79.5066 33.9348 0.0000 -5.6937 0.0000
# 3 20.3421 33.9348 47.4165 0.0000 5.4211 0.0000
# 4 0.0000 0.0000 0.0000 24.2149 0.0000 -1.8318
# 5 8.1776 -5.6937 5.4211 0.0000 26.2301 0.0000
# 6 0.0000 0.0000 0.0000 -1.8318 0.0000 22.7109
#
#
#
# Elastic Compliance Matrix: (Units=1/GPa)
#
#
# Indices 1 2 3 4 5 6 
#
# 1 0.020371 -0.009544 -0.000969 0.000000 -0.008222 0.000000
# 2 -0.009544 0.023836 -0.014232 0.000000 0.011091 0.000000
# 3 -0.000969 -0.014232 0.032784 0.000000 -0.009563 0.000000
# 4 0.000000 0.000000 0.000000 0.041550 0.000000 0.003351
# 5 -0.008222 0.011091 -0.009563 0.000000 0.045072 0.000000
# 6 0.000000 0.000000 0.000000 0.003351 0.000000 0.044302
#
#
# Mechanical properties :
#
#
# Convention : Reuss Voigt Hill
#
# Bulk Modulus (GPa) = 36.36255 42.12209 39.24232
# Shear Modulus (GPa) = 18.75664 21.73584 20.24624
#
# Velocity S-wave (km/s) = 3.01307 3.24354 3.13043
# Velocity P-wave (km/s) = 5.45022 5.86646 5.66217
#
# Compressibility (1/GPa) = 0.02750082
#
# Stress axis : x y z
#
# Youngs Moduli (GPa) = 49.08962 41.95352 30.50245
#
# Poissons Ratio (x) = 0.40041 0.02955
# Poissons Ratio (y) = 0.46852 0.43412
# Poissons Ratio (z) = 0.04755 0.59709
#
# Static dielectric constant tensor:
#      x y z
#    x 1.757740 0.000000 -0.025640 
#    y 0.000000 1.702830 0.000000 
#    z -0.025640 0.000000 1.732620 
# 
# From -- ./inp_files/46647.got.cif
#   From: 2010.05.17/outbox.cif.g08.bks.cpg/sg14_24_cif.got.tgz:46647.got - 2010.06.03 17:49:19.
