data_PCOD9247324
_publ_section_title
;
Structure prediction by ZEFSAII (Michael W. Deem and Ramdas Pophale) SiO2 
 PCOD9247324
Probable space group: P 21/C
;
_chemical_formula_sum "Si O2"
_cell_formula_units_Z 24
_cell_length_a 17.407135
_cell_length_b 10.843515
_cell_length_c 19.512254
_cell_angle_alpha 90.000000
_cell_angle_beta 165.240052
_cell_angle_gamma 90.000000
_cell_volume 938.324057
_symmetry_space_group_name_H-M "P 21/C"
_symmetry_group_IT_number 14
_symmetry_cell_setting 'monoclinic'
loop_
_space_group_symop_operation_xyz
x,y,z
-x,1/2+y,1/2-z
-x,-y,-z
x,1/2-y,1/2+z
loop_
_atom_site_type_symbol
_atom_site_label
_atom_site_fract_x
_atom_site_fract_y
_atom_site_fract_z
Si Si1 0.491450 0.328313 0.823383
Si Si2 0.917176 0.822061 0.625369
Si Si3 0.498557 0.088914 0.604964
Si Si4 0.881713 0.784710 0.837448
Si Si5 0.220589 0.560925 0.058657
Si Si6 0.656982 0.552516 0.702849
O O1 0.215459 0.250007 0.554872
O O2 0.461200 0.442256 0.849993
O O3 0.563246 0.402232 0.815303
O O4 0.791896 0.247953 0.095901
O O5 0.676585 0.849890 0.479628
O O6 0.986213 0.953416 0.650564
O O7 0.302332 0.124560 0.369815
O O8 0.827461 0.149353 0.880489
O O9 0.679222 0.701205 0.714278
O O10 0.026814 0.677314 0.914932
O O11 0.427028 0.505344 0.296990
O O12 0.500000 0.500000 0.500000
O O13 0.000000 0.500000 0.000000
#
# Coordination Sequence:
#
# PCOD9247324 Si02
#       6
#     4   4   4   4   4   4
#     4  11  23  37  58  85 119 153 195 232 296 353
#     4  11  22  37  57  84 117 156 187 243 287 353
#     4  11  21  36  57  83 115 156 185 242 287 351
#     4  11  20  38  59  85 119 144 195 238 295 344
#     4  10  22  38  60  87 120 147 196 240 296 349
#     4  10  22  36  59  88 117 156 190 246 297 342
#
# _framework density 25.577518000000001
#
# number of rings (size 3 to 8) (size 9 to 14) (size 15 to 20)
#    0.000    1.333    3.333    3.000    0.000    8.000 
#    0.000    0.000    0.000    6.000    0.000    0.000 
#    0.000    0.000    0.000    0.000    0.000    0.000 
#
# Total GULP energy -134357.404438 kJ/mol
# GULP energy per Si atom -5598.225185 kJ/mol
# Density = 2.551930 g / cm^3
# Si number density = 25.577518 Si / 1000 Ang^3
#
#
#
# Elastic Constant Matrix: (Units=GPa)
#
#
# Indices 1 2 3 4 5 6 
#
# 1 62.0832 -14.3400 21.2105 0.0000 -13.2430 0.0000
# 2 -14.3400 97.0772 14.7603 0.0000 14.7990 0.0000
# 3 21.2105 14.7603 158.8443 0.0000 -12.2828 0.0000
# 4 0.0000 0.0000 0.0000 35.1669 0.0000 -6.2689
# 5 -13.2430 14.7990 -12.2828 0.0000 32.3178 0.0000
# 6 0.0000 0.0000 0.0000 -6.2689 0.0000 33.6289
#
#
#
# Elastic Compliance Matrix: (Units=1/GPa)
#
#
# Indices 1 2 3 4 5 6 
#
# 1 0.018615 0.002213 -0.002246 0.000000 0.005761 0.000000
# 2 0.002213 0.011678 -0.001776 0.000000 -0.005116 0.000000
# 3 -0.002246 -0.001776 0.006957 0.000000 0.002537 0.000000
# 4 0.000000 0.000000 0.000000 0.029413 0.000000 0.005483
# 5 0.005761 -0.005116 0.002537 0.000000 0.036610 0.000000
# 6 0.000000 0.000000 0.000000 0.005483 0.000000 0.030758
#
#
# Mechanical properties :
#
#
# Convention : Reuss Voigt Hill
#
# Bulk Modulus (GPa) = 29.73439 40.14070 34.93755
# Shear Modulus (GPa) = 33.58869 39.98098 36.78483
#
# Velocity S-wave (km/s) = 3.62776 3.95793 3.79644
# Velocity P-wave (km/s) = 5.40351 6.05102 5.73641
#
# Compressibility (1/GPa) = 0.03363109
#
# Stress axis : x y z
#
# Youngs Moduli (GPa) = 53.72099 85.63157 143.74865
#
# Poissons Ratio (x) = -0.18950 0.32283
# Poissons Ratio (y) = -0.11888 0.25533
# Poissons Ratio (z) = 0.12065 0.15210
#
# Static dielectric constant tensor:
#      x y z
#    x 2.343280 0.000000 0.088880 
#    y 0.000000 2.091270 0.000000 
#    z 0.088880 0.000000 1.964290 
# 
# From -- ./inp_files/74967.got.cif
#   From: 2010.05.17/outbox.cif.g08.bks.cpg/sg14_38_cif.got.tgz:74967.got - 2010.06.03 17:49:19.
