data_PCOD9247784
_publ_section_title
;
Structure prediction by ZEFSAII (Michael W. Deem and Ramdas Pophale) SiO2 
 PCOD9247784
Probable space group: P 21/C
;
_chemical_formula_sum "Si O2"
_cell_formula_units_Z 28
_cell_length_a 28.476986
_cell_length_b 7.860713
_cell_length_c 28.679932
_cell_angle_alpha 90.000000
_cell_angle_beta 169.984246
_cell_angle_gamma 90.000000
_cell_volume 1116.557239
_symmetry_space_group_name_H-M "P 21/C"
_symmetry_group_IT_number 14
_symmetry_cell_setting 'monoclinic'
loop_
_space_group_symop_operation_xyz
x,y,z
-x,1/2+y,1/2-z
-x,-y,-z
x,1/2-y,1/2+z
loop_
_atom_site_type_symbol
_atom_site_label
_atom_site_fract_x
_atom_site_fract_y
_atom_site_fract_z
Si Si1 0.502155 0.223420 0.366513
Si Si2 0.293918 0.368196 0.323155
Si Si3 0.465668 0.862561 0.283047
Si Si4 0.332419 0.083275 0.294026
Si Si5 0.975602 0.211300 0.703034
Si Si6 0.029214 0.140625 0.349945
Si Si7 0.778438 0.248778 0.860214
O O1 0.519417 0.156719 0.435882
O O2 0.729394 0.357808 0.576327
O O3 0.515750 0.055746 0.347531
O O4 0.222092 0.311715 0.080635
O O5 0.500000 0.500000 0.500000
O O6 0.200383 0.245696 0.189172
O O7 0.495356 0.288521 0.558410
O O8 0.009794 0.383923 0.072946
O O9 0.754393 0.775752 0.558376
O O10 0.288056 0.777158 0.150775
O O11 0.280261 0.834067 0.056484
O O12 0.500000 0.000000 0.500000
O O13 0.150165 0.940093 0.090830
O O14 0.038284 0.214457 0.819008
O O15 0.898315 0.028889 0.606953
#
# Coordination Sequence:
#
# PCOD9247784 Si02
#       7
#     4   4   4   4   4   4   4
#     4  11  24  43  68  99 133 172 227 278 328 397
#     4  11  22  37  60  90 125 162 207 267 323 378
#     4  11  23  42  68  95 126 173 219 270 323 392
#     4   9  22  42  66  93 128 174 219 269 333 400
#     4  12  25  44  68  96 136 177 220 271 336 398
#     4  12  26  44  66  98 133 174 217 274 331 393
#     4  10  22  40  61  87 123 164 212 257 317 388
#
# _framework density 25.077085
#
# number of rings (size 3 to 8) (size 9 to 14) (size 15 to 20)
#    0.000    1.143    0.000    6.000    0.000   11.429 
#    0.000    0.000    0.000    0.000    0.000    0.000 
#    0.000    0.000    0.000    0.000    0.000    0.000 
#
# Total GULP energy -156670.904077 kJ/mol
# GULP energy per Si atom -5595.389431 kJ/mol
# Density = 2.502001 g / cm^3
# Si number density = 25.077085 Si / 1000 Ang^3
#
#
#
# Elastic Constant Matrix: (Units=GPa)
#
#
# Indices 1 2 3 4 5 6 
#
# 1 70.7815 12.7915 25.3474 0.0000 -8.4057 0.0000
# 2 12.7915 50.2981 4.6577 0.0000 2.5769 0.0000
# 3 25.3474 4.6577 100.9003 0.0000 1.6984 0.0000
# 4 0.0000 0.0000 0.0000 17.5801 0.0000 2.7909
# 5 -8.4057 2.5769 1.6984 0.0000 36.4790 0.0000
# 6 0.0000 0.0000 0.0000 2.7909 0.0000 36.2038
#
#
#
# Elastic Compliance Matrix: (Units=1/GPa)
#
#
# Indices 1 2 3 4 5 6 
#
# 1 0.016870 -0.004133 -0.004121 0.000000 0.004371 0.000000
# 2 -0.004133 0.021048 0.000108 0.000000 -0.002444 0.000000
# 3 -0.004121 0.000108 0.010966 0.000000 -0.001468 0.000000
# 4 0.000000 0.000000 0.000000 0.057587 0.000000 -0.004439
# 5 0.004371 -0.002444 -0.001468 0.000000 0.028661 0.000000
# 6 0.000000 0.000000 0.000000 -0.004439 0.000000 0.027964
#
#
# Mechanical properties :
#
#
# Convention : Reuss Voigt Hill
#
# Bulk Modulus (GPa) = 30.68247 34.17481 32.42864
# Shear Modulus (GPa) = 26.28122 29.99812 28.13967
#
# Velocity S-wave (km/s) = 3.24082 3.46242 3.35345
# Velocity P-wave (km/s) = 5.12501 5.44444 5.28714
#
# Compressibility (1/GPa) = 0.03259191
#
# Stress axis : x y z
#
# Youngs Moduli (GPa) = 59.27851 47.51117 91.19378
#
# Poissons Ratio (x) = 0.19634 0.37578
# Poissons Ratio (y) = 0.24497 -0.00982
# Poissons Ratio (z) = 0.24427 -0.00512
#
# Static dielectric constant tensor:
#      x y z
#    x 2.018230 0.000000 0.000280 
#    y 0.000000 2.053210 0.000000 
#    z 0.000280 0.000000 1.940800 
# 
# From -- ./inp_files/80923.got.cif
#   From: 2010.05.17/outbox.cif.g08.bks.cpg/sg14_41_cif.got.tgz:80923.got - 2010.06.03 17:49:19.
