data_PCOD9247978
_publ_section_title
;
Structure prediction by ZEFSAII (Michael W. Deem and Ramdas Pophale) SiO2 
 PCOD9247978
Probable space group: P 21/C
;
_chemical_formula_sum "Si O2"
_cell_formula_units_Z 32
_cell_length_a 14.835979
_cell_length_b 10.455640
_cell_length_c 9.581733
_cell_angle_alpha 90.000000
_cell_angle_beta 106.974355
_cell_angle_gamma 90.000000
_cell_volume 1421.564580
_symmetry_space_group_name_H-M "P 21/C"
_symmetry_group_IT_number 14
_symmetry_cell_setting 'monoclinic'
loop_
_space_group_symop_operation_xyz
x,y,z
-x,1/2+y,1/2-z
-x,-y,-z
x,1/2-y,1/2+z
loop_
_atom_site_type_symbol
_atom_site_label
_atom_site_fract_x
_atom_site_fract_y
_atom_site_fract_z
Si Si1 0.506296 0.596601 0.216286
Si Si2 0.945710 0.636047 0.311243
Si Si3 0.260877 0.455054 0.401044
Si Si4 0.599778 0.745333 0.006070
Si Si5 0.943078 0.630874 0.638668
Si Si6 0.673464 0.423500 0.295927
Si Si7 0.707756 0.128354 0.325172
Si Si8 0.759667 0.547588 0.067642
O O1 0.538530 0.663909 0.087158
O O2 0.539374 0.688628 0.357798
O O3 0.563945 0.463988 0.257681
O O4 0.395637 0.580367 0.175717
O O5 0.933161 0.666238 0.470078
O O6 0.990638 0.755444 0.248476
O O7 0.849029 0.607514 0.184798
O O8 0.003557 0.504166 0.330498
O O9 0.344110 0.360270 0.391931
O O10 0.159127 0.393750 0.339544
O O11 0.275680 0.484314 0.570572
O O12 0.273369 0.586496 0.324026
O O13 0.686144 0.657993 0.990718
O O14 0.701777 0.279364 0.339770
O O15 0.707443 0.461369 0.159035
O O16 0.780857 0.047308 0.450223
#
# Coordination Sequence:
#
# PCOD9247978 Si02
#       8
#     4   4   4   4   4   4   4   4
#     4  10  25  40  63  95 133 182 238 296 351 405
#     4  11  26  49  79 111 147 185 239 297 361 439
#     4  11  23  44  69  99 134 186 229 292 352 421
#     4  10  22  40  70  90 130 176 236 286 340 416
#     4  11  26  49  79 111 147 185 239 297 361 439
#     4  10  24  42  61  93 139 176 233 301 346 414
#     4  12  27  38  66 100 137 184 237 287 359 420
#     4  11  23  44  69  99 134 186 229 292 352 421
#
# _framework density 22.51041
#
# number of rings (size 3 to 8) (size 9 to 14) (size 15 to 20)
#    0.000    1.250    2.500    1.500    8.750    4.500 
#    0.000    0.000    0.000    0.000    0.000    0.000 
#    0.000    0.000    0.000    0.000    0.000    0.000 
#
# Total GULP energy -178997.509108 kJ/mol
# GULP energy per Si atom -5593.672160 kJ/mol
# Density = 2.245918 g / cm^3
# Si number density = 22.510410 Si / 1000 Ang^3
#
#
#
# Elastic Constant Matrix: (Units=GPa)
#
#
# Indices 1 2 3 4 5 6 
#
# 1 16.0986 12.8893 5.5423 0.0000 -0.0169 0.0000
# 2 12.8893 116.3256 34.8135 0.0000 -2.9027 0.0000
# 3 5.5423 34.8135 76.4433 0.0000 -5.5871 0.0000
# 4 0.0000 0.0000 0.0000 41.5930 0.0000 -3.3372
# 5 -0.0169 -2.9027 -5.5871 0.0000 21.2033 0.0000
# 6 0.0000 0.0000 0.0000 -3.3372 0.0000 19.5141
#
#
#
# Elastic Compliance Matrix: (Units=1/GPa)
#
#
# Indices 1 2 3 4 5 6 
#
# 1 0.068405 -0.007062 -0.001845 0.000000 -0.001398 0.000000
# 2 -0.007062 0.010683 -0.004330 0.000000 0.000316 0.000000
# 3 -0.001845 -0.004330 0.015441 0.000000 0.003475 0.000000
# 4 0.000000 0.000000 0.000000 0.024377 0.000000 0.004169
# 5 -0.001398 0.000316 0.003475 0.000000 0.048120 0.000000
# 6 0.000000 0.000000 0.000000 0.004169 0.000000 0.051958
#
#
# Mechanical properties :
#
#
# Convention : Reuss Voigt Hill
#
# Bulk Modulus (GPa) = 14.69421 35.03976 24.86698
# Shear Modulus (GPa) = 18.64668 26.83692 22.74180
#
# Velocity S-wave (km/s) = 2.88124 3.45657 3.18194
# Velocity P-wave (km/s) = 4.19651 5.61519 4.95686
#
# Compressibility (1/GPa) = 0.06805401
#
# Stress axis : x y z
#
# Youngs Moduli (GPa) = 14.61878 93.60821 64.76141
#
# Poissons Ratio (x) = 0.66107 0.11952
# Poissons Ratio (y) = 0.10324 0.28042
# Poissons Ratio (z) = 0.02698 0.40533
#
# Static dielectric constant tensor:
#      x y z
#    x 1.816830 0.000000 0.019370 
#    y 0.000000 1.861850 0.000000 
#    z 0.019370 0.000000 1.804870 
# 
# From -- ./inp_files/15856.got.cif
#   From: 2010.05.17/outbox.cif.g08.bks.cpg/sg14_8_cif.got.tgz:15856.got - 2010.06.03 17:49:19.
