data_PCOD9247385
_publ_section_title
;
Structure prediction by ZEFSAII (Michael W. Deem and Ramdas Pophale) SiO2 
 PCOD9247385
Probable space group: P 21/C
;
_chemical_formula_sum "Si O2"
_cell_formula_units_Z 24
_cell_length_a 9.624217
_cell_length_b 15.179697
_cell_length_c 13.314450
_cell_angle_alpha 90.000000
_cell_angle_beta 32.207770
_cell_angle_gamma 90.000000
_cell_volume 1036.744253
_symmetry_space_group_name_H-M "P 21/C"
_symmetry_group_IT_number 14
_symmetry_cell_setting 'monoclinic'
loop_
_space_group_symop_operation_xyz
x,y,z
-x,1/2+y,1/2-z
-x,-y,-z
x,1/2-y,1/2+z
loop_
_atom_site_type_symbol
_atom_site_label
_atom_site_fract_x
_atom_site_fract_y
_atom_site_fract_z
Si Si1 0.953611 0.604219 0.966825
Si Si2 0.892265 0.639925 0.788300
Si Si3 0.446407 0.854687 0.887679
Si Si4 0.255472 0.166750 0.099684
Si Si5 0.199448 0.961702 0.573057
Si Si6 0.563587 0.163639 0.703853
O O1 0.656713 0.602998 0.185490
O O2 0.981522 0.661383 0.848566
O O3 0.987412 0.506848 0.899337
O O4 0.149030 0.648212 0.924737
O O5 0.768392 0.733814 0.841018
O O6 0.740736 0.548183 0.897112
O O7 0.145217 0.618499 0.567869
O O8 0.547721 0.874015 0.938341
O O9 0.449622 0.753375 0.849341
O O10 0.982244 0.113737 0.267852
O O11 0.374152 0.163375 0.915392
O O12 0.446365 0.916367 0.369344
#
# Coordination Sequence:
#
# PCOD9247385 Si02
#       6
#     4   4   4   4   4   4
#     4  10  22  37  60  92 120 155 205 253 295 360
#     4  10  23  39  59  93 122 160 204 252 303 359
#     4  12  22  38  64  87 128 165 196 251 312 357
#     4  12  23  40  64  90 126 161 204 252 306 363
#     4  10  23  37  63  92 122 156 212 249 306 352
#     4  12  22  38  61  91 124 160 202 255 299 360
#
# _framework density 23.149393
#
# number of rings (size 3 to 8) (size 9 to 14) (size 15 to 20)
#    1.000    0.000    6.667    0.500    2.333    1.333 
#    0.000    0.833    0.000    1.000    0.000    0.000 
#    0.000    0.000    0.000    0.000    0.000    0.000 
#
# Total GULP energy -133712.007272 kJ/mol
# GULP energy per Si atom -5571.333636 kJ/mol
# Density = 2.309670 g / cm^3
# Si number density = 23.149393 Si / 1000 Ang^3
#
#
#
# Elastic Constant Matrix: (Units=GPa)
#
#
# Indices 1 2 3 4 5 6 
#
# 1 40.4918 6.9648 0.5908 0.0000 14.6679 0.0000
# 2 6.9648 112.4693 30.5371 0.0000 -6.1539 0.0000
# 3 0.5908 30.5371 144.4179 0.0000 2.3950 0.0000
# 4 0.0000 0.0000 0.0000 38.5577 0.0000 3.6204
# 5 14.6679 -6.1539 2.3950 0.0000 13.7097 0.0000
# 6 0.0000 0.0000 0.0000 3.6204 0.0000 25.0562
#
#
#
# Elastic Compliance Matrix: (Units=1/GPa)
#
#
# Indices 1 2 3 4 5 6 
#
# 1 0.043726 -0.005949 0.001905 0.000000 -0.049785 0.000000
# 2 -0.005949 0.010540 -0.002395 0.000000 0.011514 0.000000
# 3 0.001905 -0.002395 0.007496 0.000000 -0.004423 0.000000
# 4 0.000000 0.000000 0.000000 0.026292 0.000000 -0.003799
# 5 -0.049785 0.011514 -0.004423 0.000000 0.132147 0.000000
# 6 0.000000 0.000000 0.000000 -0.003799 0.000000 0.040459
#
#
# Mechanical properties :
#
#
# Convention : Reuss Voigt Hill
#
# Bulk Modulus (GPa) = 20.45686 41.50715 30.98200
# Shear Modulus (GPa) = 17.25124 32.75046 25.00085
#
# Velocity S-wave (km/s) = 2.73282 3.76539 3.28987
# Velocity P-wave (km/s) = 4.33749 6.07233 5.27670
#
# Compressibility (1/GPa) = 0.04888336
#
# Stress axis : x y z
#
# Youngs Moduli (GPa) = 22.86962 94.87580 133.39752
#
# Poissons Ratio (x) = 0.56441 -0.25408
# Poissons Ratio (y) = 0.13605 0.31953
# Poissons Ratio (z) = -0.04356 0.22726
#
# Static dielectric constant tensor:
#      x y z
#    x 2.006930 0.000000 0.003060 
#    y 0.000000 1.951900 0.000000 
#    z 0.003060 0.000000 1.873930 
# 
# From -- ./inp_files/44858.got.cif
#   From: 2010.05.17/outbox.cif.g08.bks.cpg/sg14_23_cif.got.tgz:44858.got - 2010.06.03 17:49:19.
