data_PCOD9247358
_publ_section_title
;
Structure prediction by ZEFSAII (Michael W. Deem and Ramdas Pophale) SiO2 
 PCOD9247358
Probable space group: P 21/C
;
_chemical_formula_sum "Si O2"
_cell_formula_units_Z 30
_cell_length_a 10.225298
_cell_length_b 22.600284
_cell_length_c 7.332955
_cell_angle_alpha 90.000000
_cell_angle_beta 134.433171
_cell_angle_gamma 90.000000
_cell_volume 1210.063480
_symmetry_space_group_name_H-M "P 21/C"
_symmetry_group_IT_number 14
_symmetry_cell_setting 'monoclinic'
loop_
_space_group_symop_operation_xyz
x,y,z
-x,1/2+y,1/2-z
-x,-y,-z
x,1/2-y,1/2+z
loop_
_atom_site_type_symbol
_atom_site_label
_atom_site_fract_x
_atom_site_fract_y
_atom_site_fract_z
Si Si1 0.158001 0.055375 0.717631
Si Si2 0.216179 0.832574 0.484256
Si Si3 0.000000 0.000000 0.000000
Si Si4 0.210272 0.533327 0.969706
Si Si5 0.006087 0.618615 0.282621
Si Si6 0.316146 0.706202 0.481124
Si Si7 0.229748 0.327726 0.434172
Si Si8 0.327309 0.198821 0.427805
O O1 0.282108 0.109217 0.899765
O O2 0.023843 0.033782 0.753518
O O3 0.016973 0.085385 0.434867
O O4 0.252151 0.003085 0.694298
O O5 0.272853 0.900396 0.509871
O O6 0.272808 0.775827 0.423060
O O7 0.992478 0.831276 0.261432
O O8 0.305239 0.817349 0.765995
O O9 0.041514 0.931118 0.965805
O O10 0.782783 0.994865 0.703506
O O11 0.160444 0.668209 0.428334
O O12 0.823176 0.655882 0.133330
O O13 0.497912 0.696301 0.773147
O O14 0.265202 0.267608 0.359698
O O15 0.334393 0.321111 0.725991
#
# Coordination Sequence:
#
# PCOD9247358 Si02
#       8
#     4   4   2   4   4   4   4   4
#     4   9  18  35  65  89 122 170 216 258 322 375
#     4  11  22  40  66  93 131 174 215 258 331 380
#     4  10  22  36  70  98 126 170 226 264 320 392
#     4   9  18  35  60 101 122 168 220 265 310 394
#     4  11  21  42  66  92 129 172 214 264 327 384
#     4  12  25  41  63  98 131 170 209 273 318 394
#     4  11  20  39  61  91 124 172 211 271 319 393
#     4  12  25  39  64  96 133 166 219 266 330 385
#
# _framework density 24.792088
#
# number of rings (size 3 to 8) (size 9 to 14) (size 15 to 20)
#    0.000    1.333    4.000    4.000    1.867    0.000 
#    0.000    0.667    0.000    2.400    0.000    0.000 
#    0.000    0.000    0.000    0.000    0.000    0.000 
#
# Total GULP energy -167381.991466 kJ/mol
# GULP energy per Si atom -5579.399716 kJ/mol
# Density = 2.473566 g / cm^3
# Si number density = 24.792088 Si / 1000 Ang^3
#
#
#
# Elastic Constant Matrix: (Units=GPa)
#
#
# Indices 1 2 3 4 5 6 
#
# 1 29.4456 20.6912 21.1282 0.0000 3.6162 0.0000
# 2 20.6912 158.6689 36.9618 0.0000 -0.3316 0.0000
# 3 21.1282 36.9618 95.0457 0.0000 -13.0309 0.0000
# 4 0.0000 0.0000 0.0000 36.6162 0.0000 -31.5048
# 5 3.6162 -0.3316 -13.0309 0.0000 30.7519 0.0000
# 6 0.0000 0.0000 0.0000 -31.5048 0.0000 -4.2570
#
#
#
# Elastic Compliance Matrix: (Units=1/GPa)
#
#
# Indices 1 2 3 4 5 6 
#
# 1 0.044688 -0.003553 -0.009850 0.000000 -0.009467 0.000000
# 2 -0.003553 0.007250 -0.002083 0.000000 -0.000387 0.000000
# 3 -0.009850 -0.002083 0.014520 0.000000 0.007289 0.000000
# 4 0.000000 0.000000 0.000000 0.003707 0.000000 -0.027433
# 5 -0.009467 -0.000387 0.007289 0.000000 0.036716 0.000000
# 6 0.000000 0.000000 0.000000 -0.027433 0.000000 -0.031884
#
#
# Mechanical properties :
#
#
# Convention : Reuss Voigt Hill
#
# Bulk Modulus (GPa) = 28.17946 48.96917 38.57431
# Shear Modulus (GPa) = 42.44568 26.24749 34.34658
#
# Velocity S-wave (km/s) = 4.14220 3.25730 3.72611
# Velocity P-wave (km/s) = 5.85389 5.82593 5.83993
#
# Compressibility (1/GPa) = 0.03548685
#
# Stress axis : x y z
#
# Youngs Moduli (GPa) = 22.37735 137.92957 68.86991
#
# Poissons Ratio (x) = 0.49002 0.67839
# Poissons Ratio (y) = 0.07950 0.14343
# Poissons Ratio (z) = 0.22042 0.28726
#
# Static dielectric constant tensor:
#      x y z
#    x 1.715010 0.000000 0.488790 
#    y 0.000000 1.862200 0.000000 
#    z 0.488790 0.000000 1.329750 
# 
# From -- ./inp_files/17010.got.cif
#   From: 2010.05.17/outbox.cif.g08.bks.cpg/sg14_9_cif.got.tgz:17010.got - 2010.06.03 17:49:19.
