data_PCOD9247535
_publ_section_title
;
Structure prediction by ZEFSAII (Michael W. Deem and Ramdas Pophale) SiO2 
 PCOD9247535
Probable space group: P 21/C
;
_chemical_formula_sum "Si O2"
_cell_formula_units_Z 20
_cell_length_a 16.392524
_cell_length_b 9.528758
_cell_length_c 10.403582
_cell_angle_alpha 90.000000
_cell_angle_beta 31.622892
_cell_angle_gamma 90.000000
_cell_volume 852.052882
_symmetry_space_group_name_H-M "P 21/C"
_symmetry_group_IT_number 14
_symmetry_cell_setting 'monoclinic'
loop_
_space_group_symop_operation_xyz
x,y,z
-x,1/2+y,1/2-z
-x,-y,-z
x,1/2-y,1/2+z
loop_
_atom_site_type_symbol
_atom_site_label
_atom_site_fract_x
_atom_site_fract_y
_atom_site_fract_z
Si Si1 0.919594 0.176082 0.660751
Si Si2 0.393253 0.539431 0.386739
Si Si3 0.783092 0.333979 0.062983
Si Si4 0.729271 0.869307 0.725788
Si Si5 0.512370 0.192999 0.568849
O O1 0.890566 0.184427 0.546936
O O2 0.096341 0.147726 0.458331
O O3 0.867220 0.307676 0.816380
O O4 0.792739 0.063841 0.885402
O O5 0.383541 0.419084 0.509246
O O6 0.447922 0.685479 0.378152
O O7 0.501963 0.463764 0.137314
O O8 0.727630 0.494088 0.137418
O O9 0.641490 0.227424 0.286983
O O10 0.657031 0.734968 0.755832
#
# Coordination Sequence:
#
# PCOD9247535 Si02
#       5
#     4   4   4   4   4
#     4  10  23  40  66  89 132 163 214 257 319 371
#     4  10  22  42  62  93 124 169 208 263 312 376
#     4  10  22  42  63  90 129 169 207 263 314 372
#     4  10  22  38  66  85 130 171 208 251 331 373
#     4  10  23  38  69  87 129 163 218 252 319 373
#
# _framework density 23.472721
#
# number of rings (size 3 to 8) (size 9 to 14) (size 15 to 20)
#    0.000    2.400    0.000    4.800   16.800    0.800 
#    0.000    1.000    0.000    0.000    0.000    0.000 
#    0.000    0.000    0.000    0.000    0.000    0.000 
#
# Total GULP energy -111615.264263 kJ/mol
# GULP energy per Si atom -5580.763213 kJ/mol
# Density = 2.341930 g / cm^3
# Si number density = 23.472721 Si / 1000 Ang^3
#
#
#
# Elastic Constant Matrix: (Units=GPa)
#
#
# Indices 1 2 3 4 5 6 
#
# 1 77.5990 6.8651 35.9794 0.0000 -26.1712 0.0000
# 2 6.8651 35.6206 10.9199 0.0000 -4.6226 0.0000
# 3 35.9794 10.9199 38.8877 0.0000 -22.0472 0.0000
# 4 0.0000 0.0000 0.0000 30.8792 0.0000 2.0968
# 5 -26.1712 -4.6226 -22.0472 0.0000 53.1592 0.0000
# 6 0.0000 0.0000 0.0000 2.0968 0.0000 19.7503
#
#
#
# Elastic Compliance Matrix: (Units=1/GPa)
#
#
# Indices 1 2 3 4 5 6 
#
# 1 0.023142 0.002148 -0.020199 0.000000 0.003203 0.000000
# 2 0.002148 0.030974 -0.011189 0.000000 -0.000890 0.000000
# 3 -0.020199 -0.011189 0.054069 0.000000 0.011508 0.000000
# 4 0.000000 0.000000 0.000000 0.032619 0.000000 -0.003463
# 5 0.003203 -0.000890 0.011508 0.000000 0.025084 0.000000
# 6 0.000000 0.000000 0.000000 -0.003463 0.000000 0.051000
#
#
# Mechanical properties :
#
#
# Convention : Reuss Voigt Hill
#
# Bulk Modulus (GPa) = 20.11859 28.84842 24.48351
# Shear Modulus (GPa) = 17.12692 27.31392 22.22042
#
# Velocity S-wave (km/s) = 2.70414 3.41493 3.08010
# Velocity P-wave (km/s) = 4.28246 5.27881 4.80652
#
# Compressibility (1/GPa) = 0.04970526
#
# Stress axis : x y z
#
# Youngs Moduli (GPa) = 43.21095 32.28465 18.49477
#
# Poissons Ratio (x) = -0.06934 0.37357
# Poissons Ratio (y) = -0.09280 0.20694
# Poissons Ratio (z) = 0.87281 0.36124
#
# Static dielectric constant tensor:
#      x y z
#    x 2.005420 0.000000 0.033670 
#    y 0.000000 1.900140 0.000000 
#    z 0.033670 0.000000 1.888720 
# 
# From -- ./inp_files/22984.got.cif
#   From: 2010.05.17/outbox.cif.g08.bks.cpg/sg14_12_cif.got.tgz:22984.got - 2010.06.03 17:49:19.
