data_PCOD9247616
_publ_section_title
;
Structure prediction by ZEFSAII (Michael W. Deem and Ramdas Pophale) SiO2 
 PCOD9247616
Probable space group: P 21/C
;
_chemical_formula_sum "Si O2"
_cell_formula_units_Z 32
_cell_length_a 29.808139
_cell_length_b 8.617456
_cell_length_c 15.349216
_cell_angle_alpha 90.000000
_cell_angle_beta 157.846823
_cell_angle_gamma 90.000000
_cell_volume 1486.751102
_symmetry_space_group_name_H-M "P 21/C"
_symmetry_group_IT_number 14
_symmetry_cell_setting 'monoclinic'
loop_
_space_group_symop_operation_xyz
x,y,z
-x,1/2+y,1/2-z
-x,-y,-z
x,1/2-y,1/2+z
loop_
_atom_site_type_symbol
_atom_site_label
_atom_site_fract_x
_atom_site_fract_y
_atom_site_fract_z
Si Si1 0.671790 0.788366 0.864777
Si Si2 0.449339 0.549221 0.038265
Si Si3 0.877724 0.610156 0.484103
Si Si4 0.800440 0.029629 0.012152
Si Si5 0.740284 0.491128 0.079449
Si Si6 0.864941 0.376982 0.137756
Si Si7 0.281266 0.387018 0.232021
Si Si8 0.476134 0.705514 0.264161
O O1 0.550462 0.880417 0.658496
O O2 0.680166 0.697179 0.788835
O O3 0.779497 0.911206 0.053503
O O4 0.685410 0.660881 0.963607
O O5 0.439920 0.672023 0.099968
O O6 0.490736 0.381355 0.150368
O O7 0.325465 0.531456 0.765736
O O8 0.891955 0.534136 0.604925
O O9 0.797288 0.501463 0.277232
O O10 0.809660 0.772316 0.381186
O O11 0.001473 0.622657 0.656934
O O12 0.830018 0.200952 0.092278
O O13 0.837676 0.465617 0.178999
O O14 0.635080 0.365153 0.882308
O O15 0.782996 0.457401 0.915962
O O16 0.404228 0.395951 0.505041
#
# Coordination Sequence:
#
# PCOD9247616 Si02
#       8
#     4   4   4   4   4   4   4   4
#     4  10  22  39  61  89 129 160 203 260 313 381
#     4  12  23  38  61  91 129 166 199 255 324 380
#     4  11  21  47  62  90 129 169 212 265 310 374
#     4  11  23  42  62  92 126 166 212 259 312 371
#     4  11  24  41  64  96 126 169 207 262 325 377
#     4  11  25  39  68  91 124 170 220 257 311 382
#     4  10  23  39  62  93 123 164 211 260 318 371
#     4  12  23  40  62  94 131 160 206 261 322 389
#
# _framework density 21.523441999999999
#
# number of rings (size 3 to 8) (size 9 to 14) (size 15 to 20)
#    0.000    1.000    3.750    3.750    5.250    1.000 
#    0.000    0.625    0.000    0.000    0.000    0.000 
#    0.000    0.000    0.000    0.000    0.000    0.000 
#
# Total GULP energy -178844.271018 kJ/mol
# GULP energy per Si atom -5588.883469 kJ/mol
# Density = 2.147445 g / cm^3
# Si number density = 21.523442 Si / 1000 Ang^3
#
#
#
# Elastic Constant Matrix: (Units=GPa)
#
#
# Indices 1 2 3 4 5 6 
#
# 1 50.7201 -6.8474 15.9131 0.0000 30.4760 0.0000
# 2 -6.8474 70.9128 6.7165 0.0000 8.5967 0.0000
# 3 15.9131 6.7165 54.4315 0.0000 22.5225 0.0000
# 4 0.0000 0.0000 0.0000 18.5596 0.0000 -5.0998
# 5 30.4760 8.5967 22.5225 0.0000 31.7341 0.0000
# 6 0.0000 0.0000 0.0000 -5.0998 0.0000 16.9947
#
#
#
# Elastic Compliance Matrix: (Units=1/GPa)
#
#
# Indices 1 2 3 4 5 6 
#
# 1 0.057749 0.012642 0.008384 0.000000 -0.064835 0.000000
# 2 0.012642 0.017350 0.001602 0.000000 -0.017978 0.000000
# 3 0.008384 0.001602 0.027231 0.000000 -0.027812 0.000000
# 4 0.000000 0.000000 0.000000 0.058723 0.000000 0.017622
# 5 -0.064835 -0.017978 -0.027812 0.000000 0.118385 0.000000
# 6 0.000000 0.000000 0.000000 0.017622 0.000000 0.064130
#
#
# Mechanical properties :
#
#
# Convention : Reuss Voigt Hill
#
# Bulk Modulus (GPa) = 6.77565 23.06986 14.92276
# Shear Modulus (GPa) = 14.38816 24.14316 19.26566
#
# Velocity S-wave (km/s) = 2.58832 3.35283 2.99507
# Velocity P-wave (km/s) = 3.47669 5.07252 4.34844
#
# Compressibility (1/GPa) = 0.14758726
#
# Stress axis : x y z
#
# Youngs Moduli (GPa) = 17.31617 57.63596 36.72287
#
# Poissons Ratio (x) = -0.72864 -0.30789
# Poissons Ratio (y) = -0.21891 -0.05883
# Poissons Ratio (z) = -0.14518 -0.09233
#
# Static dielectric constant tensor:
#      x y z
#    x 1.817690 0.000000 0.009100 
#    y 0.000000 1.776830 0.000000 
#    z 0.009100 0.000000 1.790350 
# 
# From -- ./inp_files/62681.got.cif
#   From: 2010.05.17/outbox.cif.g08.bks.cpg/sg14_32_cif.got.tgz:62681.got - 2010.06.03 17:49:19.
