data_PCOD9247796
_publ_section_title
;
Structure prediction by ZEFSAII (Michael W. Deem and Ramdas Pophale) SiO2 
 PCOD9247796
Probable space group: P 21/C
;
_chemical_formula_sum "Si O2"
_cell_formula_units_Z 28
_cell_length_a 13.785361
_cell_length_b 12.209511
_cell_length_c 8.756122
_cell_angle_alpha 90.000000
_cell_angle_beta 54.207808
_cell_angle_gamma 90.000000
_cell_volume 1195.434884
_symmetry_space_group_name_H-M "P 21/C"
_symmetry_group_IT_number 14
_symmetry_cell_setting 'monoclinic'
loop_
_space_group_symop_operation_xyz
x,y,z
-x,1/2+y,1/2-z
-x,-y,-z
x,1/2-y,1/2+z
loop_
_atom_site_type_symbol
_atom_site_label
_atom_site_fract_x
_atom_site_fract_y
_atom_site_fract_z
Si Si1 0.827242 0.784000 0.021219
Si Si2 0.990468 0.659243 0.642160
Si Si3 0.887325 0.134566 0.529031
Si Si4 0.673119 0.103527 0.541353
Si Si5 0.448967 0.770652 0.066538
Si Si6 0.601390 0.857430 0.661066
Si Si7 0.119436 0.480759 0.702411
O O1 0.718983 0.699648 0.123760
O O2 0.879438 0.833681 0.128824
O O3 0.794529 0.889981 0.948101
O O4 0.937283 0.718005 0.842303
O O5 0.096581 0.735768 0.480051
O O6 0.046773 0.544806 0.638358
O O7 0.813821 0.102910 0.446262
O O8 0.021922 0.089668 0.385480
O O9 0.832806 0.072620 0.725720
O O10 0.630510 0.175974 0.438952
O O11 0.621060 0.163006 0.740396
O O12 0.626566 0.980112 0.584892
O O13 0.556869 0.711632 0.056947
O O14 0.500315 0.846682 0.884531
#
# Coordination Sequence:
#
# PCOD9247796 Si02
#       7
#     4   4   4   4   4   4   4
#     4  11  23  37  67  94 131 172 217 255 334 384
#     4  11  21  40  58  96 135 170 212 259 312 399
#     4  10  23  38  63  92 132 167 211 262 322 381
#     4  11  24  42  69  91 129 175 213 273 333 385
#     4  10  25  45  64  97 126 165 229 271 336 390
#     4  11  23  44  68  95 130 166 218 285 324 387
#     4  10  22  40  61  96 135 171 209 267 313 392
#
# _framework density 23.422436999999999
#
# number of rings (size 3 to 8) (size 9 to 14) (size 15 to 20)
#    0.000    1.429    1.429    3.000    8.000    0.000 
#    0.000    2.857    0.000    0.000    0.000    0.000 
#    0.000    0.000    0.000    0.000    0.000    0.000 
#
# Total GULP energy -156625.394313 kJ/mol
# GULP energy per Si atom -5593.764083 kJ/mol
# Density = 2.336913 g / cm^3
# Si number density = 23.422437 Si / 1000 Ang^3
#
#
#
# Elastic Constant Matrix: (Units=GPa)
#
#
# Indices 1 2 3 4 5 6 
#
# 1 70.0334 5.4596 -9.1497 0.0000 10.7434 0.0000
# 2 5.4596 93.8757 16.4994 0.0000 -6.8918 0.0000
# 3 -9.1497 16.4994 38.3489 0.0000 6.4301 0.0000
# 4 0.0000 0.0000 0.0000 26.1011 0.0000 13.2846
# 5 10.7434 -6.8918 6.4301 0.0000 20.3243 0.0000
# 6 0.0000 0.0000 0.0000 13.2846 0.0000 32.9962
#
#
#
# Elastic Compliance Matrix: (Units=1/GPa)
#
#
# Indices 1 2 3 4 5 6 
#
# 1 0.017524 -0.003328 0.007767 0.000000 -0.012849 0.000000
# 2 -0.003328 0.012837 -0.007753 0.000000 0.008565 0.000000
# 3 0.007767 -0.007753 0.034209 0.000000 -0.017558 0.000000
# 4 0.000000 0.000000 0.000000 0.048187 0.000000 -0.019401
# 5 -0.012849 0.008565 -0.017558 0.000000 0.064453 0.000000
# 6 0.000000 0.000000 0.000000 -0.019401 0.000000 0.038117
#
#
# Mechanical properties :
#
#
# Convention : Reuss Voigt Hill
#
# Bulk Modulus (GPa) = 17.25818 25.31963 21.28891
# Shear Modulus (GPa) = 20.72364 28.51423 24.61894
#
# Velocity S-wave (km/s) = 2.97775 3.49290 3.24556
# Velocity P-wave (km/s) = 4.38256 5.20582 4.81183
#
# Compressibility (1/GPa) = 0.05794354
#
# Stress axis : x y z
#
# Youngs Moduli (GPa) = 57.06413 77.89742 29.23177
#
# Poissons Ratio (x) = 0.25921 -0.22705
# Poissons Ratio (y) = 0.18989 0.22664
# Poissons Ratio (z) = -0.44323 0.60396
#
# Static dielectric constant tensor:
#      x y z
#    x 1.912510 0.000000 0.006980 
#    y 0.000000 1.857750 0.000000 
#    z 0.006980 0.000000 1.933670 
# 
# From -- ./inp_files/15470.got.cif
#   From: 2010.05.17/outbox.cif.g08.bks.cpg/sg14_8_cif.got.tgz:15470.got - 2010.06.03 17:49:19.
