data_PCOD9247966
_publ_section_title
;
Structure prediction by ZEFSAII (Michael W. Deem and Ramdas Pophale) SiO2 
 PCOD9247966
Probable space group: P 21/C
;
_chemical_formula_sum "Si O2"
_cell_formula_units_Z 28
_cell_length_a 15.427399
_cell_length_b 8.635511
_cell_length_c 21.879955
_cell_angle_alpha 90.000000
_cell_angle_beta 150.264175
_cell_angle_gamma 90.000000
_cell_volume 1445.807054
_symmetry_space_group_name_H-M "P 21/C"
_symmetry_group_IT_number 14
_symmetry_cell_setting 'monoclinic'
loop_
_space_group_symop_operation_xyz
x,y,z
-x,1/2+y,1/2-z
-x,-y,-z
x,1/2-y,1/2+z
loop_
_atom_site_type_symbol
_atom_site_label
_atom_site_fract_x
_atom_site_fract_y
_atom_site_fract_z
Si Si1 0.843941 0.402158 0.935000
Si Si2 0.247430 0.426416 0.806751
Si Si3 0.286770 0.100520 0.088787
Si Si4 0.447883 0.078491 0.671613
Si Si5 0.385469 0.895544 0.509586
Si Si6 0.919892 0.374755 0.403161
Si Si7 0.872350 0.193851 0.074130
O O1 0.685736 0.511860 0.858615
O O2 0.814314 0.264875 0.868183
O O3 0.885044 0.305824 0.022419
O O4 0.000000 0.500000 0.000000
O O5 0.310493 0.520164 0.904285
O O6 0.185660 0.539687 0.714354
O O7 0.072062 0.333935 0.715477
O O8 0.418818 0.337373 0.886820
O O9 0.422041 0.236929 0.155716
O O10 0.372171 0.002601 0.196650
O O11 0.104274 0.187862 0.989851
O O12 0.225020 0.965607 0.004740
O O13 0.403686 0.012797 0.577899
O O14 0.248707 0.769681 0.449037
O O15 0.000000 0.500000 0.500000
#
# Coordination Sequence:
#
# PCOD9247966 Si02
#       7
#     4   4   4   4   4   4   4
#     4  11  21  36  58  94 122 156 206 261 317 371
#     4  10  22  40  69  84 125 170 204 259 313 368
#     4  11  22  36  58  92 120 162 198 260 322 354
#     4  11  23  35  60  90 126 160 208 265 305 379
#     4  10  23  41  62  93 121 167 218 244 314 380
#     4  11  20  37  62  85 120 159 205 255 318 367
#     4  10  23  41  63  92 125 165 207 261 312 374
#
# _framework density 19.366346
#
# number of rings (size 3 to 8) (size 9 to 14) (size 15 to 20)
#    0.000    1.429    4.286    2.571    2.000    3.429 
#    0.000    0.000    0.000    2.571    0.000    0.000 
#    0.000    0.000    0.000    0.000    0.000    0.000 
#
# Total GULP energy -156067.577227 kJ/mol
# GULP energy per Si atom -5573.842044 kJ/mol
# Density = 1.932227 g / cm^3
# Si number density = 19.366346 Si / 1000 Ang^3
#
#
#
# Elastic Constant Matrix: (Units=GPa)
#
#
# Indices 1 2 3 4 5 6 
#
# 1 116.9636 44.1997 60.1521 0.0000 20.0967 0.0000
# 2 44.1997 85.9931 29.7553 0.0000 21.1666 0.0000
# 3 60.1521 29.7553 112.9481 0.0000 24.0434 0.0000
# 4 0.0000 0.0000 0.0000 20.6485 0.0000 13.4449
# 5 20.0967 21.1666 24.0434 0.0000 31.3033 0.0000
# 6 0.0000 0.0000 0.0000 13.4449 0.0000 29.7922
#
#
#
# Elastic Compliance Matrix: (Units=1/GPa)
#
#
# Indices 1 2 3 4 5 6 
#
# 1 0.013425 -0.004662 -0.005688 0.000000 -0.001098 0.000000
# 2 -0.004662 0.015955 -0.000073 0.000000 -0.007740 0.000000
# 3 -0.005688 -0.000073 0.013287 0.000000 -0.006504 0.000000
# 4 0.000000 0.000000 0.000000 0.068583 0.000000 -0.030951
# 5 -0.001098 -0.007740 -0.006504 0.000000 0.042879 0.000000
# 6 0.000000 0.000000 0.000000 -0.030951 0.000000 0.047534
#
#
# Mechanical properties :
#
#
# Convention : Reuss Voigt Hill
#
# Bulk Modulus (GPa) = 45.82666 64.90210 55.36438
# Shear Modulus (GPa) = 21.75969 28.46865 25.11417
#
# Velocity S-wave (km/s) = 3.35563 3.83823 3.60501
# Velocity P-wave (km/s) = 6.22319 7.29577 6.78072
#
# Compressibility (1/GPa) = 0.02182136
#
# Stress axis : x y z
#
# Youngs Moduli (GPa) = 74.48642 62.67472 75.26394
#
# Poissons Ratio (x) = 0.29220 0.42810
# Poissons Ratio (y) = 0.34726 0.00549
# Poissons Ratio (z) = 0.42367 0.00457
#
# Static dielectric constant tensor:
#      x y z
#    x 1.737530 0.000000 0.073500 
#    y 0.000000 1.682990 0.000000 
#    z 0.073500 0.000000 1.694630 
# 
# From -- ./inp_files/68164.got.cif
#   From: 2010.05.17/outbox.cif.g08.bks.cpg/sg14_35_cif.got.tgz:68164.got - 2010.06.03 17:49:19.
