data_PCOD9247957
_publ_section_title
;
Structure prediction by ZEFSAII (Michael W. Deem and Ramdas Pophale) SiO2 
 PCOD9247957
Probable space group: P 21/C
;
_chemical_formula_sum "Si O2"
_cell_formula_units_Z 20
_cell_length_a 15.129308
_cell_length_b 4.989601
_cell_length_c 9.779091
_cell_angle_alpha 90.000000
_cell_angle_beta 85.442203
_cell_angle_gamma 90.000000
_cell_volume 735.881383
_symmetry_space_group_name_H-M "P 21/C"
_symmetry_group_IT_number 14
_symmetry_cell_setting 'monoclinic'
loop_
_space_group_symop_operation_xyz
x,y,z
-x,1/2+y,1/2-z
-x,-y,-z
x,1/2-y,1/2+z
loop_
_atom_site_type_symbol
_atom_site_label
_atom_site_fract_x
_atom_site_fract_y
_atom_site_fract_z
Si Si1 0.331165 0.292855 0.100579
Si Si2 0.701477 0.206487 0.700549
Si Si3 0.939983 0.612560 0.264224
Si Si4 0.174611 0.087560 0.950414
Si Si5 0.515823 0.296242 0.653487
O O1 0.315155 0.568505 0.180779
O O2 0.435447 0.244912 0.058059
O O3 0.305123 0.065153 0.214654
O O4 0.262833 0.248426 0.986787
O O5 0.789565 0.308391 0.615367
O O6 0.617640 0.234328 0.607624
O O7 0.884070 0.550398 0.407165
O O8 0.880145 0.750810 0.155609
O O9 0.987523 0.341591 0.210162
O O10 0.506259 0.583742 0.724141
#
# Coordination Sequence:
#
# PCOD9247957 Si02
#       5
#     4   4   4   4   4
#     4  10  22  40  68 106 146 189 237 285 345 418
#     4  10  22  40  68 106 146 189 237 285 345 418
#     4  12  30  52  76 108 142 182 236 302 378 434
#     4  12  26  49  80 106 144 184 238 300 356 437
#     4   8  16  35  60  97 146 189 228 281 338 401
#
# _framework density 27.178291999999999
#
# number of rings (size 3 to 8) (size 9 to 14) (size 15 to 20)
#    0.000    1.600    2.000    1.200    2.800    5.600 
#    0.000    0.000    0.000   14.400    0.000    0.000 
#    0.000    0.000    0.000    0.000    0.000    0.000 
#
# Total GULP energy -112384.191080 kJ/mol
# GULP energy per Si atom -5619.209554 kJ/mol
# Density = 2.711643 g / cm^3
# Si number density = 27.178292 Si / 1000 Ang^3
#
#
#
# Elastic Constant Matrix: (Units=GPa)
#
#
# Indices 1 2 3 4 5 6 
#
# 1 175.1666 15.2218 60.4247 0.0000 6.7429 0.0000
# 2 15.2218 124.4432 46.9043 0.0000 -11.1519 0.0000
# 3 60.4247 46.9043 141.5856 0.0000 -6.4618 0.0000
# 4 0.0000 0.0000 0.0000 28.6200 0.0000 4.8114
# 5 6.7429 -11.1519 -6.4618 0.0000 54.7655 0.0000
# 6 0.0000 0.0000 0.0000 4.8114 0.0000 51.3451
#
#
#
# Elastic Compliance Matrix: (Units=1/GPa)
#
#
# Indices 1 2 3 4 5 6 
#
# 1 0.006774 0.000203 -0.003011 0.000000 -0.001148 0.000000
# 2 0.000203 0.009316 -0.003104 0.000000 0.001506 0.000000
# 3 -0.003011 -0.003104 0.009415 0.000000 0.000849 0.000000
# 4 0.000000 0.000000 0.000000 0.035500 0.000000 -0.003327
# 5 -0.001148 0.001506 0.000849 0.000000 0.018808 0.000000
# 6 0.000000 0.000000 0.000000 -0.003327 0.000000 0.019788
#
#
# Mechanical properties :
#
#
# Convention : Reuss Voigt Hill
#
# Bulk Modulus (GPa) = 73.09112 76.25522 74.67317
# Shear Modulus (GPa) = 43.10949 48.18908 45.64929
#
# Velocity S-wave (km/s) = 3.98700 4.21536 4.10277
# Velocity P-wave (km/s) = 6.93877 7.19796 7.06955
#
# Compressibility (1/GPa) = 0.01368155
#
# Stress axis : x y z
#
# Youngs Moduli (GPa) = 147.62525 107.34361 106.21513
#
# Poissons Ratio (x) = -0.02182 0.31978
# Poissons Ratio (y) = -0.03001 0.32971
# Poissons Ratio (z) = 0.44445 0.33322
#
# Static dielectric constant tensor:
#      x y z
#    x 2.178380 0.000000 0.044490 
#    y 0.000000 2.125550 0.000000 
#    z 0.044490 0.000000 2.042070 
# 
# From -- ./inp_files/31105.got.cif
#   From: 2010.05.17/outbox.cif.g08.bks.cpg/sg14_16_cif.got.tgz:31105.got - 2010.06.03 17:49:19.
