data_PCOD9247742
_publ_section_title
;
Structure prediction by ZEFSAII (Michael W. Deem and Ramdas Pophale) SiO2 
 PCOD9247742
Probable space group: P 21/C
;
_chemical_formula_sum "Si O2"
_cell_formula_units_Z 26
_cell_length_a 12.560943
_cell_length_b 15.664186
_cell_length_c 7.784161
_cell_angle_alpha 90.000000
_cell_angle_beta 137.154075
_cell_angle_gamma 90.000000
_cell_volume 1041.524400
_symmetry_space_group_name_H-M "P 21/C"
_symmetry_group_IT_number 14
_symmetry_cell_setting 'monoclinic'
loop_
_space_group_symop_operation_xyz
x,y,z
-x,1/2+y,1/2-z
-x,-y,-z
x,1/2-y,1/2+z
loop_
_atom_site_type_symbol
_atom_site_label
_atom_site_fract_x
_atom_site_fract_y
_atom_site_fract_z
Si Si1 0.975703 0.921676 0.599229
Si Si2 0.545961 0.030433 0.243645
Si Si3 0.676162 0.671002 0.591200
Si Si4 0.220740 0.809686 0.046032
Si Si5 0.853603 0.134696 0.658823
Si Si6 0.000000 0.500000 0.500000
Si Si7 0.562506 0.838777 0.330354
O O1 0.838775 0.866054 0.353226
O O2 0.942178 0.944599 0.759557
O O3 0.138665 0.871933 0.813321
O O4 0.000000 0.000000 0.500000
O O5 0.713947 0.075221 0.427295
O O6 0.563590 0.941129 0.370564
O O7 0.414808 0.101797 0.139185
O O8 0.500000 0.000000 0.000000
O O9 0.687657 0.768307 0.541404
O O10 0.567739 0.671412 0.632218
O O11 0.133917 0.719810 0.931698
O O12 0.207237 0.845580 0.220320
O O13 0.399568 0.802257 0.206479
O O14 0.010189 0.083122 0.883966
#
# Coordination Sequence:
#
# PCOD9247742 Si02
#       7
#     4   4   4   4   4   2   4
#     4  11  26  49  73 107 144 191 248 300 372 435
#     4  10  22  39  69  95 137 186 228 291 357 419
#     4  11  24  45  70 107 145 193 239 304 369 431
#     4  11  25  42  73 103 137 193 239 298 361 439
#     4  11  24  43  68 103 140 187 245 292 367 435
#     4  10  24  46  70 102 142 190 236 296 366 434
#     4  11  23  44  69 103 145 181 241 295 362 436
#
# _framework density 24.96341
#
# number of rings (size 3 to 8) (size 9 to 14) (size 15 to 20)
#    0.000    1.231    1.538    3.692    4.308    4.308 
#    8.308    0.000    0.000    0.000    0.000    0.000 
#    0.000    0.000    0.000    0.000    0.000    0.000 
#
# Total GULP energy -144764.633228 kJ/mol
# GULP energy per Si atom -5567.870509 kJ/mol
# Density = 2.490659 g / cm^3
# Si number density = 24.963410 Si / 1000 Ang^3
#
#
#
# Elastic Constant Matrix: (Units=GPa)
#
#
# Indices 1 2 3 4 5 6 
#
# 1 34.5983 -10.6003 15.4724 0.0000 -8.1399 0.0000
# 2 -10.6003 115.7319 48.2387 0.0000 -9.2297 0.0000
# 3 15.4724 48.2387 119.3507 0.0000 -5.3011 0.0000
# 4 0.0000 0.0000 0.0000 101.1703 0.0000 -19.8359
# 5 -8.1399 -9.2297 -5.3011 0.0000 22.6426 0.0000
# 6 0.0000 0.0000 0.0000 -19.8359 0.0000 42.6538
#
#
#
# Elastic Compliance Matrix: (Units=1/GPa)
#
#
# Indices 1 2 3 4 5 6 
#
# 1 0.038187 0.007805 -0.007431 0.000000 0.015170 0.000000
# 2 0.007805 0.012234 -0.005669 0.000000 0.006466 0.000000
# 3 -0.007431 -0.005669 0.011532 0.000000 -0.002283 0.000000
# 4 0.000000 0.000000 0.000000 0.010876 0.000000 0.005058
# 5 0.015170 0.006466 -0.002283 0.000000 0.051719 0.000000
# 6 0.000000 0.000000 0.000000 0.005058 0.000000 0.025797
#
#
# Mechanical properties :
#
#
# Convention : Reuss Voigt Hill
#
# Bulk Modulus (GPa) = 19.46989 41.76694 30.61841
# Shear Modulus (GPa) = 28.08095 47.73133 37.90614
#
# Velocity S-wave (km/s) = 3.35757 4.37745 3.90098
# Velocity P-wave (km/s) = 4.77989 6.50515 5.70808
#
# Compressibility (1/GPa) = 0.05136136
#
# Stress axis : x y z
#
# Youngs Moduli (GPa) = 26.18726 81.73770 86.71461
#
# Poissons Ratio (x) = -0.63795 0.64439
# Poissons Ratio (y) = -0.20439 0.49162
# Poissons Ratio (z) = 0.19460 0.46341
#
# Static dielectric constant tensor:
#      x y z
#    x 1.917560 0.000000 -0.012530 
#    y 0.000000 2.101780 0.000000 
#    z -0.012530 0.000000 1.937080 
# 
# From -- ./inp_files/16368.got.cif
#   From: 2010.05.17/outbox.cif.g08.bks.cpg/sg14_9_cif.got.tgz:16368.got - 2010.06.03 17:49:19.
