data_PCOD9247904
_publ_section_title
;
Structure prediction by ZEFSAII (Michael W. Deem and Ramdas Pophale) SiO2 
 PCOD9247904
Probable space group: P 21/C
;
_chemical_formula_sum "Si O2"
_cell_formula_units_Z 32
_cell_length_a 5.206528
_cell_length_b 9.941682
_cell_length_c 24.925175
_cell_angle_alpha 90.000000
_cell_angle_beta 92.378164
_cell_angle_gamma 90.000000
_cell_volume 1289.056877
_symmetry_space_group_name_H-M "P 21/C"
_symmetry_group_IT_number 14
_symmetry_cell_setting 'monoclinic'
loop_
_space_group_symop_operation_xyz
x,y,z
-x,1/2+y,1/2-z
-x,-y,-z
x,1/2-y,1/2+z
loop_
_atom_site_type_symbol
_atom_site_label
_atom_site_fract_x
_atom_site_fract_y
_atom_site_fract_z
Si Si1 0.193039 0.052922 0.353825
Si Si2 0.602547 0.911489 0.417876
Si Si3 0.132359 0.011235 0.845661
Si Si4 0.724188 0.166510 0.486268
Si Si5 0.613779 0.695134 0.746310
Si Si6 0.280514 0.463947 0.744289
Si Si7 0.193799 0.216111 0.937289
Si Si8 0.957180 0.770146 0.352119
O O1 0.110963 0.088332 0.292523
O O2 0.127304 0.174998 0.390935
O O3 0.486577 0.010034 0.370605
O O4 0.051416 0.917855 0.365544
O O5 0.372124 0.863952 0.455024
O O6 0.728252 0.776201 0.394168
O O7 0.749458 0.019555 0.457687
O O8 0.293937 0.107367 0.805176
O O9 0.155268 0.078642 0.904051
O O10 0.854970 0.998856 0.812635
O O11 0.161825 0.850352 0.854574
O O12 0.483557 0.249362 0.458054
O O13 0.984030 0.251657 0.481115
O O14 0.391796 0.602247 0.766525
O O15 0.506388 0.847566 0.747080
O O16 0.837519 0.718140 0.791466
#
# Coordination Sequence:
#
# PCOD9247904 Si02
#       8
#     4   4   4   4   4   4   4   4
#     4  11  21  38  67  91 130 168 218 273 335 401
#     4  10  22  40  66 101 125 166 223 290 336 390
#     4  11  26  40  61  91 138 172 221 272 333 407
#     4  10  24  42  72  98 132 168 234 284 339 391
#     4  11  24  39  60  92 129 175 222 269 336 403
#     4  11  24  38  60  93 128 173 218 273 331 408
#     4  11  24  45  67  98 128 183 219 275 333 403
#     4  11  23  40  61  95 130 170 217 277 336 399
#
# _framework density 24.824354
#
# number of rings (size 3 to 8) (size 9 to 14) (size 15 to 20)
#    0.000    1.250    5.000    0.000    5.250    2.500 
#    0.000    1.250    0.000    0.000    0.000    0.000 
#    0.000    0.000    0.000    0.000    0.000    0.000 
#
# Total GULP energy -178184.835182 kJ/mol
# GULP energy per Si atom -5568.276099 kJ/mol
# Density = 2.476785 g / cm^3
# Si number density = 24.824354 Si / 1000 Ang^3
#
#
#
# Elastic Constant Matrix: (Units=GPa)
#
#
# Indices 1 2 3 4 5 6 
#
# 1 57.2337 3.2081 8.7842 0.0000 -2.9902 0.0000
# 2 3.2081 53.0441 -4.8222 0.0000 8.3553 0.0000
# 3 8.7842 -4.8222 89.9575 0.0000 -8.5662 0.0000
# 4 0.0000 0.0000 0.0000 31.5618 0.0000 -0.0423
# 5 -2.9902 8.3553 -8.5662 0.0000 27.0710 0.0000
# 6 0.0000 0.0000 0.0000 -0.0423 0.0000 18.3047
#
#
#
# Elastic Compliance Matrix: (Units=1/GPa)
#
#
# Indices 1 2 3 4 5 6 
#
# 1 0.017912 -0.001537 -0.001648 0.000000 0.001932 0.000000
# 2 -0.001537 0.019969 0.000637 0.000000 -0.006132 0.000000
# 3 -0.001648 0.000637 0.011626 0.000000 0.003300 0.000000
# 4 0.000000 0.000000 0.000000 0.031684 0.000000 0.000073
# 5 0.001932 -0.006132 0.003300 0.000000 0.040090 0.000000
# 6 0.000000 0.000000 0.000000 0.000073 0.000000 0.054631
#
#
# Mechanical properties :
#
#
# Convention : Reuss Voigt Hill
#
# Bulk Modulus (GPa) = 22.51732 23.84170 23.17951
# Shear Modulus (GPa) = 25.53473 28.25851 26.89662
#
# Velocity S-wave (km/s) = 3.21068 3.37759 3.29519
# Velocity P-wave (km/s) = 4.77860 4.98355 4.88215
#
# Compressibility (1/GPa) = 0.04441026
#
# Stress axis : x y z
#
# Youngs Moduli (GPa) = 55.82791 50.07780 86.01672
#
# Poissons Ratio (x) = 0.07699 0.14172
# Poissons Ratio (y) = 0.08583 -0.05477
# Poissons Ratio (z) = 0.09198 -0.03188
#
# Static dielectric constant tensor:
#      x y z
#    x 2.380070 0.000000 -0.075760 
#    y 0.000000 2.122650 0.000000 
#    z -0.075760 0.000000 2.079030 
# 
# From -- ./inp_files/78712.got.cif
#   From: 2010.05.17/outbox.cif.g08.bks.cpg/sg14_40_cif.got.tgz:78712.got - 2010.06.03 17:49:19.
