data_PCOD9247396
_publ_section_title
;
Structure prediction by ZEFSAII (Michael W. Deem and Ramdas Pophale) SiO2 
 PCOD9247396
Probable space group: P 21/C
;
_chemical_formula_sum "Si O2"
_cell_formula_units_Z 28
_cell_length_a 8.939302
_cell_length_b 7.991555
_cell_length_c 20.881727
_cell_angle_alpha 90.000000
_cell_angle_beta 117.718769
_cell_angle_gamma 90.000000
_cell_volume 1320.574739
_symmetry_space_group_name_H-M "P 21/C"
_symmetry_group_IT_number 14
_symmetry_cell_setting 'monoclinic'
loop_
_space_group_symop_operation_xyz
x,y,z
-x,1/2+y,1/2-z
-x,-y,-z
x,1/2-y,1/2+z
loop_
_atom_site_type_symbol
_atom_site_label
_atom_site_fract_x
_atom_site_fract_y
_atom_site_fract_z
Si Si1 0.108154 0.510443 0.118276
Si Si2 0.246989 0.533915 0.335314
Si Si3 0.740030 0.010517 0.488189
Si Si4 0.549170 0.293612 0.053075
Si Si5 0.047313 0.712222 0.710338
Si Si6 0.376630 0.156311 0.750221
Si Si7 0.365722 0.979992 0.299403
O O1 0.227900 0.535543 0.080550
O O2 0.086133 0.675919 0.156224
O O3 0.195389 0.368599 0.179181
O O4 0.921991 0.468126 0.056898
O O5 0.362586 0.618336 0.412435
O O6 0.110667 0.669089 0.281365
O O7 0.373307 0.490212 0.302227
O O8 0.139767 0.365507 0.327141
O O9 0.651677 0.829343 0.483073
O O10 0.618167 0.141001 0.499359
O O11 0.611663 0.417605 0.123400
O O12 0.176057 0.558933 0.740431
O O13 0.402659 0.328666 0.791716
O O14 0.514750 0.127792 0.723329
#
# Coordination Sequence:
#
# PCOD9247396 Si02
#       7
#     4   4   4   4   4   4   4
#     4  10  22  40  63  85 121 161 213 241 307 371
#     4  10  22  37  61  94 121 155 199 261 316 360
#     4  10  22  40  64  80 120 174 206 240 296 374
#     4  10  22  40  63  85 121 161 213 241 307 371
#     4  10  22  37  61  94 121 155 199 261 316 360
#     4  11  22  37  64  93 121 153 198 263 316 360
#     4  11  22  37  64  93 121 153 198 263 316 360
#
# _framework density 21.202888999999999
#
# number of rings (size 3 to 8) (size 9 to 14) (size 15 to 20)
#    0.000    1.714    1.429    3.429   12.000    0.000 
#    0.000    1.429    0.000    0.000    0.000    0.000 
#    0.000    0.000    0.000    0.000    0.000    0.000 
#
# Total GULP energy -156264.063658 kJ/mol
# GULP energy per Si atom -5580.859416 kJ/mol
# Density = 2.115463 g / cm^3
# Si number density = 21.202889 Si / 1000 Ang^3
#
#
#
# Elastic Constant Matrix: (Units=GPa)
#
#
# Indices 1 2 3 4 5 6 
#
# 1 86.3455 9.0804 6.5764 0.0000 -11.8709 0.0000
# 2 9.0804 52.5390 -13.4541 0.0000 -1.7521 0.0000
# 3 6.5764 -13.4541 25.4726 0.0000 -0.3918 0.0000
# 4 0.0000 0.0000 0.0000 20.2951 0.0000 1.0264
# 5 -11.8709 -1.7521 -0.3918 0.0000 26.3293 0.0000
# 6 0.0000 0.0000 0.0000 1.0264 0.0000 32.7385
#
#
#
# Elastic Compliance Matrix: (Units=1/GPa)
#
#
# Indices 1 2 3 4 5 6 
#
# 1 0.013093 -0.003376 -0.005078 0.000000 0.005603 0.000000
# 2 -0.003376 0.022952 0.012998 0.000000 0.000198 0.000000
# 3 -0.005078 0.012998 0.047423 0.000000 -0.000719 0.000000
# 4 0.000000 0.000000 0.000000 0.049351 0.000000 -0.001547
# 5 0.005603 0.000198 -0.000719 0.000000 0.040509 0.000000
# 6 0.000000 0.000000 0.000000 -0.001547 0.000000 0.030594
#
#
# Mechanical properties :
#
#
# Convention : Reuss Voigt Hill
#
# Bulk Modulus (GPa) = 10.80432 18.75138 14.77785
# Shear Modulus (GPa) = 22.15457 26.68288 24.41872
#
# Velocity S-wave (km/s) = 3.23597 3.55132 3.39731
# Velocity P-wave (km/s) = 4.36678 5.06743 4.73009
#
# Compressibility (1/GPa) = 0.09255557
#
# Stress axis : x y z
#
# Youngs Moduli (GPa) = 76.37379 43.56908 21.08692
#
# Poissons Ratio (x) = 0.14711 0.10707
# Poissons Ratio (y) = 0.25787 -0.27408
# Poissons Ratio (z) = 0.38779 -0.56629
#
# Static dielectric constant tensor:
#      x y z
#    x 1.795230 0.000000 0.021750 
#    y 0.000000 1.775130 0.000000 
#    z 0.021750 0.000000 1.769330 
# 
# From -- ./inp_files/64618.got.cif
#   From: 2010.05.17/outbox.cif.g08.bks.cpg/sg14_33_cif.got.tgz:64618.got - 2010.06.03 17:49:19.
