data_PCOD9247983
_publ_section_title
;
Structure prediction by ZEFSAII (Michael W. Deem and Ramdas Pophale) SiO2 
 PCOD9247983
Probable space group: P 21/C
;
_chemical_formula_sum "Si O2"
_cell_formula_units_Z 30
_cell_length_a 6.071619
_cell_length_b 21.032190
_cell_length_c 11.425039
_cell_angle_alpha 90.000000
_cell_angle_beta 105.497465
_cell_angle_gamma 90.000000
_cell_volume 1405.926263
_symmetry_space_group_name_H-M "P 21/C"
_symmetry_group_IT_number 14
_symmetry_cell_setting 'monoclinic'
loop_
_space_group_symop_operation_xyz
x,y,z
-x,1/2+y,1/2-z
-x,-y,-z
x,1/2-y,1/2+z
loop_
_atom_site_type_symbol
_atom_site_label
_atom_site_fract_x
_atom_site_fract_y
_atom_site_fract_z
Si Si1 0.500000 0.000000 0.000000
Si Si2 0.569335 0.347927 0.905702
Si Si3 0.665550 0.940176 0.792104
Si Si4 0.993787 0.945461 0.151649
Si Si5 0.954735 0.155959 0.646374
Si Si6 0.978636 0.349821 0.537321
Si Si7 0.738078 0.769755 0.478488
Si Si8 0.279029 0.780035 0.801407
O O1 0.756315 0.968994 0.063607
O O2 0.499145 0.034260 0.129796
O O3 0.466747 0.411708 0.836791
O O4 0.372353 0.298944 0.920474
O O5 0.712500 0.313527 0.822665
O O6 0.728478 0.360750 0.039938
O O7 0.815494 0.881908 0.862693
O O8 0.842424 0.996795 0.792203
O O9 0.963805 0.898709 0.256103
O O10 0.113064 0.902533 0.066146
O O11 0.888570 0.219877 0.708506
O O12 0.141824 0.174932 0.577684
O O13 0.793696 0.327516 0.604765
O O14 0.084186 0.288526 0.487191
O O15 0.529671 0.744257 0.370246
#
# Coordination Sequence:
#
# PCOD9247983 Si02
#       8
#     2   4   4   4   4   4   4   4
#     4  10  24  46  68 100 128 182 240 284 344 392
#     4  11  25  42  70 102 142 182 233 284 362 433
#     4  11  25  43  69 100 137 186 237 289 345 418
#     4  11  26  43  70 101 143 183 244 294 340 423
#     4  10  26  44  65 104 141 186 230 291 355 426
#     4  10  22  40  71 102 132 180 234 295 350 407
#     4  10  23  41  64 105 134 182 226 288 365 411
#     4  10  23  41  71 100 135 180 230 289 355 423
#
# _framework density 21.338246999999999
#
# number of rings (size 3 to 8) (size 9 to 14) (size 15 to 20)
#    0.000    1.600    1.333    1.600   13.067    2.667 
#    0.000    1.333    0.000    0.000    0.000    0.000 
#    0.000    0.000    0.000    0.000    0.000    0.000 
#
# Total GULP energy -167293.225433 kJ/mol
# GULP energy per Si atom -5576.440848 kJ/mol
# Density = 2.128968 g / cm^3
# Si number density = 21.338247 Si / 1000 Ang^3
#
#
#
# Elastic Constant Matrix: (Units=GPa)
#
#
# Indices 1 2 3 4 5 6 
#
# 1 68.8726 38.6814 25.2658 0.0000 -11.8599 0.0000
# 2 38.6814 90.9972 40.1921 0.0000 -8.8393 0.0000
# 3 25.2658 40.1921 88.9253 0.0000 -8.2080 0.0000
# 4 0.0000 0.0000 0.0000 35.4973 0.0000 -5.5988
# 5 -11.8599 -8.8393 -8.2080 0.0000 15.8528 0.0000
# 6 0.0000 0.0000 0.0000 -5.5988 0.0000 23.2222
#
#
#
# Elastic Compliance Matrix: (Units=1/GPa)
#
#
# Indices 1 2 3 4 5 6 
#
# 1 0.021026 -0.007106 -0.001760 0.000000 0.010856 0.000000
# 2 -0.007106 0.016468 -0.005322 0.000000 0.001111 0.000000
# 3 -0.001760 -0.005322 0.014446 0.000000 0.003195 0.000000
# 4 0.000000 0.000000 0.000000 0.029285 0.000000 0.007061
# 5 0.010856 0.001111 0.003195 0.000000 0.073476 0.000000
# 6 0.000000 0.000000 0.000000 0.007061 0.000000 0.044765
#
#
# Mechanical properties :
#
#
# Convention : Reuss Voigt Hill
#
# Bulk Modulus (GPa) = 42.43703 50.78598 46.61151
# Shear Modulus (GPa) = 21.21381 24.55817 22.88599
#
# Velocity S-wave (km/s) = 3.15646 3.39617 3.27851
# Velocity P-wave (km/s) = 5.76327 6.26345 6.01856
#
# Compressibility (1/GPa) = 0.02356432
#
# Stress axis : x y z
#
# Youngs Moduli (GPa) = 47.56127 60.72256 69.22423
#
# Poissons Ratio (x) = 0.43147 0.12185
# Poissons Ratio (y) = 0.33795 0.36840
# Poissons Ratio (z) = 0.08372 0.32316
#
# Static dielectric constant tensor:
#      x y z
#    x 1.822410 0.000000 -0.025120 
#    y 0.000000 1.793830 0.000000 
#    z -0.025120 0.000000 1.754540 
# 
# From -- ./inp_files/21846.got.cif
#   From: 2010.05.17/outbox.cif.g08.bks.cpg/sg14_11_cif.got.tgz:21846.got - 2010.06.03 17:49:19.
