data_PCOD9247935
_publ_section_title
;
Structure prediction by ZEFSAII (Michael W. Deem and Ramdas Pophale) SiO2 
 PCOD9247935
Probable space group: P 21/C
;
_chemical_formula_sum "Si O2"
_cell_formula_units_Z 32
_cell_length_a 11.345753
_cell_length_b 15.405583
_cell_length_c 10.484095
_cell_angle_alpha 90.000000
_cell_angle_beta 129.523225
_cell_angle_gamma 90.000000
_cell_volume 1413.524329
_symmetry_space_group_name_H-M "P 21/C"
_symmetry_group_IT_number 14
_symmetry_cell_setting 'monoclinic'
loop_
_space_group_symop_operation_xyz
x,y,z
-x,1/2+y,1/2-z
-x,-y,-z
x,1/2-y,1/2+z
loop_
_atom_site_type_symbol
_atom_site_label
_atom_site_fract_x
_atom_site_fract_y
_atom_site_fract_z
Si Si1 0.272742 0.460547 0.787496
Si Si2 0.190163 0.789754 0.054580
Si Si3 0.541682 0.428961 0.801127
Si Si4 0.831441 0.381493 0.128157
Si Si5 0.297923 0.178402 0.510708
Si Si6 0.454248 0.790604 0.883558
Si Si7 0.551784 0.400294 0.375351
Si Si8 0.096783 0.161384 0.974981
O O1 0.448462 0.449775 0.864259
O O2 0.231727 0.559839 0.795427
O O3 0.187554 0.415249 0.609190
O O4 0.232002 0.401436 0.883462
O O5 0.294470 0.753777 0.242758
O O6 0.285251 0.871592 0.069259
O O7 0.027487 0.808133 0.004730
O O8 0.189162 0.717471 0.940738
O O9 0.500901 0.334910 0.719482
O O10 0.482244 0.499461 0.661670
O O11 0.724568 0.428508 0.947375
O O12 0.008751 0.378203 0.290981
O O13 0.412574 0.225080 0.489883
O O14 0.414680 0.142972 0.698384
O O15 0.185894 0.251819 0.489737
O O16 0.445944 0.862720 0.983219
#
# Coordination Sequence:
#
# PCOD9247935 Si02
#       8
#     4   4   4   4   4   4   4   4
#     4  12  24  42  69 100 136 175 229 271 334 398
#     4  10  24  41  68  98 133 181 222 275 333 397
#     4  11  23  42  67 101 131 175 217 281 331 395
#     4  11  24  41  65  97 135 171 221 277 329 392
#     4  11  24  41  69  98 134 178 220 279 329 395
#     4  10  22  40  67 101 131 172 223 272 329 398
#     4  11  22  41  70 100 133 172 225 275 332 396
#     4  12  24  44  66  98 136 182 224 270 340 401
#
# _framework density 22.638448
#
# number of rings (size 3 to 8) (size 9 to 14) (size 15 to 20)
#    0.000    1.000    2.500    4.125    7.000    0.000 
#    0.000    0.625    5.500    0.000    0.000    0.000 
#    0.000    0.000    0.000    0.000    0.000    0.000 
#
# Total GULP energy -178285.487106 kJ/mol
# GULP energy per Si atom -5571.421472 kJ/mol
# Density = 2.258692 g / cm^3
# Si number density = 22.638448 Si / 1000 Ang^3
#
#
#
# Elastic Constant Matrix: (Units=GPa)
#
#
# Indices 1 2 3 4 5 6 
#
# 1 69.5484 14.5081 22.6683 0.0000 -2.4405 0.0000
# 2 14.5081 79.2419 24.8528 0.0000 -2.9595 0.0000
# 3 22.6683 24.8528 59.6941 0.0000 1.2636 0.0000
# 4 0.0000 0.0000 0.0000 38.6043 0.0000 -10.6663
# 5 -2.4405 -2.9595 1.2636 0.0000 26.3630 0.0000
# 6 0.0000 0.0000 0.0000 -10.6663 0.0000 38.0851
#
#
#
# Elastic Compliance Matrix: (Units=1/GPa)
#
#
# Indices 1 2 3 4 5 6 
#
# 1 0.016585 -0.001135 -0.005861 0.000000 0.001689 0.000000
# 2 -0.001135 0.014690 -0.005724 0.000000 0.001818 0.000000
# 3 -0.005861 -0.005724 0.021408 0.000000 -0.002211 0.000000
# 4 0.000000 0.000000 0.000000 0.028076 0.000000 0.007863
# 5 0.001689 0.001818 -0.002211 0.000000 0.038398 0.000000
# 6 0.000000 0.000000 0.000000 0.007863 0.000000 0.028459
#
#
# Mechanical properties :
#
#
# Convention : Reuss Voigt Hill
#
# Bulk Modulus (GPa) = 36.70649 36.94921 36.82785
# Shear Modulus (GPa) = 27.45177 30.37415 28.91296
#
# Velocity S-wave (km/s) = 3.48604 3.66690 3.57762
# Velocity P-wave (km/s) = 5.69673 5.85535 5.77659
#
# Compressibility (1/GPa) = 0.02724314
#
# Stress axis : x y z
#
# Youngs Moduli (GPa) = 60.29586 68.07152 46.71260
#
# Poissons Ratio (x) = 0.07727 0.27379
# Poissons Ratio (y) = 0.06845 0.26736
# Poissons Ratio (z) = 0.35340 0.38961
#
# Static dielectric constant tensor:
#      x y z
#    x 1.865910 0.000000 0.005020 
#    y 0.000000 1.889210 0.000000 
#    z 0.005020 0.000000 1.879560 
# 
# From -- ./inp_files/30037.got.cif
#   From: 2010.05.17/outbox.cif.g08.bks.cpg/sg14_16_cif.got.tgz:30037.got - 2010.06.03 17:49:19.
