data_PCOD9247044
_publ_section_title
;
Structure prediction by ZEFSAII (Michael W. Deem and Ramdas Pophale) SiO2 
 PCOD9247044
Probable space group: P 21/C
;
_chemical_formula_sum "Si O2"
_cell_formula_units_Z 32
_cell_length_a 11.421615
_cell_length_b 8.770036
_cell_length_c 24.345525
_cell_angle_alpha 90.000000
_cell_angle_beta 34.077118
_cell_angle_gamma 90.000000
_cell_volume 1366.391195
_symmetry_space_group_name_H-M "P 21/C"
_symmetry_group_IT_number 14
_symmetry_cell_setting 'monoclinic'
loop_
_space_group_symop_operation_xyz
x,y,z
-x,1/2+y,1/2-z
-x,-y,-z
x,1/2-y,1/2+z
loop_
_atom_site_type_symbol
_atom_site_label
_atom_site_fract_x
_atom_site_fract_y
_atom_site_fract_z
Si Si1 0.838793 0.916533 0.021749
Si Si2 0.221945 0.773131 0.824321
Si Si3 0.546796 0.926439 0.229521
Si Si4 0.430511 0.867616 0.484426
Si Si5 0.265125 0.292592 0.233694
Si Si6 0.977735 0.455704 0.824024
Si Si7 0.204927 0.931230 0.073776
Si Si8 0.029925 0.808220 0.787507
O O1 0.656319 0.862345 0.131813
O O2 0.983371 0.792130 0.936449
O O3 0.764202 0.028888 0.002443
O O4 0.000000 0.000000 0.000000
O O5 0.307665 0.611437 0.810493
O O6 0.206351 0.815372 0.766104
O O7 0.369397 0.902623 0.794234
O O8 0.624086 0.836710 0.253083
O O9 0.593302 0.850531 0.371571
O O10 0.193734 0.923836 0.562325
O O11 0.374856 0.693541 0.525317
O O12 0.979560 0.869233 0.307369
O O13 0.203095 0.115209 0.250572
O O14 0.032293 0.366299 0.326854
O O15 0.905966 0.367405 0.796685
O O16 0.500000 0.500000 0.000000
O O17 0.173075 0.090676 0.117674
#
# Coordination Sequence:
#
# PCOD9247044 Si02
#       8
#     4   4   4   4   4   4   4   4
#     4   9  18  40  65  91 130 181 217 267 346 408
#     4  10  24  40  67  98 135 170 230 281 341 410
#     4  11  23  42  68  97 135 174 227 282 343 410
#     4  11  24  41  69 103 136 176 234 288 344 410
#     4  11  23  42  69  99 133 183 222 284 352 397
#     4  11  25  43  71  94 143 177 235 286 344 412
#     4  10  21  43  68  96 136 182 221 282 343 412
#     4  11  22  46  69  98 134 189 227 287 349 405
#
# _framework density 23.419354999999999
#
# number of rings (size 3 to 8) (size 9 to 14) (size 15 to 20)
#    0.000    1.500    3.750    3.000    5.250    0.000 
#    4.500   10.000    0.000    0.000    0.000    0.000 
#    0.000    0.000    0.000    0.000    0.000    0.000 
#
# Total GULP energy -178590.913275 kJ/mol
# GULP energy per Si atom -5580.966040 kJ/mol
# Density = 2.336605 g / cm^3
# Si number density = 23.419355 Si / 1000 Ang^3
#
#
#
# Elastic Constant Matrix: (Units=GPa)
#
#
# Indices 1 2 3 4 5 6 
#
# 1 70.5528 38.7129 51.2000 0.0000 11.8138 0.0000
# 2 38.7129 135.2014 52.6624 0.0000 5.9280 0.0000
# 3 51.2000 52.6624 125.6011 0.0000 13.1620 0.0000
# 4 0.0000 0.0000 0.0000 29.1048 0.0000 -8.6362
# 5 11.8138 5.9280 13.1620 0.0000 29.0157 0.0000
# 6 0.0000 0.0000 0.0000 -8.6362 0.0000 41.3970
#
#
#
# Elastic Compliance Matrix: (Units=1/GPa)
#
#
# Indices 1 2 3 4 5 6 
#
# 1 0.021941 -0.003327 -0.007018 0.000000 -0.005070 0.000000
# 2 -0.003327 0.009345 -0.002629 0.000000 0.000638 0.000000
# 3 -0.007018 -0.002629 0.012146 0.000000 -0.002115 0.000000
# 4 0.000000 0.000000 0.000000 0.036626 0.000000 0.007641
# 5 -0.005070 0.000638 -0.002115 0.000000 0.037358 0.000000
# 6 0.000000 0.000000 0.000000 0.007641 0.000000 0.025750
#
#
# Mechanical properties :
#
#
# Convention : Reuss Voigt Hill
#
# Bulk Modulus (GPa) = 57.19049 68.50065 62.84557
# Shear Modulus (GPa) = 28.58095 32.48884 30.53490
#
# Velocity S-wave (km/s) = 3.49721 3.72864 3.61478
# Velocity P-wave (km/s) = 6.38596 6.91738 6.65697
#
# Compressibility (1/GPa) = 0.01748543
#
# Stress axis : x y z
#
# Youngs Moduli (GPa) = 45.57685 107.00973 82.32875
#
# Poissons Ratio (x) = 0.35598 0.57777
# Poissons Ratio (y) = 0.15162 0.21644
# Poissons Ratio (z) = 0.31985 0.28132
#
# Static dielectric constant tensor:
#      x y z
#    x 1.902230 0.000000 -0.017570 
#    y 0.000000 1.995090 0.000000 
#    z -0.017570 0.000000 1.974370 
# 
# From -- ./inp_files/73305.got.cif
#   From: 2010.05.17/outbox.cif.g08.bks.cpg/sg14_37_cif.got.tgz:73305.got - 2010.06.03 17:49:19.
