data_PCOD9247694
_publ_section_title
;
Structure prediction by ZEFSAII (Michael W. Deem and Ramdas Pophale) SiO2 
 PCOD9247694
Probable space group: P 21/C
;
_chemical_formula_sum "Si O2"
_cell_formula_units_Z 30
_cell_length_a 20.491671
_cell_length_b 10.180955
_cell_length_c 17.124386
_cell_angle_alpha 90.000000
_cell_angle_beta 160.765054
_cell_angle_gamma 90.000000
_cell_volume 1176.957103
_symmetry_space_group_name_H-M "P 21/C"
_symmetry_group_IT_number 14
_symmetry_cell_setting 'monoclinic'
loop_
_space_group_symop_operation_xyz
x,y,z
-x,1/2+y,1/2-z
-x,-y,-z
x,1/2-y,1/2+z
loop_
_atom_site_type_symbol
_atom_site_label
_atom_site_fract_x
_atom_site_fract_y
_atom_site_fract_z
Si Si1 0.950404 0.052091 0.338466
Si Si2 0.238586 0.058386 0.119770
Si Si3 0.000000 0.000000 0.000000
Si Si4 0.610013 0.563150 0.520441
Si Si5 0.924243 0.346054 0.142032
Si Si6 0.203938 0.309178 0.860735
Si Si7 0.629933 0.352316 0.349755
Si Si8 0.357481 0.169905 0.780711
O O1 0.816822 0.021344 0.263420
O O2 0.061021 0.933411 0.418867
O O3 0.777555 0.096189 0.082928
O O4 0.121510 0.160235 0.532745
O O5 0.176488 0.036058 0.137807
O O6 0.338468 0.933963 0.193316
O O7 0.382337 0.185232 0.275061
O O8 0.040992 0.087924 0.845006
O O9 0.090931 0.109446 0.167175
O O10 0.699086 0.671871 0.561730
O O11 0.550264 0.644194 0.529932
O O12 0.447557 0.447730 0.331015
O O13 0.057807 0.221340 0.266982
O O14 0.709024 0.294975 0.922163
O O15 0.403887 0.376423 0.115728
#
# Coordination Sequence:
#
# PCOD9247694 Si02
#       8
#     4   4   2   4   4   4   4   4
#     4  10  22  39  65  94 127 172 225 278 348 411
#     4  11  24  44  68 100 143 186 236 294 363 428
#     4  12  24  48  70 102 146 196 238 302 364 432
#     4  10  23  41  64  98 129 175 230 279 348 426
#     4  10  22  45  67  96 138 175 230 297 347 426
#     4  11  24  45  70  98 138 183 235 296 360 429
#     4  11  23  42  67 101 129 184 232 283 357 424
#     4  11  21  42  65  95 137 174 221 291 347 418
#
# _framework density 25.489457999999999
#
# number of rings (size 3 to 8) (size 9 to 14) (size 15 to 20)
#    0.000    1.333    4.000    1.200    1.867    0.533 
#    9.600    0.000    0.000    0.000    0.000    0.000 
#    0.000    0.000    0.000    0.000    0.000    0.000 
#
# Total GULP energy -167118.532450 kJ/mol
# GULP energy per Si atom -5570.617748 kJ/mol
# Density = 2.543144 g / cm^3
# Si number density = 25.489458 Si / 1000 Ang^3
#
#
#
# Elastic Constant Matrix: (Units=GPa)
#
#
# Indices 1 2 3 4 5 6 
#
# 1 71.0767 -9.1363 -11.8064 0.0000 -0.3223 0.0000
# 2 -9.1363 67.7471 5.1681 0.0000 3.7301 0.0000
# 3 -11.8064 5.1681 80.3444 0.0000 32.5390 0.0000
# 4 0.0000 0.0000 0.0000 22.1026 0.0000 10.2453
# 5 -0.3223 3.7301 32.5390 0.0000 24.6666 0.0000
# 6 0.0000 0.0000 0.0000 10.2453 0.0000 22.1340
#
#
#
# Elastic Compliance Matrix: (Units=1/GPa)
#
#
# Indices 1 2 3 4 5 6 
#
# 1 0.015060 0.002020 0.004567 0.000000 -0.006133 0.000000
# 2 0.002020 0.015156 0.000514 0.000000 -0.002944 0.000000
# 3 0.004567 0.000514 0.028109 0.000000 -0.037098 0.000000
# 4 0.000000 0.000000 0.000000 0.057603 0.000000 -0.026663
# 5 -0.006133 -0.002944 -0.037098 0.000000 0.089844 0.000000
# 6 0.000000 0.000000 0.000000 -0.026663 0.000000 0.057521
#
#
# Mechanical properties :
#
#
# Convention : Reuss Voigt Hill
#
# Bulk Modulus (GPa) = 13.78788 20.84658 17.31723
# Shear Modulus (GPa) = 18.29723 29.44348 23.87035
#
# Velocity S-wave (km/s) = 2.68215 3.40240 3.06351
# Velocity P-wave (km/s) = 3.87465 4.86121 4.39569
#
# Compressibility (1/GPa) = 0.07252748
#
# Stress axis : x y z
#
# Youngs Moduli (GPa) = 66.40206 65.98007 35.57588
#
# Poissons Ratio (x) = -0.13330 -0.16247
# Poissons Ratio (y) = -0.13415 -0.01829
# Poissons Ratio (z) = -0.30325 -0.03392
#
# Static dielectric constant tensor:
#      x y z
#    x 1.979980 0.000000 -0.043790 
#    y 0.000000 2.128340 0.000000 
#    z -0.043790 0.000000 2.106470 
# 
# From -- ./inp_files/61357.got.cif
#   From: 2010.05.17/outbox.cif.g08.bks.cpg/sg14_31_cif.got.tgz:61357.got - 2010.06.03 17:49:19.
