data_PCOD9247647
_publ_section_title
;
Structure prediction by ZEFSAII (Michael W. Deem and Ramdas Pophale) SiO2 
 PCOD9247647
Probable space group: P 21/C
;
_chemical_formula_sum "Si O2"
_cell_formula_units_Z 20
_cell_length_a 18.439815
_cell_length_b 5.179264
_cell_length_c 12.487840
_cell_angle_alpha 90.000000
_cell_angle_beta 135.993814
_cell_angle_gamma 90.000000
_cell_volume 828.574869
_symmetry_space_group_name_H-M "P 21/C"
_symmetry_group_IT_number 14
_symmetry_cell_setting 'monoclinic'
loop_
_space_group_symop_operation_xyz
x,y,z
-x,1/2+y,1/2-z
-x,-y,-z
x,1/2-y,1/2+z
loop_
_atom_site_type_symbol
_atom_site_label
_atom_site_fract_x
_atom_site_fract_y
_atom_site_fract_z
Si Si1 0.736260 0.980451 0.146707
Si Si2 0.585976 0.654465 0.659309
Si Si3 0.054567 0.290035 0.134416
Si Si4 0.153111 0.617880 0.574440
Si Si5 0.357985 0.862652 0.163757
O O1 0.788825 0.184621 0.283068
O O2 0.673957 0.794085 0.161281
O O3 0.838429 0.869829 0.195599
O O4 0.654556 0.096153 0.975845
O O5 0.500000 0.500000 0.500000
O O6 0.621059 0.433340 0.781550
O O7 0.566374 0.924397 0.699898
O O8 0.102899 0.090171 0.100280
O O9 0.000000 0.500000 0.000000
O O10 0.954312 0.210677 0.097661
O O11 0.244734 0.560106 0.590461
#
# Coordination Sequence:
#
# PCOD9247647 Si02
#       5
#     4   4   4   4   4
#     4  10  22  39  63  88 128 163 206 258 304 365
#     4  11  25  44  65  92 124 158 206 265 316 371
#     4   9  17  36  60  83 127 167 199 252 300 355
#     4   9  19  38  58  88 127 163 205 250 300 360
#     4  11  24  41  67  92 121 165 207 253 316 370
#
# _framework density 24.137830000000001
#
# number of rings (size 3 to 8) (size 9 to 14) (size 15 to 20)
#    0.000    2.000    2.000    0.600    2.800    1.600 
#   10.800    0.000    0.000    0.000    0.000    0.000 
#    0.000    0.000    0.000    0.000    0.000    0.000 
#
# Total GULP energy -111387.159674 kJ/mol
# GULP energy per Si atom -5569.357984 kJ/mol
# Density = 2.408289 g / cm^3
# Si number density = 24.137830 Si / 1000 Ang^3
#
#
#
# Elastic Constant Matrix: (Units=GPa)
#
#
# Indices 1 2 3 4 5 6 
#
# 1 55.8248 -6.1067 6.4997 0.0000 6.3225 0.0000
# 2 -6.1067 25.0305 -15.6943 0.0000 0.2826 0.0000
# 3 6.4997 -15.6943 65.7915 0.0000 -3.3817 0.0000
# 4 0.0000 0.0000 0.0000 19.2426 0.0000 11.4817
# 5 6.3225 0.2826 -3.3817 0.0000 31.1953 0.0000
# 6 0.0000 0.0000 0.0000 11.4817 0.0000 24.0475
#
#
#
# Elastic Compliance Matrix: (Units=1/GPa)
#
#
# Indices 1 2 3 4 5 6 
#
# 1 0.018930 0.003953 -0.001132 0.000000 -0.003995 0.000000
# 2 0.003953 0.047823 0.011015 0.000000 -0.000040 0.000000
# 3 -0.001132 0.011015 0.018046 0.000000 0.002086 0.000000
# 4 0.000000 0.000000 0.000000 0.072671 0.000000 -0.034697
# 5 -0.003995 -0.000040 0.002086 0.000000 0.033092 0.000000
# 6 0.000000 0.000000 0.000000 -0.034697 0.000000 0.058151
#
#
# Mechanical properties :
#
#
# Convention : Reuss Voigt Hill
#
# Bulk Modulus (GPa) = 8.89111 12.89379 10.89245
# Shear Modulus (GPa) = 19.34001 25.69365 22.51683
#
# Velocity S-wave (km/s) = 2.83368 3.26614 3.05756
# Velocity P-wave (km/s) = 3.79444 4.42458 4.12157
#
# Compressibility (1/GPa) = 0.11247188
#
# Stress axis : x y z
#
# Youngs Moduli (GPa) = 52.82628 20.91050 55.41306
#
# Poissons Ratio (x) = -0.08267 0.06275
# Poissons Ratio (y) = -0.20885 -0.61039
# Poissons Ratio (z) = 0.05982 -0.23034
#
# Static dielectric constant tensor:
#      x y z
#    x 2.074850 0.000000 0.118840 
#    y 0.000000 2.055100 0.000000 
#    z 0.118840 0.000000 2.017270 
# 
# From -- ./inp_files/30974.got.cif
#   From: 2010.05.17/outbox.cif.g08.bks.cpg/sg14_16_cif.got.tgz:30974.got - 2010.06.03 17:49:19.
