data_PCOD9247331
_publ_section_title
;
Structure prediction by ZEFSAII (Michael W. Deem and Ramdas Pophale) SiO2 
 PCOD9247331
Probable space group: P 21/C
;
_chemical_formula_sum "Si O2"
_cell_formula_units_Z 28
_cell_length_a 14.645210
_cell_length_b 12.474814
_cell_length_c 9.419239
_cell_angle_alpha 90.000000
_cell_angle_beta 142.739692
_cell_angle_gamma 90.000000
_cell_volume 1041.872538
_symmetry_space_group_name_H-M "P 21/C"
_symmetry_group_IT_number 14
_symmetry_cell_setting 'monoclinic'
loop_
_space_group_symop_operation_xyz
x,y,z
-x,1/2+y,1/2-z
-x,-y,-z
x,1/2-y,1/2+z
loop_
_atom_site_type_symbol
_atom_site_label
_atom_site_fract_x
_atom_site_fract_y
_atom_site_fract_z
Si Si1 0.695089 0.030608 0.162009
Si Si2 0.937649 0.180630 0.347554
Si Si3 0.464142 0.367379 0.154168
Si Si4 0.345767 0.157914 0.073452
Si Si5 0.336679 0.682522 0.115670
Si Si6 0.987343 0.646013 0.354531
Si Si7 0.225994 0.471136 0.686155
O O1 0.559997 0.084045 0.901512
O O2 0.680678 0.905821 0.107070
O O3 0.846758 0.076530 0.281370
O O4 0.689285 0.084151 0.309748
O O5 0.003776 0.236145 0.567750
O O6 0.816006 0.269684 0.138513
O O7 0.047472 0.153223 0.354794
O O8 0.333996 0.285385 0.046010
O O9 0.577508 0.286623 0.210851
O O10 0.384986 0.454568 0.960271
O O11 0.527687 0.151446 0.322389
O O12 0.248763 0.099657 0.072718
O O13 0.151201 0.584847 0.557481
O O14 0.887934 0.579112 0.340246
#
# Coordination Sequence:
#
# PCOD9247331 Si02
#       7
#     4   4   4   4   4   4   4
#     4  11  19  38  60  93 131 163 206 261 328 376
#     4  11  22  42  66  93 124 171 206 266 318 380
#     4   9  23  34  61  91 127 165 203 258 324 370
#     4  10  22  36  61  89 131 160 208 266 319 376
#     4   9  21  36  60  97 127 162 203 256 329 383
#     4  11  26  43  69  87 130 169 226 255 309 382
#     4  11  24  44  61  94 122 172 220 261 310 380
#
# _framework density 26.874689
#
# number of rings (size 3 to 8) (size 9 to 14) (size 15 to 20)
#    0.857    0.857    2.857    1.286    4.000    0.571 
#    0.000    0.000    0.000    3.429    0.000    0.000 
#    0.000    0.000    0.000    0.000    0.000    0.000 
#
# Total GULP energy -156552.494334 kJ/mol
# GULP energy per Si atom -5591.160512 kJ/mol
# Density = 2.681352 g / cm^3
# Si number density = 26.874689 Si / 1000 Ang^3
#
#
#
# Elastic Constant Matrix: (Units=GPa)
#
#
# Indices 1 2 3 4 5 6 
#
# 1 157.8285 16.4774 12.2919 0.0000 21.5535 0.0000
# 2 16.4774 85.9519 23.6062 0.0000 9.0893 0.0000
# 3 12.2919 23.6062 67.8036 0.0000 -2.7356 0.0000
# 4 0.0000 0.0000 0.0000 31.4711 0.0000 2.4401
# 5 21.5535 9.0893 -2.7356 0.0000 26.2033 0.0000
# 6 0.0000 0.0000 0.0000 2.4401 0.0000 49.4231
#
#
#
# Elastic Compliance Matrix: (Units=1/GPa)
#
#
# Indices 1 2 3 4 5 6 
#
# 1 0.007311 -0.000367 -0.001441 0.000000 -0.006037 0.000000
# 2 -0.000367 0.013556 -0.004851 0.000000 -0.004906 0.000000
# 3 -0.001441 -0.004851 0.016885 0.000000 0.004631 0.000000
# 4 0.000000 0.000000 0.000000 0.031897 0.000000 -0.001575
# 5 -0.006037 -0.004906 0.004631 0.000000 0.045314 0.000000
# 6 0.000000 0.000000 0.000000 -0.001575 0.000000 0.020311
#
#
# Mechanical properties :
#
#
# Convention : Reuss Voigt Hill
#
# Bulk Modulus (GPa) = 40.92720 46.25942 43.59331
# Shear Modulus (GPa) = 31.90039 38.70008 35.30023
#
# Velocity S-wave (km/s) = 3.44903 3.79888 3.62817
# Velocity P-wave (km/s) = 5.57880 6.04089 5.81444
#
# Compressibility (1/GPa) = 0.02443363
#
# Stress axis : x y z
#
# Youngs Moduli (GPa) = 136.78107 73.76818 59.22268
#
# Poissons Ratio (x) = 0.02710 0.08534
# Poissons Ratio (y) = 0.05026 0.28729
# Poissons Ratio (z) = 0.19710 0.35784
#
# Static dielectric constant tensor:
#      x y z
#    x 2.088010 0.000000 0.047450 
#    y 0.000000 2.142170 0.000000 
#    z 0.047450 0.000000 2.149120 
# 
# From -- ./inp_files/32616.got.cif
#   From: 2010.05.17/outbox.cif.g08.bks.cpg/sg14_17_cif.got.tgz:32616.got - 2010.06.03 17:49:19.
