data_PCOD9247833
_publ_section_title
;
Structure prediction by ZEFSAII (Michael W. Deem and Ramdas Pophale) SiO2 
 PCOD9247833
Probable space group: P 21/C
;
_chemical_formula_sum "Si O2"
_cell_formula_units_Z 32
_cell_length_a 8.238828
_cell_length_b 10.708846
_cell_length_c 24.009958
_cell_angle_alpha 90.000000
_cell_angle_beta 136.954973
_cell_angle_gamma 90.000000
_cell_volume 1445.934267
_symmetry_space_group_name_H-M "P 21/C"
_symmetry_group_IT_number 14
_symmetry_cell_setting 'monoclinic'
loop_
_space_group_symop_operation_xyz
x,y,z
-x,1/2+y,1/2-z
-x,-y,-z
x,1/2-y,1/2+z
loop_
_atom_site_type_symbol
_atom_site_label
_atom_site_fract_x
_atom_site_fract_y
_atom_site_fract_z
Si Si1 0.133104 0.156164 0.866137
Si Si2 0.110867 0.403991 0.672606
Si Si3 0.173781 0.172578 0.619873
Si Si4 0.597692 0.740864 0.168843
Si Si5 0.555760 0.970342 0.224996
Si Si6 0.524113 0.806462 0.470020
Si Si7 0.288177 0.930348 0.520135
Si Si8 0.661389 0.277334 0.691955
O O1 0.310890 0.178399 0.859701
O O2 0.889864 0.221548 0.782003
O O3 0.267940 0.218903 0.952360
O O4 0.075852 0.012271 0.863674
O O5 0.059329 0.302291 0.612437
O O6 0.182966 0.323248 0.744320
O O7 0.352854 0.471119 0.712468
O O8 0.224549 0.077257 0.683133
O O9 0.426832 0.209004 0.657929
O O10 0.981098 0.104965 0.534898
O O11 0.467484 0.840700 0.175476
O O12 0.442865 0.627768 0.108002
O O13 0.635668 0.077141 0.202067
O O14 0.370057 0.859031 0.483384
O O15 0.363455 0.745898 0.380741
O O16 0.650404 0.927199 0.475269
#
# Coordination Sequence:
#
# PCOD9247833 Si02
#       8
#     4   4   4   4   4   4   4   4
#     4  11  23  41  65  95 132 167 215 271 321 382
#     4  10  22  42  63  92 133 166 217 264 311 398
#     4  10  22  40  63  93 123 175 212 260 326 376
#     4  10  24  40  66  97 123 174 212 265 336 371
#     4  10  22  41  62  91 128 170 216 255 320 388
#     4  10  24  41  65  99 124 172 214 268 329 381
#     4  10  22  43  62  91 135 156 219 276 314 395
#     4  11  23  40  65  93 127 172 213 264 322 381
#
# _framework density 22.131019999999999
#
# number of rings (size 3 to 8) (size 9 to 14) (size 15 to 20)
#    0.000    1.750    1.250    1.500    5.250    2.500 
#    0.000    5.000    0.000    0.000    0.000    0.000 
#    0.000    0.000    0.000    0.000    0.000    0.000 
#
# Total GULP energy -178804.857767 kJ/mol
# GULP energy per Si atom -5587.651805 kJ/mol
# Density = 2.208065 g / cm^3
# Si number density = 22.131020 Si / 1000 Ang^3
#
#
#
# Elastic Constant Matrix: (Units=GPa)
#
#
# Indices 1 2 3 4 5 6 
#
# 1 30.0904 24.1277 28.6847 0.0000 -1.9768 0.0000
# 2 24.1277 126.9099 48.0345 0.0000 -5.4270 0.0000
# 3 28.6847 48.0345 103.5214 0.0000 -3.9092 0.0000
# 4 0.0000 0.0000 0.0000 34.3701 0.0000 -1.9181
# 5 -1.9768 -5.4270 -3.9092 0.0000 30.3604 0.0000
# 6 0.0000 0.0000 0.0000 -1.9181 0.0000 43.5097
#
#
#
# Elastic Compliance Matrix: (Units=1/GPa)
#
#
# Indices 1 2 3 4 5 6 
#
# 1 0.047586 -0.004892 -0.010885 0.000000 0.000822 0.000000
# 2 -0.004892 0.010101 -0.003291 0.000000 0.001063 0.000000
# 3 -0.010885 -0.003291 0.014223 0.000000 0.000534 0.000000
# 4 0.000000 0.000000 0.000000 0.029167 0.000000 0.001286
# 5 0.000822 0.001063 0.000534 0.000000 0.033250 0.000000
# 6 0.000000 0.000000 0.000000 0.001286 0.000000 0.023040
#
#
# Mechanical properties :
#
#
# Convention : Reuss Voigt Hill
#
# Bulk Modulus (GPa) = 29.60823 51.35726 40.48274
# Shear Modulus (GPa) = 24.18258 32.29304 28.23781
#
# Velocity S-wave (km/s) = 3.30919 3.82406 3.57590
# Velocity P-wave (km/s) = 5.29232 6.53868 5.94823
#
# Compressibility (1/GPa) = 0.03377440
#
# Stress axis : x y z
#
# Youngs Moduli (GPa) = 21.01462 99.00202 70.30794
#
# Poissons Ratio (x) = 0.48432 0.76527
# Poissons Ratio (y) = 0.10280 0.23139
# Poissons Ratio (z) = 0.22874 0.32583
#
# Static dielectric constant tensor:
#      x y z
#    x 1.854850 0.000000 -0.018130 
#    y 0.000000 1.778990 0.000000 
#    z -0.018130 0.000000 1.795320 
# 
# From -- ./inp_files/72373.got.cif
#   From: 2010.05.17/outbox.cif.g08.bks.cpg/sg14_37_cif.got.tgz:72373.got - 2010.06.03 17:49:19.
