data_PCOD9247524
_publ_section_title
;
Structure prediction by ZEFSAII (Michael W. Deem and Ramdas Pophale) SiO2 
 PCOD9247524
Probable space group: P 21/C
;
_chemical_formula_sum "Si O2"
_cell_formula_units_Z 24
_cell_length_a 16.590649
_cell_length_b 7.817750
_cell_length_c 21.733799
_cell_angle_alpha 90.000000
_cell_angle_beta 20.939198
_cell_angle_gamma 90.000000
_cell_volume 1007.412751
_symmetry_space_group_name_H-M "P 21/C"
_symmetry_group_IT_number 14
_symmetry_cell_setting 'monoclinic'
loop_
_space_group_symop_operation_xyz
x,y,z
-x,1/2+y,1/2-z
-x,-y,-z
x,1/2-y,1/2+z
loop_
_atom_site_type_symbol
_atom_site_label
_atom_site_fract_x
_atom_site_fract_y
_atom_site_fract_z
Si Si1 0.221270 0.057797 0.257895
Si Si2 0.418355 0.424325 0.872562
Si Si3 0.282789 0.301667 0.366716
Si Si4 0.873962 0.875328 0.890273
Si Si5 0.868199 0.282066 0.076178
Si Si6 0.713078 0.338123 0.410643
O O1 0.991942 0.163331 0.425462
O O2 0.220482 0.940940 0.319732
O O3 0.223154 0.931825 0.199061
O O4 0.443028 0.174369 0.100154
O O5 0.487867 0.621363 0.825079
O O6 0.341272 0.377178 0.858159
O O7 0.660230 0.339095 0.713510
O O8 0.247029 0.311283 0.035487
O O9 0.196223 0.406072 0.488744
O O10 0.075737 0.292992 0.468038
O O11 0.137030 0.832234 0.693530
O O12 0.781057 0.024826 0.914234
#
# Coordination Sequence:
#
# PCOD9247524 Si02
#       6
#     4   4   4   4   4   4
#     4  10  22  38  65  91 124 175 211 260 320 390
#     4  10  23  40  64  98 127 163 217 272 316 375
#     4  10  23  40  64  98 127 163 217 272 316 375
#     4  10  24  38  62  94 126 172 208 264 314 384
#     4  11  21  40  67  95 125 166 221 266 322 367
#     4  11  22  42  60  91 134 166 214 259 322 391
#
# _framework density 23.823405000000001
#
# number of rings (size 3 to 8) (size 9 to 14) (size 15 to 20)
#    1.000    0.667    3.333    0.500    9.333    2.667 
#    0.000    0.000    0.000    5.000    0.000    0.000 
#    0.000    0.000    0.000    0.000    0.000    0.000 
#
# Total GULP energy -134026.137409 kJ/mol
# GULP energy per Si atom -5584.422392 kJ/mol
# Density = 2.376918 g / cm^3
# Si number density = 23.823405 Si / 1000 Ang^3
#
#
#
# Elastic Constant Matrix: (Units=GPa)
#
#
# Indices 1 2 3 4 5 6 
#
# 1 67.1140 2.4721 12.1663 0.0000 -7.7694 0.0000
# 2 2.4721 24.0618 -1.8700 0.0000 -3.3289 0.0000
# 3 12.1663 -1.8700 77.4352 0.0000 -8.3120 0.0000
# 4 0.0000 0.0000 0.0000 46.0736 0.0000 -9.3327
# 5 -7.7694 -3.3289 -8.3120 0.0000 42.3841 0.0000
# 6 0.0000 0.0000 0.0000 -9.3327 0.0000 30.7412
#
#
#
# Elastic Compliance Matrix: (Units=1/GPa)
#
#
# Indices 1 2 3 4 5 6 
#
# 1 0.015628 -0.001460 -0.002243 0.000000 0.002310 0.000000
# 2 -0.001460 0.042301 0.001613 0.000000 0.003371 0.000000
# 3 -0.002243 0.001613 0.013560 0.000000 0.002375 0.000000
# 4 0.000000 0.000000 0.000000 0.023127 0.000000 0.007021
# 5 0.002310 0.003371 0.002375 0.000000 0.024748 0.000000
# 6 0.000000 0.000000 0.000000 0.007021 0.000000 0.034661
#
#
# Mechanical properties :
#
#
# Convention : Reuss Voigt Hill
#
# Bulk Modulus (GPa) = 14.85680 21.57198 18.21439
# Shear Modulus (GPa) = 27.67913 34.22929 30.95421
#
# Velocity S-wave (km/s) = 3.41228 3.79462 3.60852
# Velocity P-wave (km/s) = 4.66633 5.31728 5.00240
#
# Compressibility (1/GPa) = 0.06730925
#
# Stress axis : x y z
#
# Youngs Moduli (GPa) = 63.98856 23.63989 73.74498
#
# Poissons Ratio (x) = 0.03452 0.16538
# Poissons Ratio (y) = 0.09344 -0.11894
# Poissons Ratio (z) = 0.14350 -0.03813
#
# Static dielectric constant tensor:
#      x y z
#    x 1.875850 0.000000 0.025350 
#    y 0.000000 1.979760 0.000000 
#    z 0.025350 0.000000 1.943550 
# 
# From -- ./inp_files/74223.got.cif
#   From: 2010.05.17/outbox.cif.g08.bks.cpg/sg14_38_cif.got.tgz:74223.got - 2010.06.03 17:49:19.
