data_PCOD9247598
_publ_section_title
;
Structure prediction by ZEFSAII (Michael W. Deem and Ramdas Pophale) SiO2 
 PCOD9247598
Probable space group: P 21/C
;
_chemical_formula_sum "Si O2"
_cell_formula_units_Z 28
_cell_length_a 23.806522
_cell_length_b 7.957461
_cell_length_c 14.673389
_cell_angle_alpha 90.000000
_cell_angle_beta 156.298812
_cell_angle_gamma 90.000000
_cell_volume 1117.354663
_symmetry_space_group_name_H-M "P 21/C"
_symmetry_group_IT_number 14
_symmetry_cell_setting 'monoclinic'
loop_
_space_group_symop_operation_xyz
x,y,z
-x,1/2+y,1/2-z
-x,-y,-z
x,1/2-y,1/2+z
loop_
_atom_site_type_symbol
_atom_site_label
_atom_site_fract_x
_atom_site_fract_y
_atom_site_fract_z
Si Si1 0.936092 0.876579 0.528396
Si Si2 0.819118 0.853237 0.540021
Si Si3 0.461002 0.354075 0.872954
Si Si4 0.156533 0.790531 0.706318
Si Si5 0.437389 0.650896 0.166222
Si Si6 0.390919 0.869801 0.798603
Si Si7 0.197536 0.406932 0.783364
O O1 0.935664 0.845444 0.635702
O O2 0.827553 0.739213 0.325950
O O3 0.077321 0.839150 0.682782
O O4 0.888939 0.065887 0.432246
O O5 0.687812 0.730242 0.323142
O O6 0.857264 0.833106 0.701898
O O7 0.753573 0.041084 0.436782
O O8 0.454450 0.367688 0.754582
O O9 0.500000 0.500000 0.000000
O O10 0.605174 0.254343 0.111357
O O11 0.866990 0.411826 0.341791
O O12 0.322200 0.791270 0.969551
O O13 0.461384 0.685347 0.308065
O O14 0.355158 0.470185 0.038165
O O15 0.500000 0.000000 0.000000
#
# Coordination Sequence:
#
# PCOD9247598 Si02
#       7
#     4   4   4   4   4   4   4
#     4  11  20  41  65  94 123 165 214 257 317 379
#     4  10  22  39  60  92 126 159 211 263 314 379
#     4  11  22  35  58  95 120 162 214 250 316 384
#     4   9  22  40  65  89 122 169 208 260 317 375
#     4   9  20  39  58  84 128 162 202 262 308 371
#     4   9  20  37  57  81 120 166 196 253 316 359
#     4   9  21  42  60  91 124 167 206 257 323 362
#
# _framework density 25.059189
#
# number of rings (size 3 to 8) (size 9 to 14) (size 15 to 20)
#    0.857    1.429    0.000    2.143    0.000    6.857 
#    5.143    0.000    0.000    0.000    0.000    0.000 
#    0.000    0.000    0.000    0.000    0.000    0.000 
#
# Total GULP energy -155997.926221 kJ/mol
# GULP energy per Si atom -5571.354508 kJ/mol
# Density = 2.500215 g / cm^3
# Si number density = 25.059189 Si / 1000 Ang^3
#
#
#
# Elastic Constant Matrix: (Units=GPa)
#
#
# Indices 1 2 3 4 5 6 
#
# 1 163.8965 8.0934 3.0789 0.0000 -3.9161 0.0000
# 2 8.0934 98.9035 10.6834 0.0000 -0.9130 0.0000
# 3 3.0789 10.6834 37.8113 0.0000 -2.0507 0.0000
# 4 0.0000 0.0000 0.0000 20.2730 0.0000 -17.1787
# 5 -3.9161 -0.9130 -2.0507 0.0000 28.2131 0.0000
# 6 0.0000 0.0000 0.0000 -17.1787 0.0000 15.7435
#
#
#
# Elastic Compliance Matrix: (Units=1/GPa)
#
#
# Indices 1 2 3 4 5 6 
#
# 1 0.006150 -0.000460 -0.000326 0.000000 0.000815 0.000000
# 2 -0.000460 0.010464 -0.002916 0.000000 0.000063 0.000000
# 3 -0.000326 -0.002916 0.027398 0.000000 0.001852 0.000000
# 4 0.000000 0.000000 0.000000 0.654323 0.000000 0.713971
# 5 0.000815 0.000063 0.001852 0.000000 0.035694 0.000000
# 6 0.000000 0.000000 0.000000 0.713971 0.000000 0.842576
#
#
# Mechanical properties :
#
#
# Convention : Reuss Voigt Hill
#
# Bulk Modulus (GPa) = 27.31748 38.25807 32.78777
# Shear Modulus (GPa) = 3.13242 31.42963 17.28103
#
# Velocity S-wave (km/s) = 1.11925 3.54533 2.62889
# Velocity P-wave (km/s) = 3.54896 5.66210 4.72517
#
# Compressibility (1/GPa) = 0.03660660
#
# Stress axis : x y z
#
# Youngs Moduli (GPa) = 162.60814 95.56510 36.49908
#
# Poissons Ratio (x) = 0.04400 0.01192
# Poissons Ratio (y) = 0.07487 0.10642
# Poissons Ratio (z) = 0.05308 0.27864
#
# Static dielectric constant tensor:
#      x y z
#    x 1.994290 0.000000 0.074310 
#    y 0.000000 2.124640 0.000000 
#    z 0.074310 0.000000 2.030660 
# 
# From -- ./inp_files/51152.got.cif
#   From: 2010.05.17/outbox.cif.g08.bks.cpg/sg14_26_cif.got.tgz:51152.got - 2010.06.03 17:49:19.
