data_PCOD9247105
_publ_section_title
;
Structure prediction by ZEFSAII (Michael W. Deem and Ramdas Pophale) SiO2 
 PCOD9247105
Probable space group: P 21/C
;
_chemical_formula_sum "Si O2"
_cell_formula_units_Z 26
_cell_length_a 14.859354
_cell_length_b 4.919056
_cell_length_c 28.732041
_cell_angle_alpha 90.000000
_cell_angle_beta 28.887086
_cell_angle_gamma 90.000000
_cell_volume 1014.546062
_symmetry_space_group_name_H-M "P 21/C"
_symmetry_group_IT_number 14
_symmetry_cell_setting 'monoclinic'
loop_
_space_group_symop_operation_xyz
x,y,z
-x,1/2+y,1/2-z
-x,-y,-z
x,1/2-y,1/2+z
loop_
_atom_site_type_symbol
_atom_site_label
_atom_site_fract_x
_atom_site_fract_y
_atom_site_fract_z
Si Si1 0.111788 0.889309 0.028912
Si Si2 0.904770 0.618965 0.904024
Si Si3 0.548415 0.812978 0.837558
Si Si4 0.090585 0.628774 0.230616
Si Si5 0.617195 0.849764 0.705978
Si Si6 0.467481 0.693626 0.095146
Si Si7 0.000000 0.000000 0.500000
O O1 0.071027 0.690698 0.091311
O O2 0.060467 0.197338 0.065399
O O3 0.333746 0.876102 0.923299
O O4 0.012786 0.765621 0.029586
O O5 0.032789 0.736657 0.805789
O O6 0.688336 0.664099 0.986356
O O7 0.662691 0.885902 0.740055
O O8 0.568538 0.503886 0.844386
O O9 0.581407 0.001811 0.867150
O O10 0.314252 0.611436 0.126562
O O11 0.994962 0.337742 0.267865
O O12 0.560939 0.539104 0.724246
O O13 0.774975 0.959294 0.600964
#
# Coordination Sequence:
#
# PCOD9247105 Si02
#       7
#     4   4   4   4   4   4   2
#     4  10  23  43  65  98 134 178 236 272 336 405
#     4  10  24  44  67  94 135 174 219 279 328 413
#     4  10  21  44  64  92 134 180 226 278 326 417
#     4  12  26  43  69 103 131 163 221 277 342 424
#     4  12  27  44  65 100 145 185 239 298 350 403
#     4  10  23  42  69  93 128 177 215 265 351 398
#     4  12  28  42  72 104 142 198 234 298 356 396
#
# _framework density 25.627226
#
# number of rings (size 3 to 8) (size 9 to 14) (size 15 to 20)
#    0.000    1.231    1.538    2.769    8.615    3.692 
#    0.000    0.000    0.000    0.000    0.000    0.000 
#    0.000    0.000    0.000    0.000    0.000    0.000 
#
# Total GULP energy -145237.278831 kJ/mol
# GULP energy per Si atom -5586.049186 kJ/mol
# Density = 2.556890 g / cm^3
# Si number density = 25.627226 Si / 1000 Ang^3
#
#
#
# Elastic Constant Matrix: (Units=GPa)
#
#
# Indices 1 2 3 4 5 6 
#
# 1 24.5109 -7.7382 19.0366 0.0000 -16.9296 0.0000
# 2 -7.7382 84.4313 4.6715 0.0000 1.6014 0.0000
# 3 19.0366 4.6715 76.3555 0.0000 -7.4724 0.0000
# 4 0.0000 0.0000 0.0000 20.5111 0.0000 16.9303
# 5 -16.9296 1.6014 -7.4724 0.0000 40.9023 0.0000
# 6 0.0000 0.0000 0.0000 16.9303 0.0000 24.5616
#
#
#
# Elastic Compliance Matrix: (Units=1/GPa)
#
#
# Indices 1 2 3 4 5 6 
#
# 1 0.075034 0.007260 -0.016434 0.000000 0.027771 0.000000
# 2 0.007260 0.012601 -0.002378 0.000000 0.002077 0.000000
# 3 -0.016434 -0.002378 0.016986 0.000000 -0.003606 0.000000
# 4 0.000000 0.000000 0.000000 0.113108 0.000000 -0.077965
# 5 0.027771 0.002077 -0.003606 0.000000 0.035203 0.000000
# 6 0.000000 0.000000 0.000000 -0.077965 0.000000 0.094456
#
#
# Mechanical properties :
#
#
# Convention : Reuss Voigt Hill
#
# Bulk Modulus (GPa) = 12.26712 24.13748 18.20230
# Shear Modulus (GPa) = 12.57340 28.48353 20.52846
#
# Velocity S-wave (km/s) = 2.21741 3.33747 2.83334
# Velocity P-wave (km/s) = 3.36943 4.92856 4.22160
#
# Compressibility (1/GPa) = 0.08151873
#
# Stress axis : x y z
#
# Youngs Moduli (GPa) = 13.32725 79.35592 58.87071
#
# Poissons Ratio (x) = -0.57609 0.96746
# Poissons Ratio (y) = -0.09675 0.13997
# Poissons Ratio (z) = 0.21901 0.18868
#
# Static dielectric constant tensor:
#      x y z
#    x 2.078620 0.000000 0.020910 
#    y 0.000000 1.934860 0.000000 
#    z 0.020910 0.000000 2.009830 
# 
# From -- ./inp_files/80112.got.cif
#   From: 2010.05.17/outbox.cif.g08.bks.cpg/sg14_41_cif.got.tgz:80112.got - 2010.06.03 17:49:19.
