data_PCOD9247649
_publ_section_title
;
Structure prediction by ZEFSAII (Michael W. Deem and Ramdas Pophale) SiO2 
 PCOD9247649
Probable space group: P 21/C
;
_chemical_formula_sum "Si O2"
_cell_formula_units_Z 32
_cell_length_a 9.526293
_cell_length_b 18.216749
_cell_length_c 9.854716
_cell_angle_alpha 90.000000
_cell_angle_beta 62.032322
_cell_angle_gamma 90.000000
_cell_volume 1510.441911
_symmetry_space_group_name_H-M "P 21/C"
_symmetry_group_IT_number 14
_symmetry_cell_setting 'monoclinic'
loop_
_space_group_symop_operation_xyz
x,y,z
-x,1/2+y,1/2-z
-x,-y,-z
x,1/2-y,1/2+z
loop_
_atom_site_type_symbol
_atom_site_label
_atom_site_fract_x
_atom_site_fract_y
_atom_site_fract_z
Si Si1 0.583944 0.410261 0.593208
Si Si2 0.243117 0.327339 0.415726
Si Si3 0.728303 0.683981 0.283568
Si Si4 0.914835 0.922045 0.509969
Si Si5 0.911503 0.163870 0.001144
Si Si6 0.868513 0.204025 0.720221
Si Si7 0.585425 0.108929 0.790536
Si Si8 0.602436 0.507859 0.087125
O O1 0.454026 0.344396 0.644311
O O2 0.758261 0.387571 0.564288
O O3 0.600380 0.434009 0.427764
O O4 0.506808 0.462523 0.740111
O O5 0.252534 0.255851 0.316507
O O6 0.234024 0.302465 0.576629
O O7 0.404380 0.373477 0.336639
O O8 0.085398 0.370925 0.441746
O O9 0.026824 0.636097 0.883692
O O10 0.843310 0.880417 0.674484
O O11 0.754880 0.940755 0.498119
O O12 0.000000 0.000000 0.500000
O O13 0.900092 0.222012 0.126824
O O14 0.902948 0.208044 0.863540
O O15 0.685922 0.181766 0.776006
O O16 0.659599 0.068503 0.627209
O O17 0.500000 0.500000 0.000000
#
# Coordination Sequence:
#
# PCOD9247649 Si02
#       8
#     4   4   4   4   4   4   4   4
#     4   9  22  42  60  86 125 166 202 249 310 369
#     4  11  22  37  62  93 124 155 205 254 311 361
#     4  10  22  39  63  91 122 165 199 255 309 365
#     4  11  23  42  65  89 125 166 210 248 311 368
#     4  11  23  38  63  93 126 154 206 257 309 367
#     4  11  23  41  65  92 123 165 202 259 312 367
#     4  10  22  41  62  87 124 168 204 250 312 372
#     4  11  24  39  63  91 125 165 210 257 300 370
#
# _framework density 21.185851
#
# number of rings (size 3 to 8) (size 9 to 14) (size 15 to 20)
#    0.000    1.500    2.500    1.875    1.750    3.000 
#    0.000    0.625    0.000    0.000    0.000    0.000 
#    0.000    0.000    0.000    0.000    0.000    0.000 
#
# Total GULP energy -178711.912833 kJ/mol
# GULP energy per Si atom -5584.747276 kJ/mol
# Density = 2.113763 g / cm^3
# Si number density = 21.185851 Si / 1000 Ang^3
#
#
#
# Elastic Constant Matrix: (Units=GPa)
#
#
# Indices 1 2 3 4 5 6 
#
# 1 153.4591 14.0803 14.3599 0.0000 3.1919 0.0000
# 2 14.0803 27.3286 -4.4069 0.0000 2.1487 0.0000
# 3 14.3599 -4.4069 48.7087 0.0000 5.7320 0.0000
# 4 0.0000 0.0000 0.0000 22.9628 0.0000 -9.0879
# 5 3.1919 2.1487 5.7320 0.0000 31.8196 0.0000
# 6 0.0000 0.0000 0.0000 -9.0879 0.0000 26.2372
#
#
#
# Elastic Compliance Matrix: (Units=1/GPa)
#
#
# Indices 1 2 3 4 5 6 
#
# 1 0.007120 -0.004067 -0.002468 0.000000 0.000005 0.000000
# 2 -0.004067 0.039774 0.005175 0.000000 -0.003210 0.000000
# 3 -0.002468 0.005175 0.022209 0.000000 -0.004103 0.000000
# 4 0.000000 0.000000 0.000000 0.050467 0.000000 0.017480
# 5 0.000005 -0.003210 -0.004103 0.000000 0.032383 0.000000
# 6 0.000000 0.000000 0.000000 0.017480 0.000000 0.044169
#
#
# Mechanical properties :
#
#
# Convention : Reuss Voigt Hill
#
# Bulk Modulus (GPa) = 15.06378 30.84036 22.95207
# Shear Modulus (GPa) = 22.62772 29.90145 26.26459
#
# Velocity S-wave (km/s) = 3.27166 3.76092 3.52479
# Velocity P-wave (km/s) = 4.62574 5.78343 5.23667
#
# Compressibility (1/GPa) = 0.06638442
#
# Stress axis : x y z
#
# Youngs Moduli (GPa) = 140.44240 25.14204 45.02736
#
# Poissons Ratio (x) = 0.10225 0.11111
# Poissons Ratio (y) = 0.57116 -0.23303
# Poissons Ratio (z) = 0.34657 -0.13012
#
# Static dielectric constant tensor:
#      x y z
#    x 1.773350 0.000000 -0.046540 
#    y 0.000000 1.773450 0.000000 
#    z -0.046540 0.000000 1.765910 
# 
# From -- ./inp_files/10218.got.cif
#   From: 2010.05.17/outbox.cif.g08.bks.cpg/sg14_6_cif.got.tgz:10218.got - 2010.06.03 17:49:19.
