data_PCOD9247356
_publ_section_title
;
Structure prediction by ZEFSAII (Michael W. Deem and Ramdas Pophale) SiO2 
 PCOD9247356
Probable space group: P 21/C
;
_chemical_formula_sum "Si O2"
_cell_formula_units_Z 22
_cell_length_a 8.680422
_cell_length_b 4.957090
_cell_length_c 19.026913
_cell_angle_alpha 90.000000
_cell_angle_beta 82.767102
_cell_angle_gamma 90.000000
_cell_volume 812.206173
_symmetry_space_group_name_H-M "P 21/C"
_symmetry_group_IT_number 14
_symmetry_cell_setting 'monoclinic'
loop_
_space_group_symop_operation_xyz
x,y,z
-x,1/2+y,1/2-z
-x,-y,-z
x,1/2-y,1/2+z
loop_
_atom_site_type_symbol
_atom_site_label
_atom_site_fract_x
_atom_site_fract_y
_atom_site_fract_z
Si Si1 0.008824 0.355567 0.204719
Si Si2 0.796694 0.701791 0.121412
Si Si3 0.000000 0.500000 0.500000
Si Si4 0.514721 0.049319 0.151547
Si Si5 0.333444 0.791511 0.486140
Si Si6 0.657587 0.452713 0.856737
O O1 0.870736 0.474980 0.166341
O O2 0.991919 0.045792 0.226180
O O3 0.172284 0.422940 0.158906
O O4 0.716060 0.534616 0.063096
O O5 0.671686 0.898392 0.164783
O O6 0.932406 0.868938 0.076653
O O7 0.824853 0.377372 0.493611
O O8 0.551128 0.105731 0.066329
O O9 0.378298 0.586104 0.058521
O O10 0.373386 0.844034 0.171280
O O11 0.539534 0.845318 0.323750
#
# Coordination Sequence:
#
# PCOD9247356 Si02
#       6
#     4   4   2   4   4   4
#     4  12  30  51  75 100 141 199 257 301 342 428
#     4  11  25  45  72 107 146 186 242 293 373 426
#     4  10  22  36  70 114 140 186 222 304 356 442
#     4  11  25  42  72 111 147 181 222 299 374 449
#     4  11  23  39  73 110 151 177 230 293 375 443
#     4  12  25  45  72 109 144 186 233 293 372 421
#
# _framework density 27.086718000000001
#
# number of rings (size 3 to 8) (size 9 to 14) (size 15 to 20)
#    0.000    0.727    3.636    2.727   10.182    0.000 
#    0.000    3.636    0.000    0.000    0.000    0.000 
#    0.000    0.000    0.000    0.000    0.000    0.000 
#
# Total GULP energy -122828.514979 kJ/mol
# GULP energy per Si atom -5583.114317 kJ/mol
# Density = 2.702507 g / cm^3
# Si number density = 27.086718 Si / 1000 Ang^3
#
#
#
# Elastic Constant Matrix: (Units=GPa)
#
#
# Indices 1 2 3 4 5 6 
#
# 1 69.9083 20.2264 -5.8005 0.0000 3.4032 0.0000
# 2 20.2264 108.7734 -1.4134 0.0000 -0.7892 0.0000
# 3 -5.8005 -1.4134 76.0818 0.0000 3.4086 0.0000
# 4 0.0000 0.0000 0.0000 26.5363 0.0000 24.8268
# 5 3.4032 -0.7892 3.4086 0.0000 40.6727 0.0000
# 6 0.0000 0.0000 0.0000 24.8268 0.0000 19.3758
#
#
#
# Elastic Compliance Matrix: (Units=1/GPa)
#
#
# Indices 1 2 3 4 5 6 
#
# 1 0.015293 -0.002839 0.001177 0.000000 -0.001433 0.000000
# 2 -0.002839 0.009724 -0.000055 0.000000 0.000431 0.000000
# 3 0.001177 -0.000055 0.013287 0.000000 -0.001213 0.000000
# 4 0.000000 0.000000 0.000000 -0.189578 0.000000 0.242911
# 5 -0.001433 0.000431 -0.001213 0.000000 0.024816 0.000000
# 6 0.000000 0.000000 0.000000 0.242911 0.000000 -0.259637
#
#
# Mechanical properties :
#
#
# Convention : Reuss Voigt Hill
#
# Bulk Modulus (GPa) = 28.67727 31.19869 29.93798
# Shear Modulus (GPa) = -13.47571 33.43370 9.97900
#
# Velocity S-wave (km/s) = -2.23290 3.51710 1.92148
# Velocity P-wave (km/s) = 1.99058 5.29494 3.99993
#
# Compressibility (1/GPa) = 0.03487083
#
# Stress axis : x y z
#
# Youngs Moduli (GPa) = 65.38809 102.84129 75.26238
#
# Poissons Ratio (x) = 0.29195 -0.08862
# Poissons Ratio (y) = 0.18563 0.00415
# Poissons Ratio (z) = -0.07699 0.00567
#
# Static dielectric constant tensor:
#      x y z
#    x 2.098480 0.000000 0.036790 
#    y 0.000000 2.114520 0.000000 
#    z 0.036790 0.000000 2.124120 
# 
# From -- ./inp_files/75881.got.cif
#   From: 2010.05.17/outbox.cif.g08.bks.cpg/sg14_38_cif.got.tgz:75881.got - 2010.06.03 17:49:19.
