data_PCOD9247741
_publ_section_title
;
Structure prediction by ZEFSAII (Michael W. Deem and Ramdas Pophale) SiO2 
 PCOD9247741
Probable space group: P 21/C
;
_chemical_formula_sum "Si O2"
_cell_formula_units_Z 20
_cell_length_a 9.696831
_cell_length_b 9.048289
_cell_length_c 23.813674
_cell_angle_alpha 90.000000
_cell_angle_beta 19.660294
_cell_angle_gamma 90.000000
_cell_volume 702.965243
_symmetry_space_group_name_H-M "P 21/C"
_symmetry_group_IT_number 14
_symmetry_cell_setting 'monoclinic'
loop_
_space_group_symop_operation_xyz
x,y,z
-x,1/2+y,1/2-z
-x,-y,-z
x,1/2-y,1/2+z
loop_
_atom_site_type_symbol
_atom_site_label
_atom_site_fract_x
_atom_site_fract_y
_atom_site_fract_z
Si Si1 0.459116 0.196046 0.451351
Si Si2 0.021917 0.432793 0.221346
Si Si3 0.630261 0.808538 0.646203
Si Si4 0.487011 0.790228 0.370008
Si Si5 0.917999 0.939067 0.104338
O O1 0.112385 0.136417 0.625602
O O2 0.379997 0.170512 0.416203
O O3 0.593212 0.366762 0.407296
O O4 0.862230 0.102611 0.315406
O O5 0.378756 0.360063 0.123449
O O6 0.646938 0.637830 0.659395
O O7 0.061497 0.857919 0.508596
O O8 0.254531 0.899398 0.817400
O O9 0.818721 0.840896 0.197534
O O10 0.375942 0.615865 0.414244
#
# Coordination Sequence:
#
# PCOD9247741 Si02
#       5
#     4   4   4   4   4
#     4  11  26  44  70  98 139 174 229 268 345 388
#     4  11  25  46  68  99 135 185 213 284 329 407
#     4  10  24  42  69  95 132 170 222 272 325 392
#     4  10  22  42  70  89 132 171 217 267 336 381
#     4  10  22  39  69  94 129 166 219 271 327 382
#
# _framework density 28.450911000000001
#
# number of rings (size 3 to 8) (size 9 to 14) (size 15 to 20)
#    1.200    0.400    2.000    1.800    2.800    3.200 
#    0.000    0.000    0.000    0.000    0.000    0.000 
#    0.000    0.000    0.000    0.000    0.000    0.000 
#
# Total GULP energy -112025.818085 kJ/mol
# GULP energy per Si atom -5601.290904 kJ/mol
# Density = 2.838616 g / cm^3
# Si number density = 28.450911 Si / 1000 Ang^3
#
#
#
# Elastic Constant Matrix: (Units=GPa)
#
#
# Indices 1 2 3 4 5 6 
#
# 1 168.0987 5.1975 23.0653 0.0000 10.3993 0.0000
# 2 5.1975 93.9329 -1.1076 0.0000 10.0342 0.0000
# 3 23.0653 -1.1076 70.1312 0.0000 -12.2296 0.0000
# 4 0.0000 0.0000 0.0000 36.0545 0.0000 6.7140
# 5 10.3993 10.0342 -12.2296 0.0000 44.9032 0.0000
# 6 0.0000 0.0000 0.0000 6.7140 0.0000 41.9382
#
#
#
# Elastic Compliance Matrix: (Units=1/GPa)
#
#
# Indices 1 2 3 4 5 6 
#
# 1 0.006427 -0.000157 -0.002488 0.000000 -0.002131 0.000000
# 2 -0.000157 0.010915 -0.000205 0.000000 -0.002458 0.000000
# 3 -0.002488 -0.000205 0.015939 0.000000 0.004963 0.000000
# 4 0.000000 0.000000 0.000000 0.028588 0.000000 -0.004577
# 5 -0.002131 -0.002458 0.004963 0.000000 0.024665 0.000000
# 6 0.000000 0.000000 0.000000 -0.004577 0.000000 0.024577
#
#
# Mechanical properties :
#
#
# Convention : Reuss Voigt Hill
#
# Bulk Modulus (GPa) = 36.25583 42.94146 39.59865
# Shear Modulus (GPa) = 39.68113 44.91303 42.29708
#
# Velocity S-wave (km/s) = 3.73865 3.97749 3.85992
# Velocity P-wave (km/s) = 5.60425 6.01829 5.81496
#
# Compressibility (1/GPa) = 0.02758177
#
# Stress axis : x y z
#
# Youngs Moduli (GPa) = 155.59525 91.61874 62.73752
#
# Poissons Ratio (x) = 0.01441 0.15608
# Poissons Ratio (y) = 0.02448 0.01283
# Poissons Ratio (z) = 0.38709 0.01874
#
# Static dielectric constant tensor:
#      x y z
#    x 2.152140 0.000000 -0.012220 
#    y 0.000000 2.261570 0.000000 
#    z -0.012220 0.000000 2.289630 
# 
# From -- ./inp_files/79879.got.cif
#   From: 2010.05.17/outbox.cif.g08.bks.cpg/sg14_40_cif.got.tgz:79879.got - 2010.06.03 17:49:19.
