data_PCOD9247626
_publ_section_title
;
Structure prediction by ZEFSAII (Michael W. Deem and Ramdas Pophale) SiO2 
 PCOD9247626
Probable space group: P 21/C
;
_chemical_formula_sum "Si O2"
_cell_formula_units_Z 20
_cell_length_a 5.981408
_cell_length_b 22.054804
_cell_length_c 8.442090
_cell_angle_alpha 90.000000
_cell_angle_beta 128.347943
_cell_angle_gamma 90.000000
_cell_volume 873.404211
_symmetry_space_group_name_H-M "P 21/C"
_symmetry_group_IT_number 14
_symmetry_cell_setting 'monoclinic'
loop_
_space_group_symop_operation_xyz
x,y,z
-x,1/2+y,1/2-z
-x,-y,-z
x,1/2-y,1/2+z
loop_
_atom_site_type_symbol
_atom_site_label
_atom_site_fract_x
_atom_site_fract_y
_atom_site_fract_z
Si Si1 0.225344 0.842697 0.404735
Si Si2 0.215492 0.715273 0.550377
Si Si3 0.832175 0.628538 0.183506
Si Si4 0.757656 0.469320 0.508071
Si Si5 0.329347 0.370367 0.239448
O O1 0.209272 0.785931 0.517611
O O2 0.229416 0.807783 0.237375
O O3 0.500466 0.880746 0.578661
O O4 0.946634 0.884796 0.278789
O O5 0.507983 0.686200 0.610648
O O6 0.959775 0.681844 0.347178
O O7 0.042852 0.572118 0.292380
O O8 0.799705 0.645645 0.986825
O O9 0.500000 0.500000 0.500000
O O10 0.563546 0.422389 0.321697
O O11 0.000000 0.500000 0.500000
#
# Coordination Sequence:
#
# PCOD9247626 Si02
#       5
#     4   4   4   4   4
#     4  11  22  39  67  98 140 178 226 271 342 411
#     4  10  22  39  62 101 141 178 222 271 342 410
#     4  10  24  42  67  98 135 180 228 282 340 415
#     4  11  28  48  73 101 138 179 234 298 354 405
#     4  10  24  42  67  99 133 183 225 284 338 419
#
# _framework density 22.898906
#
# number of rings (size 3 to 8) (size 9 to 14) (size 15 to 20)
#    0.000    1.600    0.000    2.400   11.200    8.000 
#    0.000    0.000    0.000    0.000    0.000    0.000 
#    0.000    0.000    0.000    0.000    0.000    0.000 
#
# Total GULP energy -111406.511515 kJ/mol
# GULP energy per Si atom -5570.325576 kJ/mol
# Density = 2.284679 g / cm^3
# Si number density = 22.898906 Si / 1000 Ang^3
#
#
#
# Elastic Constant Matrix: (Units=GPa)
#
#
# Indices 1 2 3 4 5 6 
#
# 1 135.7179 53.7637 50.4599 0.0000 51.6682 0.0000
# 2 53.7637 65.3163 30.3625 0.0000 26.3144 0.0000
# 3 50.4599 30.3625 135.5674 0.0000 30.5669 0.0000
# 4 0.0000 0.0000 0.0000 19.5670 0.0000 3.4004
# 5 51.6682 26.3144 30.5669 0.0000 40.4325 0.0000
# 6 0.0000 0.0000 0.0000 3.4004 0.0000 30.7200
#
#
#
# Elastic Compliance Matrix: (Units=1/GPa)
#
#
# Indices 1 2 3 4 5 6 
#
# 1 0.016439 -0.006642 -0.001048 0.000000 -0.015893 0.000000
# 2 -0.006642 0.023863 -0.001548 0.000000 -0.005873 0.000000
# 3 -0.001048 -0.001548 0.009142 0.000000 -0.004565 0.000000
# 4 0.000000 0.000000 0.000000 0.052109 0.000000 -0.005768
# 5 -0.015893 -0.005873 -0.004565 0.000000 0.052315 0.000000
# 6 0.000000 0.000000 0.000000 -0.005768 0.000000 0.033190
#
#
# Mechanical properties :
#
#
# Convention : Reuss Voigt Hill
#
# Bulk Modulus (GPa) = 32.29066 67.30820 49.79943
# Shear Modulus (GPa) = 23.16344 31.61161 27.38752
#
# Velocity S-wave (km/s) = 3.18394 3.71952 3.46210
# Velocity P-wave (km/s) = 5.25820 6.92126 6.14624
#
# Compressibility (1/GPa) = 0.03096871
#
# Stress axis : x y z
#
# Youngs Moduli (GPa) = 60.82952 41.90637 109.37948
#
# Poissons Ratio (x) = 0.27833 0.11463
# Poissons Ratio (y) = 0.40401 0.16934
# Poissons Ratio (z) = 0.06375 0.06488
#
# Static dielectric constant tensor:
#      x y z
#    x 2.162990 0.000000 0.023660 
#    y 0.000000 1.893930 0.000000 
#    z 0.023660 0.000000 1.799420 
# 
# From -- ./inp_files/6208.got.cif
#   From: 2010.05.17/outbox.cif.g08.bks.cpg/sg14_4_cif.got.tgz:6208.got - 2010.06.03 17:49:19.
