data_PCOD9247855
_publ_section_title
;
Structure prediction by ZEFSAII (Michael W. Deem and Ramdas Pophale) SiO2 
 PCOD9247855
Probable space group: P 21/C
;
_chemical_formula_sum "Si O2"
_cell_formula_units_Z 20
_cell_length_a 9.791914
_cell_length_b 8.749561
_cell_length_c 13.323827
_cell_angle_alpha 90.000000
_cell_angle_beta 89.999810
_cell_angle_gamma 90.000000
_cell_volume 1141.518197
_symmetry_space_group_name_H-M "P 21/C"
_symmetry_group_IT_number 14
_symmetry_cell_setting 'monoclinic'
loop_
_space_group_symop_operation_xyz
x,y,z
-x,1/2+y,1/2-z
-x,-y,-z
x,1/2-y,1/2+z
loop_
_atom_site_type_symbol
_atom_site_label
_atom_site_fract_x
_atom_site_fract_y
_atom_site_fract_z
Si Si1 0.250002 0.343972 0.049363
Si Si2 0.972974 0.650061 0.565913
Si Si3 0.750000 0.924663 0.230108
Si Si4 0.750001 0.176259 0.385678
Si Si5 0.527025 0.650059 0.565915
O O1 0.250003 0.320186 0.169802
O O2 0.250001 0.527971 0.040729
O O3 0.118530 0.268100 0.998460
O O4 0.381471 0.268100 0.998457
O O5 0.881643 0.605795 0.662064
O O6 0.000000 0.500000 0.500000
O O7 0.115120 0.725809 0.596942
O O8 0.618355 0.894210 0.162065
O O9 0.750004 0.095050 0.276562
O O10 0.615121 0.274193 0.403054
O O11 0.500000 0.500000 0.500000
#
# Coordination Sequence:
#
# PCOD9247855 Si02
#       5
#     4   4   4   4   4
#     4   9  22  39  63  89 127 160 206 251 310 371
#     4  11  22  42  63  95 126 161 211 261 305 367
#     4   9  24  37  61  92 126 160 211 240 320 360
#     4  10  22  40  64  89 123 172 201 259 310 369
#     4  11  22  42  63  95 126 161 211 261 305 367
#
# _framework density 17.520527999999999
#
# number of rings (size 3 to 8) (size 9 to 14) (size 15 to 20)
#    1.200    0.800    0.000    3.600    5.600    0.000 
#    0.000    0.000    0.000    0.000    0.000    0.000 
#    0.000    0.000    0.000    0.000    0.000    0.000 
#
# Total GULP energy -111488.712253 kJ/mol
# GULP energy per Si atom -5574.435613 kJ/mol
# Density = 1.748065 g / cm^3
# Si number density = 17.520528 Si / 1000 Ang^3
#
#
#
# Elastic Constant Matrix: (Units=GPa)
#
#
# Indices 1 2 3 4 5 6 
#
# 1 214.8465 101.7087 96.3590 0.0000 0.0062 0.0000
# 2 101.7087 131.5550 64.4734 0.0000 0.0042 0.0000
# 3 96.3590 64.4734 139.1437 0.0000 0.0044 0.0000
# 4 0.0000 0.0000 0.0000 45.0378 0.0000 0.0007
# 5 0.0062 0.0042 0.0044 0.0000 9.5393 0.0000
# 6 0.0000 0.0000 0.0000 0.0007 0.0000 31.3220
#
#
#
# Elastic Compliance Matrix: (Units=1/GPa)
#
#
# Indices 1 2 3 4 5 6 
#
# 1 0.008614 -0.004834 -0.003725 0.000000 -0.000002 0.000000
# 2 -0.004834 0.012547 -0.002466 0.000000 -0.000001 0.000000
# 3 -0.003725 -0.002466 0.010910 0.000000 -0.000001 0.000000
# 4 0.000000 0.000000 0.000000 0.022204 0.000000 0.000000
# 5 -0.000002 -0.000001 -0.000001 0.000000 0.104830 0.000000
# 6 0.000000 0.000000 0.000000 0.000000 0.000000 0.031926
#
#
# Mechanical properties :
#
#
# Convention : Reuss Voigt Hill
#
# Bulk Modulus (GPa) = 99.80636 112.29192 106.04914
# Shear Modulus (GPa) = 23.10316 32.04673 27.57494
#
# Velocity S-wave (km/s) = 3.63524 4.28143 3.97150
# Velocity P-wave (km/s) = 8.64344 9.41656 9.03827
#
# Compressibility (1/GPa) = 0.01001940
#
# Stress axis : x y z
#
# Youngs Moduli (GPa) = 116.09631 79.69907 91.66318
#
# Poissons Ratio (x) = 0.38524 0.34147
# Poissons Ratio (y) = 0.56117 0.22609
# Poissons Ratio (z) = 0.43249 0.19658
#
# Static dielectric constant tensor:
#      x y z
#    x 1.554510 0.000000 0.000000 
#    y 0.000000 1.586200 0.000000 
#    z 0.000000 0.000000 1.588800 
# 
# From -- ./inp_files/24722.got.cif
#   From: 2010.05.17/outbox.cif.g08.bks.cpg/sg14_13_cif.got.tgz:24722.got - 2010.06.03 17:49:19.
