data_PCOD9247096
_publ_section_title
;
Structure prediction by ZEFSAII (Michael W. Deem and Ramdas Pophale) SiO2 
 PCOD9247096
Probable space group: P 21/C
;
_chemical_formula_sum "Si O2"
_cell_formula_units_Z 20
_cell_length_a 20.620090
_cell_length_b 6.610630
_cell_length_c 13.839403
_cell_angle_alpha 90.000000
_cell_angle_beta 153.609966
_cell_angle_gamma 90.000000
_cell_volume 838.498662
_symmetry_space_group_name_H-M "P 21/C"
_symmetry_group_IT_number 14
_symmetry_cell_setting 'monoclinic'
loop_
_space_group_symop_operation_xyz
x,y,z
-x,1/2+y,1/2-z
-x,-y,-z
x,1/2-y,1/2+z
loop_
_atom_site_type_symbol
_atom_site_label
_atom_site_fract_x
_atom_site_fract_y
_atom_site_fract_z
Si Si1 0.705766 0.572218 0.788269
Si Si2 0.301306 0.155426 0.407937
Si Si3 0.081702 0.995612 0.263334
Si Si4 0.211106 0.852911 0.047939
Si Si5 0.544405 0.659586 0.201974
O O1 0.719761 0.695730 0.709478
O O2 0.564996 0.646894 0.660234
O O3 0.836317 0.615506 0.039780
O O4 0.723826 0.333146 0.804796
O O5 0.152610 0.087253 0.261976
O O6 0.403428 0.269140 0.622999
O O7 0.392198 0.955856 0.501313
O O8 0.912964 0.037203 0.055609
O O9 0.134984 0.765952 0.355517
O O10 0.338453 0.997492 0.182262
#
# Coordination Sequence:
#
# PCOD9247096 Si02
#       5
#     4   4   4   4   4
#     4   9  23  41  66  93 128 170 214 260 320 385
#     4  11  22  42  66  95 126 170 217 259 322 382
#     4   9  20  40  62  89 128 165 207 264 314 369
#     4  10  21  44  62  90 134 168 207 270 322 367
#     4  11  23  43  64  94 134 165 210 273 317 375
#
# _framework density 23.852153999999999
#
# number of rings (size 3 to 8) (size 9 to 14) (size 15 to 20)
#    1.200    0.800    0.000    4.200    0.000    1.600 
#    7.200    2.000    0.000    0.000    0.000    0.000 
#    0.000    0.000    0.000    0.000    0.000    0.000 
#
# Total GULP energy -111870.352654 kJ/mol
# GULP energy per Si atom -5593.517633 kJ/mol
# Density = 2.379787 g / cm^3
# Si number density = 23.852154 Si / 1000 Ang^3
#
#
#
# Elastic Constant Matrix: (Units=GPa)
#
#
# Indices 1 2 3 4 5 6 
#
# 1 128.4980 42.3757 41.8429 0.0000 -6.7102 0.0000
# 2 42.3757 104.2878 27.3990 0.0000 -2.4682 0.0000
# 3 41.8429 27.3990 75.3173 0.0000 11.1852 0.0000
# 4 0.0000 0.0000 0.0000 36.1208 0.0000 -17.9196
# 5 -6.7102 -2.4682 11.1852 0.0000 41.2588 0.0000
# 6 0.0000 0.0000 0.0000 -17.9196 0.0000 37.6518
#
#
#
# Elastic Compliance Matrix: (Units=1/GPa)
#
#
# Indices 1 2 3 4 5 6 
#
# 1 0.010602 -0.002845 -0.005299 0.000000 0.002991 0.000000
# 2 -0.002845 0.011488 -0.002742 0.000000 0.000968 0.000000
# 3 -0.005299 -0.002742 0.018100 0.000000 -0.005933 0.000000
# 4 0.000000 0.000000 0.000000 0.036242 0.000000 0.017249
# 5 0.002991 0.000968 -0.005933 0.000000 0.026390 0.000000
# 6 0.000000 0.000000 0.000000 0.017249 0.000000 0.034768
#
#
# Mechanical properties :
#
#
# Convention : Reuss Voigt Hill
#
# Bulk Modulus (GPa) = 54.29775 59.03758 56.66766
# Shear Modulus (GPa) = 30.21088 36.10530 33.15809
#
# Velocity S-wave (km/s) = 3.56278 3.89487 3.73252
# Velocity P-wave (km/s) = 6.30383 6.71058 6.51038
#
# Compressibility (1/GPa) = 0.01841697
#
# Stress axis : x y z
#
# Youngs Moduli (GPa) = 94.31968 87.04519 55.24880
#
# Poissons Ratio (x) = 0.24764 0.29278
# Poissons Ratio (y) = 0.26834 0.15152
# Poissons Ratio (z) = 0.49983 0.23871
#
# Static dielectric constant tensor:
#      x y z
#    x 1.868610 0.000000 -0.042140 
#    y 0.000000 1.904650 0.000000 
#    z -0.042140 0.000000 1.966730 
# 
# From -- ./inp_files/49884.got.cif
#   From: 2010.05.17/outbox.cif.g08.bks.cpg/sg14_25_cif.got.tgz:49884.got - 2010.06.03 17:49:19.
