data_PCOD9247617
_publ_section_title
;
Structure prediction by ZEFSAII (Michael W. Deem and Ramdas Pophale) SiO2 
 PCOD9247617
Probable space group: P 21/C
;
_chemical_formula_sum "Si O2"
_cell_formula_units_Z 20
_cell_length_a 17.275863
_cell_length_b 5.245570
_cell_length_c 9.854500
_cell_angle_alpha 90.000000
_cell_angle_beta 61.111641
_cell_angle_gamma 90.000000
_cell_volume 781.905528
_symmetry_space_group_name_H-M "P 21/C"
_symmetry_group_IT_number 14
_symmetry_cell_setting 'monoclinic'
loop_
_space_group_symop_operation_xyz
x,y,z
-x,1/2+y,1/2-z
-x,-y,-z
x,1/2-y,1/2+z
loop_
_atom_site_type_symbol
_atom_site_label
_atom_site_fract_x
_atom_site_fract_y
_atom_site_fract_z
Si Si1 0.904068 0.362061 0.582289
Si Si2 0.575598 0.632021 0.847144
Si Si3 0.730120 0.034549 0.377261
Si Si4 0.637757 0.548641 0.520668
Si Si5 0.944079 0.468409 0.272098
O O1 0.830110 0.474729 0.743210
O O2 0.877128 0.385977 0.448388
O O3 0.913790 0.082939 0.643498
O O4 0.000000 0.500000 0.500000
O O5 0.668620 0.491028 0.796049
O O6 0.563643 0.597148 0.697751
O O7 0.500000 0.500000 0.000000
O O8 0.595983 0.899429 0.906125
O O9 0.690016 0.286156 0.478709
O O10 0.705220 0.784741 0.482874
O O11 0.980862 0.748778 0.268164
#
# Coordination Sequence:
#
# PCOD9247617 Si02
#       5
#     4   4   4   4   4
#     4  10  23  43  64  97 130 181 223 272 333 390
#     4  10  26  47  74  99 141 176 228 277 346 415
#     4  10  26  43  69  99 141 175 226 284 333 404
#     4  10  26  44  70 103 137 176 226 277 345 402
#     4  10  22  39  61  90 124 168 223 270 320 386
#
# _framework density 25.578537000000001
#
# number of rings (size 3 to 8) (size 9 to 14) (size 15 to 20)
#    1.200    0.800    0.000    0.600    8.400    7.200 
#    7.200    0.000    0.000    0.000    0.000    0.000 
#    0.000    0.000    0.000    0.000    0.000    0.000 
#
# Total GULP energy -111507.026057 kJ/mol
# GULP energy per Si atom -5575.351303 kJ/mol
# Density = 2.552032 g / cm^3
# Si number density = 25.578537 Si / 1000 Ang^3
#
#
#
# Elastic Constant Matrix: (Units=GPa)
#
#
# Indices 1 2 3 4 5 6 
#
# 1 50.6302 25.5531 16.1158 0.0000 -7.8320 0.0000
# 2 25.5531 120.5494 48.1643 0.0000 -3.0511 0.0000
# 3 16.1158 48.1643 169.1315 0.0000 5.5278 0.0000
# 4 0.0000 0.0000 0.0000 37.2080 0.0000 -2.7415
# 5 -7.8320 -3.0511 5.5278 0.0000 51.9509 0.0000
# 6 0.0000 0.0000 0.0000 -2.7415 0.0000 21.0930
#
#
#
# Elastic Compliance Matrix: (Units=1/GPa)
#
#
# Indices 1 2 3 4 5 6 
#
# 1 0.022777 -0.004327 -0.001046 0.000000 0.003291 0.000000
# 2 -0.004327 0.010219 -0.002505 0.000000 0.000214 0.000000
# 3 -0.001046 -0.002505 0.006759 0.000000 -0.001024 0.000000
# 4 0.000000 0.000000 0.000000 0.027136 0.000000 0.003527
# 5 0.003291 0.000214 -0.001024 0.000000 0.019867 0.000000
# 6 0.000000 0.000000 0.000000 0.003527 0.000000 0.047867
#
#
# Mechanical properties :
#
#
# Convention : Reuss Voigt Hill
#
# Bulk Modulus (GPa) = 41.66713 57.77530 49.72121
# Shear Modulus (GPa) = 31.56983 38.74889 35.15936
#
# Velocity S-wave (km/s) = 3.51697 3.89639 3.71153
# Velocity P-wave (km/s) = 5.72865 6.54820 6.15209
#
# Compressibility (1/GPa) = 0.02399973
#
# Stress axis : x y z
#
# Youngs Moduli (GPa) = 43.90434 97.85960 147.95206
#
# Poissons Ratio (x) = 0.42344 0.15471
# Poissons Ratio (y) = 0.18997 0.37058
# Poissons Ratio (z) = 0.04591 0.24511
#
# Static dielectric constant tensor:
#      x y z
#    x 2.166900 0.000000 0.072920 
#    y 0.000000 2.028270 0.000000 
#    z 0.072920 0.000000 2.053810 
# 
# From -- ./inp_files/34520.got.cif
#   From: 2010.05.17/outbox.cif.g08.bks.cpg/sg14_18_cif.got.tgz:34520.got - 2010.06.03 17:49:19.
