data_PCOD9248107
_publ_section_title
;
Structure prediction by ZEFSAII (Michael W. Deem and Ramdas Pophale) SiO2 
 PCOD9248107
Probable space group: P 21/C
;
_chemical_formula_sum "Si O2"
_cell_formula_units_Z 28
_cell_length_a 9.521255
_cell_length_b 9.649995
_cell_length_c 15.583964
_cell_angle_alpha 90.000000
_cell_angle_beta 118.573972
_cell_angle_gamma 90.000000
_cell_volume 1257.456075
_symmetry_space_group_name_H-M "P 21/C"
_symmetry_group_IT_number 14
_symmetry_cell_setting 'monoclinic'
loop_
_space_group_symop_operation_xyz
x,y,z
-x,1/2+y,1/2-z
-x,-y,-z
x,1/2-y,1/2+z
loop_
_atom_site_type_symbol
_atom_site_label
_atom_site_fract_x
_atom_site_fract_y
_atom_site_fract_z
Si Si1 0.884346 0.519652 0.547838
Si Si2 0.780174 0.069446 0.384453
Si Si3 0.885029 0.838155 0.549666
Si Si4 0.880124 0.582278 0.244063
Si Si5 0.260642 0.340516 0.249860
Si Si6 0.550730 0.069955 0.926896
Si Si7 0.571527 0.607312 0.259061
O O1 0.823736 0.679731 0.529993
O O2 0.739873 0.408744 0.497420
O O3 0.000000 0.500000 0.500000
O O4 0.982848 0.496880 0.664490
O O5 0.810415 0.951680 0.464114
O O6 0.786058 0.989870 0.294599
O O7 0.600692 0.124932 0.335374
O O8 0.928509 0.172588 0.425274
O O9 0.875352 0.907895 0.640855
O O10 0.889553 0.745159 0.273878
O O11 0.707430 0.542066 0.236172
O O12 0.396829 0.333374 0.362453
O O13 0.354111 0.258449 0.201281
O O14 0.553513 0.978510 0.840450
O O15 0.500000 0.000000 0.000000
#
# Coordination Sequence:
#
# PCOD9248107 Si02
#       7
#     4   4   4   4   4   4   4
#     4  12  24  43  66  97 129 171 215 267 320 384
#     4  10  22  41  65  87 128 171 212 259 327 376
#     4  11  25  39  65  96 129 169 213 266 323 384
#     4  10  23  41  64  94 132 158 214 268 317 380
#     4   9  21  43  62  88 128 165 209 260 318 380
#     4  11  22  38  67  92 125 167 218 253 319 384
#     4   9  21  40  61  88 125 171 202 270 307 380
#
# _framework density 22.26718
#
# number of rings (size 3 to 8) (size 9 to 14) (size 15 to 20)
#    0.857    0.857    1.429    2.571    8.000    0.571 
#    0.000    0.000    0.000    0.000    0.000    0.000 
#    0.000    0.000    0.000    0.000    0.000    0.000 
#
# Total GULP energy -155878.934096 kJ/mol
# GULP energy per Si atom -5567.104789 kJ/mol
# Density = 2.221650 g / cm^3
# Si number density = 22.267180 Si / 1000 Ang^3
#
#
#
# Elastic Constant Matrix: (Units=GPa)
#
#
# Indices 1 2 3 4 5 6 
#
# 1 65.4130 6.3863 29.8506 0.0000 -15.6494 0.0000
# 2 6.3863 34.6645 7.0108 0.0000 2.4991 0.0000
# 3 29.8506 7.0108 95.7423 0.0000 -10.2205 0.0000
# 4 0.0000 0.0000 0.0000 32.9900 0.0000 -0.5189
# 5 -15.6494 2.4991 -10.2205 0.0000 34.3746 0.0000
# 6 0.0000 0.0000 0.0000 -0.5189 0.0000 25.7827
#
#
#
# Elastic Compliance Matrix: (Units=1/GPa)
#
#
# Indices 1 2 3 4 5 6 
#
# 1 0.019774 -0.003166 -0.005110 0.000000 0.007713 0.000000
# 2 -0.003166 0.030063 -0.001654 0.000000 -0.004119 0.000000
# 3 -0.005110 -0.001654 0.012314 0.000000 0.001455 0.000000
# 4 0.000000 0.000000 0.000000 0.030322 0.000000 0.000610
# 5 0.007713 -0.004119 0.001455 0.000000 0.033335 0.000000
# 6 0.000000 0.000000 0.000000 0.000610 0.000000 0.038798
#
#
# Mechanical properties :
#
#
# Convention : Reuss Voigt Hill
#
# Bulk Modulus (GPa) = 23.64533 31.36834 27.50683
# Shear Modulus (GPa) = 25.18114 28.80093 26.99103
#
# Velocity S-wave (km/s) = 3.36648 3.60032 3.48536
# Velocity P-wave (km/s) = 5.07473 5.60365 5.34574
#
# Compressibility (1/GPa) = 0.04229166
#
# Stress axis : x y z
#
# Youngs Moduli (GPa) = 50.57244 33.26391 81.20613
#
# Poissons Ratio (x) = 0.10530 0.41495
# Poissons Ratio (y) = 0.16009 0.13432
# Poissons Ratio (z) = 0.25842 0.05502
#
# Static dielectric constant tensor:
#      x y z
#    x 1.871020 0.000000 0.019350 
#    y 0.000000 1.861730 0.000000 
#    z 0.019350 0.000000 1.848550 
# 
# From -- ./inp_files/40415.got.cif
#   From: 2010.05.17/outbox.cif.g08.bks.cpg/sg14_21_cif.got.tgz:40415.got - 2010.06.03 17:49:19.
