data_PCOD9248463
_publ_section_title
;
Structure prediction by ZEFSAII (Michael W. Deem and Ramdas Pophale) SiO2 
 PCOD9248463
Probable space group: P 21/C
;
_chemical_formula_sum "Si O2"
_cell_formula_units_Z 28
_cell_length_a 17.760286
_cell_length_b 5.747068
_cell_length_c 14.877833
_cell_angle_alpha 90.000000
_cell_angle_beta 126.709711
_cell_angle_gamma 90.000000
_cell_volume 1217.401842
_symmetry_space_group_name_H-M "P 21/C"
_symmetry_group_IT_number 14
_symmetry_cell_setting 'monoclinic'
loop_
_space_group_symop_operation_xyz
x,y,z
-x,1/2+y,1/2-z
-x,-y,-z
x,1/2-y,1/2+z
loop_
_atom_site_type_symbol
_atom_site_label
_atom_site_fract_x
_atom_site_fract_y
_atom_site_fract_z
Si Si1 0.376419 0.849092 0.569200
Si Si2 0.291099 0.350354 0.697495
Si Si3 0.531884 0.971102 0.185063
Si Si4 0.198963 0.075479 0.786048
Si Si5 0.360414 0.723646 0.868771
Si Si6 0.997885 0.094486 0.301348
Si Si7 0.202898 0.136507 0.470381
O O1 0.423690 0.595932 0.603640
O O2 0.390247 0.930226 0.475649
O O3 0.438577 0.962069 0.692926
O O4 0.270052 0.910903 0.518643
O O5 0.394474 0.236872 0.782711
O O6 0.219766 0.205590 0.708403
O O7 0.301680 0.600132 0.748385
O O8 0.253515 0.321324 0.570956
O O9 0.555843 0.156559 0.125363
O O10 0.198400 0.260801 0.866805
O O11 0.286888 0.903663 0.859763
O O12 0.100277 0.941549 0.717901
O O13 0.096498 0.091929 0.424279
O O14 0.994507 0.354235 0.253489
#
# Coordination Sequence:
#
# PCOD9248463 Si02
#       7
#     4   4   4   4   4   4   4
#     4  11  23  44  68  91 137 175 223 285 356 403
#     4  10  23  44  64 101 136 175 241 280 349 422
#     4  10  26  41  62 102 127 178 231 285 342 433
#     4  10  22  42  69  99 139 182 228 284 359 413
#     4  11  23  43  68  95 137 181 225 289 345 427
#     4  10  22  42  72 110 144 189 244 289 358 430
#     4  10  22  44  72 100 137 186 228 295 348 425
#
# _framework density 22.999803
#
# number of rings (size 3 to 8) (size 9 to 14) (size 15 to 20)
#    0.000    1.714    1.429    1.286    6.000    2.286 
#    7.714    0.714    0.000    0.000    0.000    0.000 
#    0.000    0.000    0.000    0.000    0.000    0.000 
#
# Total GULP energy -156312.061951 kJ/mol
# GULP energy per Si atom -5582.573641 kJ/mol
# Density = 2.294745 g / cm^3
# Si number density = 22.999803 Si / 1000 Ang^3
#
#
#
# Elastic Constant Matrix: (Units=GPa)
#
#
# Indices 1 2 3 4 5 6 
#
# 1 107.5993 32.7429 53.1542 0.0000 14.3550 0.0000
# 2 32.7429 52.0745 9.0596 0.0000 13.8030 0.0000
# 3 53.1542 9.0596 101.3586 0.0000 15.9191 0.0000
# 4 0.0000 0.0000 0.0000 15.8621 0.0000 4.5616
# 5 14.3550 13.8030 15.9191 0.0000 32.1068 0.0000
# 6 0.0000 0.0000 0.0000 4.5616 0.0000 34.8627
#
#
#
# Elastic Compliance Matrix: (Units=1/GPa)
#
#
# Indices 1 2 3 4 5 6 
#
# 1 0.015523 -0.008582 -0.007443 0.000000 0.000439 0.000000
# 2 -0.008582 0.026442 0.003600 0.000000 -0.009316 0.000000
# 3 -0.007443 0.003600 0.014280 0.000000 -0.005300 0.000000
# 4 0.000000 0.000000 0.000000 0.065508 0.000000 -0.008571
# 5 0.000439 -0.009316 -0.005300 0.000000 0.037583 0.000000
# 6 0.000000 0.000000 0.000000 -0.008571 0.000000 0.029806
#
#
# Mechanical properties :
#
#
# Convention : Reuss Voigt Hill
#
# Bulk Modulus (GPa) = 31.85078 50.10508 40.97793
# Shear Modulus (GPa) = 22.27602 27.63802 24.95702
#
# Velocity S-wave (km/s) = 3.11550 3.47026 3.29765
# Velocity P-wave (km/s) = 5.17882 6.15542 5.68812
#
# Compressibility (1/GPa) = 0.03139641
#
# Stress axis : x y z
#
# Youngs Moduli (GPa) = 64.41863 37.81798 70.02962
#
# Poissons Ratio (x) = 0.32456 0.52121
# Poissons Ratio (y) = 0.55286 -0.25213
# Poissons Ratio (z) = 0.47945 -0.13616
#
# Static dielectric constant tensor:
#      x y z
#    x 1.863510 0.000000 -0.025920 
#    y 0.000000 1.955450 0.000000 
#    z -0.025920 0.000000 1.864790 
# 
# From -- ./inp_files/48215.got.cif
#   From: 2010.05.17/outbox.cif.g08.bks.cpg/sg14_25_cif.got.tgz:48215.got - 2010.06.03 17:49:19.
