data_PCOD9248289
_publ_section_title
;
Structure prediction by ZEFSAII (Michael W. Deem and Ramdas Pophale) SiO2 
 PCOD9248289
Probable space group: P 21/C
;
_chemical_formula_sum "Si O2"
_cell_formula_units_Z 24
_cell_length_a 18.842441
_cell_length_b 6.061902
_cell_length_c 12.918374
_cell_angle_alpha 90.000000
_cell_angle_beta 133.783989
_cell_angle_gamma 90.000000
_cell_volume 1065.278653
_symmetry_space_group_name_H-M "P 21/C"
_symmetry_group_IT_number 14
_symmetry_cell_setting 'monoclinic'
loop_
_space_group_symop_operation_xyz
x,y,z
-x,1/2+y,1/2-z
-x,-y,-z
x,1/2-y,1/2+z
loop_
_atom_site_type_symbol
_atom_site_label
_atom_site_fract_x
_atom_site_fract_y
_atom_site_fract_z
Si Si1 0.604569 0.567960 0.479114
Si Si2 0.434276 0.801005 0.388967
Si Si3 0.910281 0.991136 0.187120
Si Si4 0.718032 0.213178 0.924867
Si Si5 0.764880 0.894370 0.608050
Si Si6 0.053022 0.629985 0.646319
O O1 0.501205 0.692890 0.365312
O O2 0.583999 0.379272 0.541419
O O3 0.654227 0.448061 0.433238
O O4 0.684450 0.755041 0.589338
O O5 0.328075 0.835232 0.232408
O O6 0.500000 0.000000 0.500000
O O7 0.945115 0.106325 0.329497
O O8 0.844547 0.777650 0.144142
O O9 0.832159 0.151481 0.051480
O O10 0.997531 0.945016 0.195937
O O11 0.712535 0.461635 0.965310
O O12 0.832819 0.060271 0.741030
O O13 0.000000 0.500000 0.500000
#
# Coordination Sequence:
#
# PCOD9248289 Si02
#       6
#     4   4   4   4   4   4
#     4  10  24  40  65  98 130 179 217 271 339 402
#     4  11  25  42  67 100 136 170 229 277 335 419
#     4  10  22  42  63  97 136 175 231 280 340 407
#     4  10  24  41  69  92 135 183 215 285 338 400
#     4  10  22  43  64  95 141 172 228 276 339 407
#     4  11  23  40  68  97 134 183 227 287 341 409
#
# _framework density 22.529318
#
# number of rings (size 3 to 8) (size 9 to 14) (size 15 to 20)
#    0.000    1.667    1.667    1.000    4.667   11.333 
#    0.000    0.000    0.000    0.000    0.000    0.000 
#    0.000    0.000    0.000    0.000    0.000    0.000 
#
# Total GULP energy -133840.874926 kJ/mol
# GULP energy per Si atom -5576.703122 kJ/mol
# Density = 2.247804 g / cm^3
# Si number density = 22.529318 Si / 1000 Ang^3
#
#
#
# Elastic Constant Matrix: (Units=GPa)
#
#
# Indices 1 2 3 4 5 6 
#
# 1 70.9123 23.3860 7.8126 0.0000 21.7136 0.0000
# 2 23.3860 91.0002 25.4848 0.0000 1.3131 0.0000
# 3 7.8126 25.4848 102.2579 0.0000 2.5996 0.0000
# 4 0.0000 0.0000 0.0000 31.5359 0.0000 14.8916
# 5 21.7136 1.3131 2.5996 0.0000 23.2429 0.0000
# 6 0.0000 0.0000 0.0000 14.8916 0.0000 49.1419
#
#
#
# Elastic Compliance Matrix: (Units=1/GPa)
#
#
# Indices 1 2 3 4 5 6 
#
# 1 0.022114 -0.005441 0.000184 0.000000 -0.020372 0.000000
# 2 -0.005441 0.013155 -0.002982 0.000000 0.004673 0.000000
# 3 0.000184 -0.002982 0.010538 0.000000 -0.001182 0.000000
# 4 0.000000 0.000000 0.000000 0.037005 0.000000 -0.011214
# 5 -0.020372 0.004673 -0.001182 0.000000 0.061924 0.000000
# 6 0.000000 0.000000 0.000000 -0.011214 0.000000 0.023747
#
#
# Mechanical properties :
#
#
# Convention : Reuss Voigt Hill
#
# Bulk Modulus (GPa) = 34.09355 41.94859 38.02107
# Shear Modulus (GPa) = 25.67574 34.61660 30.14617
#
# Velocity S-wave (km/s) = 3.37955 3.92409 3.66195
# Velocity P-wave (km/s) = 5.51310 6.26030 5.89854
#
# Compressibility (1/GPa) = 0.02933106
#
# Stress axis : x y z
#
# Youngs Moduli (GPa) = 45.22032 76.01823 94.89254
#
# Poissons Ratio (x) = 0.41359 -0.01749
# Poissons Ratio (y) = 0.24603 0.28293
# Poissons Ratio (z) = -0.00833 0.22665
#
# Static dielectric constant tensor:
#      x y z
#    x 1.823490 0.000000 -0.015130 
#    y 0.000000 1.983830 0.000000 
#    z -0.015130 0.000000 1.841670 
# 
# From -- ./inp_files/49733.got.cif
#   From: 2010.05.17/outbox.cif.g08.bks.cpg/sg14_25_cif.got.tgz:49733.got - 2010.06.03 17:49:19.
