data_PCOD9248456
_publ_section_title
;
Structure prediction by ZEFSAII (Michael W. Deem and Ramdas Pophale) SiO2 
 PCOD9248456
Probable space group: P 21/C
;
_chemical_formula_sum "Si O2"
_cell_formula_units_Z 30
_cell_length_a 4.885780
_cell_length_b 22.783737
_cell_length_c 11.612694
_cell_angle_alpha 90.000000
_cell_angle_beta 114.470743
_cell_angle_gamma 90.000000
_cell_volume 1176.564533
_symmetry_space_group_name_H-M "P 21/C"
_symmetry_group_IT_number 14
_symmetry_cell_setting 'monoclinic'
loop_
_space_group_symop_operation_xyz
x,y,z
-x,1/2+y,1/2-z
-x,-y,-z
x,1/2-y,1/2+z
loop_
_atom_site_type_symbol
_atom_site_label
_atom_site_fract_x
_atom_site_fract_y
_atom_site_fract_z
Si Si1 0.000000 0.500000 0.000000
Si Si2 0.563498 0.658402 0.262301
Si Si3 0.550496 0.160208 0.647774
Si Si4 0.559188 0.871397 0.025489
Si Si5 0.847661 0.718676 0.756959
Si Si6 0.814222 0.106534 0.470228
Si Si7 0.834998 0.068626 0.874843
Si Si8 0.300353 0.465144 0.802724
O O1 0.887849 0.571759 0.950185
O O2 0.892411 0.511033 0.126305
O O3 0.539990 0.653177 0.394372
O O4 0.720526 0.716824 0.246740
O O5 0.235712 0.647387 0.147136
O O6 0.740767 0.601866 0.242806
O O7 0.235131 0.186038 0.636033
O O8 0.615340 0.135304 0.533475
O O9 0.677459 0.112316 0.757200
O O10 0.798250 0.213176 0.702197
O O11 0.671122 0.818734 0.128990
O O12 0.266753 0.904026 0.022016
O O13 0.813131 0.921420 0.076244
O O14 0.650889 0.040697 0.410251
O O15 0.734656 0.005023 0.815844
#
# Coordination Sequence:
#
# PCOD9248456 Si02
#       8
#     2   4   4   4   4   4   4   4
#     4  12  22  40  72  98 154 170 234 296 358 420
#     4  10  26  46  64 105 141 180 240 287 362 410
#     4  10  22  42  70  99 130 182 235 286 348 414
#     4  10  24  45  68  96 137 186 233 286 336 430
#     4  10  24  45  70  97 136 186 234 292 345 417
#     4  10  25  40  66 109 132 182 221 302 344 417
#     4  10  22  42  69  96 134 185 233 273 355 409
#     4  10  25  39  65 104 140 182 225 295 348 426
#
# _framework density 25.497962000000001
#
# number of rings (size 3 to 8) (size 9 to 14) (size 15 to 20)
#    0.800    1.067    1.333    0.400    5.600    4.267 
#    4.800    0.000    0.000    0.000    0.000    0.000 
#    0.000    0.000    0.000    0.000    0.000    0.000 
#
# Total GULP energy -167504.103846 kJ/mol
# GULP energy per Si atom -5583.470128 kJ/mol
# Density = 2.543993 g / cm^3
# Si number density = 25.497962 Si / 1000 Ang^3
#
#
#
# Elastic Constant Matrix: (Units=GPa)
#
#
# Indices 1 2 3 4 5 6 
#
# 1 71.3521 -2.9415 12.6260 0.0000 -11.7199 0.0000
# 2 -2.9415 123.6666 20.1611 0.0000 -0.8355 0.0000
# 3 12.6260 20.1611 120.2643 0.0000 -9.3985 0.0000
# 4 0.0000 0.0000 0.0000 27.6583 0.0000 -3.2880
# 5 -11.7199 -0.8355 -9.3985 0.0000 21.8502 0.0000
# 6 0.0000 0.0000 0.0000 -3.2880 0.0000 17.0018
#
#
#
# Elastic Compliance Matrix: (Units=1/GPa)
#
#
# Indices 1 2 3 4 5 6 
#
# 1 0.015531 0.000605 -0.001117 0.000000 0.007873 0.000000
# 2 0.000605 0.008339 -0.001460 0.000000 0.000015 0.000000
# 3 -0.001117 -0.001460 0.008926 0.000000 0.003185 0.000000
# 4 0.000000 0.000000 0.000000 0.037006 0.000000 0.007157
# 5 0.007873 0.000015 0.003185 0.000000 0.051359 0.000000
# 6 0.000000 0.000000 0.000000 0.007157 0.000000 0.060201
#
#
# Mechanical properties :
#
#
# Convention : Reuss Voigt Hill
#
# Bulk Modulus (GPa) = 34.66078 41.66381 38.16229
# Shear Modulus (GPa) = 25.65103 32.33121 28.99112
#
# Velocity S-wave (km/s) = 3.17520 3.56475 3.37560
# Velocity P-wave (km/s) = 5.20246 5.77224 5.49474
#
# Compressibility (1/GPa) = 0.02885105
#
# Stress axis : x y z
#
# Youngs Moduli (GPa) = 64.38860 119.92134 112.03344
#
# Poissons Ratio (x) = -0.07251 0.12510
# Poissons Ratio (y) = -0.03893 0.16359
# Poissons Ratio (z) = 0.07190 0.17511
#
# Static dielectric constant tensor:
#      x y z
#    x 2.046810 0.000000 0.063310 
#    y 0.000000 2.071450 0.000000 
#    z 0.063310 0.000000 2.070020 
# 
# From -- ./inp_files/21580.got.cif
#   From: 2010.05.17/outbox.cif.g08.bks.cpg/sg14_11_cif.got.tgz:21580.got - 2010.06.03 17:49:19.
