data_PCOD9248317
_publ_section_title
;
Structure prediction by ZEFSAII (Michael W. Deem and Ramdas Pophale) SiO2 
 PCOD9248317
Probable space group: P 21/C
;
_chemical_formula_sum "Si O2"
_cell_formula_units_Z 28
_cell_length_a 14.286545
_cell_length_b 8.225811
_cell_length_c 11.487848
_cell_angle_alpha 90.000000
_cell_angle_beta 125.552254
_cell_angle_gamma 90.000000
_cell_volume 1098.367974
_symmetry_space_group_name_H-M "P 21/C"
_symmetry_group_IT_number 14
_symmetry_cell_setting 'monoclinic'
loop_
_space_group_symop_operation_xyz
x,y,z
-x,1/2+y,1/2-z
-x,-y,-z
x,1/2-y,1/2+z
loop_
_atom_site_type_symbol
_atom_site_label
_atom_site_fract_x
_atom_site_fract_y
_atom_site_fract_z
Si Si1 0.236960 0.444392 0.925272
Si Si2 0.796511 0.448393 0.855925
Si Si3 0.100816 0.149467 0.743368
Si Si4 0.455886 0.084662 0.855684
Si Si5 0.740914 0.415943 0.289806
Si Si6 0.500385 0.460854 0.848911
Si Si7 0.073175 0.140664 0.993409
O O1 0.206800 0.270077 0.850581
O O2 0.208025 0.570253 0.802713
O O3 0.165203 0.478951 0.990921
O O4 0.372744 0.465004 0.044428
O O5 0.864957 0.474856 0.784945
O O6 0.679332 0.549373 0.751178
O O7 0.768631 0.260473 0.858813
O O8 0.056274 0.223991 0.585202
O O9 0.045809 0.150978 0.834167
O O10 0.487649 0.273296 0.871295
O O11 0.519810 0.985732 0.801314
O O12 0.500000 0.000000 0.000000
O O13 0.604639 0.439000 0.173551
O O14 0.796524 0.564814 0.402877
O O15 0.000000 0.000000 0.000000
#
# Coordination Sequence:
#
# PCOD9248317 Si02
#       7
#     4   4   4   4   4   4   4
#     4  10  22  42  65 101 147 185 243 284 360 424
#     4  11  24  40  66 102 138 194 232 297 358 434
#     4  11  24  49  77 104 144 188 239 297 366 439
#     4  11  24  38  61  92 143 190 247 285 358 418
#     4  11  25  42  70 100 146 184 242 304 360 433
#     4  11  23  40  63 101 140 194 239 296 350 438
#     4  11  27  51  79 109 142 188 243 304 373 423
#
# _framework density 25.492367999999999
#
# number of rings (size 3 to 8) (size 9 to 14) (size 15 to 20)
#    0.000    1.143    1.429    4.714    6.000    4.571 
#    2.571    1.429    0.000    0.000    0.000    0.000 
#    0.000    0.000    0.000    0.000    0.000    0.000 
#
# Total GULP energy -156268.490488 kJ/mol
# GULP energy per Si atom -5581.017517 kJ/mol
# Density = 2.543435 g / cm^3
# Si number density = 25.492368 Si / 1000 Ang^3
#
#
#
# Elastic Constant Matrix: (Units=GPa)
#
#
# Indices 1 2 3 4 5 6 
#
# 1 122.8883 24.7674 60.1993 0.0000 -32.9881 0.0000
# 2 24.7674 92.1778 28.4146 0.0000 -15.1136 0.0000
# 3 60.1993 28.4146 119.9754 0.0000 -59.0510 0.0000
# 4 0.0000 0.0000 0.0000 -19.7868 0.0000 7.7055
# 5 -32.9881 -15.1136 -59.0510 0.0000 64.1910 0.0000
# 6 0.0000 0.0000 0.0000 7.7055 0.0000 30.9966
#
#
#
# Elastic Compliance Matrix: (Units=1/GPa)
#
#
# Indices 1 2 3 4 5 6 
#
# 1 0.010978 -0.001337 -0.004696 0.000000 0.001007 0.000000
# 2 -0.001337 0.011871 -0.002016 0.000000 0.000253 0.000000
# 3 -0.004696 -0.002016 0.017813 0.000000 0.013498 0.000000
# 4 0.000000 0.000000 0.000000 -0.046078 0.000000 0.011455
# 5 0.001007 0.000253 0.013498 0.000000 0.028573 0.000000
# 6 0.000000 0.000000 0.000000 0.011455 0.000000 0.029414
#
#
# Mechanical properties :
#
#
# Convention : Reuss Voigt Hill
#
# Bulk Modulus (GPa) = 40.71136 62.42265 51.56701
# Shear Modulus (GPa) = 65.05737 29.85753 47.45745
#
# Velocity S-wave (km/s) = 5.05725 3.42604 4.31935
# Velocity P-wave (km/s) = 7.07854 6.33958 6.71923
#
# Compressibility (1/GPa) = 0.02456317
#
# Stress axis : x y z
#
# Youngs Moduli (GPa) = 91.09459 84.24042 56.14021
#
# Poissons Ratio (x) = 0.11262 0.26364
# Poissons Ratio (y) = 0.12179 0.11317
# Poissons Ratio (z) = 0.42779 0.16982
#
# Static dielectric constant tensor:
#      x y z
#    x 2.794680 0.000000 0.044800 
#    y 0.000000 1.935470 0.000000 
#    z 0.044800 0.000000 2.022800 
# 
# From -- ./inp_files/31898.got.cif
#   From: 2010.05.17/outbox.cif.g08.bks.cpg/sg14_16_cif.got.tgz:31898.got - 2010.06.03 17:49:19.
