data_PCOD9248891
_publ_section_title
;
Structure prediction by ZEFSAII (Michael W. Deem and Ramdas Pophale) SiO2 
 PCOD9248891
Probable space group: P 21/C
;
_chemical_formula_sum "Si O2"
_cell_formula_units_Z 20
_cell_length_a 21.455190
_cell_length_b 7.589278
_cell_length_c 13.780802
_cell_angle_alpha 90.000000
_cell_angle_beta 19.033303
_cell_angle_gamma 90.000000
_cell_volume 731.781898
_symmetry_space_group_name_H-M "P 21/C"
_symmetry_group_IT_number 14
_symmetry_cell_setting 'monoclinic'
loop_
_space_group_symop_operation_xyz
x,y,z
-x,1/2+y,1/2-z
-x,-y,-z
x,1/2-y,1/2+z
loop_
_atom_site_type_symbol
_atom_site_label
_atom_site_fract_x
_atom_site_fract_y
_atom_site_fract_z
Si Si1 0.961033 0.624078 0.364327
Si Si2 0.753342 0.175852 0.288051
Si Si3 0.225354 0.423155 0.747012
Si Si4 0.640495 0.329329 0.172547
Si Si5 0.662764 0.907380 0.134048
O O1 0.927778 0.800763 0.475784
O O2 0.821128 0.637498 0.479462
O O3 0.111535 0.541194 0.466319
O O4 0.186156 0.613212 0.013597
O O5 0.828821 0.373721 0.182144
O O6 0.708559 0.113472 0.463856
O O7 0.545093 0.176713 0.543155
O O8 0.430213 0.402244 0.497909
O O9 0.268791 0.356287 0.574056
O O10 0.626898 0.117607 0.189845
#
# Coordination Sequence:
#
# PCOD9248891 Si02
#       5
#     4   4   4   4   4
#     4  12  24  46  70 103 140 182 233 279 342 413
#     4  10  22  44  70  95 135 184 224 281 342 404
#     4  10  24  47  71  98 142 186 221 284 353 395
#     4  10  23  45  67 103 139 180 228 285 341 404
#     4  10  23  45  67 101 144 173 231 290 329 412
#
# _framework density 27.330545999999998
#
# number of rings (size 3 to 8) (size 9 to 14) (size 15 to 20)
#    0.000    1.600    2.000    1.200    2.800    5.600 
#   10.800    0.000    0.000    0.000    0.000    0.000 
#    0.000    0.000    0.000    0.000    0.000    0.000 
#
# Total GULP energy -112524.414270 kJ/mol
# GULP energy per Si atom -5626.220714 kJ/mol
# Density = 2.726834 g / cm^3
# Si number density = 27.330546 Si / 1000 Ang^3
#
#
#
# Elastic Constant Matrix: (Units=GPa)
#
#
# Indices 1 2 3 4 5 6 
#
# 1 96.9400 18.4673 30.4082 0.0000 -10.0593 0.0000
# 2 18.4673 126.3655 43.4453 0.0000 2.9567 0.0000
# 3 30.4082 43.4453 171.7001 0.0000 -18.4072 0.0000
# 4 0.0000 0.0000 0.0000 40.3448 0.0000 4.3620
# 5 -10.0593 2.9567 -18.4072 0.0000 51.6795 0.0000
# 6 0.0000 0.0000 0.0000 4.3620 0.0000 32.0123
#
#
#
# Elastic Compliance Matrix: (Units=1/GPa)
#
#
# Indices 1 2 3 4 5 6 
#
# 1 0.011185 -0.001157 -0.001505 0.000000 0.001707 0.000000
# 2 -0.001157 0.008876 -0.002204 0.000000 -0.001518 0.000000
# 3 -0.001505 -0.002204 0.006894 0.000000 0.002288 0.000000
# 4 0.000000 0.000000 0.000000 0.025157 0.000000 -0.003428
# 5 0.001707 -0.001518 0.002288 0.000000 0.020584 0.000000
# 6 0.000000 0.000000 0.000000 -0.003428 0.000000 0.031705
#
#
# Mechanical properties :
#
#
# Convention : Reuss Voigt Hill
#
# Bulk Modulus (GPa) = 58.06191 64.40523 61.23357
# Shear Modulus (GPa) = 41.71049 44.98631 43.34840
#
# Velocity S-wave (km/s) = 3.91083 4.06150 3.98688
# Velocity P-wave (km/s) = 6.45626 6.75358 6.60659
#
# Compressibility (1/GPa) = 0.01722299
#
# Stress axis : x y z
#
# Youngs Moduli (GPa) = 89.40236 112.66592 145.06228
#
# Poissons Ratio (x) = 0.13037 0.21834
# Poissons Ratio (y) = 0.10345 0.31967
# Poissons Ratio (z) = 0.13456 0.24828
#
# Static dielectric constant tensor:
#      x y z
#    x 2.173250 0.000000 -0.004330 
#    y 0.000000 2.059070 0.000000 
#    z -0.004330 0.000000 2.047210 
# 
# From -- ./inp_files/50008.got.cif
#   From: 2010.05.17/outbox.cif.g08.bks.cpg/sg14_26_cif.got.tgz:50008.got - 2010.06.03 17:49:19.
