data_PCOD9248970
_publ_section_title
;
Structure prediction by ZEFSAII (Michael W. Deem and Ramdas Pophale) SiO2 
 PCOD9248970
Probable space group: P 21/C
;
_chemical_formula_sum "Si O2"
_cell_formula_units_Z 28
_cell_length_a 12.470178
_cell_length_b 9.177436
_cell_length_c 9.644333
_cell_angle_alpha 90.000000
_cell_angle_beta 114.482554
_cell_angle_gamma 90.000000
_cell_volume 1004.498664
_symmetry_space_group_name_H-M "P 21/C"
_symmetry_group_IT_number 14
_symmetry_cell_setting 'monoclinic'
loop_
_space_group_symop_operation_xyz
x,y,z
-x,1/2+y,1/2-z
-x,-y,-z
x,1/2-y,1/2+z
loop_
_atom_site_type_symbol
_atom_site_label
_atom_site_fract_x
_atom_site_fract_y
_atom_site_fract_z
Si Si1 0.344269 0.225231 0.590221
Si Si2 0.846012 0.203116 0.493041
Si Si3 0.075376 0.499775 0.738708
Si Si4 0.368083 0.568066 0.237609
Si Si5 0.288222 0.517640 0.680835
Si Si6 0.447138 0.800434 0.482181
Si Si7 0.933616 0.741930 0.059616
O O1 0.388154 0.103175 0.723518
O O2 0.358093 0.394976 0.634734
O O3 0.416129 0.188624 0.489652
O O4 0.204163 0.209870 0.507840
O O5 0.778943 0.143669 0.942441
O O6 0.982782 0.211584 0.525757
O O7 0.152847 0.878325 0.361339
O O8 0.771963 0.099922 0.349673
O O9 0.971489 0.595598 0.620400
O O10 0.177037 0.437074 0.694386
O O11 0.022230 0.377056 0.805674
O O12 0.410410 0.641672 0.402267
O O13 0.415674 0.652780 0.122105
O O14 0.375386 0.595975 0.835801
#
# Coordination Sequence:
#
# PCOD9248970 Si02
#       7
#     4   4   4   4   4   4   4
#     4  12  25  44  71 112 147 190 252 319 363 457
#     4  10  22  45  66  95 146 190 239 303 374 443
#     4  11  23  44  69 102 144 195 244 310 369 452
#     4  11  24  48  79 104 148 201 253 309 377 447
#     4  10  24  43  72 104 145 196 247 309 381 438
#     4  11  24  50  76 108 152 201 247 310 382 441
#     4  11  26  39  69 105 143 191 247 303 381 440
#
# _framework density 27.874600999999998
#
# number of rings (size 3 to 8) (size 9 to 14) (size 15 to 20)
#    0.000    1.143    2.857    1.714    4.000    2.286 
#    0.000   12.143    0.000    0.000    0.000    0.000 
#    0.000    0.000    0.000    0.000    0.000    0.000 
#
# Total GULP energy -156888.476396 kJ/mol
# GULP energy per Si atom -5603.159871 kJ/mol
# Density = 2.781116 g / cm^3
# Si number density = 27.874601 Si / 1000 Ang^3
#
#
#
# Elastic Constant Matrix: (Units=GPa)
#
#
# Indices 1 2 3 4 5 6 
#
# 1 186.4168 41.0669 49.9016 0.0000 22.7183 0.0000
# 2 41.0669 120.1216 20.8968 0.0000 -9.9243 0.0000
# 3 49.9016 20.8968 91.4623 0.0000 13.2902 0.0000
# 4 0.0000 0.0000 0.0000 53.5405 0.0000 -7.5836
# 5 22.7183 -9.9243 13.2902 0.0000 45.8892 0.0000
# 6 0.0000 0.0000 0.0000 -7.5836 0.0000 47.4045
#
#
#
# Elastic Compliance Matrix: (Units=1/GPa)
#
#
# Indices 1 2 3 4 5 6 
#
# 1 0.006981 -0.002142 -0.002871 0.000000 -0.003088 0.000000
# 2 -0.002142 0.009624 -0.001552 0.000000 0.003591 0.000000
# 3 -0.002871 -0.001552 0.013254 0.000000 -0.002753 0.000000
# 4 0.000000 0.000000 0.000000 0.019110 0.000000 0.003057
# 5 -0.003088 0.003591 -0.002753 0.000000 0.024894 0.000000
# 6 0.000000 0.000000 0.000000 0.003057 0.000000 0.021584
#
#
# Mechanical properties :
#
#
# Convention : Reuss Voigt Hill
#
# Bulk Modulus (GPa) = 59.77421 69.08125 64.42773
# Shear Modulus (GPa) = 43.80021 48.44254 46.12138
#
# Velocity S-wave (km/s) = 3.96830 4.17330 4.07209
# Velocity P-wave (km/s) = 6.51821 6.93243 6.72851
#
# Compressibility (1/GPa) = 0.01672962
#
# Stress axis : x y z
#
# Youngs Moduli (GPa) = 143.24468 103.90670 75.44739
#
# Poissons Ratio (x) = 0.22261 0.21658
# Poissons Ratio (y) = 0.30689 0.11708
# Poissons Ratio (z) = 0.41120 0.16124
#
# Static dielectric constant tensor:
#      x y z
#    x 2.113110 0.000000 0.032250 
#    y 0.000000 2.162460 0.000000 
#    z 0.032250 0.000000 2.245170 
# 
# From -- ./inp_files/58793.got.cif
#   From: 2010.05.17/outbox.cif.g08.bks.cpg/sg14_30_cif.got.tgz:58793.got - 2010.06.03 17:49:19.
