data_PCOD9248044
_publ_section_title
;
Structure prediction by ZEFSAII (Michael W. Deem and Ramdas Pophale) SiO2 
 PCOD9248044
Probable space group: P 21/C
;
_chemical_formula_sum "Si O2"
_cell_formula_units_Z 28
_cell_length_a 27.644633
_cell_length_b 8.535209
_cell_length_c 12.016521
_cell_angle_alpha 90.000000
_cell_angle_beta 151.111602
_cell_angle_gamma 90.000000
_cell_volume 1369.762773
_symmetry_space_group_name_H-M "P 21/C"
_symmetry_group_IT_number 14
_symmetry_cell_setting 'monoclinic'
loop_
_space_group_symop_operation_xyz
x,y,z
-x,1/2+y,1/2-z
-x,-y,-z
x,1/2-y,1/2+z
loop_
_atom_site_type_symbol
_atom_site_label
_atom_site_fract_x
_atom_site_fract_y
_atom_site_fract_z
Si Si1 0.215019 0.960663 0.679761
Si Si2 0.399466 0.108243 0.479262
Si Si3 0.410512 0.496678 0.229385
Si Si4 0.113064 0.033985 0.692086
Si Si5 0.394491 0.852537 0.189479
Si Si6 0.735310 0.154940 0.856958
Si Si7 0.251388 0.323602 0.048880
O O1 0.226189 0.797087 0.638207
O O2 0.127993 0.991549 0.592776
O O3 0.207426 0.086315 0.566437
O O4 0.314419 0.954896 0.958563
O O5 0.431316 0.127203 0.671851
O O6 0.499845 0.065285 0.616194
O O7 0.346888 0.237026 0.296729
O O8 0.310205 0.983021 0.308108
O O9 0.500000 0.500000 0.500000
O O10 0.409054 0.673523 0.177247
O O11 0.304704 0.444476 0.071196
O O12 0.170801 0.200832 0.834416
O O13 0.000000 0.000000 0.500000
O O14 0.175576 0.910746 0.890032
O O15 0.352193 0.819897 0.227733
#
# Coordination Sequence:
#
# PCOD9248044 Si02
#       7
#     4   4   4   4   4   4   4
#     4  11  22  41  67  92 126 174 214 273 344 393
#     4  11  23  36  58  91 131 178 214 265 319 382
#     4  12  22  37  58  94 134 176 226 265 314 396
#     4  10  25  46  66  97 129 159 222 285 342 410
#     4  11  22  36  60  91 132 174 221 269 311 394
#     4  10  22  41  63  88 126 170 217 268 332 392
#     4  11  23  42  65  93 130 175 221 272 331 403
#
# _framework density 20.441493999999999
#
# number of rings (size 3 to 8) (size 9 to 14) (size 15 to 20)
#    0.000    1.143    4.286    2.143    0.000    1.143 
#    0.000    0.714    0.000    0.000    0.000    0.000 
#    0.000    0.000    0.000    0.000    0.000    0.000 
#
# Total GULP energy -156006.437478 kJ/mol
# GULP energy per Si atom -5571.658481 kJ/mol
# Density = 2.039497 g / cm^3
# Si number density = 20.441494 Si / 1000 Ang^3
#
#
#
# Elastic Constant Matrix: (Units=GPa)
#
#
# Indices 1 2 3 4 5 6 
#
# 1 157.3380 33.3018 57.3100 0.0000 14.8951 0.0000
# 2 33.3018 42.5169 17.5244 0.0000 5.6348 0.0000
# 3 57.3100 17.5244 50.7100 0.0000 16.1346 0.0000
# 4 0.0000 0.0000 0.0000 20.7200 0.0000 -6.0334
# 5 14.8951 5.6348 16.1346 0.0000 37.0017 0.0000
# 6 0.0000 0.0000 0.0000 -6.0334 0.0000 21.2597
#
#
#
# Elastic Compliance Matrix: (Units=1/GPa)
#
#
# Indices 1 2 3 4 5 6 
#
# 1 0.011465 -0.004246 -0.011875 0.000000 0.001209 0.000000
# 2 -0.004246 0.028999 -0.005064 0.000000 -0.000499 0.000000
# 3 -0.011875 -0.005064 0.038460 0.000000 -0.011219 0.000000
# 4 0.000000 0.000000 0.000000 0.052610 0.000000 0.014931
# 5 0.001209 -0.000499 -0.011219 0.000000 0.031507 0.000000
# 6 0.000000 0.000000 0.000000 0.014931 0.000000 0.051275
#
#
# Mechanical properties :
#
#
# Convention : Reuss Voigt Hill
#
# Bulk Modulus (GPa) = 27.35659 51.87080 39.61369
# Shear Modulus (GPa) = 18.59618 25.29153 21.94385
#
# Velocity S-wave (km/s) = 3.01944 3.52129 3.27998
# Velocity P-wave (km/s) = 5.05648 6.47789 5.81081
#
# Compressibility (1/GPa) = 0.03655427
#
# Stress axis : x y z
#
# Youngs Moduli (GPa) = 87.21842 34.48358 26.00074
#
# Poissons Ratio (x) = 0.14642 0.30876
# Poissons Ratio (y) = 0.37034 0.13167
# Poissons Ratio (z) = 1.03573 0.17463
#
# Static dielectric constant tensor:
#      x y z
#    x 1.850000 0.000000 -0.061590 
#    y 0.000000 1.998310 0.000000 
#    z -0.061590 0.000000 1.769220 
# 
# From -- ./inp_files/31682.got.cif
#   From: 2010.05.17/outbox.cif.g08.bks.cpg/sg14_16_cif.got.tgz:31682.got - 2010.06.03 17:49:19.
