data_PCOD9248321
_publ_section_title
;
Structure prediction by ZEFSAII (Michael W. Deem and Ramdas Pophale) SiO2 
 PCOD9248321
Probable space group: P 21/C
;
_chemical_formula_sum "Si O2"
_cell_formula_units_Z 28
_cell_length_a 8.168879
_cell_length_b 11.518253
_cell_length_c 22.495542
_cell_angle_alpha 90.000000
_cell_angle_beta 141.504661
_cell_angle_gamma 90.000000
_cell_volume 1317.500188
_symmetry_space_group_name_H-M "P 21/C"
_symmetry_group_IT_number 14
_symmetry_cell_setting 'monoclinic'
loop_
_space_group_symop_operation_xyz
x,y,z
-x,1/2+y,1/2-z
-x,-y,-z
x,1/2-y,1/2+z
loop_
_atom_site_type_symbol
_atom_site_label
_atom_site_fract_x
_atom_site_fract_y
_atom_site_fract_z
Si Si1 0.549009 0.225424 0.787986
Si Si2 0.201448 0.491123 0.610669
Si Si3 0.663516 0.750229 0.887457
Si Si4 0.024732 0.357600 0.673925
Si Si5 0.295926 0.068038 0.368238
Si Si6 0.162852 0.618083 0.047304
Si Si7 0.548022 0.315657 0.046181
O O1 0.525500 0.187503 0.712730
O O2 0.263879 0.268020 0.728547
O O3 0.744684 0.328797 0.863413
O O4 0.643011 0.109754 0.845641
O O5 0.379277 0.382122 0.643547
O O6 0.066391 0.456904 0.635326
O O7 0.000000 0.500000 0.500000
O O8 0.598711 0.721731 0.935798
O O9 0.965608 0.712505 0.962846
O O10 0.076549 0.404885 0.755865
O O11 0.754956 0.286171 0.590423
O O12 0.573441 0.090109 0.413381
O O13 0.332648 0.154305 0.434594
O O14 0.299520 0.936773 0.394982
O O15 0.000000 0.500000 0.000000
#
# Coordination Sequence:
#
# PCOD9248321 Si02
#       7
#     4   4   4   4   4   4   4
#     4  10  23  40  67  91 126 166 216 269 316 368
#     4  11  22  42  65  92 125 163 216 267 311 365
#     4  11  23  39  64  98 126 166 213 262 317 379
#     4  10  24  42  64  93 131 168 210 267 320 384
#     4  10  22  42  65  89 130 171 208 264 316 376
#     4  11  21  40  68  95 118 162 224 270 305 367
#     4  11  23  41  61  95 133 168 208 252 326 392
#
# _framework density 21.252369999999999
#
# number of rings (size 3 to 8) (size 9 to 14) (size 15 to 20)
#    0.000    1.429    2.857    2.571    6.000    2.286 
#    2.571    0.714    0.000    0.000    0.000    0.000 
#    0.000    0.000    0.000    0.000    0.000    0.000 
#
# Total GULP energy -156243.670984 kJ/mol
# GULP energy per Si atom -5580.131107 kJ/mol
# Density = 2.120400 g / cm^3
# Si number density = 21.252370 Si / 1000 Ang^3
#
#
#
# Elastic Constant Matrix: (Units=GPa)
#
#
# Indices 1 2 3 4 5 6 
#
# 1 19.4314 -6.9240 5.4942 0.0000 -10.3881 0.0000
# 2 -6.9240 41.5507 1.6227 0.0000 4.2225 0.0000
# 3 5.4942 1.6227 105.7623 0.0000 -25.7796 0.0000
# 4 0.0000 0.0000 0.0000 39.7564 0.0000 -3.0553
# 5 -10.3881 4.2225 -25.7796 0.0000 35.5432 0.0000
# 6 0.0000 0.0000 0.0000 -3.0553 0.0000 19.6507
#
#
#
# Elastic Compliance Matrix: (Units=1/GPa)
#
#
# Indices 1 2 3 4 5 6 
#
# 1 0.064167 0.008777 0.001031 0.000000 0.018459 0.000000
# 2 0.008777 0.025712 -0.001178 0.000000 -0.001344 0.000000
# 3 0.001031 -0.001178 0.011573 0.000000 0.008836 0.000000
# 4 0.000000 0.000000 0.000000 0.025457 0.000000 0.003958
# 5 0.018459 -0.001344 0.008836 0.000000 0.040098 0.000000
# 6 0.000000 0.000000 0.000000 0.003958 0.000000 0.051504
#
#
# Mechanical properties :
#
#
# Convention : Reuss Voigt Hill
#
# Bulk Modulus (GPa) = 8.42370 18.57003 13.49686
# Shear Modulus (GPa) = 20.76215 30.09350 25.42783
#
# Velocity S-wave (km/s) = 3.12898 3.76707 3.46276
# Velocity P-wave (km/s) = 4.12629 5.26098 4.72780
#
# Compressibility (1/GPa) = 0.11871271
#
# Stress axis : x y z
#
# Youngs Moduli (GPa) = 15.58428 38.89222 86.40557
#
# Poissons Ratio (x) = -0.34134 -0.08912
# Poissons Ratio (y) = -0.13678 0.10179
# Poissons Ratio (z) = -0.01607 0.04582
#
# Static dielectric constant tensor:
#      x y z
#    x 1.784310 0.000000 -0.066740 
#    y 0.000000 1.671620 0.000000 
#    z -0.066740 0.000000 1.907680 
# 
# From -- ./inp_files/65537.got.cif
#   From: 2010.05.17/outbox.cif.g08.bks.cpg/sg14_33_cif.got.tgz:65537.got - 2010.06.03 17:49:19.
