data_PCOD9248833
_publ_section_title
;
Structure prediction by ZEFSAII (Michael W. Deem and Ramdas Pophale) SiO2 
 PCOD9248833
Probable space group: P 21/C
;
_chemical_formula_sum "Si O2"
_cell_formula_units_Z 30
_cell_length_a 4.763456
_cell_length_b 25.866314
_cell_length_c 8.842347
_cell_angle_alpha 90.000000
_cell_angle_beta 80.803119
_cell_angle_gamma 90.000000
_cell_volume 1075.487068
_symmetry_space_group_name_H-M "P 21/C"
_symmetry_group_IT_number 14
_symmetry_cell_setting 'monoclinic'
loop_
_space_group_symop_operation_xyz
x,y,z
-x,1/2+y,1/2-z
-x,-y,-z
x,1/2-y,1/2+z
loop_
_atom_site_type_symbol
_atom_site_label
_atom_site_fract_x
_atom_site_fract_y
_atom_site_fract_z
Si Si1 0.390008 0.187420 0.238658
Si Si2 0.500000 0.500000 0.000000
Si Si3 0.036225 0.819903 0.375615
Si Si4 0.861047 0.128076 0.333210
Si Si5 0.220095 0.934580 0.087879
Si Si6 0.680969 0.953500 0.803141
Si Si7 0.335990 0.401268 0.217682
Si Si8 0.692674 0.266038 0.432881
O O1 0.058977 0.175085 0.254456
O O2 0.478699 0.231227 0.350545
O O3 0.548117 0.138095 0.298912
O O4 0.514137 0.200352 0.065986
O O5 0.552638 0.524424 0.160108
O O6 0.341883 0.447700 0.095249
O O7 0.136159 0.864603 0.486686
O O8 0.734338 0.845583 0.351552
O O9 0.152085 0.800994 0.204097
O O10 0.108869 0.769985 0.475838
O O11 0.039322 0.079450 0.262398
O O12 0.377884 0.906507 0.212873
O O13 0.905436 0.912038 0.132300
O O14 0.206509 0.995620 0.119904
O O15 0.432765 0.929758 0.929163
#
# Coordination Sequence:
#
# PCOD9248833 Si02
#       8
#     4   2   4   4   4   4   4   4
#     4  10  24  42  67  97 131 175 223 281 346 406
#     4  10  22  44  70 100 144 174 226 282 336 402
#     4  10  22  44  68 103 136 181 233 286 352 415
#     4  11  24  42  68 101 133 180 226 282 339 415
#     4  10  26  43  70  99 142 182 228 280 342 415
#     4  10  23  45  66 103 139 182 228 283 341 406
#     4  11  24  45  69 105 136 187 228 285 345 420
#     4   9  22  45  69  97 137 177 228 291 346 415
#
# _framework density 27.894337
#
# number of rings (size 3 to 8) (size 9 to 14) (size 15 to 20)
#    0.000    1.867    1.333    0.000    3.733   15.467 
#    0.000    6.667    0.000    0.000    0.000    0.000 
#    0.000    0.000    0.000    0.000    0.000    0.000 
#
# Total GULP energy -167589.605208 kJ/mol
# GULP energy per Si atom -5586.320174 kJ/mol
# Density = 2.783085 g / cm^3
# Si number density = 27.894337 Si / 1000 Ang^3
#
#
#
# Elastic Constant Matrix: (Units=GPa)
#
#
# Indices 1 2 3 4 5 6 
#
# 1 82.4341 12.4429 27.3531 0.0000 -15.2908 0.0000
# 2 12.4429 101.6899 39.9693 0.0000 -5.8563 0.0000
# 3 27.3531 39.9693 215.1990 0.0000 3.2193 0.0000
# 4 0.0000 0.0000 0.0000 57.4076 0.0000 -3.3666
# 5 -15.2908 -5.8563 3.2193 0.0000 26.3564 0.0000
# 6 0.0000 0.0000 0.0000 -3.3666 0.0000 34.0894
#
#
#
# Elastic Compliance Matrix: (Units=1/GPa)
#
#
# Indices 1 2 3 4 5 6 
#
# 1 0.014398 -0.000545 -0.001855 0.000000 0.008458 0.000000
# 2 -0.000545 0.010810 -0.001973 0.000000 0.002327 0.000000
# 3 -0.001855 -0.001973 0.005281 0.000000 -0.002160 0.000000
# 4 0.000000 0.000000 0.000000 0.017521 0.000000 0.001730
# 5 0.008458 0.002327 -0.002160 0.000000 0.043629 0.000000
# 6 0.000000 0.000000 0.000000 0.001730 0.000000 0.029506
#
#
# Mechanical properties :
#
#
# Convention : Reuss Voigt Hill
#
# Bulk Modulus (GPa) = 45.99489 62.09484 54.04487
# Shear Modulus (GPa) = 36.45901 44.87452 40.66677
#
# Velocity S-wave (km/s) = 3.61922 4.01525 3.82237
# Velocity P-wave (km/s) = 5.83008 6.61856 6.23679
#
# Compressibility (1/GPa) = 0.02174154
#
# Stress axis : x y z
#
# Youngs Moduli (GPa) = 69.45496 92.50580 189.34047
#
# Poissons Ratio (x) = 0.05045 0.35128
# Poissons Ratio (y) = 0.03788 0.37362
# Poissons Ratio (z) = 0.12886 0.18254
#
# Static dielectric constant tensor:
#      x y z
#    x 2.147790 0.000000 -0.038640 
#    y 0.000000 2.315730 0.000000 
#    z -0.038640 0.000000 2.069060 
# 
# From -- ./inp_files/6787.got.cif
#   From: 2010.05.17/outbox.cif.g08.bks.cpg/sg14_4_cif.got.tgz:6787.got - 2010.06.03 17:49:19.
