data_PCOD9248500
_publ_section_title
;
Structure prediction by ZEFSAII (Michael W. Deem and Ramdas Pophale) SiO2 
 PCOD9248500
Probable space group: P 21/C
;
_chemical_formula_sum "Si O2"
_cell_formula_units_Z 24
_cell_length_a 7.553040
_cell_length_b 13.535949
_cell_length_c 9.475389
_cell_angle_alpha 90.000000
_cell_angle_beta 111.546985
_cell_angle_gamma 90.000000
_cell_volume 901.041903
_symmetry_space_group_name_H-M "P 21/C"
_symmetry_group_IT_number 14
_symmetry_cell_setting 'monoclinic'
loop_
_space_group_symop_operation_xyz
x,y,z
-x,1/2+y,1/2-z
-x,-y,-z
x,1/2-y,1/2+z
loop_
_atom_site_type_symbol
_atom_site_label
_atom_site_fract_x
_atom_site_fract_y
_atom_site_fract_z
Si Si1 0.378567 0.976103 0.132832
Si Si2 0.157898 0.869583 0.298953
Si Si3 0.295872 0.189660 0.170838
Si Si4 0.189895 0.490498 0.183213
Si Si5 0.297714 0.764245 0.092690
Si Si6 0.112611 0.145666 0.418909
O O1 0.297336 0.085311 0.088626
O O2 0.324492 0.875388 0.035642
O O3 0.304702 0.945545 0.268715
O O4 0.603427 0.985120 0.192521
O O5 0.242260 0.810888 0.455139
O O6 0.960504 0.920564 0.280163
O O7 0.142004 0.790366 0.167249
O O8 0.507427 0.229023 0.274096
O O9 0.190665 0.170901 0.288064
O O10 0.097830 0.598183 0.156891
O O11 0.204601 0.451098 0.026850
O O12 0.810395 0.728605 0.951404
#
# Coordination Sequence:
#
# PCOD9248500 Si02
#       6
#     4   4   4   4   4   4
#     4  10  24  47  76 105 151 202 244 316 375 451
#     4  10  23  46  72 109 150 193 256 309 374 452
#     4  12  23  48  74 109 151 198 251 308 383 446
#     4  11  23  48  76 113 139 207 258 295 378 463
#     4  10  22  42  71 107 142 204 241 305 377 444
#     4  11  25  43  76 110 146 194 246 316 363 452
#
# _framework density 26.635831
#
# number of rings (size 3 to 8) (size 9 to 14) (size 15 to 20)
#    1.000    0.333    3.333    2.000    4.667    2.667 
#    3.000    5.000    0.000    5.000    4.333    0.000 
#    0.000    0.000    0.000    0.000    0.000    0.000 
#
# Total GULP energy -134415.820827 kJ/mol
# GULP energy per Si atom -5600.659201 kJ/mol
# Density = 2.657521 g / cm^3
# Si number density = 26.635831 Si / 1000 Ang^3
#
#
#
# Elastic Constant Matrix: (Units=GPa)
#
#
# Indices 1 2 3 4 5 6 
#
# 1 142.6055 65.7149 66.6109 0.0000 -4.0166 0.0000
# 2 65.7149 225.4371 53.9517 0.0000 -0.0751 0.0000
# 3 66.6109 53.9517 125.8730 0.0000 -5.1054 0.0000
# 4 0.0000 0.0000 0.0000 51.0401 0.0000 -3.9995
# 5 -4.0166 -0.0751 -5.1054 0.0000 38.8646 0.0000
# 6 0.0000 0.0000 0.0000 -3.9995 0.0000 54.9010
#
#
#
# Elastic Compliance Matrix: (Units=1/GPa)
#
#
# Indices 1 2 3 4 5 6 
#
# 1 0.009955 -0.001833 -0.004464 0.000000 0.000439 0.000000
# 2 -0.001833 0.005283 -0.001309 0.000000 -0.000351 0.000000
# 3 -0.004464 -0.001309 0.010907 0.000000 0.000969 0.000000
# 4 0.000000 0.000000 0.000000 0.019705 0.000000 0.001435
# 5 0.000439 -0.000351 0.000969 0.000000 0.025902 0.000000
# 6 0.000000 0.000000 0.000000 0.001435 0.000000 0.018319
#
#
# Mechanical properties :
#
#
# Convention : Reuss Voigt Hill
#
# Bulk Modulus (GPa) = 91.46839 96.27451 93.87145
# Shear Modulus (GPa) = 45.90158 49.47034 47.68596
#
# Velocity S-wave (km/s) = 4.15577 4.31430 4.23578
# Velocity P-wave (km/s) = 7.57906 7.81286 7.69685
#
# Compressibility (1/GPa) = 0.01093274
#
# Stress axis : x y z
#
# Youngs Moduli (GPa) = 100.45359 189.27624 91.68199
#
# Poissons Ratio (x) = 0.34699 0.40931
# Poissons Ratio (y) = 0.18416 0.11998
# Poissons Ratio (z) = 0.44847 0.24769
#
# Static dielectric constant tensor:
#      x y z
#    x 2.115190 0.000000 -0.052810 
#    y 0.000000 2.310400 0.000000 
#    z -0.052810 0.000000 2.092090 
# 
# From -- ./inp_files/37340.got.cif
#   From: 2010.05.17/outbox.cif.g08.bks.cpg/sg14_19_cif.got.tgz:37340.got - 2010.06.03 17:49:19.
