data_PCOD9248717
_publ_section_title
;
Structure prediction by ZEFSAII (Michael W. Deem and Ramdas Pophale) SiO2 
 PCOD9248717
Probable space group: P 21/C
;
_chemical_formula_sum "Si O2"
_cell_formula_units_Z 32
_cell_length_a 13.290687
_cell_length_b 11.847681
_cell_length_c 14.672322
_cell_angle_alpha 90.000000
_cell_angle_beta 140.166820
_cell_angle_gamma 90.000000
_cell_volume 1479.911422
_symmetry_space_group_name_H-M "P 21/C"
_symmetry_group_IT_number 14
_symmetry_cell_setting 'monoclinic'
loop_
_space_group_symop_operation_xyz
x,y,z
-x,1/2+y,1/2-z
-x,-y,-z
x,1/2-y,1/2+z
loop_
_atom_site_type_symbol
_atom_site_label
_atom_site_fract_x
_atom_site_fract_y
_atom_site_fract_z
Si Si1 0.764806 0.765981 0.784101
Si Si2 0.860017 0.006585 0.830694
Si Si3 0.490220 0.952521 0.391625
Si Si4 0.569154 0.294560 0.662515
Si Si5 0.200073 0.828830 0.835160
Si Si6 0.586564 0.322643 0.887566
Si Si7 0.933910 0.698877 0.594204
Si Si8 0.721247 0.589630 0.596040
O O1 0.822913 0.879661 0.772309
O O2 0.584714 0.785274 0.692265
O O3 0.770295 0.658578 0.721297
O O4 0.869072 0.766187 0.949399
O O5 0.695339 0.042508 0.762771
O O6 0.929011 0.101857 0.812852
O O7 0.000000 0.000000 0.000000
O O8 0.528516 0.821391 0.418703
O O9 0.500000 0.000000 0.500000
O O10 0.590701 0.041897 0.405214
O O11 0.723657 0.293858 0.708813
O O12 0.600007 0.303049 0.790146
O O13 0.463813 0.394575 0.549083
O O14 0.016885 0.802773 0.701214
O O15 0.231517 0.959977 0.870943
O O16 0.286668 0.751009 0.970023
O O17 0.797794 0.647431 0.560634
#
# Coordination Sequence:
#
# PCOD9248717 Si02
#       8
#     4   4   4   4   4   4   4   4
#     4  10  22  43  70  99 139 179 230 283 342 409
#     4   9  19  37  68  92 129 168 225 282 325 395
#     4  11  20  42  68  97 132 178 230 283 327 399
#     4  12  24  43  72 102 138 182 229 288 339 408
#     4  12  27  47  69 104 145 175 236 288 349 411
#     4  11  24  41  71 107 133 186 234 276 343 409
#     4  11  24  46  67 103 134 183 232 283 346 420
#     4  12  27  44  71 100 143 188 220 291 360 407
#
# _framework density 21.622916
#
# number of rings (size 3 to 8) (size 9 to 14) (size 15 to 20)
#    0.000    1.000    5.000    1.125    3.500    1.500 
#    0.000    0.000    0.000    0.000    0.000    0.000 
#    0.000    0.000    0.000    0.000    0.000    0.000 
#
# Total GULP energy -178783.157143 kJ/mol
# GULP energy per Si atom -5586.973661 kJ/mol
# Density = 2.157370 g / cm^3
# Si number density = 21.622916 Si / 1000 Ang^3
#
#
#
# Elastic Constant Matrix: (Units=GPa)
#
#
# Indices 1 2 3 4 5 6 
#
# 1 49.1538 -3.1489 12.9611 0.0000 -21.2632 0.0000
# 2 -3.1489 56.1288 11.6370 0.0000 -7.2144 0.0000
# 3 12.9611 11.6370 99.4060 0.0000 -10.4334 0.0000
# 4 0.0000 0.0000 0.0000 25.0331 0.0000 2.5861
# 5 -21.2632 -7.2144 -10.4334 0.0000 40.3231 0.0000
# 6 0.0000 0.0000 0.0000 2.5861 0.0000 20.9434
#
#
#
# Elastic Compliance Matrix: (Units=1/GPa)
#
#
# Indices 1 2 3 4 5 6 
#
# 1 0.027576 0.003947 -0.002526 0.000000 0.014594 0.000000
# 2 0.003947 0.019135 -0.002238 0.000000 0.004926 0.000000
# 3 -0.002526 -0.002238 0.010761 0.000000 0.001052 0.000000
# 4 0.000000 0.000000 0.000000 0.040463 0.000000 -0.004996
# 5 0.014594 0.004926 0.001052 0.000000 0.033649 0.000000
# 6 0.000000 0.000000 0.000000 -0.004996 0.000000 0.048365
#
#
# Mechanical properties :
#
#
# Convention : Reuss Voigt Hill
#
# Bulk Modulus (GPa) = 17.90872 27.50967 22.70920
# Shear Modulus (GPa) = 24.97555 29.47588 27.22571
#
# Velocity S-wave (km/s) = 3.40229 3.69613 3.55225
# Velocity P-wave (km/s) = 4.87179 5.56464 5.22970
#
# Compressibility (1/GPa) = 0.05583872
#
# Stress axis : x y z
#
# Youngs Moduli (GPa) = 36.26298 52.26133 92.92411
#
# Poissons Ratio (x) = -0.20625 0.23471
# Poissons Ratio (y) = -0.14311 0.20793
# Poissons Ratio (z) = 0.09159 0.11694
#
# Static dielectric constant tensor:
#      x y z
#    x 1.797710 0.000000 0.028010 
#    y 0.000000 1.524010 0.000000 
#    z 0.028010 0.000000 1.798130 
# 
# From -- ./inp_files/47159.got.cif
#   From: 2010.05.17/outbox.cif.g08.bks.cpg/sg14_24_cif.got.tgz:47159.got - 2010.06.03 17:49:19.
