data_PCOD9248037
_publ_section_title
;
Structure prediction by ZEFSAII (Michael W. Deem and Ramdas Pophale) SiO2 
 PCOD9248037
Probable space group: P 21/C
;
_chemical_formula_sum "Si O2"
_cell_formula_units_Z 32
_cell_length_a 21.042082
_cell_length_b 18.891258
_cell_length_c 10.004575
_cell_angle_alpha 90.000000
_cell_angle_beta 156.367066
_cell_angle_gamma 90.000000
_cell_volume 1594.255637
_symmetry_space_group_name_H-M "P 21/C"
_symmetry_group_IT_number 14
_symmetry_cell_setting 'monoclinic'
loop_
_space_group_symop_operation_xyz
x,y,z
-x,1/2+y,1/2-z
-x,-y,-z
x,1/2-y,1/2+z
loop_
_atom_site_type_symbol
_atom_site_label
_atom_site_fract_x
_atom_site_fract_y
_atom_site_fract_z
Si Si1 0.268962 0.329822 0.548188
Si Si2 0.310132 0.392429 0.349861
Si Si3 0.932639 0.865509 0.098405
Si Si4 0.589580 0.259410 0.646841
Si Si5 0.570062 0.080077 0.164671
Si Si6 0.108534 0.190638 0.269917
Si Si7 0.816536 0.257450 0.338671
Si Si8 0.881094 0.480432 0.154223
O O1 0.276586 0.383810 0.440301
O O2 0.134893 0.269888 0.265295
O O3 0.215242 0.361156 0.586617
O O4 0.434663 0.288560 0.863315
O O5 0.493283 0.404158 0.661756
O O6 0.243546 0.324640 0.140025
O O7 0.209236 0.454499 0.086975
O O8 0.064902 0.806794 0.391835
O O9 0.023267 0.939402 0.275311
O O10 0.882821 0.854993 0.847713
O O11 0.538917 0.343005 0.532359
O O12 0.699977 0.233433 0.738393
O O13 0.698752 0.249325 0.987193
O O14 0.751728 0.068901 0.477580
O O15 0.500000 0.000000 0.000000
O O16 0.943416 0.184484 0.031127
O O17 0.000000 0.500000 0.500000
#
# Coordination Sequence:
#
# PCOD9248037 Si02
#       8
#     4   4   4   4   4   4   4   4
#     4  11  25  38  62  98 134 170 209 270 342 388
#     4  11  23  41  68  94 135 173 222 269 325 398
#     4  11  23  42  62  95 133 167 217 265 330 391
#     4  12  23  40  65  95 131 168 215 272 338 379
#     4  10  22  41  62  96 124 171 221 271 309 392
#     4  11  21  40  61  95 127 172 212 269 322 395
#     4  11  23  38  63  94 129 162 213 276 320 388
#     4  11  22  43  70  96 125 179 228 272 321 393
#
# _framework density 20.072064000000001
#
# number of rings (size 3 to 8) (size 9 to 14) (size 15 to 20)
#    0.000    1.000    5.000    2.250    3.500    0.500 
#    0.000    0.000    0.000    1.500    0.000    0.000 
#    0.000    0.000    0.000    0.000    0.000    0.000 
#
# Total GULP energy -178240.485786 kJ/mol
# GULP energy per Si atom -5570.015181 kJ/mol
# Density = 2.002638 g / cm^3
# Si number density = 20.072064 Si / 1000 Ang^3
#
#
#
# Elastic Constant Matrix: (Units=GPa)
#
#
# Indices 1 2 3 4 5 6 
#
# 1 191.3818 36.2866 49.2418 0.0000 29.8433 0.0000
# 2 36.2866 50.1927 12.6097 0.0000 10.6111 0.0000
# 3 49.2418 12.6097 72.6645 0.0000 13.5646 0.0000
# 4 0.0000 0.0000 0.0000 23.4439 0.0000 1.4023
# 5 29.8433 10.6111 13.5646 0.0000 41.0795 0.0000
# 6 0.0000 0.0000 0.0000 1.4023 0.0000 30.7092
#
#
#
# Elastic Compliance Matrix: (Units=1/GPa)
#
#
# Indices 1 2 3 4 5 6 
#
# 1 0.007397 -0.003731 -0.003775 0.000000 -0.003164 0.000000
# 2 -0.003731 0.023510 -0.000985 0.000000 -0.003037 0.000000
# 3 -0.003775 -0.000985 0.016978 0.000000 -0.002610 0.000000
# 4 0.000000 0.000000 0.000000 0.042772 0.000000 -0.001953
# 5 -0.003164 -0.003037 -0.002610 0.000000 0.028288 0.000000
# 6 0.000000 0.000000 0.000000 -0.001953 0.000000 0.032653
#
#
# Mechanical properties :
#
#
# Convention : Reuss Voigt Hill
#
# Bulk Modulus (GPa) = 32.35746 56.72390 44.54068
# Shear Modulus (GPa) = 27.95194 33.45323 30.70258
#
# Velocity S-wave (km/s) = 3.73578 4.08690 3.91528
# Velocity P-wave (km/s) = 5.89607 7.11279 6.53282
#
# Compressibility (1/GPa) = 0.03090477
#
# Stress axis : x y z
#
# Youngs Moduli (GPa) = 135.18937 42.53561 58.90019
#
# Poissons Ratio (x) = 0.15868 0.22233
# Poissons Ratio (y) = 0.50433 0.05800
# Poissons Ratio (z) = 0.51030 0.04188
#
# Static dielectric constant tensor:
#      x y z
#    x 1.707090 0.000000 0.016740 
#    y 0.000000 1.793110 0.000000 
#    z 0.016740 0.000000 1.739640 
# 
# From -- ./inp_files/18232.got.cif
#   From: 2010.05.17/outbox.cif.g08.bks.cpg/sg14_10_cif.got.tgz:18232.got - 2010.06.03 17:49:19.
