data_PCOD9248638
_publ_section_title
;
Structure prediction by ZEFSAII (Michael W. Deem and Ramdas Pophale) SiO2 
 PCOD9248638
Probable space group: P 21/C
;
_chemical_formula_sum "Si O2"
_cell_formula_units_Z 28
_cell_length_a 5.689371
_cell_length_b 22.906916
_cell_length_c 9.982382
_cell_angle_alpha 90.000000
_cell_angle_beta 106.834401
_cell_angle_gamma 90.000000
_cell_volume 1245.211593
_symmetry_space_group_name_H-M "P 21/C"
_symmetry_group_IT_number 14
_symmetry_cell_setting 'monoclinic'
loop_
_space_group_symop_operation_xyz
x,y,z
-x,1/2+y,1/2-z
-x,-y,-z
x,1/2-y,1/2+z
loop_
_atom_site_type_symbol
_atom_site_label
_atom_site_fract_x
_atom_site_fract_y
_atom_site_fract_z
Si Si1 0.665599 0.853561 0.205417
Si Si2 0.768033 0.555862 0.195067
Si Si3 0.683082 0.073654 0.720641
Si Si4 0.279081 0.811764 0.940746
Si Si5 0.123260 0.686641 0.904097
Si Si6 0.052733 0.400115 0.499542
Si Si7 0.260871 0.881175 0.673487
O O1 0.590759 0.904543 0.296282
O O2 0.843261 0.809514 0.311091
O O3 0.447756 0.817975 0.099353
O O4 0.777634 0.887621 0.097929
O O5 0.723070 0.487865 0.158541
O O6 0.842323 0.561695 0.364199
O O7 0.501844 0.588654 0.145439
O O8 0.011743 0.580430 0.158929
O O9 0.793775 0.128202 0.659104
O O10 0.810470 0.073228 0.889082
O O11 0.347072 0.854774 0.830195
O O12 0.261695 0.745598 0.891345
O O13 0.018448 0.837684 0.947262
O O14 0.168763 0.671777 0.065665
#
# Coordination Sequence:
#
# PCOD9248638 Si02
#       7
#     4   4   4   4   4   4   4
#     4  10  22  43  67  98 134 176 236 278 355 405
#     4  11  24  46  70 101 146 183 239 285 341 423
#     4  10  24  41  68 101 136 186 231 290 348 410
#     4  10  23  45  67  96 138 177 234 289 346 420
#     4  11  27  43  66 103 139 183 231 287 354 418
#     4   9  20  41  66 104 127 183 234 292 344 405
#     4  11  27  45  71 105 136 190 228 286 355 407
#
# _framework density 22.486138
#
# number of rings (size 3 to 8) (size 9 to 14) (size 15 to 20)
#    0.000    1.714    1.429    0.429   12.000    5.143 
#    0.000    0.000    0.000    0.000    0.000    0.000 
#    0.000    0.000    0.000    0.000    0.000    0.000 
#
# Total GULP energy -156166.640509 kJ/mol
# GULP energy per Si atom -5577.380018 kJ/mol
# Density = 2.243496 g / cm^3
# Si number density = 22.486138 Si / 1000 Ang^3
#
#
#
# Elastic Constant Matrix: (Units=GPa)
#
#
# Indices 1 2 3 4 5 6 
#
# 1 77.5124 30.0119 1.0842 0.0000 7.7595 0.0000
# 2 30.0119 118.9307 4.1707 0.0000 14.5091 0.0000
# 3 1.0842 4.1707 57.4692 0.0000 16.8273 0.0000
# 4 0.0000 0.0000 0.0000 21.1887 0.0000 -1.4045
# 5 7.7595 14.5091 16.8273 0.0000 26.3623 0.0000
# 6 0.0000 0.0000 0.0000 -1.4045 0.0000 19.8065
#
#
#
# Elastic Compliance Matrix: (Units=1/GPa)
#
#
# Indices 1 2 3 4 5 6 
#
# 1 0.014472 -0.003319 0.000837 0.000000 -0.002967 0.000000
# 2 -0.003319 0.009820 0.000795 0.000000 -0.004935 0.000000
# 3 0.000837 0.000795 0.021556 0.000000 -0.014443 0.000000
# 4 0.000000 0.000000 0.000000 0.047418 0.000000 0.003363
# 5 -0.002967 -0.004935 -0.014443 0.000000 0.050742 0.000000
# 6 0.000000 0.000000 0.000000 0.003363 0.000000 0.050727
#
#
# Mechanical properties :
#
#
# Convention : Reuss Voigt Hill
#
# Bulk Modulus (GPa) = 23.54466 36.04955 29.79711
# Shear Modulus (GPa) = 23.55517 28.04785 25.80151
#
# Velocity S-wave (km/s) = 3.24009 3.53560 3.39106
# Velocity P-wave (km/s) = 4.94884 5.72136 5.34907
#
# Compressibility (1/GPa) = 0.04247247
#
# Stress axis : x y z
#
# Youngs Moduli (GPa) = 69.10067 101.83234 46.39025
#
# Poissons Ratio (x) = 0.33801 -0.03881
# Poissons Ratio (y) = 0.22937 -0.03688
# Poissons Ratio (z) = -0.05781 -0.08095
#
# Static dielectric constant tensor:
#      x y z
#    x 1.940290 0.000000 0.037470 
#    y 0.000000 1.817820 0.000000 
#    z 0.037470 0.000000 1.845020 
# 
# From -- ./inp_files/21829.got.cif
#   From: 2010.05.17/outbox.cif.g08.bks.cpg/sg14_11_cif.got.tgz:21829.got - 2010.06.03 17:49:19.
