data_PCOD9248649
_publ_section_title
;
Structure prediction by ZEFSAII (Michael W. Deem and Ramdas Pophale) SiO2 
 PCOD9248649
Probable space group: P 21/C
;
_chemical_formula_sum "Si O2"
_cell_formula_units_Z 32
_cell_length_a 14.921767
_cell_length_b 11.423099
_cell_length_c 19.786915
_cell_angle_alpha 90.000000
_cell_angle_beta 22.175400
_cell_angle_gamma 90.000000
_cell_volume 1273.016174
_symmetry_space_group_name_H-M "P 21/C"
_symmetry_group_IT_number 14
_symmetry_cell_setting 'monoclinic'
loop_
_space_group_symop_operation_xyz
x,y,z
-x,1/2+y,1/2-z
-x,-y,-z
x,1/2-y,1/2+z
loop_
_atom_site_type_symbol
_atom_site_label
_atom_site_fract_x
_atom_site_fract_y
_atom_site_fract_z
Si Si1 0.670504 0.096364 0.316661
Si Si2 0.391368 0.492174 0.781330
Si Si3 0.266470 0.018561 0.072894
Si Si4 0.362398 0.267799 0.280723
Si Si5 0.905785 0.858365 0.145209
Si Si6 0.506420 0.302604 0.505529
Si Si7 0.338663 0.739898 0.806588
Si Si8 0.710328 0.046114 0.491360
O O1 0.677061 0.194104 0.369287
O O2 0.660672 0.179451 0.258134
O O3 0.857339 0.992529 0.194537
O O4 0.428484 0.022023 0.471267
O O5 0.644371 0.508623 0.566462
O O6 0.306896 0.368416 0.811451
O O7 0.248166 0.608083 0.858637
O O8 0.364058 0.492928 0.882196
O O9 0.988796 0.037113 0.282537
O O10 0.361625 0.900396 0.042650
O O11 0.408780 0.125817 0.008672
O O12 0.154559 0.343384 0.392885
O O13 0.420717 0.277716 0.319111
O O14 0.593135 0.324935 0.082253
O O15 0.723926 0.765196 0.304590
O O16 0.164725 0.810492 0.977789
#
# Coordination Sequence:
#
# PCOD9248649 Si02
#       8
#     4   4   4   4   4   4   4   4
#     4  11  23  45  65  99 144 183 237 291 346 437
#     4  11  21  44  70  99 140 178 237 294 344 422
#     4  11  24  43  69 102 139 182 234 298 356 419
#     4  10  22  43  68 103 139 176 239 287 342 434
#     4  11  24  43  72  96 142 191 228 292 358 418
#     4  11  23  44  64 100 141 174 244 292 345 434
#     4  11  23  43  69 102 139 184 233 291 355 414
#     4  10  24  43  70  99 140 184 230 292 357 418
#
# _framework density 25.137149999999998
#
# number of rings (size 3 to 8) (size 9 to 14) (size 15 to 20)
#    0.000    1.250    3.750    2.250    0.000    3.500 
#    0.000    0.000    0.000    0.000    0.000    0.000 
#    0.000    0.000    0.000    0.000    0.000    0.000 
#
# Total GULP energy -178655.464917 kJ/mol
# GULP energy per Si atom -5582.983279 kJ/mol
# Density = 2.507994 g / cm^3
# Si number density = 25.137150 Si / 1000 Ang^3
#
#
#
# Elastic Constant Matrix: (Units=GPa)
#
#
# Indices 1 2 3 4 5 6 
#
# 1 68.9130 29.0988 39.1711 0.0000 6.7481 0.0000
# 2 29.0988 224.3554 51.5284 0.0000 8.0256 0.0000
# 3 39.1711 51.5284 78.9088 0.0000 6.4511 0.0000
# 4 0.0000 0.0000 0.0000 20.0777 0.0000 10.7778
# 5 6.7481 8.0256 6.4511 0.0000 24.2624 0.0000
# 6 0.0000 0.0000 0.0000 10.7778 0.0000 41.3929
#
#
#
# Elastic Compliance Matrix: (Units=1/GPa)
#
#
# Indices 1 2 3 4 5 6 
#
# 1 0.020453 -0.000317 -0.009700 0.000000 -0.003004 0.000000
# 2 -0.000317 0.005265 -0.003216 0.000000 -0.000798 0.000000
# 3 -0.009700 -0.003216 0.019709 0.000000 -0.001479 0.000000
# 4 0.000000 0.000000 0.000000 0.057899 0.000000 -0.015076
# 5 -0.003004 -0.000798 -0.001479 0.000000 0.042709 0.000000
# 6 0.000000 0.000000 0.000000 -0.015076 0.000000 0.028084
#
#
# Mechanical properties :
#
#
# Convention : Reuss Voigt Hill
#
# Bulk Modulus (GPa) = 52.73988 67.97488 60.35738
# Shear Modulus (GPa) = 24.16555 33.97186 29.06870
#
# Velocity S-wave (km/s) = 3.10392 3.68021 3.40428
# Velocity P-wave (km/s) = 5.81998 6.72004 6.28614
#
# Compressibility (1/GPa) = 0.01896098
#
# Stress axis : x y z
#
# Youngs Moduli (GPa) = 48.89259 189.91627 50.73865
#
# Poissons Ratio (x) = 0.06028 0.49217
# Poissons Ratio (y) = 0.01552 0.16315
# Poissons Ratio (z) = 0.47427 0.61069
#
# Static dielectric constant tensor:
#      x y z
#    x 2.068510 0.000000 0.090980 
#    y 0.000000 1.982280 0.000000 
#    z 0.090980 0.000000 2.019260 
# 
# From -- ./inp_files/74393.got.cif
#   From: 2010.05.17/outbox.cif.g08.bks.cpg/sg14_38_cif.got.tgz:74393.got - 2010.06.03 17:49:19.
