data_PCOD9248823
_publ_section_title
;
Structure prediction by ZEFSAII (Michael W. Deem and Ramdas Pophale) SiO2 
 PCOD9248823
Probable space group: P 21/C
;
_chemical_formula_sum "Si O2"
_cell_formula_units_Z 20
_cell_length_a 6.247435
_cell_length_b 11.312671
_cell_length_c 11.817317
_cell_angle_alpha 90.000000
_cell_angle_beta 111.603446
_cell_angle_gamma 90.000000
_cell_volume 776.522430
_symmetry_space_group_name_H-M "P 21/C"
_symmetry_group_IT_number 14
_symmetry_cell_setting 'monoclinic'
loop_
_space_group_symop_operation_xyz
x,y,z
-x,1/2+y,1/2-z
-x,-y,-z
x,1/2-y,1/2+z
loop_
_atom_site_type_symbol
_atom_site_label
_atom_site_fract_x
_atom_site_fract_y
_atom_site_fract_z
Si Si1 0.134641 0.622419 0.280850
Si Si2 0.877777 0.753559 0.921140
Si Si3 0.370155 0.736828 0.636743
Si Si4 0.304383 0.095034 0.444762
Si Si5 0.726758 0.504594 0.467516
O O1 0.314971 0.696772 0.242373
O O2 0.273098 0.543407 0.401936
O O3 0.969007 0.714822 0.315609
O O4 0.935479 0.558975 0.165493
O O5 0.755884 0.636513 0.939570
O O6 0.713771 0.857653 0.937053
O O7 0.121929 0.748133 0.031056
O O8 0.566688 0.802326 0.603435
O O9 0.391448 0.594130 0.635637
O O10 0.500000 0.000000 0.500000
O O11 0.000000 0.500000 0.500000
#
# Coordination Sequence:
#
# PCOD9248823 Si02
#       5
#     4   4   4   4   4
#     4  10  24  43  68 105 136 182 231 283 352 402
#     4  10  23  48  68 102 137 178 239 286 333 418
#     4  10  22  44  67  98 138 174 233 282 342 401
#     4  11  25  48  67 102 146 183 224 283 351 417
#     4  11  22  47  74 101 139 181 235 295 337 415
#
# _framework density 25.755855
#
# number of rings (size 3 to 8) (size 9 to 14) (size 15 to 20)
#    0.000    1.600    2.000    2.400    2.800    3.200 
#   39.600    0.000    0.000    0.000    0.000    0.000 
#    0.000    0.000    0.000    0.000    0.000    0.000 
#
# Total GULP energy -111419.693638 kJ/mol
# GULP energy per Si atom -5570.984682 kJ/mol
# Density = 2.569723 g / cm^3
# Si number density = 25.755855 Si / 1000 Ang^3
#
#
#
# Elastic Constant Matrix: (Units=GPa)
#
#
# Indices 1 2 3 4 5 6 
#
# 1 88.4221 15.5582 35.4636 0.0000 -17.0284 0.0000
# 2 15.5582 21.9577 22.8197 0.0000 2.3129 0.0000
# 3 35.4636 22.8197 111.5763 0.0000 16.7716 0.0000
# 4 0.0000 0.0000 0.0000 26.1135 0.0000 -11.1563
# 5 -17.0284 2.3129 16.7716 0.0000 62.4195 0.0000
# 6 0.0000 0.0000 0.0000 -11.1563 0.0000 67.6643
#
#
#
# Elastic Compliance Matrix: (Units=1/GPa)
#
#
# Indices 1 2 3 4 5 6 
#
# 1 0.015337 -0.007005 -0.004283 0.000000 0.005594 0.000000
# 2 -0.007005 0.061104 -0.010049 0.000000 -0.001475 0.000000
# 3 -0.004283 -0.010049 0.013025 0.000000 -0.004296 0.000000
# 4 0.000000 0.000000 0.000000 0.041196 0.000000 0.006792
# 5 0.005594 -0.001475 -0.004296 0.000000 0.018756 0.000000
# 6 0.000000 0.000000 0.000000 0.006792 0.000000 0.015899
#
#
# Mechanical properties :
#
#
# Convention : Reuss Voigt Hill
#
# Bulk Modulus (GPa) = 21.37119 41.07104 31.22112
# Shear Modulus (GPa) = 22.36249 41.11375 31.73812
#
# Velocity S-wave (km/s) = 2.94980 3.99969 3.51418
# Velocity P-wave (km/s) = 4.46289 6.10827 5.34922
#
# Compressibility (1/GPa) = 0.04679196
#
# Stress axis : x y z
#
# Youngs Moduli (GPa) = 65.20105 16.36543 76.77727
#
# Poissons Ratio (x) = 0.11465 0.32884
# Poissons Ratio (y) = 0.45676 0.77152
# Poissons Ratio (z) = 0.27925 0.16445
#
# Static dielectric constant tensor:
#      x y z
#    x 2.271370 0.000000 0.124840 
#    y 0.000000 2.576400 0.000000 
#    z 0.124840 0.000000 2.325440 
# 
# From -- ./inp_files/37053.got.cif
#   From: 2010.05.17/outbox.cif.g08.bks.cpg/sg14_19_cif.got.tgz:37053.got - 2010.06.03 17:49:19.
