data_PCOD9248169
_publ_section_title
;
Structure prediction by ZEFSAII (Michael W. Deem and Ramdas Pophale) SiO2 
 PCOD9248169
Probable space group: P 21/C
;
_chemical_formula_sum "Si O2"
_cell_formula_units_Z 30
_cell_length_a 14.139209
_cell_length_b 9.495580
_cell_length_c 11.354365
_cell_angle_alpha 90.000000
_cell_angle_beta 112.612754
_cell_angle_gamma 90.000000
_cell_volume 1407.245311
_symmetry_space_group_name_H-M "P 21/C"
_symmetry_group_IT_number 14
_symmetry_cell_setting 'monoclinic'
loop_
_space_group_symop_operation_xyz
x,y,z
-x,1/2+y,1/2-z
-x,-y,-z
x,1/2-y,1/2+z
loop_
_atom_site_type_symbol
_atom_site_label
_atom_site_fract_x
_atom_site_fract_y
_atom_site_fract_z
Si Si1 0.710089 0.948279 0.735073
Si Si2 0.927031 0.870345 0.933436
Si Si3 0.687485 0.364772 0.442577
Si Si4 0.024176 0.584762 0.893296
Si Si5 0.678073 0.638717 0.739550
Si Si6 0.500000 0.000000 0.000000
Si Si7 0.264775 0.956470 0.507113
Si Si8 0.849667 0.566287 0.632472
O O1 0.831530 0.921966 0.810845
O O2 0.658197 0.803521 0.752731
O O3 0.679873 0.074486 0.806981
O O4 0.687965 0.980971 0.589465
O O5 0.988175 0.744188 0.903189
O O6 0.877842 0.830528 0.037677
O O7 0.000000 0.000000 0.000000
O O8 0.596858 0.425590 0.477734
O O9 0.690313 0.197456 0.445052
O O10 0.791906 0.432805 0.547093
O O11 0.952330 0.530943 0.753075
O O12 0.143975 0.568577 0.928264
O O13 0.000000 0.500000 0.000000
O O14 0.580177 0.565707 0.636642
O O15 0.769812 0.631342 0.687077
O O16 0.715282 0.558498 0.873604
#
# Coordination Sequence:
#
# PCOD9248169 Si02
#       8
#     4   4   4   4   4   2   4   4
#     4  11  25  45  73 105 147 191 238 294 362 441
#     4  11  23  39  61  99 142 193 241 282 348 421
#     4  10  26  49  74 105 145 188 240 310 362 427
#     4  12  23  37  65 102 142 196 239 286 350 425
#     4  11  25  47  73 102 137 188 240 301 366 435
#     4  10  26  52  82  96 142 184 238 306 380 420
#     4  12  27  44  73 109 150 186 246 301 365 429
#     4  10  22  41  67  92 146 185 237 286 350 426
#
# _framework density 21.318245000000001
#
# number of rings (size 3 to 8) (size 9 to 14) (size 15 to 20)
#    0.000    1.067    2.667    2.400   11.200    4.267 
#    0.000    1.333    0.000    0.000    0.000    0.000 
#    0.000    0.000    0.000    0.000    0.000    0.000 
#
# Total GULP energy -167333.482105 kJ/mol
# GULP energy per Si atom -5577.782737 kJ/mol
# Density = 2.126972 g / cm^3
# Si number density = 21.318245 Si / 1000 Ang^3
#
#
#
# Elastic Constant Matrix: (Units=GPa)
#
#
# Indices 1 2 3 4 5 6 
#
# 1 79.8956 32.8326 44.4903 0.0000 4.2811 0.0000
# 2 32.8326 95.2297 48.1393 0.0000 -14.2781 0.0000
# 3 44.4903 48.1393 132.1351 0.0000 -3.7302 0.0000
# 4 0.0000 0.0000 0.0000 16.7171 0.0000 -7.9175
# 5 4.2811 -14.2781 -3.7302 0.0000 39.1948 0.0000
# 6 0.0000 0.0000 0.0000 -7.9175 0.0000 9.1140
#
#
#
# Elastic Compliance Matrix: (Units=1/GPa)
#
#
# Indices 1 2 3 4 5 6 
#
# 1 0.016809 -0.004225 -0.004227 0.000000 -0.003777 0.000000
# 2 -0.004225 0.014682 -0.003772 0.000000 0.005451 0.000000
# 3 -0.004227 -0.003772 0.010368 0.000000 0.000074 0.000000
# 4 0.000000 0.000000 0.000000 0.101637 0.000000 0.088295
# 5 -0.003777 0.005451 0.000074 0.000000 0.027919 0.000000
# 6 0.000000 0.000000 0.000000 0.088295 0.000000 0.186425
#
#
# Mechanical properties :
#
#
# Convention : Reuss Voigt Hill
#
# Bulk Modulus (GPa) = 57.43914 62.02055 59.72984
# Shear Modulus (GPa) = 12.88356 25.12505 19.00430
#
# Velocity S-wave (km/s) = 2.46101 3.43676 2.98897
# Velocity P-wave (km/s) = 5.92263 6.70106 6.32384
#
# Compressibility (1/GPa) = 0.01740973
#
# Stress axis : x y z
#
# Youngs Moduli (GPa) = 59.49295 68.11167 96.45294
#
# Poissons Ratio (x) = 0.28775 0.40771
# Poissons Ratio (y) = 0.25134 0.36387
# Poissons Ratio (z) = 0.25148 0.25695
#
# Static dielectric constant tensor:
#      x y z
#    x 1.771480 0.000000 -0.013430 
#    y 0.000000 1.521750 0.000000 
#    z -0.013430 0.000000 1.759430 
# 
# From -- ./inp_files/31909.got.cif
#   From: 2010.05.17/outbox.cif.g08.bks.cpg/sg14_16_cif.got.tgz:31909.got - 2010.06.03 17:49:19.
