data_PCOD9248682
_publ_section_title
;
Structure prediction by ZEFSAII (Michael W. Deem and Ramdas Pophale) SiO2 
 PCOD9248682
Probable space group: P 21/C
;
_chemical_formula_sum "Si O2"
_cell_formula_units_Z 28
_cell_length_a 19.859861
_cell_length_b 5.504676
_cell_length_c 12.493429
_cell_angle_alpha 90.000000
_cell_angle_beta 122.325966
_cell_angle_gamma 90.000000
_cell_volume 1154.134418
_symmetry_space_group_name_H-M "P 21/C"
_symmetry_group_IT_number 14
_symmetry_cell_setting 'monoclinic'
loop_
_space_group_symop_operation_xyz
x,y,z
-x,1/2+y,1/2-z
-x,-y,-z
x,1/2-y,1/2+z
loop_
_atom_site_type_symbol
_atom_site_label
_atom_site_fract_x
_atom_site_fract_y
_atom_site_fract_z
Si Si1 0.887436 0.113104 0.754413
Si Si2 0.317481 0.371121 0.323993
Si Si3 0.534976 0.672858 0.937335
Si Si4 0.809076 0.910915 0.875024
Si Si5 0.758444 0.124735 0.043339
Si Si6 0.067168 0.397196 0.135892
Si Si7 0.383854 0.629913 0.180289
O O1 0.810407 0.132314 0.611396
O O2 0.924026 0.380150 0.774019
O O3 0.854711 0.119580 0.849241
O O4 0.937322 0.861812 0.801996
O O5 0.404285 0.349937 0.450480
O O6 0.277036 0.117715 0.255073
O O7 0.259860 0.494287 0.360908
O O8 0.328198 0.504085 0.220835
O O9 0.587689 0.535715 0.893492
O O10 0.461947 0.783980 0.809490
O O11 0.500000 0.500000 0.000000
O O12 0.860399 0.677477 0.882945
O O13 0.802611 0.961818 0.993359
O O14 0.671885 0.169848 0.919548
O O15 0.000000 0.500000 0.000000
#
# Coordination Sequence:
#
# PCOD9248682 Si02
#       7
#     4   4   4   4   4   4   4
#     4  10  22  43  69 108 143 188 236 295 367 439
#     4  12  23  43  64  97 140 190 250 317 376 444
#     4  12  24  42  60  92 136 194 252 318 380 447
#     4  10  24  40  71 105 142 189 246 295 377 433
#     4  12  22  41  67 104 142 191 246 309 368 453
#     4  10  22  45  76 105 147 189 232 299 369 443
#     4  12  25  39  66  94 139 190 255 308 388 439
#
# _framework density 24.260605999999999
#
# number of rings (size 3 to 8) (size 9 to 14) (size 15 to 20)
#    0.857    0.000    1.429    6.857    0.000    1.143 
#    0.000    0.000    3.143    0.000    0.000    0.000 
#    0.000    0.000    0.000    0.000    0.000    0.000 
#
# Total GULP energy -156279.412552 kJ/mol
# GULP energy per Si atom -5581.407591 kJ/mol
# Density = 2.420539 g / cm^3
# Si number density = 24.260606 Si / 1000 Ang^3
#
#
#
# Elastic Constant Matrix: (Units=GPa)
#
#
# Indices 1 2 3 4 5 6 
#
# 1 80.7539 24.2773 42.1928 0.0000 -26.3435 0.0000
# 2 24.2773 115.3035 36.9524 0.0000 -6.3576 0.0000
# 3 42.1928 36.9524 123.1162 0.0000 0.1725 0.0000
# 4 0.0000 0.0000 0.0000 52.9904 0.0000 0.4968
# 5 -26.3435 -6.3576 0.1725 0.0000 57.7395 0.0000
# 6 0.0000 0.0000 0.0000 0.4968 0.0000 22.9509
#
#
#
# Elastic Compliance Matrix: (Units=1/GPa)
#
#
# Indices 1 2 3 4 5 6 
#
# 1 0.018694 -0.001568 -0.005948 0.000000 0.008374 0.000000
# 2 -0.001568 0.009793 -0.002402 0.000000 0.000370 0.000000
# 3 -0.005948 -0.002402 0.010886 0.000000 -0.003011 0.000000
# 4 0.000000 0.000000 0.000000 0.018875 0.000000 -0.000409
# 5 0.008374 0.000370 -0.003011 0.000000 0.021190 0.000000
# 6 0.000000 0.000000 0.000000 -0.000409 0.000000 0.043580
#
#
# Mechanical properties :
#
#
# Convention : Reuss Voigt Hill
#
# Bulk Modulus (GPa) = 51.18553 58.44651 54.81602
# Shear Modulus (GPa) = 33.47453 41.11958 37.29705
#
# Velocity S-wave (km/s) = 3.71858 4.12140 3.92516
# Velocity P-wave (km/s) = 6.29135 6.84042 6.57162
#
# Compressibility (1/GPa) = 0.01953677
#
# Stress axis : x y z
#
# Youngs Moduli (GPa) = 53.49257 102.11063 91.86105
#
# Poissons Ratio (x) = 0.16013 0.54636
# Poissons Ratio (y) = 0.08389 0.22069
# Poissons Ratio (z) = 0.31816 0.24532
#
# Static dielectric constant tensor:
#      x y z
#    x 1.948610 0.000000 0.209110 
#    y 0.000000 2.005490 0.000000 
#    z 0.209110 0.000000 1.105980 
# 
# From -- ./inp_files/34789.got.cif
#   From: 2010.05.17/outbox.cif.g08.bks.cpg/sg14_18_cif.got.tgz:34789.got - 2010.06.03 17:49:19.
