data_PCOD9248233
_publ_section_title
;
Structure prediction by ZEFSAII (Michael W. Deem and Ramdas Pophale) SiO2 
 PCOD9248233
Probable space group: P 21/C
;
_chemical_formula_sum "Si O2"
_cell_formula_units_Z 24
_cell_length_a 20.435917
_cell_length_b 9.590384
_cell_length_c 13.148782
_cell_angle_alpha 90.000000
_cell_angle_beta 158.568567
_cell_angle_gamma 90.000000
_cell_volume 941.606301
_symmetry_space_group_name_H-M "P 21/C"
_symmetry_group_IT_number 14
_symmetry_cell_setting 'monoclinic'
loop_
_space_group_symop_operation_xyz
x,y,z
-x,1/2+y,1/2-z
-x,-y,-z
x,1/2-y,1/2+z
loop_
_atom_site_type_symbol
_atom_site_label
_atom_site_fract_x
_atom_site_fract_y
_atom_site_fract_z
Si Si1 0.537258 0.291523 0.186475
Si Si2 0.056831 0.134800 0.719611
Si Si3 0.825486 0.135564 0.812803
Si Si4 0.574749 0.783973 0.697743
Si Si5 0.931046 0.359759 0.683344
Si Si6 0.383167 0.012058 0.639047
O O1 0.747343 0.313397 0.469759
O O2 0.470905 0.393750 0.177830
O O3 0.439397 0.325962 0.939639
O O4 0.517418 0.127679 0.182450
O O5 0.027432 0.222258 0.781972
O O6 0.980683 0.980267 0.622073
O O7 0.270496 0.132903 0.019377
O O8 0.119039 0.929528 0.998872
O O9 0.623229 0.192313 0.542598
O O10 0.802031 0.038272 0.681655
O O11 0.956392 0.268692 0.992578
O O12 0.629858 0.621795 0.788684
#
# Coordination Sequence:
#
# PCOD9248233 Si02
#       6
#     4   4   4   4   4   4
#     4  11  25  43  73 103 143 186 243 294 349 429
#     4  10  22  41  71 103 137 189 232 290 361 414
#     4   9  22  43  67 103 139 175 239 292 339 433
#     4  11  23  44  76  97 140 192 231 292 368 403
#     4   9  22  42  69  98 144 182 235 288 353 418
#     4  12  23  43  71 108 138 186 241 291 358 423
#
# _framework density 25.488358000000002
#
# number of rings (size 3 to 8) (size 9 to 14) (size 15 to 20)
#    1.000    0.667    1.667    2.500    2.333    4.667 
#    0.000    2.500    0.000    0.000    0.000    0.000 
#    0.000    0.000    0.000    0.000    0.000    0.000 
#
# Total GULP energy -134139.437572 kJ/mol
# GULP energy per Si atom -5589.143232 kJ/mol
# Density = 2.543035 g / cm^3
# Si number density = 25.488358 Si / 1000 Ang^3
#
#
#
# Elastic Constant Matrix: (Units=GPa)
#
#
# Indices 1 2 3 4 5 6 
#
# 1 65.7670 25.9301 20.4883 0.0000 6.4689 0.0000
# 2 25.9301 135.7070 0.9744 0.0000 9.4181 0.0000
# 3 20.4883 0.9744 70.2219 0.0000 7.0665 0.0000
# 4 0.0000 0.0000 0.0000 41.4901 0.0000 -10.4228
# 5 6.4689 9.4181 7.0665 0.0000 22.0784 0.0000
# 6 0.0000 0.0000 0.0000 -10.4228 0.0000 38.0525
#
#
#
# Elastic Compliance Matrix: (Units=1/GPa)
#
#
# Indices 1 2 3 4 5 6 
#
# 1 0.018314 -0.003301 -0.005062 0.000000 -0.002338 0.000000
# 2 -0.003301 0.008192 0.001140 0.000000 -0.002892 0.000000
# 3 -0.005062 0.001140 0.016121 0.000000 -0.004163 0.000000
# 4 0.000000 0.000000 0.000000 0.025883 0.000000 0.007089
# 5 -0.002338 -0.002892 -0.004163 0.000000 0.048544 0.000000
# 6 0.000000 0.000000 0.000000 0.007089 0.000000 0.028221
#
#
# Mechanical properties :
#
#
# Convention : Reuss Voigt Hill
#
# Bulk Modulus (GPa) = 35.48455 40.72016 38.10235
# Shear Modulus (GPa) = 29.56594 35.27775 32.42185
#
# Velocity S-wave (km/s) = 3.40954 3.72435 3.57042
# Velocity P-wave (km/s) = 5.42697 5.87410 5.65496
#
# Compressibility (1/GPa) = 0.02818128
#
# Stress axis : x y z
#
# Youngs Moduli (GPa) = 54.60452 122.06984 62.03224
#
# Poissons Ratio (x) = 0.40291 0.31402
# Poissons Ratio (y) = 0.18023 -0.07074
# Poissons Ratio (z) = 0.27642 -0.13921
#
# Static dielectric constant tensor:
#      x y z
#    x 2.022730 0.000000 0.020800 
#    y 0.000000 2.036500 0.000000 
#    z 0.020800 0.000000 2.027540 
# 
# From -- ./inp_files/57128.got.cif
#   From: 2010.05.17/outbox.cif.g08.bks.cpg/sg14_29_cif.got.tgz:57128.got - 2010.06.03 17:49:19.
