data_PCOD9248265
_publ_section_title
;
Structure prediction by ZEFSAII (Michael W. Deem and Ramdas Pophale) SiO2 
 PCOD9248265
Probable space group: P 21/C
;
_chemical_formula_sum "Si O2"
_cell_formula_units_Z 20
_cell_length_a 5.392099
_cell_length_b 6.997108
_cell_length_c 25.224892
_cell_angle_alpha 90.000000
_cell_angle_beta 62.141881
_cell_angle_gamma 90.000000
_cell_volume 841.416050
_symmetry_space_group_name_H-M "P 21/C"
_symmetry_group_IT_number 14
_symmetry_cell_setting 'monoclinic'
loop_
_space_group_symop_operation_xyz
x,y,z
-x,1/2+y,1/2-z
-x,-y,-z
x,1/2-y,1/2+z
loop_
_atom_site_type_symbol
_atom_site_label
_atom_site_fract_x
_atom_site_fract_y
_atom_site_fract_z
Si Si1 0.265560 0.712624 0.811224
Si Si2 0.720511 0.248739 0.014463
Si Si3 0.671777 0.703202 0.854296
Si Si4 0.465992 0.654102 0.179815
Si Si5 0.363519 0.301230 0.448983
O O1 0.485762 0.811150 0.829272
O O2 0.282986 0.492495 0.829118
O O3 0.370012 0.735630 0.741153
O O4 0.954155 0.795563 0.847204
O O5 0.535561 0.352511 0.077562
O O6 0.673085 0.025789 0.034595
O O7 0.583239 0.275406 0.970607
O O8 0.050834 0.285706 0.985237
O O9 0.760193 0.508903 0.814625
O O10 0.535240 0.771978 0.120966
#
# Coordination Sequence:
#
# PCOD9248265 Si02
#       5
#     4   4   4   4   4
#     4  10  25  41  60  94 119 165 203 253 304 359
#     4  10  22  42  61  94 122 161 203 249 304 367
#     4  10  24  40  64  90 123 162 200 256 303 360
#     4  10  26  40  65  90 125 162 206 251 307 359
#     4  10  23  39  65  89 125 161 202 249 306 362
#
# _framework density 23.769452999999999
#
# number of rings (size 3 to 8) (size 9 to 14) (size 15 to 20)
#    1.200    0.800    0.000    1.200    8.400    1.600 
#    0.000    0.000    0.000    0.000    0.000    0.000 
#    0.000    0.000    0.000    0.000    0.000    0.000 
#
# Total GULP energy -111639.729187 kJ/mol
# GULP energy per Si atom -5581.986459 kJ/mol
# Density = 2.371535 g / cm^3
# Si number density = 23.769453 Si / 1000 Ang^3
#
#
#
# Elastic Constant Matrix: (Units=GPa)
#
#
# Indices 1 2 3 4 5 6 
#
# 1 175.5710 16.1478 47.6601 0.0000 12.4859 0.0000
# 2 16.1478 61.4272 26.5277 0.0000 17.2261 0.0000
# 3 47.6601 26.5277 150.5957 0.0000 24.8809 0.0000
# 4 0.0000 0.0000 0.0000 31.6185 0.0000 -1.9899
# 5 12.4859 17.2261 24.8809 0.0000 28.5984 0.0000
# 6 0.0000 0.0000 0.0000 -1.9899 0.0000 -0.7573
#
#
#
# Elastic Compliance Matrix: (Units=1/GPa)
#
#
# Indices 1 2 3 4 5 6 
#
# 1 0.006287 -0.000670 -0.001734 0.000000 -0.000832 0.000000
# 2 -0.000670 0.020064 -0.001604 0.000000 -0.010397 0.000000
# 3 -0.001734 -0.001604 0.008393 0.000000 -0.005579 0.000000
# 4 0.000000 0.000000 0.000000 0.027139 0.000000 -0.071310
# 5 -0.000832 -0.010397 -0.005579 0.000000 0.046447 0.000000
# 6 0.000000 0.000000 0.000000 -0.071310 0.000000 -1.133087
#
#
# Mechanical properties :
#
#
# Convention : Reuss Voigt Hill
#
# Bulk Modulus (GPa) = 37.41543 63.14056 50.27799
# Shear Modulus (GPa) = -4.96116 31.70913 13.37398
#
# Velocity S-wave (km/s) = -1.44628 3.65640 2.37461
# Velocity P-wave (km/s) = 3.60363 6.66686 5.35879
#
# Compressibility (1/GPa) = 0.02672694
#
# Stress axis : x y z
#
# Youngs Moduli (GPa) = 159.05037 49.84006 119.14047
#
# Poissons Ratio (x) = 0.03341 0.20661
# Poissons Ratio (y) = 0.10663 0.19115
# Poissons Ratio (z) = 0.27582 0.07996
#
# Static dielectric constant tensor:
#      x y z
#    x 1.945910 0.000000 0.012050 
#    y 0.000000 1.974650 0.000000 
#    z 0.012050 0.000000 1.844500 
# 
# From -- ./inp_files/62951.got.cif
#   From: 2010.05.17/outbox.cif.g08.bks.cpg/sg14_32_cif.got.tgz:62951.got - 2010.06.03 17:49:19.
