data_PCOD9248399
_publ_section_title
;
Structure prediction by ZEFSAII (Michael W. Deem and Ramdas Pophale) SiO2 
 PCOD9248399
Probable space group: P 21/C
;
_chemical_formula_sum "Si O2"
_cell_formula_units_Z 20
_cell_length_a 8.023488
_cell_length_b 5.091573
_cell_length_c 27.528970
_cell_angle_alpha 90.000000
_cell_angle_beta 129.845194
_cell_angle_gamma 90.000000
_cell_volume 863.457610
_symmetry_space_group_name_H-M "P 21/C"
_symmetry_group_IT_number 14
_symmetry_cell_setting 'monoclinic'
loop_
_space_group_symop_operation_xyz
x,y,z
-x,1/2+y,1/2-z
-x,-y,-z
x,1/2-y,1/2+z
loop_
_atom_site_type_symbol
_atom_site_label
_atom_site_fract_x
_atom_site_fract_y
_atom_site_fract_z
Si Si1 0.447468 0.250007 0.957248
Si Si2 0.902466 0.796339 0.754866
Si Si3 0.997491 0.489496 0.125640
Si Si4 0.456990 0.759617 0.710523
Si Si5 0.108874 0.749453 0.996079
O O1 0.196802 0.305156 0.899318
O O2 0.630231 0.243224 0.949856
O O3 0.500000 0.500000 0.000000
O O4 0.500000 0.000000 0.000000
O O5 0.009298 0.586191 0.738460
O O6 0.641400 0.792548 0.704386
O O7 0.963074 0.683215 0.819137
O O8 0.215066 0.650080 0.153014
O O9 0.939565 0.297238 0.070112
O O10 0.469612 0.464492 0.733296
O O11 0.000000 0.500000 0.000000
O O12 0.000000 0.000000 0.000000
#
# Coordination Sequence:
#
# PCOD9248399 Si02
#       5
#     4   4   4   4   4
#     4  10  22  42  67  95 129 172 222 268 325 398
#     4  11  24  43  68 102 134 173 229 273 330 410
#     4  10  24  46  69  94 139 182 212 284 342 376
#     4  10  22  42  67  97 133 175 224 272 332 406
#     4  11  24  43  67  98 130 170 227 271 324 402
#
# _framework density 23.162686999999998
#
# number of rings (size 3 to 8) (size 9 to 14) (size 15 to 20)
#    0.000    1.600    0.000    4.800    0.000   16.000 
#    0.000   12.000    0.000    0.000    0.000    0.000 
#    0.000    0.000    0.000    0.000    0.000    0.000 
#
# Total GULP energy -111894.805001 kJ/mol
# GULP energy per Si atom -5594.740250 kJ/mol
# Density = 2.310997 g / cm^3
# Si number density = 23.162687 Si / 1000 Ang^3
#
#
#
# Elastic Constant Matrix: (Units=GPa)
#
#
# Indices 1 2 3 4 5 6 
#
# 1 230.2649 39.8551 31.1177 0.0000 12.7917 0.0000
# 2 39.8551 126.6196 16.6160 0.0000 0.1791 0.0000
# 3 31.1177 16.6160 97.6580 0.0000 7.9274 0.0000
# 4 0.0000 0.0000 0.0000 38.6399 0.0000 -11.5546
# 5 12.7917 0.1791 7.9274 0.0000 32.6828 0.0000
# 6 0.0000 0.0000 0.0000 -11.5546 0.0000 53.0889
#
#
#
# Elastic Compliance Matrix: (Units=1/GPa)
#
#
# Indices 1 2 3 4 5 6 
#
# 1 0.004826 -0.001362 -0.001176 0.000000 -0.001596 0.000000
# 2 -0.001362 0.008465 -0.001067 0.000000 0.000746 0.000000
# 3 -0.001176 -0.001067 0.010974 0.000000 -0.002196 0.000000
# 4 0.000000 0.000000 0.000000 0.027682 0.000000 0.006025
# 5 -0.001596 0.000746 -0.002196 0.000000 0.031750 0.000000
# 6 0.000000 0.000000 0.000000 0.006025 0.000000 0.020148
#
#
# Mechanical properties :
#
#
# Convention : Reuss Voigt Hill
#
# Bulk Modulus (GPa) = 58.63454 69.96890 64.30172
# Shear Modulus (GPa) = 42.82947 49.34590 46.08769
#
# Velocity S-wave (km/s) = 4.30475 4.62064 4.46549
# Velocity P-wave (km/s) = 7.07651 7.66422 7.37622
#
# Compressibility (1/GPa) = 0.01705479
#
# Stress axis : x y z
#
# Youngs Moduli (GPa) = 207.19787 118.12707 91.12106
#
# Poissons Ratio (x) = 0.16095 0.10720
# Poissons Ratio (y) = 0.28231 0.09720
# Poissons Ratio (z) = 0.24376 0.12601
#
# Static dielectric constant tensor:
#      x y z
#    x 1.948030 0.000000 0.031060 
#    y 0.000000 1.791660 0.000000 
#    z 0.031060 0.000000 1.904040 
# 
# From -- ./inp_files/54025.got.cif
#   From: 2010.05.17/outbox.cif.g08.bks.cpg/sg14_28_cif.got.tgz:54025.got - 2010.06.03 17:49:19.
