data_PCOD9248612
_publ_section_title
;
Structure prediction by ZEFSAII (Michael W. Deem and Ramdas Pophale) SiO2 
 PCOD9248612
Probable space group: P 21/C
;
_chemical_formula_sum "Si O2"
_cell_formula_units_Z 30
_cell_length_a 7.506895
_cell_length_b 17.609264
_cell_length_c 9.473128
_cell_angle_alpha 90.000000
_cell_angle_beta 82.858558
_cell_angle_gamma 90.000000
_cell_volume 1242.546582
_symmetry_space_group_name_H-M "P 21/C"
_symmetry_group_IT_number 14
_symmetry_cell_setting 'monoclinic'
loop_
_space_group_symop_operation_xyz
x,y,z
-x,1/2+y,1/2-z
-x,-y,-z
x,1/2-y,1/2+z
loop_
_atom_site_type_symbol
_atom_site_label
_atom_site_fract_x
_atom_site_fract_y
_atom_site_fract_z
Si Si1 0.583587 0.744269 0.155838
Si Si2 0.000103 0.095480 0.836669
Si Si3 0.088649 0.415007 0.646982
Si Si4 0.383615 0.617211 0.564318
Si Si5 0.405744 0.021710 0.256758
Si Si6 0.290365 0.154955 0.600540
Si Si7 0.293334 0.619774 0.246299
Si Si8 0.500000 0.500000 0.000000
O O1 0.646714 0.779212 0.296630
O O2 0.405660 0.692660 0.193057
O O3 0.520930 0.816200 0.071270
O O4 0.723458 0.695546 0.050118
O O5 0.119485 0.119861 0.695111
O O6 0.086785 0.109911 0.983299
O O7 0.957486 0.005359 0.842762
O O8 0.808956 0.136877 0.849578
O O9 0.285555 0.413771 0.696352
O O10 0.919503 0.377568 0.743761
O O11 0.446383 0.542035 0.639635
O O12 0.335646 0.602021 0.406785
O O13 0.567186 0.912491 0.428328
O O14 0.314276 0.995752 0.409170
O O15 0.411200 0.548349 0.172717
#
# Coordination Sequence:
#
# PCOD9248612 Si02
#       8
#     4   4   4   4   4   4   4   2
#     4  12  25  43  68  99 144 192 240 296 381 445
#     4   9  21  43  69 101 143 173 243 304 354 441
#     4   9  21  41  72 109 133 182 237 305 361 430
#     4  10  22  43  66  99 136 187 232 299 370 438
#     4  11  22  40  72 102 136 188 241 298 367 422
#     4  12  26  47  69 105 145 194 246 304 371 451
#     4  11  22  42  69 101 138 183 245 296 363 448
#     4  12  24  42  72 102 144 184 252 306 350 438
#
# _framework density 24.143964
#
# number of rings (size 3 to 8) (size 9 to 14) (size 15 to 20)
#    0.000    1.333    4.000    2.000    1.867    0.000 
#    7.200    7.333    0.000    0.000    0.000    0.000 
#    0.000    0.000    0.000    0.000    0.000    0.000 
#
# Total GULP energy -167284.246219 kJ/mol
# GULP energy per Si atom -5576.141541 kJ/mol
# Density = 2.408901 g / cm^3
# Si number density = 24.143964 Si / 1000 Ang^3
#
#
#
# Elastic Constant Matrix: (Units=GPa)
#
#
# Indices 1 2 3 4 5 6 
#
# 1 77.7758 18.9360 16.3364 0.0000 -24.4995 0.0000
# 2 18.9360 93.8195 40.5323 0.0000 -9.9565 0.0000
# 3 16.3364 40.5323 129.7584 0.0000 -15.7061 0.0000
# 4 0.0000 0.0000 0.0000 47.6384 0.0000 -5.3795
# 5 -24.4995 -9.9565 -15.7061 0.0000 40.7493 0.0000
# 6 0.0000 0.0000 0.0000 -5.3795 0.0000 29.5482
#
#
#
# Elastic Compliance Matrix: (Units=1/GPa)
#
#
# Indices 1 2 3 4 5 6 
#
# 1 0.016344 -0.002214 -0.000254 0.000000 0.009187 0.000000
# 2 -0.002214 0.012722 -0.003650 0.000000 0.000370 0.000000
# 3 -0.000254 -0.003650 0.009181 0.000000 0.002494 0.000000
# 4 0.000000 0.000000 0.000000 0.021432 0.000000 0.003902
# 5 0.009187 0.000370 0.002494 0.000000 0.031116 0.000000
# 6 0.000000 0.000000 0.000000 0.003902 0.000000 0.034553
#
#
# Mechanical properties :
#
#
# Convention : Reuss Voigt Hill
#
# Bulk Modulus (GPa) = 38.44698 50.32922 44.38810
# Shear Modulus (GPa) = 34.18696 38.62379 36.40537
#
# Velocity S-wave (km/s) = 3.76701 4.00400 3.88731
# Velocity P-wave (km/s) = 5.90585 6.50129 6.21071
#
# Compressibility (1/GPa) = 0.02600985
#
# Stress axis : x y z
#
# Youngs Moduli (GPa) = 61.18476 78.60419 108.92375
#
# Poissons Ratio (x) = 0.17403 0.02767
# Poissons Ratio (y) = 0.13546 0.39761
# Poissons Ratio (z) = 0.01554 0.28693
#
# Static dielectric constant tensor:
#      x y z
#    x 2.058520 0.000000 -0.018280 
#    y 0.000000 1.973420 0.000000 
#    z -0.018280 0.000000 2.049770 
# 
# From -- ./inp_files/10238.got.cif
#   From: 2010.05.17/outbox.cif.g08.bks.cpg/sg14_6_cif.got.tgz:10238.got - 2010.06.03 17:49:19.
