data_PCOD9248613
_publ_section_title
;
Structure prediction by ZEFSAII (Michael W. Deem and Ramdas Pophale) SiO2 
 PCOD9248613
Probable space group: P 21/C
;
_chemical_formula_sum "Si O2"
_cell_formula_units_Z 20
_cell_length_a 17.113362
_cell_length_b 10.961715
_cell_length_c 9.638945
_cell_angle_alpha 90.000000
_cell_angle_beta 151.689983
_cell_angle_gamma 90.000000
_cell_volume 857.518470
_symmetry_space_group_name_H-M "P 21/C"
_symmetry_group_IT_number 14
_symmetry_cell_setting 'monoclinic'
loop_
_space_group_symop_operation_xyz
x,y,z
-x,1/2+y,1/2-z
-x,-y,-z
x,1/2-y,1/2+z
loop_
_atom_site_type_symbol
_atom_site_label
_atom_site_fract_x
_atom_site_fract_y
_atom_site_fract_z
Si Si1 0.452851 0.647567 0.228627
Si Si2 0.076509 0.626764 0.666174
Si Si3 0.015117 0.158607 0.675663
Si Si4 0.567129 0.361631 0.119790
Si Si5 0.247820 0.996911 0.880909
O O1 0.522351 0.759656 0.427810
O O2 0.582289 0.536858 0.425218
O O3 0.271880 0.613631 0.001173
O O4 0.420066 0.684668 0.016627
O O5 0.982983 0.671123 0.657605
O O6 0.046082 0.720825 0.494798
O O7 0.000000 0.500000 0.500000
O O8 0.182406 0.112906 0.865061
O O9 0.885724 0.050710 0.435689
O O10 0.726831 0.390246 0.464710
O O11 0.500000 0.500000 0.000000
#
# Coordination Sequence:
#
# PCOD9248613 Si02
#       5
#     4   4   4   4   4
#     4  11  23  43  71  98 140 181 236 281 344 410
#     4  12  27  46  73 103 140 183 233 287 349 418
#     4  11  26  46  69 100 144 178 232 287 352 408
#     4  10  22  43  66  99 139 178 226 289 338 402
#     4  10  24  44  71  98 140 186 226 288 346 406
#
# _framework density 23.323114
#
# number of rings (size 3 to 8) (size 9 to 14) (size 15 to 20)
#    0.000    1.200    2.000    2.400    5.600    7.200 
#    3.600    0.000    0.000    0.000    0.000    0.000 
#    0.000    0.000    0.000    0.000    0.000    0.000 
#
# Total GULP energy -111806.934134 kJ/mol
# GULP energy per Si atom -5590.346707 kJ/mol
# Density = 2.327003 g / cm^3
# Si number density = 23.323114 Si / 1000 Ang^3
#
#
#
# Elastic Constant Matrix: (Units=GPa)
#
#
# Indices 1 2 3 4 5 6 
#
# 1 90.8898 45.1378 9.3705 0.0000 -13.6479 0.0000
# 2 45.1378 102.2208 19.6676 0.0000 -0.1684 0.0000
# 3 9.3705 19.6676 35.3799 0.0000 -1.2187 0.0000
# 4 0.0000 0.0000 0.0000 46.9263 0.0000 -5.7624
# 5 -13.6479 -0.1684 -1.2187 0.0000 51.7822 0.0000
# 6 0.0000 0.0000 0.0000 -5.7624 0.0000 36.2774
#
#
#
# Elastic Compliance Matrix: (Units=1/GPa)
#
#
# Indices 1 2 3 4 5 6 
#
# 1 0.014838 -0.006512 -0.000176 0.000000 0.003885 0.000000
# 2 -0.006512 0.013813 -0.006016 0.000000 -0.001813 0.000000
# 3 -0.000176 -0.006016 0.031679 0.000000 0.000680 0.000000
# 4 0.000000 0.000000 0.000000 0.021734 0.000000 0.003452
# 5 0.003885 -0.001813 0.000680 0.000000 0.020346 0.000000
# 6 0.000000 0.000000 0.000000 0.003452 0.000000 0.028114
#
#
# Mechanical properties :
#
#
# Convention : Reuss Voigt Hill
#
# Bulk Modulus (GPa) = 28.63574 41.87137 35.25356
# Shear Modulus (GPa) = 29.83798 37.28482 33.56140
#
# Velocity S-wave (km/s) = 3.58065 4.00261 3.79750
# Velocity P-wave (km/s) = 5.42211 6.27319 5.86311
#
# Compressibility (1/GPa) = 0.03492139
#
# Stress axis : x y z
#
# Youngs Moduli (GPa) = 67.39572 72.39732 31.56650
#
# Poissons Ratio (x) = 0.47142 0.00556
# Poissons Ratio (y) = 0.43886 0.18991
# Poissons Ratio (z) = 0.01187 0.43556
#
# Static dielectric constant tensor:
#      x y z
#    x 1.892700 0.000000 0.011210 
#    y 0.000000 1.879800 0.000000 
#    z 0.011210 0.000000 1.940020 
# 
# From -- ./inp_files/17872.got.cif
#   From: 2010.05.17/outbox.cif.g08.bks.cpg/sg14_9_cif.got.tgz:17872.got - 2010.06.03 17:49:19.
