data_PCOD9248694
_publ_section_title
;
Structure prediction by ZEFSAII (Michael W. Deem and Ramdas Pophale) SiO2 
 PCOD9248694
Probable space group: P 21/C
;
_chemical_formula_sum "Si O2"
_cell_formula_units_Z 24
_cell_length_a 8.675776
_cell_length_b 25.015652
_cell_length_c 5.188016
_cell_angle_alpha 90.000000
_cell_angle_beta 56.155800
_cell_angle_gamma 90.000000
_cell_volume 935.168567
_symmetry_space_group_name_H-M "P 21/C"
_symmetry_group_IT_number 14
_symmetry_cell_setting 'monoclinic'
loop_
_space_group_symop_operation_xyz
x,y,z
-x,1/2+y,1/2-z
-x,-y,-z
x,1/2-y,1/2+z
loop_
_atom_site_type_symbol
_atom_site_label
_atom_site_fract_x
_atom_site_fract_y
_atom_site_fract_z
Si Si1 0.500187 0.124781 0.503232
Si Si2 0.000835 0.141127 0.501790
Si Si3 0.719120 0.286755 0.040832
Si Si4 0.299396 0.439382 0.820766
Si Si5 0.280564 0.286768 0.967369
Si Si6 0.702764 0.439707 0.180361
O O1 0.554583 0.169246 0.669725
O O2 0.336642 0.083398 0.574857
O O3 0.445592 0.169391 0.337845
O O4 0.664859 0.083593 0.427979
O O5 0.911154 0.179935 0.373996
O O6 0.834360 0.100433 0.714429
O O7 0.169267 0.101211 0.285359
O O8 0.088941 0.179718 0.633403
O O9 0.712782 0.247983 0.803679
O O10 0.501210 0.439530 0.500923
O O11 0.228021 0.499745 0.893139
O O12 0.286586 0.251971 0.704960
#
# Coordination Sequence:
#
# PCOD9248694 Si02
#       6
#     4   4   4   4   4   4
#     4  10  23  38  68  96 136 176 227 280 340 410
#     4  10  23  42  68 100 136 178 225 280 340 410
#     4  11  24  42  67 100 140 183 226 282 337 408
#     4  10  22  43  69  98 132 174 226 285 343 405
#     4  11  24  42  67 100 140 183 226 282 337 408
#     4  10  22  43  69  98 132 174 226 285 343 405
#
# _framework density 25.663822
#
# number of rings (size 3 to 8) (size 9 to 14) (size 15 to 20)
#    0.000    1.667    0.000    3.000    9.333    0.000 
#    6.000    0.000    0.000   10.000    0.000    0.000 
#    0.000    0.000    0.000    0.000    0.000    0.000 
#
# Total GULP energy -133767.226115 kJ/mol
# GULP energy per Si atom -5573.634421 kJ/mol
# Density = 2.560541 g / cm^3
# Si number density = 25.663822 Si / 1000 Ang^3
#
#
#
# Elastic Constant Matrix: (Units=GPa)
#
#
# Indices 1 2 3 4 5 6 
#
# 1 150.8456 86.0452 45.1386 0.0000 9.9852 0.0000
# 2 86.0452 213.2595 53.9184 0.0000 18.0003 0.0000
# 3 45.1386 53.9184 98.4417 0.0000 29.3011 0.0000
# 4 0.0000 0.0000 0.0000 5.3939 0.0000 -20.9076
# 5 9.9852 18.0003 29.3011 0.0000 32.6940 0.0000
# 6 0.0000 0.0000 0.0000 -20.9076 0.0000 49.9594
#
#
#
# Elastic Compliance Matrix: (Units=1/GPa)
#
#
# Indices 1 2 3 4 5 6 
#
# 1 0.009176 -0.003079 -0.002989 0.000000 0.001571 0.000000
# 2 -0.003079 0.006481 -0.001849 0.000000 -0.000971 0.000000
# 3 -0.002989 -0.001849 0.016320 0.000000 -0.012696 0.000000
# 4 0.000000 0.000000 0.000000 -0.297993 0.000000 -0.124708
# 5 0.001571 -0.000971 -0.012696 0.000000 0.042020 0.000000
# 6 0.000000 0.000000 0.000000 -0.124708 0.000000 -0.032173
#
#
# Mechanical properties :
#
#
# Convention : Reuss Voigt Hill
#
# Bulk Modulus (GPa) = 61.94365 92.52791 77.23578
# Shear Modulus (GPa) = -21.28070 36.10577 7.41254
#
# Velocity S-wave (km/s) = -2.88273 3.75490 1.70135
# Velocity P-wave (km/s) = 3.62061 7.41156 5.83267
#
# Compressibility (1/GPa) = 0.01614371
#
# Stress axis : x y z
#
# Youngs Moduli (GPa) = 108.97866 154.29855 61.27374
#
# Poissons Ratio (x) = 0.47514 0.18312
# Poissons Ratio (y) = 0.33558 0.11328
# Poissons Ratio (z) = 0.32570 0.28527
#
# Static dielectric constant tensor:
#      x y z
#    x 2.050990 0.000000 -0.063620 
#    y 0.000000 2.017110 0.000000 
#    z -0.063620 0.000000 2.210320 
# 
# From -- ./inp_files/1593.got.cif
#   From: 2010.05.17/outbox.cif.g08.bks.cpg/sg14_1_cif.got.tgz:1593.got - 2010.06.03 17:49:19.
