data_PCOD9248562
_publ_section_title
;
Structure prediction by ZEFSAII (Michael W. Deem and Ramdas Pophale) SiO2 
 PCOD9248562
Probable space group: P 21/C
;
_chemical_formula_sum "Si O2"
_cell_formula_units_Z 32
_cell_length_a 12.015108
_cell_length_b 8.786150
_cell_length_c 20.777671
_cell_angle_alpha 90.000000
_cell_angle_beta 140.741391
_cell_angle_gamma 90.000000
_cell_volume 1388.048067
_symmetry_space_group_name_H-M "P 21/C"
_symmetry_group_IT_number 14
_symmetry_cell_setting 'monoclinic'
loop_
_space_group_symop_operation_xyz
x,y,z
-x,1/2+y,1/2-z
-x,-y,-z
x,1/2-y,1/2+z
loop_
_atom_site_type_symbol
_atom_site_label
_atom_site_fract_x
_atom_site_fract_y
_atom_site_fract_z
Si Si1 0.351717 0.871338 0.434883
Si Si2 0.057746 0.917052 0.607798
Si Si3 0.432295 0.156927 0.240621
Si Si4 0.271622 0.420134 0.104678
Si Si5 0.592923 0.779669 0.134989
Si Si6 0.890871 0.067223 0.891458
Si Si7 0.076866 0.447892 0.737806
Si Si8 0.260582 0.591818 0.332077
O O1 0.410240 0.788686 0.526422
O O2 0.375234 0.743552 0.390123
O O3 0.500000 0.000000 0.500000
O O4 0.164663 0.942070 0.331281
O O5 0.103703 0.749285 0.600659
O O6 0.150098 0.917648 0.717386
O O7 0.845927 0.926668 0.511877
O O8 0.127472 0.060679 0.597463
O O9 0.380855 0.264199 0.158117
O O10 0.420980 0.274769 0.294718
O O11 0.611248 0.066436 0.328647
O O12 0.293519 0.020043 0.184880
O O13 0.770996 0.681260 0.200419
O O14 0.622935 0.941749 0.116422
O O15 0.946493 0.025341 0.842809
O O16 0.000000 0.000000 0.000000
O O17 0.886241 0.400247 0.677687
#
# Coordination Sequence:
#
# PCOD9248562 Si02
#       8
#     4   4   4   4   4   4   4   4
#     4  10  22  43  63  92 133 176 217 272 339 394
#     4  11  24  43  70  98 134 179 231 290 340 411
#     4  11  23  44  66  98 135 181 229 284 345 408
#     4  11  24  44  65 100 135 182 233 284 349 403
#     4  10  23  41  64  96 137 177 220 283 337 398
#     4  11  22  45  70  98 137 176 226 291 347 412
#     4  10  23  40  67  98 133 176 225 281 339 404
#     4  12  22  43  68 100 134 176 231 275 340 417
#
# _framework density 23.053958000000002
#
# number of rings (size 3 to 8) (size 9 to 14) (size 15 to 20)
#    0.000    1.250    3.750    1.875    1.750    0.000 
#    4.500    0.000    0.000    0.000    0.000    0.000 
#    0.000    0.000    0.000    0.000    0.000    0.000 
#
# Total GULP energy -178563.296463 kJ/mol
# GULP energy per Si atom -5580.103014 kJ/mol
# Density = 2.300149 g / cm^3
# Si number density = 23.053958 Si / 1000 Ang^3
#
#
#
# Elastic Constant Matrix: (Units=GPa)
#
#
# Indices 1 2 3 4 5 6 
#
# 1 32.7150 8.5934 21.2385 0.0000 2.2142 0.0000
# 2 8.5934 107.4969 25.5638 0.0000 10.3959 0.0000
# 3 21.2385 25.5638 138.8989 0.0000 -12.1133 0.0000
# 4 0.0000 0.0000 0.0000 54.5647 0.0000 -0.9815
# 5 2.2142 10.3959 -12.1133 0.0000 22.9971 0.0000
# 6 0.0000 0.0000 0.0000 -0.9815 0.0000 18.6391
#
#
#
# Elastic Compliance Matrix: (Units=1/GPa)
#
#
# Indices 1 2 3 4 5 6 
#
# 1 0.034896 -0.000856 -0.005699 0.000000 -0.005975 0.000000
# 2 -0.000856 0.010489 -0.002312 0.000000 -0.005877 0.000000
# 3 -0.005699 -0.002312 0.009051 0.000000 0.006361 0.000000
# 4 0.000000 0.000000 0.000000 0.018344 0.000000 0.000966
# 5 -0.005975 -0.005877 0.006361 0.000000 0.050066 0.000000
# 6 0.000000 0.000000 0.000000 0.000966 0.000000 0.053702
#
#
# Mechanical properties :
#
#
# Convention : Reuss Voigt Hill
#
# Bulk Modulus (GPa) = 27.24710 43.32246 35.28478
# Shear Modulus (GPa) = 24.21089 34.15452 29.18271
#
# Velocity S-wave (km/s) = 3.24417 3.85321 3.56173
# Velocity P-wave (km/s) = 5.08698 6.21521 5.67918
#
# Compressibility (1/GPa) = 0.03670115
#
# Stress axis : x y z
#
# Youngs Moduli (GPa) = 28.65630 95.33558 110.48203
#
# Poissons Ratio (x) = 0.08165 0.62967
# Poissons Ratio (y) = 0.02454 0.25544
# Poissons Ratio (z) = 0.16332 0.22042
#
# Static dielectric constant tensor:
#      x y z
#    x 1.889970 0.000000 0.036540 
#    y 0.000000 1.892700 0.000000 
#    z 0.036540 0.000000 1.913870 
# 
# From -- ./inp_files/73860.got.cif
#   From: 2010.05.17/outbox.cif.g08.bks.cpg/sg14_37_cif.got.tgz:73860.got - 2010.06.03 17:49:19.
