data_PCOD9248312
_publ_section_title
;
Structure prediction by ZEFSAII (Michael W. Deem and Ramdas Pophale) SiO2 
 PCOD9248312
Probable space group: P 21/C
;
_chemical_formula_sum "Si O2"
_cell_formula_units_Z 18
_cell_length_a 16.456011
_cell_length_b 6.852085
_cell_length_c 8.998168
_cell_angle_alpha 90.000000
_cell_angle_beta 135.554117
_cell_angle_gamma 90.000000
_cell_volume 710.469423
_symmetry_space_group_name_H-M "P 21/C"
_symmetry_group_IT_number 14
_symmetry_cell_setting 'monoclinic'
loop_
_space_group_symop_operation_xyz
x,y,z
-x,1/2+y,1/2-z
-x,-y,-z
x,1/2-y,1/2+z
loop_
_atom_site_type_symbol
_atom_site_label
_atom_site_fract_x
_atom_site_fract_y
_atom_site_fract_z
Si Si1 0.553000 0.689965 0.490005
Si Si2 0.856600 0.283383 0.471338
Si Si3 0.642711 0.489964 0.337822
Si Si4 0.935953 0.612862 0.049794
Si Si5 0.000000 0.500000 0.500000
O O1 0.500000 0.500000 0.500000
O O2 0.645647 0.605077 0.495483
O O3 0.451633 0.814625 0.275337
O O4 0.603804 0.847010 0.669245
O O5 0.759563 0.395457 0.431851
O O6 0.986490 0.360769 0.697485
O O7 0.883165 0.350182 0.337672
O O8 0.842479 0.051863 0.466880
O O9 0.000000 0.500000 0.000000
O O10 0.915023 0.825410 0.961726
#
# Coordination Sequence:
#
# PCOD9248312 Si02
#       5
#     4   4   4   4   2
#     4  11  24  50  72 110 150 190 263 320 374 465
#     4  11  23  43  70 101 144 192 237 301 378 433
#     4  11  26  46  79 108 148 202 249 323 389 448
#     4  10  22  42  64  99 146 181 241 290 345 452
#     4  10  22  42  64  98 142 186 236 296 344 450
#
# _framework density 25.335363000000001
#
# number of rings (size 3 to 8) (size 9 to 14) (size 15 to 20)
#    0.000    1.333    4.444    0.000    0.000    8.889 
#    0.000    0.000    0.000    0.000    0.000    0.000 
#    0.000    0.000    0.000    0.000    0.000    0.000 
#
# Total GULP energy -100264.397781 kJ/mol
# GULP energy per Si atom -5570.244321 kJ/mol
# Density = 2.527770 g / cm^3
# Si number density = 25.335363 Si / 1000 Ang^3
#
#
#
# Elastic Constant Matrix: (Units=GPa)
#
#
# Indices 1 2 3 4 5 6 
#
# 1 137.9097 55.1238 26.9487 0.0000 9.1570 0.0000
# 2 55.1238 250.3371 36.5978 0.0000 11.6320 0.0000
# 3 26.9487 36.5978 54.9218 0.0000 -2.3830 0.0000
# 4 0.0000 0.0000 0.0000 28.0961 0.0000 2.4439
# 5 9.1570 11.6320 -2.3830 0.0000 26.2199 0.0000
# 6 0.0000 0.0000 0.0000 2.4439 0.0000 68.5479
#
#
#
# Elastic Compliance Matrix: (Units=1/GPa)
#
#
# Indices 1 2 3 4 5 6 
#
# 1 0.008624 -0.001256 -0.003515 0.000000 -0.002774 0.000000
# 2 -0.001256 0.004744 -0.002627 0.000000 -0.001905 0.000000
# 3 -0.003515 -0.002627 0.021873 0.000000 0.004381 0.000000
# 4 0.000000 0.000000 0.000000 0.035703 0.000000 -0.001273
# 5 -0.002774 -0.001905 0.004381 0.000000 0.040351 0.000000
# 6 0.000000 0.000000 0.000000 -0.001273 0.000000 0.014634
#
#
# Mechanical properties :
#
#
# Convention : Reuss Voigt Hill
#
# Bulk Modulus (GPa) = 48.91347 75.61212 62.26279
# Shear Modulus (GPa) = 33.88897 46.20602 40.04750
#
# Velocity S-wave (km/s) = 3.66131 4.27520 3.98011
# Velocity P-wave (km/s) = 6.10098 7.36743 6.76391
#
# Compressibility (1/GPa) = 0.02044427
#
# Stress axis : x y z
#
# Youngs Moduli (GPa) = 115.95118 210.79963 45.71800
#
# Poissons Ratio (x) = 0.26483 0.16070
# Poissons Ratio (y) = 0.14567 0.12012
# Poissons Ratio (z) = 0.40756 0.55384
#
# Static dielectric constant tensor:
#      x y z
#    x 1.619150 0.000000 0.316300 
#    y 0.000000 1.861220 0.000000 
#    z 0.316300 0.000000 1.892210 
# 
# From -- ./inp_files/33228.got.cif
#   From: 2010.05.17/outbox.cif.g08.bks.cpg/sg14_17_cif.got.tgz:33228.got - 2010.06.03 17:49:19.
