data_PCOD9248914
_publ_section_title
;
Structure prediction by ZEFSAII (Michael W. Deem and Ramdas Pophale) SiO2 
 PCOD9248914
Probable space group: P 21/C
;
_chemical_formula_sum "Si O2"
_cell_formula_units_Z 28
_cell_length_a 21.581888
_cell_length_b 8.195589
_cell_length_c 9.193825
_cell_angle_alpha 90.000000
_cell_angle_beta 46.439452
_cell_angle_gamma 90.000000
_cell_volume 1178.398173
_symmetry_space_group_name_H-M "P 21/C"
_symmetry_group_IT_number 14
_symmetry_cell_setting 'monoclinic'
loop_
_space_group_symop_operation_xyz
x,y,z
-x,1/2+y,1/2-z
-x,-y,-z
x,1/2-y,1/2+z
loop_
_atom_site_type_symbol
_atom_site_label
_atom_site_fract_x
_atom_site_fract_y
_atom_site_fract_z
Si Si1 0.245060 0.106844 0.113955
Si Si2 0.495416 0.641036 0.206614
Si Si3 0.601335 0.551058 0.423604
Si Si4 0.779033 0.940849 0.177867
Si Si5 0.371298 0.903454 0.426015
Si Si6 0.926442 0.048887 0.509403
Si Si7 0.966143 0.424342 0.406447
O O1 0.227006 0.287591 0.204098
O O2 0.321328 0.039716 0.088402
O O3 0.163841 0.995606 0.280050
O O4 0.258339 0.105543 0.919671
O O5 0.466087 0.590491 0.419578
O O6 0.552412 0.475610 0.090681
O O7 0.405897 0.730828 0.309722
O O8 0.560106 0.776570 0.039235
O O9 0.632829 0.521255 0.209290
O O10 0.718244 0.081369 0.345788
O O11 0.878902 0.985047 0.000110
O O12 0.938283 0.237985 0.458794
O O13 0.000000 0.000000 0.500000
O O14 0.951791 0.944195 0.328767
O O15 0.000000 0.500000 0.500000
#
# Coordination Sequence:
#
# PCOD9248914 Si02
#       7
#     4   4   4   4   4   4   4
#     4  12  27  46  74 107 151 190 244 305 365 443
#     4  10  22  44  72 100 140 190 243 300 366 432
#     4  11  25  45  72 106 145 191 247 306 365 434
#     4  12  27  47  72 111 147 193 243 300 374 435
#     4  11  25  45  72 105 147 188 251 300 371 435
#     4  12  26  52  75 110 148 191 250 292 370 441
#     4  12  28  48  81 108 148 197 240 306 363 440
#
# _framework density 23.761068999999999
#
# number of rings (size 3 to 8) (size 9 to 14) (size 15 to 20)
#    0.000    0.571    2.857    5.143    6.000    3.429 
#    0.000    7.143    0.000    0.000    0.000    0.000 
#    0.000    0.000    0.000    0.000    0.000    0.000 
#
# Total GULP energy -156188.020022 kJ/mol
# GULP energy per Si atom -5578.143572 kJ/mol
# Density = 2.370699 g / cm^3
# Si number density = 23.761069 Si / 1000 Ang^3
#
#
#
# Elastic Constant Matrix: (Units=GPa)
#
#
# Indices 1 2 3 4 5 6 
#
# 1 58.0394 5.7617 -11.7933 0.0000 -1.7371 0.0000
# 2 5.7617 83.9884 15.5995 0.0000 -5.1061 0.0000
# 3 -11.7933 15.5995 92.2129 0.0000 7.5387 0.0000
# 4 0.0000 0.0000 0.0000 41.5815 0.0000 -5.2047
# 5 -1.7371 -5.1061 7.5387 0.0000 35.3991 0.0000
# 6 0.0000 0.0000 0.0000 -5.2047 0.0000 27.5251
#
#
#
# Elastic Compliance Matrix: (Units=1/GPa)
#
#
# Indices 1 2 3 4 5 6 
#
# 1 0.017924 -0.001702 0.002573 0.000000 0.000086 0.000000
# 2 -0.001702 0.012634 -0.002541 0.000000 0.002280 0.000000
# 3 0.002573 -0.002541 0.011829 0.000000 -0.002759 0.000000
# 4 0.000000 0.000000 0.000000 0.024632 0.000000 0.004658
# 5 0.000086 0.002280 -0.002759 0.000000 0.029170 0.000000
# 6 0.000000 0.000000 0.000000 0.004658 0.000000 0.037211
#
#
# Mechanical properties :
#
#
# Convention : Reuss Voigt Hill
#
# Bulk Modulus (GPa) = 25.61066 28.15296 26.88181
# Shear Modulus (GPa) = 33.38748 35.87932 34.63340
#
# Velocity S-wave (km/s) = 3.75258 3.89009 3.82195
# Velocity P-wave (km/s) = 5.43853 5.66138 5.55107
#
# Compressibility (1/GPa) = 0.03904624
#
# Stress axis : x y z
#
# Youngs Moduli (GPa) = 55.79070 79.15263 84.53737
#
# Poissons Ratio (x) = 0.13474 -0.21754
# Poissons Ratio (y) = 0.09497 0.21484
# Poissons Ratio (z) = -0.14357 0.20116
#
# Static dielectric constant tensor:
#      x y z
#    x 1.891760 0.000000 -0.031880 
#    y 0.000000 1.929360 0.000000 
#    z -0.031880 0.000000 1.694340 
# 
# From -- ./inp_files/18711.got.cif
#   From: 2010.05.17/outbox.cif.g08.bks.cpg/sg14_10_cif.got.tgz:18711.got - 2010.06.03 17:49:19.
