data_PCOD9248870
_publ_section_title
;
Structure prediction by ZEFSAII (Michael W. Deem and Ramdas Pophale) SiO2 
 PCOD9248870
Probable space group: P 21/C
;
_chemical_formula_sum "Si O2"
_cell_formula_units_Z 28
_cell_length_a 21.880185
_cell_length_b 8.445336
_cell_length_c 9.122957
_cell_angle_alpha 90.000000
_cell_angle_beta 129.342876
_cell_angle_gamma 90.000000
_cell_volume 1303.732929
_symmetry_space_group_name_H-M "P 21/C"
_symmetry_group_IT_number 14
_symmetry_cell_setting 'monoclinic'
loop_
_space_group_symop_operation_xyz
x,y,z
-x,1/2+y,1/2-z
-x,-y,-z
x,1/2-y,1/2+z
loop_
_atom_site_type_symbol
_atom_site_label
_atom_site_fract_x
_atom_site_fract_y
_atom_site_fract_z
Si Si1 0.409252 0.457061 0.342307
Si Si2 0.659177 0.724361 0.484028
Si Si3 0.272121 0.703715 0.089550
Si Si4 0.907322 0.578851 0.706697
Si Si5 0.258777 0.446785 0.661060
Si Si6 0.838429 0.154438 0.330092
Si Si7 0.989787 0.124143 0.114716
O O1 0.500000 0.500000 0.500000
O O2 0.376790 0.392528 0.449077
O O3 0.350970 0.599243 0.201870
O O4 0.402761 0.319149 0.210692
O O5 0.706869 0.854162 0.649449
O O6 0.712642 0.635444 0.446271
O O7 0.208770 0.612604 0.095056
O O8 0.287224 0.872463 0.191811
O O9 0.224217 0.756722 0.872186
O O10 0.835588 0.565309 0.482603
O O11 0.873050 0.495982 0.798418
O O12 0.977183 0.471319 0.746014
O O13 0.937833 0.754831 0.771747
O O14 0.911358 0.270122 0.472806
O O15 0.000000 0.000000 0.000000
#
# Coordination Sequence:
#
# PCOD9248870 Si02
#       7
#     4   4   4   4   4   4   4
#     4  11  25  44  70 104 140 180 216 285 344 410
#     4  10  24  43  66 102 138 171 233 269 339 406
#     4  11  23  42  72  96 132 176 232 268 340 415
#     4  11  25  43  64  96 133 175 231 281 344 393
#     4  10  22  44  69  99 131 184 225 281 326 407
#     4  11  22  45  67  95 130 180 232 281 332 412
#     4  12  26  43  64  96 134 179 229 286 353 391
#
# _framework density 21.476790999999999
#
# number of rings (size 3 to 8) (size 9 to 14) (size 15 to 20)
#    0.000    1.143    2.857    3.857    2.000    4.571 
#    2.571    2.857    0.000    0.000    0.000    0.000 
#    0.000    0.000    0.000    0.000    0.000    0.000 
#
# Total GULP energy -156657.554015 kJ/mol
# GULP energy per Si atom -5594.912643 kJ/mol
# Density = 2.142791 g / cm^3
# Si number density = 21.476791 Si / 1000 Ang^3
#
#
#
# Elastic Constant Matrix: (Units=GPa)
#
#
# Indices 1 2 3 4 5 6 
#
# 1 46.4943 23.6477 35.8414 0.0000 4.5496 0.0000
# 2 23.6477 102.2253 27.3057 0.0000 9.7222 0.0000
# 3 35.8414 27.3057 77.4308 0.0000 5.1158 0.0000
# 4 0.0000 0.0000 0.0000 34.2975 0.0000 2.1744
# 5 4.5496 9.7222 5.1158 0.0000 39.0428 0.0000
# 6 0.0000 0.0000 0.0000 2.1744 0.0000 35.9227
#
#
#
# Elastic Compliance Matrix: (Units=1/GPa)
#
#
# Indices 1 2 3 4 5 6 
#
# 1 0.035020 -0.004066 -0.014701 0.000000 -0.001142 0.000000
# 2 -0.004066 0.011464 -0.002021 0.000000 -0.002116 0.000000
# 3 -0.014701 -0.002021 0.020463 0.000000 -0.000465 0.000000
# 4 0.000000 0.000000 0.000000 0.029269 0.000000 -0.001772
# 5 -0.001142 -0.002116 -0.000465 0.000000 0.026334 0.000000
# 6 0.000000 0.000000 0.000000 -0.001772 0.000000 0.027945
#
#
# Mechanical properties :
#
#
# Convention : Reuss Voigt Hill
#
# Bulk Modulus (GPa) = 39.41390 44.41558 41.91474
# Shear Modulus (GPa) = 24.93416 31.14295 28.03855
#
# Velocity S-wave (km/s) = 3.41101 3.81212 3.61713
# Velocity P-wave (km/s) = 5.82280 6.33261 6.08305
#
# Compressibility (1/GPa) = 0.02537176
#
# Stress axis : x y z
#
# Youngs Moduli (GPa) = 28.55471 87.23025 48.86853
#
# Poissons Ratio (x) = 0.35466 0.71842
# Poissons Ratio (y) = 0.11610 0.09876
# Poissons Ratio (z) = 0.41979 0.17629
#
# Static dielectric constant tensor:
#      x y z
#    x 1.770590 0.000000 -0.014510 
#    y 0.000000 1.791470 0.000000 
#    z -0.014510 0.000000 1.792210 
# 
# From -- ./inp_files/18753.got.cif
#   From: 2010.05.17/outbox.cif.g08.bks.cpg/sg14_10_cif.got.tgz:18753.got - 2010.06.03 17:49:19.
