data_PCOD9248255
_publ_section_title
;
Structure prediction by ZEFSAII (Michael W. Deem and Ramdas Pophale) SiO2 
 PCOD9248255
Probable space group: P 21/C
;
_chemical_formula_sum "Si O2"
_cell_formula_units_Z 20
_cell_length_a 15.181747
_cell_length_b 7.843272
_cell_length_c 9.588955
_cell_angle_alpha 90.000000
_cell_angle_beta 42.635687
_cell_angle_gamma 90.000000
_cell_volume 773.380804
_symmetry_space_group_name_H-M "P 21/C"
_symmetry_group_IT_number 14
_symmetry_cell_setting 'monoclinic'
loop_
_space_group_symop_operation_xyz
x,y,z
-x,1/2+y,1/2-z
-x,-y,-z
x,1/2-y,1/2+z
loop_
_atom_site_type_symbol
_atom_site_label
_atom_site_fract_x
_atom_site_fract_y
_atom_site_fract_z
Si Si1 0.053076 0.573889 0.221482
Si Si2 0.415708 0.258151 0.556109
Si Si3 0.527735 0.535431 0.749117
Si Si4 0.151079 0.153624 0.826921
Si Si5 0.195917 0.901816 0.009465
O O1 0.120189 0.405042 0.206919
O O2 0.984849 0.671651 0.433326
O O3 0.926422 0.509807 0.284900
O O4 0.154332 0.706841 0.044793
O O5 0.456172 0.194587 0.661185
O O6 0.499023 0.396126 0.374005
O O7 0.261132 0.292698 0.726649
O O8 0.431503 0.092094 0.437181
O O9 0.667199 0.440278 0.581287
O O10 0.205334 0.986207 0.845626
#
# Coordination Sequence:
#
# PCOD9248255 Si02
#       5
#     4   4   4   4   4
#     4   9  18  34  57  81 115 153 187 239 303 350
#     4  10  22  42  61  88 120 161 198 254 291 353
#     4  10  23  40  65  86 124 155 205 244 301 349
#     4   8  19  35  57  77 123 148 187 252 295 342
#     4   9  19  35  57  84 113 153 195 240 297 352
#
# _framework density 25.860481
#
# number of rings (size 3 to 8) (size 9 to 14) (size 15 to 20)
#    1.200    1.600    0.000    0.000    5.600    0.800 
#    0.000    6.000    0.000    0.000    0.000    0.000 
#    0.000    0.000    0.000    0.000    0.000    0.000 
#
# Total GULP energy -111547.150407 kJ/mol
# GULP energy per Si atom -5577.357520 kJ/mol
# Density = 2.580162 g / cm^3
# Si number density = 25.860481 Si / 1000 Ang^3
#
#
#
# Elastic Constant Matrix: (Units=GPa)
#
#
# Indices 1 2 3 4 5 6 
#
# 1 56.7404 4.2178 23.5653 0.0000 16.7393 0.0000
# 2 4.2178 54.1954 18.9925 0.0000 13.9388 0.0000
# 3 23.5653 18.9925 53.8423 0.0000 9.4766 0.0000
# 4 0.0000 0.0000 0.0000 51.7582 0.0000 8.1884
# 5 16.7393 13.9388 9.4766 0.0000 22.4387 0.0000
# 6 0.0000 0.0000 0.0000 8.1884 0.0000 22.4710
#
#
#
# Elastic Compliance Matrix: (Units=1/GPa)
#
#
# Indices 1 2 3 4 5 6 
#
# 1 0.027651 0.006910 -0.010969 0.000000 -0.020288 0.000000
# 2 0.006910 0.025485 -0.008988 0.000000 -0.017190 0.000000
# 3 -0.010969 -0.008988 0.026058 0.000000 0.002761 0.000000
# 4 0.000000 0.000000 0.000000 0.020503 0.000000 -0.007471
# 5 -0.020288 -0.017190 0.002761 0.000000 0.069212 0.000000
# 6 0.000000 0.000000 0.000000 -0.007471 0.000000 0.047224
#
#
# Mechanical properties :
#
#
# Convention : Reuss Voigt Hill
#
# Bulk Modulus (GPa) = 18.83253 28.70326 23.76789
# Shear Modulus (GPa) = 19.23608 27.20041 23.21825
#
# Velocity S-wave (km/s) = 2.73030 3.24669 2.99963
# Velocity P-wave (km/s) = 4.15182 5.01777 4.60519
#
# Compressibility (1/GPa) = 0.05309962
#
# Stress axis : x y z
#
# Youngs Moduli (GPa) = 36.16489 39.23867 38.37573
#
# Poissons Ratio (x) = -0.27113 0.42093
# Poissons Ratio (y) = -0.24989 0.34494
# Poissons Ratio (z) = 0.39668 0.35269
#
# Static dielectric constant tensor:
#      x y z
#    x 2.018310 0.000000 0.011070 
#    y 0.000000 2.113490 0.000000 
#    z 0.011070 0.000000 2.024160 
# 
# From -- ./inp_files/33472.got.cif
#   From: 2010.05.17/outbox.cif.g08.bks.cpg/sg14_17_cif.got.tgz:33472.got - 2010.06.03 17:49:19.
