data_PCOD9248560
_publ_section_title
;
Structure prediction by ZEFSAII (Michael W. Deem and Ramdas Pophale) SiO2 
 PCOD9248560
Probable space group: P 21/C
;
_chemical_formula_sum "Si O2"
_cell_formula_units_Z 28
_cell_length_a 16.994610
_cell_length_b 8.492722
_cell_length_c 11.277711
_cell_angle_alpha 90.000000
_cell_angle_beta 139.078643
_cell_angle_gamma 90.000000
_cell_volume 1066.191703
_symmetry_space_group_name_H-M "P 21/C"
_symmetry_group_IT_number 14
_symmetry_cell_setting 'monoclinic'
loop_
_space_group_symop_operation_xyz
x,y,z
-x,1/2+y,1/2-z
-x,-y,-z
x,1/2-y,1/2+z
loop_
_atom_site_type_symbol
_atom_site_label
_atom_site_fract_x
_atom_site_fract_y
_atom_site_fract_z
Si Si1 0.631470 0.347800 0.686046
Si Si2 0.582581 0.704495 0.211220
Si Si3 0.820029 0.953034 0.721035
Si Si4 0.782920 0.862522 0.290612
Si Si5 0.138966 0.641928 0.498516
Si Si6 0.438321 0.474467 0.154766
Si Si7 0.972897 0.030145 0.660285
O O1 0.522769 0.265880 0.494603
O O2 0.700558 0.480953 0.684173
O O3 0.733790 0.229915 0.849388
O O4 0.579854 0.444410 0.738409
O O5 0.708604 0.754505 0.300554
O O6 0.552480 0.527015 0.210193
O O7 0.562497 0.793349 0.312373
O O8 0.807781 0.764417 0.718116
O O9 0.892689 0.005082 0.688238
O O10 0.871795 0.033030 0.897912
O O11 0.683083 0.013236 0.553416
O O12 0.907178 0.924270 0.486969
O O13 0.103084 0.536481 0.343980
O O14 0.045651 0.788021 0.392064
#
# Coordination Sequence:
#
# PCOD9248560 Si02
#       7
#     4   4   4   4   4   4   4
#     4  10  22  43  63  89 136 169 217 272 327 383
#     4  11  23  40  63  96 131 176 216 270 320 399
#     4  12  23  43  67  97 130 173 223 267 332 392
#     4  10  23  40  65  95 129 175 219 267 324 392
#     4  11  23  44  69  94 127 174 217 272 330 388
#     4  11  23  39  66  94 131 175 214 267 330 382
#     4  11  24  47  67  95 135 171 218 279 327 383
#
# _framework density 26.261693999999999
#
# number of rings (size 3 to 8) (size 9 to 14) (size 15 to 20)
#    0.000    1.143    5.714    3.000    4.000    1.714 
#    0.000   10.714    0.000    0.000    0.000    0.000 
#    0.000    0.000    0.000    0.000    0.000    0.000 
#
# Total GULP energy -156900.564225 kJ/mol
# GULP energy per Si atom -5603.591579 kJ/mol
# Density = 2.620192 g / cm^3
# Si number density = 26.261694 Si / 1000 Ang^3
#
#
#
# Elastic Constant Matrix: (Units=GPa)
#
#
# Indices 1 2 3 4 5 6 
#
# 1 69.2331 47.1274 -0.5018 0.0000 15.4909 0.0000
# 2 47.1274 106.2199 43.5834 0.0000 9.6237 0.0000
# 3 -0.5018 43.5834 115.7578 0.0000 5.7280 0.0000
# 4 0.0000 0.0000 0.0000 53.9647 0.0000 10.4385
# 5 15.4909 9.6237 5.7280 0.0000 20.5647 0.0000
# 6 0.0000 0.0000 0.0000 10.4385 0.0000 34.3301
#
#
#
# Elastic Compliance Matrix: (Units=1/GPa)
#
#
# Indices 1 2 3 4 5 6 
#
# 1 0.026681 -0.012750 0.005694 0.000000 -0.015717 0.000000
# 2 -0.012750 0.017579 -0.006836 0.000000 0.003282 0.000000
# 3 0.005694 -0.006836 0.011449 0.000000 -0.004279 0.000000
# 4 0.000000 0.000000 0.000000 0.019689 0.000000 -0.005987
# 5 -0.015717 0.003282 -0.004279 0.000000 0.060122 0.000000
# 6 0.000000 0.000000 0.000000 -0.005987 0.000000 0.030949
#
#
# Mechanical properties :
#
#
# Convention : Reuss Voigt Hill
#
# Bulk Modulus (GPa) = 35.81131 52.40322 44.10727
# Shear Modulus (GPa) = 24.56253 35.17202 29.86728
#
# Velocity S-wave (km/s) = 3.06158 3.66360 3.37604
# Velocity P-wave (km/s) = 5.11504 6.15577 5.65938
#
# Compressibility (1/GPa) = 0.02792414
#
# Stress axis : x y z
#
# Youngs Moduli (GPa) = 37.47993 56.88614 87.34383
#
# Poissons Ratio (x) = 0.72530 -0.49732
# Poissons Ratio (y) = 0.47787 0.59710
# Poissons Ratio (z) = -0.21340 0.38889
#
# Static dielectric constant tensor:
#      x y z
#    x 2.044640 0.000000 0.008970 
#    y 0.000000 2.095420 0.000000 
#    z 0.008970 0.000000 2.067560 
# 
# From -- ./inp_files/34933.got.cif
#   From: 2010.05.17/outbox.cif.g08.bks.cpg/sg14_18_cif.got.tgz:34933.got - 2010.06.03 17:49:19.
