data_PCOD9248120
_publ_section_title
;
Structure prediction by ZEFSAII (Michael W. Deem and Ramdas Pophale) SiO2 
 PCOD9248120
Probable space group: P 21/C
;
_chemical_formula_sum "Si O2"
_cell_formula_units_Z 32
_cell_length_a 5.304789
_cell_length_b 19.088556
_cell_length_c 12.913561
_cell_angle_alpha 90.000000
_cell_angle_beta 87.343689
_cell_angle_gamma 90.000000
_cell_volume 1306.231975
_symmetry_space_group_name_H-M "P 21/C"
_symmetry_group_IT_number 14
_symmetry_cell_setting 'monoclinic'
loop_
_space_group_symop_operation_xyz
x,y,z
-x,1/2+y,1/2-z
-x,-y,-z
x,1/2-y,1/2+z
loop_
_atom_site_type_symbol
_atom_site_label
_atom_site_fract_x
_atom_site_fract_y
_atom_site_fract_z
Si Si1 0.338783 0.087012 0.131483
Si Si2 0.407812 0.435694 0.855093
Si Si3 0.036478 0.275798 0.636610
Si Si4 0.907253 0.058503 0.842005
Si Si5 0.307273 0.661968 0.514482
Si Si6 0.116903 0.019972 0.641967
Si Si7 0.804968 0.358355 0.159317
Si Si8 0.557967 0.701384 0.011219
O O1 0.490923 0.071580 0.233521
O O2 0.188453 0.156991 0.169488
O O3 0.481072 0.106740 0.023492
O O4 0.180199 0.016479 0.116065
O O5 0.625716 0.485636 0.898674
O O6 0.125072 0.468164 0.861541
O O7 0.404672 0.361023 0.910131
O O8 0.196645 0.239018 0.541405
O O9 0.787481 0.309139 0.593199
O O10 0.949128 0.209161 0.703746
O O11 0.720329 0.093598 0.757453
O O12 0.139341 0.044007 0.761833
O O13 0.911816 0.118120 0.927193
O O14 0.406982 0.732818 0.564739
O O15 0.008507 0.091977 0.595620
O O16 0.596659 0.332221 0.083157
#
# Coordination Sequence:
#
# PCOD9248120 Si02
#       8
#     4   4   4   4   4   4   4   4
#     4  10  23  42  64  96 131 173 230 283 345 397
#     4  11  24  44  69  99 139 173 227 278 339 408
#     4  10  23  41  60  97 133 179 222 283 334 411
#     4   9  21  44  64  98 124 178 225 282 338 404
#     4  10  22  41  65  94 132 176 229 276 344 399
#     4   9  24  43  65 103 128 177 224 275 335 400
#     4   9  22  42  66  94 138 170 226 276 344 404
#     4  10  24  41  63  98 134 177 224 272 343 408
#
# _framework density 24.497947
#
# number of rings (size 3 to 8) (size 9 to 14) (size 15 to 20)
#    0.750    1.500    0.000    0.375    8.750    5.500 
#    9.000    0.000    0.000    0.000    0.000    0.000 
#    0.000    0.000    0.000    0.000    0.000    0.000 
#
# Total GULP energy -178379.396559 kJ/mol
# GULP energy per Si atom -5574.356142 kJ/mol
# Density = 2.444219 g / cm^3
# Si number density = 24.497947 Si / 1000 Ang^3
#
#
#
# Elastic Constant Matrix: (Units=GPa)
#
#
# Indices 1 2 3 4 5 6 
#
# 1 55.9875 29.4305 -0.7596 0.0000 -8.2286 0.0000
# 2 29.4305 153.5509 27.9486 0.0000 -12.7625 0.0000
# 3 -0.7596 27.9486 23.8340 0.0000 -7.4971 0.0000
# 4 0.0000 0.0000 0.0000 40.3222 0.0000 -7.0691
# 5 -8.2286 -12.7625 -7.4971 0.0000 14.9974 0.0000
# 6 0.0000 0.0000 0.0000 -7.0691 0.0000 33.7888
#
#
#
# Elastic Compliance Matrix: (Units=1/GPa)
#
#
# Indices 1 2 3 4 5 6 
#
# 1 0.022785 -0.005273 0.011190 0.000000 0.013608 0.000000
# 2 -0.005273 0.009586 -0.011573 0.000000 -0.000521 0.000000
# 3 0.011190 -0.011573 0.064927 0.000000 0.028748 0.000000
# 4 0.000000 0.000000 0.000000 0.025744 0.000000 0.005386
# 5 0.013608 -0.000521 0.028748 0.000000 0.088072 0.000000
# 6 0.000000 0.000000 0.000000 0.005386 0.000000 0.030723
#
#
# Mechanical properties :
#
#
# Convention : Reuss Voigt Hill
#
# Bulk Modulus (GPa) = 11.62982 38.51238 25.07110
# Shear Modulus (GPa) = 17.74234 29.60521 23.67377
#
# Velocity S-wave (km/s) = 2.69409 3.48009 3.11200
# Velocity P-wave (km/s) = 3.79935 5.64826 4.81341
#
# Compressibility (1/GPa) = 0.08598585
#
# Stress axis : x y z
#
# Youngs Moduli (GPa) = 43.88936 104.31563 15.40184
#
# Poissons Ratio (x) = 0.55002 -0.17234
# Poissons Ratio (y) = 0.23141 0.17825
# Poissons Ratio (z) = -0.49110 1.20725
#
# Static dielectric constant tensor:
#      x y z
#    x 2.007820 0.000000 -0.006040 
#    y 0.000000 1.999110 0.000000 
#    z -0.006040 0.000000 2.023100 
# 
# From -- ./inp_files/37857.got.cif
#   From: 2010.05.17/outbox.cif.g08.bks.cpg/sg14_19_cif.got.tgz:37857.got - 2010.06.03 17:49:19.
