data_PCOD9248669
_publ_section_title
;
Structure prediction by ZEFSAII (Michael W. Deem and Ramdas Pophale) SiO2 
 PCOD9248669
Probable space group: P 21/C
;
_chemical_formula_sum "Si O2"
_cell_formula_units_Z 30
_cell_length_a 9.837009
_cell_length_b 13.036357
_cell_length_c 12.717239
_cell_angle_alpha 90.000000
_cell_angle_beta 131.859152
_cell_angle_gamma 90.000000
_cell_volume 1214.631423
_symmetry_space_group_name_H-M "P 21/C"
_symmetry_group_IT_number 14
_symmetry_cell_setting 'monoclinic'
loop_
_space_group_symop_operation_xyz
x,y,z
-x,1/2+y,1/2-z
-x,-y,-z
x,1/2-y,1/2+z
loop_
_atom_site_type_symbol
_atom_site_label
_atom_site_fract_x
_atom_site_fract_y
_atom_site_fract_z
Si Si1 0.298735 0.683637 0.969336
Si Si2 0.264895 0.104155 0.775432
Si Si3 0.748286 0.105956 0.333904
Si Si4 0.522737 0.734167 0.894496
Si Si5 0.000000 0.500000 0.500000
Si Si6 0.009433 0.413940 0.330958
Si Si7 0.346605 0.614657 0.609000
Si Si8 0.898920 0.752744 0.474735
O O1 0.474815 0.698624 0.986966
O O2 0.139528 0.647834 0.810317
O O3 0.313360 0.608003 0.075998
O O4 0.248423 0.790874 0.999322
O O5 0.184532 0.089068 0.848905
O O6 0.480493 0.094402 0.875590
O O7 0.187785 0.206582 0.678585
O O8 0.197876 0.006721 0.673942
O O9 0.584856 0.159042 0.183725
O O10 0.926793 0.176919 0.413047
O O11 0.430771 0.659277 0.760688
O O12 0.734649 0.736416 0.973508
O O13 0.067149 0.481804 0.663485
O O14 0.784432 0.476434 0.431334
O O15 0.029821 0.363923 0.462323
#
# Coordination Sequence:
#
# PCOD9248669 Si02
#       8
#     4   4   4   4   2   4   4   4
#     4  11  21  45  68  96 140 184 223 274 347 416
#     4  11  26  46  70 104 134 178 235 289 344 403
#     4  11  23  44  70 100 134 178 235 286 329 416
#     4  10  22  43  68  97 139 178 225 278 346 405
#     4  12  26  42  64 106 138 164 232 286 338 396
#     4  12  25  42  70 100 135 185 217 280 352 403
#     4  10  24  45  67 101 138 176 228 286 336 419
#     4  11  23  44  69  98 137 181 232 273 346 421
#
# _framework density 24.69885
#
# number of rings (size 3 to 8) (size 9 to 14) (size 15 to 20)
#    0.000    1.067    4.000    2.000    3.733    0.533 
#    0.000    4.000    0.000    0.000    0.000    0.000 
#    0.000    0.000    0.000    0.000    0.000    0.000 
#
# Total GULP energy -167441.692209 kJ/mol
# GULP energy per Si atom -5581.389740 kJ/mol
# Density = 2.464263 g / cm^3
# Si number density = 24.698850 Si / 1000 Ang^3
#
#
#
# Elastic Constant Matrix: (Units=GPa)
#
#
# Indices 1 2 3 4 5 6 
#
# 1 186.3373 27.6321 64.1648 0.0000 -19.5487 0.0000
# 2 27.6321 73.2513 43.2967 0.0000 -11.2611 0.0000
# 3 64.1648 43.2967 91.7015 0.0000 -25.2091 0.0000
# 4 0.0000 0.0000 0.0000 31.6217 0.0000 -0.4184
# 5 -19.5487 -11.2611 -25.2091 0.0000 58.8191 0.0000
# 6 0.0000 0.0000 0.0000 -0.4184 0.0000 27.7794
#
#
#
# Elastic Compliance Matrix: (Units=1/GPa)
#
#
# Indices 1 2 3 4 5 6 
#
# 1 0.007080 0.000354 -0.005051 0.000000 0.000256 0.000000
# 2 0.000354 0.018957 -0.009259 0.000000 -0.000221 0.000000
# 3 -0.005051 -0.009259 0.020247 0.000000 0.005226 0.000000
# 4 0.000000 0.000000 0.000000 0.031630 0.000000 0.000476
# 5 0.000256 -0.000221 0.005226 0.000000 0.019284 0.000000
# 6 0.000000 0.000000 0.000000 0.000476 0.000000 0.036005
#
#
# Mechanical properties :
#
#
# Convention : Reuss Voigt Hill
#
# Bulk Modulus (GPa) = 54.42802 69.05301 61.74051
# Shear Modulus (GPa) = 29.89723 38.05713 33.97718
#
# Velocity S-wave (km/s) = 3.48296 3.92962 3.71301
# Velocity P-wave (km/s) = 6.18540 6.97194 6.59041
#
# Compressibility (1/GPa) = 0.01837289
#
# Stress axis : x y z
#
# Youngs Moduli (GPa) = 141.23809 52.75165 49.38900
#
# Poissons Ratio (x) = -0.01867 0.24946
# Poissons Ratio (y) = -0.04999 0.45729
# Poissons Ratio (z) = 0.71337 0.48842
#
# Static dielectric constant tensor:
#      x y z
#    x 1.937220 0.000000 -0.003610 
#    y 0.000000 2.150210 0.000000 
#    z -0.003610 0.000000 2.010840 
# 
# From -- ./inp_files/25625.got.cif
#   From: 2010.05.17/outbox.cif.g08.bks.cpg/sg14_13_cif.got.tgz:25625.got - 2010.06.03 17:49:19.
