data_PCOD9248419
_publ_section_title
;
Structure prediction by ZEFSAII (Michael W. Deem and Ramdas Pophale) SiO2 
 PCOD9248419
Probable space group: P 21/C
;
_chemical_formula_sum "Si O2"
_cell_formula_units_Z 26
_cell_length_a 4.986482
_cell_length_b 15.279167
_cell_length_c 14.892509
_cell_angle_alpha 90.000000
_cell_angle_beta 82.159454
_cell_angle_gamma 90.000000
_cell_volume 1124.042491
_symmetry_space_group_name_H-M "P 21/C"
_symmetry_group_IT_number 14
_symmetry_cell_setting 'monoclinic'
loop_
_space_group_symop_operation_xyz
x,y,z
-x,1/2+y,1/2-z
-x,-y,-z
x,1/2-y,1/2+z
loop_
_atom_site_type_symbol
_atom_site_label
_atom_site_fract_x
_atom_site_fract_y
_atom_site_fract_z
Si Si1 0.238246 0.198664 0.274558
Si Si2 0.415252 0.869175 0.405361
Si Si3 0.723076 0.015701 0.063683
Si Si4 0.500000 0.000000 0.500000
Si Si5 0.792062 0.302092 0.654696
Si Si6 0.817809 0.609496 0.722483
Si Si7 0.047705 0.485750 0.855989
O O1 0.560942 0.201428 0.242977
O O2 0.122927 0.292222 0.315315
O O3 0.086657 0.191730 0.184760
O O4 0.153952 0.109449 0.326581
O O5 0.571477 0.889416 0.488246
O O6 0.231756 0.785652 0.403096
O O7 0.599241 0.870850 0.309691
O O8 0.257486 0.964701 0.414600
O O9 0.721677 0.113251 0.101359
O O10 0.706433 0.950157 0.148486
O O11 0.500000 0.000000 0.000000
O O12 0.000000 0.000000 0.000000
O O13 0.245793 0.981345 0.587382
O O14 0.034543 0.550721 0.768955
#
# Coordination Sequence:
#
# PCOD9248419 Si02
#       7
#     4   4   4   2   4   4   4
#     4  11  23  40  73  99 127 176 229 273 325 405
#     4  10  22  42  68  92 135 171 223 280 333 404
#     4  12  27  44  66  98 140 180 222 281 334 400
#     4  10  24  40  60 104 130 176 214 276 350 390
#     4  11  23  44  68  98 130 179 222 270 340 388
#     4  10  23  42  67  98 129 178 232 271 338 401
#     4  11  21  41  70  93 137 171 222 282 333 414
#
# _framework density 23.130796
#
# number of rings (size 3 to 8) (size 9 to 14) (size 15 to 20)
#    0.000    1.231    3.077    2.308    4.308    1.231 
#    2.769    0.000    0.000    0.000    0.000    0.000 
#    0.000    0.000    0.000    0.000    0.000    0.000 
#
# Total GULP energy -144925.305764 kJ/mol
# GULP energy per Si atom -5574.050222 kJ/mol
# Density = 2.307815 g / cm^3
# Si number density = 23.130796 Si / 1000 Ang^3
#
#
#
# Elastic Constant Matrix: (Units=GPa)
#
#
# Indices 1 2 3 4 5 6 
#
# 1 91.4201 17.7914 12.7767 0.0000 1.4144 0.0000
# 2 17.7914 201.0292 44.6175 0.0000 13.6588 0.0000
# 3 12.7767 44.6175 36.5046 0.0000 18.7284 0.0000
# 4 0.0000 0.0000 0.0000 34.7431 0.0000 2.0299
# 5 1.4144 13.6588 18.7284 0.0000 46.5946 0.0000
# 6 0.0000 0.0000 0.0000 2.0299 0.0000 26.3241
#
#
#
# Elastic Compliance Matrix: (Units=1/GPa)
#
#
# Indices 1 2 3 4 5 6 
#
# 1 0.011597 -0.000072 -0.004789 0.000000 0.001594 0.000000
# 2 -0.000072 0.006936 -0.009335 0.000000 0.001721 0.000000
# 3 -0.004789 -0.009335 0.049133 0.000000 -0.016867 0.000000
# 4 0.000000 0.000000 0.000000 0.028913 0.000000 -0.002230
# 5 0.001594 0.001721 -0.016867 0.000000 0.027688 0.000000
# 6 0.000000 0.000000 0.000000 -0.002230 0.000000 0.038160
#
#
# Mechanical properties :
#
#
# Convention : Reuss Voigt Hill
#
# Bulk Modulus (GPa) = 25.46200 53.25833 39.36017
# Shear Modulus (GPa) = 24.52059 38.45025 31.48542
#
# Velocity S-wave (km/s) = 3.25943 4.08155 3.69343
# Velocity P-wave (km/s) = 5.01965 6.72956 5.93649
#
# Compressibility (1/GPa) = 0.03927421
#
# Stress axis : x y z
#
# Youngs Moduli (GPa) = 86.22828 144.18213 20.35286
#
# Poissons Ratio (x) = 0.01034 0.09747
# Poissons Ratio (y) = 0.00619 0.18999
# Poissons Ratio (z) = 0.41296 1.34594
#
# Static dielectric constant tensor:
#      x y z
#    x 2.032240 0.000000 0.166270 
#    y 0.000000 1.982140 0.000000 
#    z 0.166270 0.000000 2.111040 
# 
# From -- ./inp_files/37324.got.cif
#   From: 2010.05.17/outbox.cif.g08.bks.cpg/sg14_19_cif.got.tgz:37324.got - 2010.06.03 17:49:19.
