data_PCOD9248699
_publ_section_title
;
Structure prediction by ZEFSAII (Michael W. Deem and Ramdas Pophale) SiO2 
 PCOD9248699
Probable space group: P 21/C
;
_chemical_formula_sum "Si O2"
_cell_formula_units_Z 26
_cell_length_a 16.316260
_cell_length_b 14.189504
_cell_length_c 9.153533
_cell_angle_alpha 90.000000
_cell_angle_beta 30.817675
_cell_angle_gamma 90.000000
_cell_volume 1085.694324
_symmetry_space_group_name_H-M "P 21/C"
_symmetry_group_IT_number 14
_symmetry_cell_setting 'monoclinic'
loop_
_space_group_symop_operation_xyz
x,y,z
-x,1/2+y,1/2-z
-x,-y,-z
x,1/2-y,1/2+z
loop_
_atom_site_type_symbol
_atom_site_label
_atom_site_fract_x
_atom_site_fract_y
_atom_site_fract_z
Si Si1 0.500000 0.000000 0.000000
Si Si2 0.752334 0.437548 0.355994
Si Si3 0.149916 0.221381 0.872582
Si Si4 0.056848 0.038879 0.191088
Si Si5 0.545151 0.698637 0.441621
Si Si6 0.660780 0.224642 0.489083
Si Si7 0.991686 0.161008 0.840916
O O1 0.625388 0.010809 0.947292
O O2 0.408785 0.098081 0.192709
O O3 0.804202 0.498262 0.416535
O O4 0.689383 0.333413 0.490740
O O5 0.913096 0.425091 0.013203
O O6 0.321434 0.256738 0.661019
O O7 0.121632 0.211710 0.744802
O O8 0.020254 0.293509 0.139040
O O9 0.114847 0.120997 0.998175
O O10 0.993100 0.950118 0.197433
O O11 0.473340 0.768395 0.431702
O O12 0.398408 0.669004 0.776913
O O13 0.820804 0.183636 0.173828
#
# Coordination Sequence:
#
# PCOD9248699 Si02
#       7
#     2   4   4   4   4   4   4
#     4  10  24  40  70 100 140 188 234 288 358 436
#     4  10  22  43  70 102 139 192 231 294 364 428
#     4  12  26  45  72 105 141 185 235 304 350 431
#     4  11  24  43  71 104 143 181 246 295 353 428
#     4  11  25  44  68 100 140 181 235 290 361 417
#     4  11  23  45  68  96 136 188 226 290 353 430
#     4  12  25  45  73 103 139 184 242 291 361 423
#
# _framework density 23.947808999999999
#
# number of rings (size 3 to 8) (size 9 to 14) (size 15 to 20)
#    0.000    0.923    1.538    5.077    8.615    1.231 
#    8.308    1.538    0.000    0.000    0.000    0.000 
#    0.000    0.000    0.000    0.000    0.000    0.000 
#
# Total GULP energy -145192.765106 kJ/mol
# GULP energy per Si atom -5584.337119 kJ/mol
# Density = 2.389330 g / cm^3
# Si number density = 23.947809 Si / 1000 Ang^3
#
#
#
# Elastic Constant Matrix: (Units=GPa)
#
#
# Indices 1 2 3 4 5 6 
#
# 1 111.5884 -8.0575 3.1062 0.0000 -17.9170 0.0000
# 2 -8.0575 63.7336 -2.4410 0.0000 -5.6886 0.0000
# 3 3.1062 -2.4410 60.1704 0.0000 6.5888 0.0000
# 4 0.0000 0.0000 0.0000 10.4874 0.0000 -10.7836
# 5 -17.9170 -5.6886 6.5888 0.0000 32.1925 0.0000
# 6 0.0000 0.0000 0.0000 -10.7836 0.0000 32.5209
#
#
#
# Elastic Compliance Matrix: (Units=1/GPa)
#
#
# Indices 1 2 3 4 5 6 
#
# 1 0.010113 0.001787 -0.001126 0.000000 0.006175 0.000000
# 2 0.001787 0.016264 0.000147 0.000000 0.003838 0.000000
# 3 -0.001126 0.000147 0.017133 0.000000 -0.004107 0.000000
# 4 0.000000 0.000000 0.000000 0.144682 0.000000 0.047975
# 5 0.006175 0.003838 -0.004107 0.000000 0.036019 0.000000
# 6 0.000000 0.000000 0.000000 0.047975 0.000000 0.046657
#
#
# Mechanical properties :
#
#
# Convention : Reuss Voigt Hill
#
# Bulk Modulus (GPa) = 22.15958 24.52310 23.34134
# Shear Modulus (GPa) = 17.58737 31.23248 24.40993
#
# Velocity S-wave (km/s) = 2.71293 3.61527 3.19611
# Velocity P-wave (km/s) = 4.36883 5.26207 4.83612
#
# Compressibility (1/GPa) = 0.04512720
#
# Stress axis : x y z
#
# Youngs Moduli (GPa) = 98.87985 61.48402 58.36582
#
# Poissons Ratio (x) = -0.10985 0.06571
# Poissons Ratio (y) = -0.17666 -0.00860
# Poissons Ratio (z) = 0.11131 -0.00906
#
# Static dielectric constant tensor:
#      x y z
#    x 1.914610 0.000000 -0.038110 
#    y 0.000000 1.938110 0.000000 
#    z -0.038110 0.000000 1.964890 
# 
# From -- ./inp_files/16164.got.cif
#   From: 2010.05.17/outbox.cif.g08.bks.cpg/sg14_9_cif.got.tgz:16164.got - 2010.06.03 17:49:19.
