data_PCOD9248558
_publ_section_title
;
Structure prediction by ZEFSAII (Michael W. Deem and Ramdas Pophale) SiO2 
 PCOD9248558
Probable space group: P 21/C
;
_chemical_formula_sum "Si O2"
_cell_formula_units_Z 32
_cell_length_a 12.565638
_cell_length_b 6.077836
_cell_length_c 19.231586
_cell_angle_alpha 90.000000
_cell_angle_beta 86.501062
_cell_angle_gamma 90.000000
_cell_volume 1466.014655
_symmetry_space_group_name_H-M "P 21/C"
_symmetry_group_IT_number 14
_symmetry_cell_setting 'monoclinic'
loop_
_space_group_symop_operation_xyz
x,y,z
-x,1/2+y,1/2-z
-x,-y,-z
x,1/2-y,1/2+z
loop_
_atom_site_type_symbol
_atom_site_label
_atom_site_fract_x
_atom_site_fract_y
_atom_site_fract_z
Si Si1 0.878007 0.123240 0.076837
Si Si2 0.336419 0.489025 0.781211
Si Si3 0.941986 0.226110 0.929064
Si Si4 0.676694 0.849262 0.106266
Si Si5 0.986152 0.612609 0.819827
Si Si6 0.144467 0.489779 0.693599
Si Si7 0.497438 0.662692 0.335856
Si Si8 0.448406 0.253285 0.016022
O O1 0.932296 0.231849 0.141290
O O2 0.758736 0.047796 0.095037
O O3 0.891609 0.268185 0.006538
O O4 0.947763 0.902761 0.061553
O O5 0.283175 0.330849 0.840598
O O6 0.246929 0.568735 0.731037
O O7 0.422148 0.364376 0.730268
O O8 0.404011 0.671370 0.818259
O O9 0.965821 0.422015 0.875793
O O10 0.865242 0.074260 0.884548
O O11 0.564423 0.938831 0.141141
O O12 0.652012 0.751887 0.031438
O O13 0.042741 0.556404 0.745192
O O14 0.873067 0.728255 0.809359
O O15 0.561103 0.745868 0.400725
O O16 0.500000 0.500000 0.000000
O O17 0.500000 0.000000 0.000000
#
# Coordination Sequence:
#
# PCOD9248558 Si02
#       8
#     4   4   4   4   4   4   4   4
#     4  10  23  40  68  95 132 179 222 272 342 420
#     4  12  24  41  66  96 131 179 227 289 349 418
#     4  10  22  43  62  98 138 167 221 280 336 419
#     4  11  23  41  68  97 130 179 232 285 352 419
#     4  11  21  42  64  94 133 177 220 279 342 414
#     4  11  24  37  66  96 132 173 220 278 342 408
#     4  11  24  44  64  94 133 177 235 293 349 412
#     4  10  22  43  68  94 134 178 230 292 352 416
#
# _framework density 21.827887
#
# number of rings (size 3 to 8) (size 9 to 14) (size 15 to 20)
#    0.000    1.250    3.750    1.875    3.500    1.000 
#    0.000    2.500    0.000    0.000    0.000    0.000 
#    0.000    0.000    0.000    0.000    0.000    0.000 
#
# Total GULP energy -178449.298016 kJ/mol
# GULP energy per Si atom -5576.540563 kJ/mol
# Density = 2.177821 g / cm^3
# Si number density = 21.827887 Si / 1000 Ang^3
#
#
#
# Elastic Constant Matrix: (Units=GPa)
#
#
# Indices 1 2 3 4 5 6 
#
# 1 42.9085 -1.6331 24.3821 0.0000 1.6958 0.0000
# 2 -1.6331 50.5066 12.0557 0.0000 -3.7227 0.0000
# 3 24.3821 12.0557 127.2027 0.0000 19.1796 0.0000
# 4 0.0000 0.0000 0.0000 34.9506 0.0000 9.6014
# 5 1.6958 -3.7227 19.1796 0.0000 24.1676 0.0000
# 6 0.0000 0.0000 0.0000 9.6014 0.0000 13.3110
#
#
#
# Elastic Compliance Matrix: (Units=1/GPa)
#
#
# Indices 1 2 3 4 5 6 
#
# 1 0.026571 0.002473 -0.005797 0.000000 0.003117 0.000000
# 2 0.002473 0.021098 -0.003337 0.000000 0.005724 0.000000
# 3 -0.005797 -0.003337 0.010570 0.000000 -0.008495 0.000000
# 4 0.000000 0.000000 0.000000 0.035682 0.000000 -0.025738
# 5 0.003117 0.005724 -0.008495 0.000000 0.048783 0.000000
# 6 0.000000 0.000000 0.000000 -0.025738 0.000000 0.093691
#
#
# Mechanical properties :
#
#
# Convention : Reuss Voigt Hill
#
# Bulk Modulus (GPa) = 22.26397 32.24745 27.25571
# Shear Modulus (GPa) = 18.89011 26.87339 22.88175
#
# Velocity S-wave (km/s) = 2.94498 3.51258 3.24123
# Velocity P-wave (km/s) = 4.66753 5.59076 5.14987
#
# Compressibility (1/GPa) = 0.04491561
#
# Stress axis : x y z
#
# Youngs Moduli (GPa) = 37.63558 47.39855 94.60840
#
# Poissons Ratio (x) = -0.11720 0.54848
# Poissons Ratio (y) = -0.09306 0.31567
# Poissons Ratio (z) = 0.21819 0.15815
#
# Static dielectric constant tensor:
#      x y z
#    x 1.791100 0.000000 0.004130 
#    y 0.000000 1.910510 0.000000 
#    z 0.004130 0.000000 1.791370 
# 
# From -- ./inp_files/58607.got.cif
#   From: 2010.05.17/outbox.cif.g08.bks.cpg/sg14_30_cif.got.tgz:58607.got - 2010.06.03 17:49:19.
