data_PCOD9248287
_publ_section_title
;
Structure prediction by ZEFSAII (Michael W. Deem and Ramdas Pophale) SiO2 
 PCOD9248287
Probable space group: P 21/C
;
_chemical_formula_sum "Si O2"
_cell_formula_units_Z 28
_cell_length_a 7.050955
_cell_length_b 8.809328
_cell_length_c 17.919862
_cell_angle_alpha 90.000000
_cell_angle_beta 88.804018
_cell_angle_gamma 90.000000
_cell_volume 1112.834965
_symmetry_space_group_name_H-M "P 21/C"
_symmetry_group_IT_number 14
_symmetry_cell_setting 'monoclinic'
loop_
_space_group_symop_operation_xyz
x,y,z
-x,1/2+y,1/2-z
-x,-y,-z
x,1/2-y,1/2+z
loop_
_atom_site_type_symbol
_atom_site_label
_atom_site_fract_x
_atom_site_fract_y
_atom_site_fract_z
Si Si1 0.422400 0.787526 0.661120
Si Si2 0.296845 0.508120 0.858587
Si Si3 0.490149 0.305694 0.677201
Si Si4 0.848362 0.489028 0.296431
Si Si5 0.220367 0.956383 0.533038
Si Si6 0.907249 0.757428 0.994908
Si Si7 0.187956 0.525293 0.403878
O O1 0.405476 0.849492 0.745447
O O2 0.297694 0.635774 0.667568
O O3 0.354822 0.874383 0.588760
O O4 0.645565 0.830113 0.649247
O O5 0.460913 0.628585 0.832319
O O6 0.143046 0.532737 0.793608
O O7 0.268459 0.552109 0.944906
O O8 0.272639 0.357728 0.685501
O O9 0.610134 0.403445 0.617254
O O10 0.050069 0.483070 0.335541
O O11 0.026357 0.860973 0.545006
O O12 0.211246 0.135251 0.550458
O O13 0.794828 0.884489 0.040094
O O14 0.062481 0.848074 0.946841
#
# Coordination Sequence:
#
# PCOD9248287 Si02
#       7
#     4   4   4   4   4   4   4
#     4  10  22  42  63  95 131 162 216 264 309 386
#     4  10  22  42  63  95 131 162 216 264 309 386
#     4  10  23  43  67  95 127 167 214 262 315 376
#     4  10  23  43  67  95 127 167 214 262 315 376
#     4  11  21  42  59  92 130 170 204 267 317 375
#     4  10  24  38  62  93 133 159 221 260 311 383
#     4  11  22  46  64  93 128 170 210 269 310 382
#
# _framework density 25.160962999999999
#
# number of rings (size 3 to 8) (size 9 to 14) (size 15 to 20)
#    0.000    1.714    2.857    0.429    4.000    2.286 
#    0.000    3.571    0.000    0.000    0.000    0.000 
#    0.000    0.000    0.000    0.000    0.000    0.000 
#
# Total GULP energy -156096.522001 kJ/mol
# GULP energy per Si atom -5574.875786 kJ/mol
# Density = 2.510370 g / cm^3
# Si number density = 25.160963 Si / 1000 Ang^3
#
#
#
# Elastic Constant Matrix: (Units=GPa)
#
#
# Indices 1 2 3 4 5 6 
#
# 1 27.5840 -0.8109 -0.4930 0.0000 4.4558 0.0000
# 2 -0.8109 90.7500 37.6426 0.0000 -8.9881 0.0000
# 3 -0.4930 37.6426 101.8205 0.0000 -6.5179 0.0000
# 4 0.0000 0.0000 0.0000 35.0280 0.0000 -8.8369
# 5 4.4558 -8.9881 -6.5179 0.0000 36.6510 0.0000
# 6 0.0000 0.0000 0.0000 -8.8369 0.0000 32.7985
#
#
#
# Elastic Compliance Matrix: (Units=1/GPa)
#
#
# Indices 1 2 3 4 5 6 
#
# 1 0.036981 -0.000085 -0.000079 0.000000 -0.004531 0.000000
# 2 -0.000085 0.013221 -0.004734 0.000000 0.002411 0.000000
# 3 -0.000079 -0.004734 0.011630 0.000000 0.000917 0.000000
# 4 0.000000 0.000000 0.000000 0.030631 0.000000 0.008253
# 5 -0.004531 0.002411 0.000917 0.000000 0.028590 0.000000
# 6 0.000000 0.000000 0.000000 0.008253 0.000000 0.032713
#
#
# Mechanical properties :
#
#
# Convention : Reuss Voigt Hill
#
# Bulk Modulus (GPa) = 19.21817 32.53689 25.87753
# Shear Modulus (GPa) = 27.63867 33.14990 30.39428
#
# Velocity S-wave (km/s) = 3.31792 3.63369 3.47939
# Velocity P-wave (km/s) = 4.72576 5.52852 5.14283
#
# Compressibility (1/GPa) = 0.05203410
#
# Stress axis : x y z
#
# Youngs Moduli (GPa) = 27.04101 75.63824 85.98770
#
# Poissons Ratio (x) = 0.00646 0.00683
# Poissons Ratio (y) = 0.00231 0.40705
# Poissons Ratio (z) = 0.00215 0.35805
#
# Static dielectric constant tensor:
#      x y z
#    x 2.107830 0.000000 -0.027400 
#    y 0.000000 2.031330 0.000000 
#    z -0.027400 0.000000 2.028590 
# 
# From -- ./inp_files/54887.got.cif
#   From: 2010.05.17/outbox.cif.g08.bks.cpg/sg14_28_cif.got.tgz:54887.got - 2010.06.03 17:49:19.
