data_PCOD9248316
_publ_section_title
;
Structure prediction by ZEFSAII (Michael W. Deem and Ramdas Pophale) SiO2 
 PCOD9248316
Probable space group: P 21/C
;
_chemical_formula_sum "Si O2"
_cell_formula_units_Z 16
_cell_length_a 5.420126
_cell_length_b 7.591220
_cell_length_c 18.271800
_cell_angle_alpha 90.000000
_cell_angle_beta 56.031315
_cell_angle_gamma 90.000000
_cell_volume 623.500084
_symmetry_space_group_name_H-M "P 21/C"
_symmetry_group_IT_number 14
_symmetry_cell_setting 'monoclinic'
loop_
_space_group_symop_operation_xyz
x,y,z
-x,1/2+y,1/2-z
-x,-y,-z
x,1/2-y,1/2+z
loop_
_atom_site_type_symbol
_atom_site_label
_atom_site_fract_x
_atom_site_fract_y
_atom_site_fract_z
Si Si1 0.484586 0.446679 0.917990
Si Si2 0.428392 0.056914 0.929412
Si Si3 0.687540 0.230783 0.156067
Si Si4 0.133799 0.489877 0.764207
O O1 0.326667 0.258351 0.940591
O O2 0.360966 0.608733 0.892238
O O3 0.810989 0.417929 0.831060
O O4 0.500000 0.500000 0.000000
O O5 0.750884 0.031593 0.835786
O O6 0.226732 0.932770 0.910108
O O7 0.500000 0.000000 0.000000
O O8 0.867040 0.328381 0.189334
O O9 0.387116 0.153364 0.244518
#
# Coordination Sequence:
#
# PCOD9248316 Si02
#       4
#     4   4   4   4
#     4  12  22  42  69  96 139 179 226 277 341 406
#     4  10  22  42  64  99 136 174 224 277 343 403
#     4  10  23  42  65  97 135 171 228 282 335 398
#     4  10  23  42  69  97 134 177 226 278 340 402
#
# _framework density 25.661586
#
# number of rings (size 3 to 8) (size 9 to 14) (size 15 to 20)
#    1.500    0.000    2.500    3.000    0.000    1.000 
#    0.000    1.250    0.000    0.000    0.000    0.000 
#    0.000    0.000    0.000    0.000    0.000    0.000 
#
# Total GULP energy -89423.018306 kJ/mol
# GULP energy per Si atom -5588.938644 kJ/mol
# Density = 2.560318 g / cm^3
# Si number density = 25.661586 Si / 1000 Ang^3
#
#
#
# Elastic Constant Matrix: (Units=GPa)
#
#
# Indices 1 2 3 4 5 6 
#
# 1 40.4708 33.1974 35.4295 0.0000 8.7931 0.0000
# 2 33.1974 211.3925 29.8744 0.0000 14.8881 0.0000
# 3 35.4295 29.8744 153.2769 0.0000 25.0312 0.0000
# 4 0.0000 0.0000 0.0000 54.3955 0.0000 11.1365
# 5 8.7931 14.8881 25.0312 0.0000 43.8114 0.0000
# 6 0.0000 0.0000 0.0000 11.1365 0.0000 53.4514
#
#
#
# Elastic Compliance Matrix: (Units=1/GPa)
#
#
# Indices 1 2 3 4 5 6 
#
# 1 0.034671 -0.004360 -0.006915 0.000000 -0.001526 0.000000
# 2 -0.004360 0.005473 0.000112 0.000000 -0.001049 0.000000
# 3 -0.006915 0.000112 0.008691 0.000000 -0.003616 0.000000
# 4 0.000000 0.000000 0.000000 0.019203 0.000000 -0.004001
# 5 -0.001526 -0.001049 -0.003616 0.000000 0.025554 0.000000
# 6 0.000000 0.000000 0.000000 -0.004001 0.000000 0.019542
#
#
# Mechanical properties :
#
#
# Convention : Reuss Voigt Hill
#
# Bulk Modulus (GPa) = 37.72193 66.90473 52.31333
# Shear Modulus (GPa) = 34.65096 50.77426 42.71261
#
# Velocity S-wave (km/s) = 3.67864 4.45298 4.08420
# Velocity P-wave (km/s) = 5.72493 7.25033 6.53231
#
# Compressibility (1/GPa) = 0.02650978
#
# Stress axis : x y z
#
# Youngs Moduli (GPa) = 28.84270 182.70692 115.05975
#
# Poissons Ratio (x) = 0.79661 0.79564
# Poissons Ratio (y) = 0.12575 -0.01293
# Poissons Ratio (z) = 0.19945 -0.02053
#
# Static dielectric constant tensor:
#      x y z
#    x 2.036700 0.000000 -0.005930 
#    y 0.000000 1.994320 0.000000 
#    z -0.005930 0.000000 2.012230 
# 
# From -- ./inp_files/36634.got.cif
#   From: 2010.05.17/outbox.cif.g08.bks.cpg/sg14_19_cif.got.tgz:36634.got - 2010.06.03 17:49:19.
