data_PCOD9248516
_publ_section_title
;
Structure prediction by ZEFSAII (Michael W. Deem and Ramdas Pophale) SiO2 
 PCOD9248516
Probable space group: P 21/C
;
_chemical_formula_sum "Si O2"
_cell_formula_units_Z 24
_cell_length_a 14.210247
_cell_length_b 4.927223
_cell_length_c 13.011679
_cell_angle_alpha 90.000000
_cell_angle_beta 113.567052
_cell_angle_gamma 90.000000
_cell_volume 835.052204
_symmetry_space_group_name_H-M "P 21/C"
_symmetry_group_IT_number 14
_symmetry_cell_setting 'monoclinic'
loop_
_space_group_symop_operation_xyz
x,y,z
-x,1/2+y,1/2-z
-x,-y,-z
x,1/2-y,1/2+z
loop_
_atom_site_type_symbol
_atom_site_label
_atom_site_fract_x
_atom_site_fract_y
_atom_site_fract_z
Si Si1 0.356034 0.562821 0.258350
Si Si2 0.299936 0.436847 0.858993
Si Si3 0.557136 0.828211 0.935291
Si Si4 0.930004 0.097433 0.874415
Si Si5 0.754945 0.359769 0.444675
Si Si6 0.116694 0.009201 0.808924
O O1 0.350527 0.260698 0.296357
O O2 0.470056 0.688812 0.310513
O O3 0.291135 0.592225 0.127351
O O4 0.300161 0.758480 0.317674
O O5 0.191504 0.279534 0.836481
O O6 0.387444 0.424036 0.985312
O O7 0.654842 0.981091 0.933538
O O8 0.500000 0.000000 0.000000
O O9 0.822925 0.011266 0.882085
O O10 0.902419 0.398646 0.815771
O O11 0.003080 0.018157 0.810535
O O12 0.000000 0.000000 0.000000
O O13 0.825276 0.332226 0.576235
#
# Coordination Sequence:
#
# PCOD9248516 Si02
#       6
#     4   4   4   4   4   4
#     4  11  22  42  70 106 149 199 263 318 392 470
#     4  10  22  42  72 103 150 199 256 322 388 471
#     4   9  21  41  68 104 144 202 259 325 393 465
#     4  10  22  43  74 110 157 209 269 333 413 491
#     4  10  22  43  71 108 156 207 269 329 404 482
#     4  10  22  43  75 112 156 208 263 335 408 487
#
# _framework density 28.740718999999999
#
# number of rings (size 3 to 8) (size 9 to 14) (size 15 to 20)
#    0.000    2.000    1.667    0.500    2.333    2.667 
#    0.000   18.333    0.000    0.000    0.000    0.000 
#    0.000    0.000    0.000    0.000    0.000    0.000 
#
# Total GULP energy -133918.389279 kJ/mol
# GULP energy per Si atom -5579.932887 kJ/mol
# Density = 2.867530 g / cm^3
# Si number density = 28.740719 Si / 1000 Ang^3
#
#
#
# Elastic Constant Matrix: (Units=GPa)
#
#
# Indices 1 2 3 4 5 6 
#
# 1 215.0100 40.1253 73.5492 0.0000 2.4251 0.0000
# 2 40.1253 99.8167 51.7610 0.0000 -20.5949 0.0000
# 3 73.5492 51.7610 103.4437 0.0000 7.9996 0.0000
# 4 0.0000 0.0000 0.0000 52.2120 0.0000 -10.9650
# 5 2.4251 -20.5949 7.9996 0.0000 72.3153 0.0000
# 6 0.0000 0.0000 0.0000 -10.9650 0.0000 41.8934
#
#
#
# Elastic Compliance Matrix: (Units=1/GPa)
#
#
# Indices 1 2 3 4 5 6 
#
# 1 0.006154 -0.000207 -0.004288 0.000000 0.000209 0.000000
# 2 -0.000207 0.015279 -0.007903 0.000000 0.005233 0.000000
# 3 -0.004288 -0.007903 0.016979 0.000000 -0.003985 0.000000
# 4 0.000000 0.000000 0.000000 0.020267 0.000000 0.005305
# 5 0.000209 0.005233 -0.003985 0.000000 0.015752 0.000000
# 6 0.000000 0.000000 0.000000 0.005305 0.000000 0.025259
#
#
# Mechanical properties :
#
#
# Convention : Reuss Voigt Hill
#
# Bulk Modulus (GPa) = 73.44389 83.23791 78.34090
# Shear Modulus (GPa) = 38.75233 50.13980 44.44607
#
# Velocity S-wave (km/s) = 3.67596 4.18132 3.93676
# Velocity P-wave (km/s) = 6.60502 7.23435 6.92684
#
# Compressibility (1/GPa) = 0.01361584
#
# Stress axis : x y z
#
# Youngs Moduli (GPa) = 162.49339 65.44770 58.89766
#
# Poissons Ratio (x) = 0.01355 0.25256
# Poissons Ratio (y) = 0.03365 0.46546
# Poissons Ratio (z) = 0.69679 0.51723
#
# Static dielectric constant tensor:
#      x y z
#    x 2.244560 0.000000 0.022390 
#    y 0.000000 2.312450 0.000000 
#    z 0.022390 0.000000 2.381680 
# 
# From -- ./inp_files/45985.got.cif
#   From: 2010.05.17/outbox.cif.g08.bks.cpg/sg14_23_cif.got.tgz:45985.got - 2010.06.03 17:49:19.
