data_PCOD9248873
_publ_section_title
;
Structure prediction by ZEFSAII (Michael W. Deem and Ramdas Pophale) SiO2 
 PCOD9248873
Probable space group: P 21/C
;
_chemical_formula_sum "Si O2"
_cell_formula_units_Z 16
_cell_length_a 7.741044
_cell_length_b 10.647718
_cell_length_c 8.780236
_cell_angle_alpha 90.000000
_cell_angle_beta 123.952410
_cell_angle_gamma 90.000000
_cell_volume 600.315524
_symmetry_space_group_name_H-M "P 21/C"
_symmetry_group_IT_number 14
_symmetry_cell_setting 'monoclinic'
loop_
_space_group_symop_operation_xyz
x,y,z
-x,1/2+y,1/2-z
-x,-y,-z
x,1/2-y,1/2+z
loop_
_atom_site_type_symbol
_atom_site_label
_atom_site_fract_x
_atom_site_fract_y
_atom_site_fract_z
Si Si1 0.923306 0.140605 0.568839
Si Si2 0.533514 0.724886 0.156587
Si Si3 0.880745 0.878092 0.011630
Si Si4 0.631734 0.919639 0.440797
O O1 0.705556 0.209010 0.509383
O O2 0.025493 0.245342 0.509281
O O3 0.062140 0.111600 0.783597
O O4 0.818315 0.006090 0.474928
O O5 0.536136 0.856093 0.245898
O O6 0.671755 0.696470 0.075859
O O7 0.641723 0.627808 0.331460
O O8 0.000000 0.000000 0.000000
O O9 0.500000 0.000000 0.500000
#
# Coordination Sequence:
#
# PCOD9248873 Si02
#       4
#     4   4   4   4
#     4  11  25  46  70 106 144 183 240 296 348 431
#     4  11  23  45  73  99 145 185 230 297 357 410
#     4  12  26  46  74 105 141 191 237 290 359 424
#     4  10  22  44  70 100 140 182 234 287 352 419
#
# _framework density 26.652649
#
# number of rings (size 3 to 8) (size 9 to 14) (size 15 to 20)
#    0.000    1.000    2.500    4.500    3.500    1.000 
#    4.500    6.250    0.000    0.000    0.000    0.000 
#    0.000    0.000    0.000    0.000    0.000    0.000 
#
# Total GULP energy -89204.478408 kJ/mol
# GULP energy per Si atom -5575.279900 kJ/mol
# Density = 2.659199 g / cm^3
# Si number density = 26.652649 Si / 1000 Ang^3
#
#
#
# Elastic Constant Matrix: (Units=GPa)
#
#
# Indices 1 2 3 4 5 6 
#
# 1 101.9507 -9.4581 -2.2643 0.0000 -3.6674 0.0000
# 2 -9.4581 105.1735 -12.6968 0.0000 -21.0736 0.0000
# 3 -2.2643 -12.6968 99.0612 0.0000 -19.9222 0.0000
# 4 0.0000 0.0000 0.0000 52.0919 0.0000 -2.8152
# 5 -3.6674 -21.0736 -19.9222 0.0000 44.5575 0.0000
# 6 0.0000 0.0000 0.0000 -2.8152 0.0000 32.8516
#
#
#
# Elastic Compliance Matrix: (Units=1/GPa)
#
#
# Indices 1 2 3 4 5 6 
#
# 1 0.010016 0.001356 0.000766 0.000000 0.001808 0.000000
# 2 0.001356 0.011322 0.002836 0.000000 0.006735 0.000000
# 3 0.000766 0.002836 0.011821 0.000000 0.006690 0.000000
# 4 0.000000 0.000000 0.000000 0.019286 0.000000 0.001653
# 5 0.001808 0.006735 0.006690 0.000000 0.028768 0.000000
# 6 0.000000 0.000000 0.000000 0.001653 0.000000 0.030582
#
#
# Mechanical properties :
#
#
# Convention : Reuss Voigt Hill
#
# Bulk Modulus (GPa) = 23.21450 28.59410 25.90430
# Shear Modulus (GPa) = 43.01547 47.94052 45.47800
#
# Velocity S-wave (km/s) = 4.02173 4.24573 4.13525
# Velocity P-wave (km/s) = 5.50406 5.89802 5.70444
#
# Compressibility (1/GPa) = 0.04307652
#
# Stress axis : x y z
#
# Youngs Moduli (GPa) = 99.83538 88.32493 84.59319
#
# Poissons Ratio (x) = -0.11973 -0.06483
# Poissons Ratio (y) = -0.13534 -0.23995
# Poissons Ratio (z) = -0.07651 -0.25053
#
# Static dielectric constant tensor:
#      x y z
#    x 2.290940 0.000000 0.019870 
#    y 0.000000 2.399210 0.000000 
#    z 0.019870 0.000000 2.060310 
# 
# From -- ./inp_files/7422.got.cif
#   From: 2010.05.17/outbox.cif.g08.bks.cpg/sg14_4_cif.got.tgz:7422.got - 2010.06.03 17:49:19.
