data_PCOD9248600
_publ_section_title
;
Structure prediction by ZEFSAII (Michael W. Deem and Ramdas Pophale) SiO2 
 PCOD9248600
Probable space group: P 21/C
;
_chemical_formula_sum "Si O2"
_cell_formula_units_Z 28
_cell_length_a 9.550012
_cell_length_b 14.771915
_cell_length_c 10.269129
_cell_angle_alpha 90.000000
_cell_angle_beta 45.452895
_cell_angle_gamma 90.000000
_cell_volume 1032.440946
_symmetry_space_group_name_H-M "P 21/C"
_symmetry_group_IT_number 14
_symmetry_cell_setting 'monoclinic'
loop_
_space_group_symop_operation_xyz
x,y,z
-x,1/2+y,1/2-z
-x,-y,-z
x,1/2-y,1/2+z
loop_
_atom_site_type_symbol
_atom_site_label
_atom_site_fract_x
_atom_site_fract_y
_atom_site_fract_z
Si Si1 0.645350 0.678454 0.794325
Si Si2 0.951669 0.601820 0.112958
Si Si3 0.670176 0.474621 0.038001
Si Si4 0.390178 0.189147 0.009543
Si Si5 0.342942 0.325548 0.871876
Si Si6 0.701435 0.058425 0.861988
Si Si7 0.978502 0.563322 0.637154
O O1 0.580415 0.791293 0.834615
O O2 0.646408 0.704577 0.629281
O O3 0.877046 0.656199 0.660413
O O4 0.512122 0.588484 0.877652
O O5 0.819627 0.642300 0.318707
O O6 0.884546 0.653550 0.025133
O O7 0.855985 0.500840 0.179183
O O8 0.176205 0.599150 0.003683
O O9 0.817083 0.515514 0.834447
O O10 0.591196 0.566332 0.161930
O O11 0.382027 0.302673 0.010916
O O12 0.607133 0.146419 0.860879
O O13 0.818913 0.075312 0.917832
O O14 0.500000 0.000000 0.000000
O O15 0.000000 0.500000 0.500000
#
# Coordination Sequence:
#
# PCOD9248600 Si02
#       7
#     4   4   4   4   4   4   4
#     4  11  26  45  70 107 150 191 248 311 376 440
#     4   9  22  43  70 102 141 196 249 298 375 438
#     4  11  24  49  74 104 157 197 245 316 378 447
#     4  10  22  43  66 105 148 188 249 314 355 459
#     4  11  24  42  71 103 151 195 247 302 368 454
#     4   9  21  43  72  99 144 191 246 302 371 439
#     4  11  25  45  77 110 143 199 252 310 377 451
#
# _framework density 27.120197000000001
#
# number of rings (size 3 to 8) (size 9 to 14) (size 15 to 20)
#    0.000    1.714    1.429    0.857    8.000    4.571 
#    0.000    0.000    0.000    0.000    0.000    0.000 
#    0.000    0.000    0.000    0.000    0.000    0.000 
#
# Total GULP energy -155912.462260 kJ/mol
# GULP energy per Si atom -5568.302224 kJ/mol
# Density = 2.705847 g / cm^3
# Si number density = 27.120197 Si / 1000 Ang^3
#
#
#
# Elastic Constant Matrix: (Units=GPa)
#
#
# Indices 1 2 3 4 5 6 
#
# 1 266.1025 106.0584 72.3147 0.0000 -5.1849 0.0000
# 2 106.0584 154.5148 53.2493 0.0000 -2.8134 0.0000
# 3 72.3147 53.2493 153.1561 0.0000 17.0334 0.0000
# 4 0.0000 0.0000 0.0000 46.2236 0.0000 16.2914
# 5 -5.1849 -2.8134 17.0334 0.0000 53.8533 0.0000
# 6 0.0000 0.0000 0.0000 16.2914 0.0000 72.0154
#
#
#
# Elastic Compliance Matrix: (Units=1/GPa)
#
#
# Indices 1 2 3 4 5 6 
#
# 1 0.005478 -0.003204 -0.001568 0.000000 0.000856 0.000000
# 2 -0.003204 0.009307 -0.001806 0.000000 0.000749 0.000000
# 3 -0.001568 -0.001806 0.008214 0.000000 -0.002843 0.000000
# 4 0.000000 0.000000 0.000000 0.023508 0.000000 -0.005318
# 5 0.000856 0.000749 -0.002843 0.000000 0.019590 0.000000
# 6 0.000000 0.000000 0.000000 -0.005318 0.000000 0.015089
#
#
# Mechanical properties :
#
#
# Convention : Reuss Voigt Hill
#
# Bulk Modulus (GPa) = 101.59932 115.22424 108.41178
# Shear Modulus (GPa) = 51.21766 57.22852 54.22309
#
# Velocity S-wave (km/s) = 4.35045 4.59865 4.47627
# Velocity P-wave (km/s) = 7.92333 8.41282 8.17174
#
# Compressibility (1/GPa) = 0.00984259
#
# Stress axis : x y z
#
# Youngs Moduli (GPa) = 182.56131 107.44274 121.74787
#
# Poissons Ratio (x) = 0.34425 0.19084
# Poissons Ratio (y) = 0.58493 0.21993
# Poissons Ratio (z) = 0.28617 0.19409
#
# Static dielectric constant tensor:
#      x y z
#    x 64.719890 0.000000 -52.256030 
#    y 0.000000 3.711500 0.000000 
#    z -52.256030 0.000000 46.627260 
# 
# From -- ./inp_files/25433.got.cif
#   From: 2010.05.17/outbox.cif.g08.bks.cpg/sg14_13_cif.got.tgz:25433.got - 2010.06.03 17:49:19.
