data_PCOD9248373
_publ_section_title
;
Structure prediction by ZEFSAII (Michael W. Deem and Ramdas Pophale) SiO2 
 PCOD9248373
Probable space group: P 21/C
;
_chemical_formula_sum "Si O2"
_cell_formula_units_Z 26
_cell_length_a 12.590557
_cell_length_b 12.554738
_cell_length_c 13.003108
_cell_angle_alpha 90.000000
_cell_angle_beta 34.728481
_cell_angle_gamma 90.000000
_cell_volume 1170.946191
_symmetry_space_group_name_H-M "P 21/C"
_symmetry_group_IT_number 14
_symmetry_cell_setting 'monoclinic'
loop_
_space_group_symop_operation_xyz
x,y,z
-x,1/2+y,1/2-z
-x,-y,-z
x,1/2-y,1/2+z
loop_
_atom_site_type_symbol
_atom_site_label
_atom_site_fract_x
_atom_site_fract_y
_atom_site_fract_z
Si Si1 0.070847 0.772688 0.344978
Si Si2 0.449249 0.746172 0.168633
Si Si3 0.631703 0.967219 0.490653
Si Si4 0.282076 0.868406 0.994072
Si Si5 0.025758 0.040466 0.094734
Si Si6 0.000000 0.500000 0.000000
Si Si7 0.429910 0.979319 0.222813
O O1 0.268232 0.736758 0.239013
O O2 0.130401 0.815462 0.186458
O O3 0.947138 0.667118 0.431913
O O4 0.984532 0.871841 0.474378
O O5 0.607192 0.660637 0.015532
O O6 0.365154 0.713001 0.346210
O O7 0.515023 0.866779 0.121932
O O8 0.500000 0.000000 0.500000
O O9 0.836678 0.011768 0.306171
O O10 0.571305 0.008154 0.651632
O O11 0.186573 0.969676 0.015848
O O12 0.454184 0.922528 0.916130
O O13 0.000000 0.000000 0.000000
O O14 0.218245 0.519481 0.854273
#
# Coordination Sequence:
#
# PCOD9248373 Si02
#       7
#     4   4   4   4   4   2   4
#     4  11  23  45  67  98 141 182 226 291 339 412
#     4  10  22  42  66  99 136 177 227 285 340 410
#     4  11  21  41  68 100 131 178 226 277 344 406
#     4  11  24  41  68 101 135 180 232 280 347 413
#     4  12  23  43  66 100 138 180 233 281 343 414
#     4  10  24  44  68  98 138 178 226 278 342 408
#     4  10  23  44  66  98 138 173 231 279 344 410
#
# _framework density 22.204267000000002
#
# number of rings (size 3 to 8) (size 9 to 14) (size 15 to 20)
#    0.000    1.231    3.077    2.769    0.000    7.385 
#    5.538    0.000    0.000    0.000    0.000    0.000 
#    0.000    0.000    0.000    0.000    0.000    0.000 
#
# Total GULP energy -144859.263960 kJ/mol
# GULP energy per Si atom -5571.510152 kJ/mol
# Density = 2.215373 g / cm^3
# Si number density = 22.204267 Si / 1000 Ang^3
#
#
#
# Elastic Constant Matrix: (Units=GPa)
#
#
# Indices 1 2 3 4 5 6 
#
# 1 33.7041 15.1291 -3.6833 0.0000 -4.0298 0.0000
# 2 15.1291 128.8653 26.8081 0.0000 19.5633 0.0000
# 3 -3.6833 26.8081 47.1099 0.0000 3.3636 0.0000
# 4 0.0000 0.0000 0.0000 38.0541 0.0000 -6.6813
# 5 -4.0298 19.5633 3.3636 0.0000 19.1853 0.0000
# 6 0.0000 0.0000 0.0000 -6.6813 0.0000 38.1193
#
#
#
# Elastic Compliance Matrix: (Units=1/GPa)
#
#
# Indices 1 2 3 4 5 6 
#
# 1 0.035407 -0.007555 0.006063 0.000000 0.014079 0.000000
# 2 -0.007555 0.011904 -0.006466 0.000000 -0.012592 0.000000
# 3 0.006063 -0.006466 0.025133 0.000000 0.003460 0.000000
# 4 0.000000 0.000000 0.000000 0.027113 0.000000 0.004752
# 5 0.014079 -0.012592 0.003460 0.000000 0.067313 0.000000
# 6 0.000000 0.000000 0.000000 0.004752 0.000000 0.027066
#
#
# Mechanical properties :
#
#
# Convention : Reuss Voigt Hill
#
# Bulk Modulus (GPa) = 17.69052 31.79858 24.74455
# Shear Modulus (GPa) = 21.86308 30.50008 26.18158
#
# Velocity S-wave (km/s) = 3.14129 3.71025 3.43756
# Velocity P-wave (km/s) = 4.59798 5.71897 5.18884
#
# Compressibility (1/GPa) = 0.05652744
#
# Stress axis : x y z
#
# Youngs Moduli (GPa) = 28.24276 84.00772 39.78801
#
# Poissons Ratio (x) = 0.63471 -0.24122
# Poissons Ratio (y) = 0.21339 0.25725
# Poissons Ratio (z) = -0.17122 0.54316
#
# Static dielectric constant tensor:
#      x y z
#    x 1.862260 0.000000 0.001290 
#    y 0.000000 1.884180 0.000000 
#    z 0.001290 0.000000 1.871030 
# 
# From -- ./inp_files/47108.got.cif
#   From: 2010.05.17/outbox.cif.g08.bks.cpg/sg14_24_cif.got.tgz:47108.got - 2010.06.03 17:49:19.
