data_PCOD9248299
_publ_section_title
;
Structure prediction by ZEFSAII (Michael W. Deem and Ramdas Pophale) SiO2 
 PCOD9248299
Probable space group: P 21/C
;
_chemical_formula_sum "Si O2"
_cell_formula_units_Z 24
_cell_length_a 9.508413
_cell_length_b 8.043676
_cell_length_c 14.385786
_cell_angle_alpha 90.000000
_cell_angle_beta 97.707843
_cell_angle_gamma 90.000000
_cell_volume 1090.321187
_symmetry_space_group_name_H-M "P 21/C"
_symmetry_group_IT_number 14
_symmetry_cell_setting 'monoclinic'
loop_
_space_group_symop_operation_xyz
x,y,z
-x,1/2+y,1/2-z
-x,-y,-z
x,1/2-y,1/2+z
loop_
_atom_site_type_symbol
_atom_site_label
_atom_site_fract_x
_atom_site_fract_y
_atom_site_fract_z
Si Si1 0.434110 0.009754 0.266015
Si Si2 0.642901 0.082530 0.550373
Si Si3 0.164124 0.280674 0.698550
Si Si4 0.118794 0.359097 0.998368
Si Si5 0.330329 0.758618 0.636894
Si Si6 0.025121 0.864965 0.155568
O O1 0.315852 0.154511 0.247998
O O2 0.582008 0.090080 0.309516
O O3 0.385344 0.882957 0.344282
O O4 0.420312 0.905648 0.170752
O O5 0.681615 0.217230 0.475497
O O6 0.500000 0.000000 0.500000
O O7 0.764148 0.943505 0.556008
O O8 0.180898 0.181354 0.604458
O O9 0.071982 0.444844 0.665891
O O10 0.073765 0.180674 0.766186
O O11 0.000000 0.500000 0.000000
O O12 0.057157 0.196452 0.943247
O O13 0.173931 0.736281 0.665356
#
# Coordination Sequence:
#
# PCOD9248299 Si02
#       6
#     4   4   4   4   4   4
#     4  10  23  43  66  94 129 172 220 266 328 386
#     4  10  22  42  64  91 128 170 217 260 328 379
#     4  11  25  40  66  96 129 170 220 267 329 391
#     4  12  23  41  67  89 131 175 211 271 331 382
#     4  10  23  39  67  91 130 171 214 272 317 390
#     4  11  23  42  61  98 125 170 218 273 327 392
#
# _framework density 22.011862000000001
#
# number of rings (size 3 to 8) (size 9 to 14) (size 15 to 20)
#    0.000    1.333    3.333    1.500    7.000    0.000 
#    0.000    0.833    0.000    0.000    0.000    0.000 
#    0.000    0.000    0.000    0.000    0.000    0.000 
#
# Total GULP energy -134124.866500 kJ/mol
# GULP energy per Si atom -5588.536104 kJ/mol
# Density = 2.196176 g / cm^3
# Si number density = 22.011862 Si / 1000 Ang^3
#
#
#
# Elastic Constant Matrix: (Units=GPa)
#
#
# Indices 1 2 3 4 5 6 
#
# 1 47.7942 -1.4566 -11.9917 0.0000 8.1214 0.0000
# 2 -1.4566 39.2130 1.9650 0.0000 -1.1084 0.0000
# 3 -11.9917 1.9650 82.5352 0.0000 2.1102 0.0000
# 4 0.0000 0.0000 0.0000 43.7248 0.0000 12.0288
# 5 8.1214 -1.1084 2.1102 0.0000 23.6337 0.0000
# 6 0.0000 0.0000 0.0000 12.0288 0.0000 20.2704
#
#
#
# Elastic Compliance Matrix: (Units=1/GPa)
#
#
# Indices 1 2 3 4 5 6 
#
# 1 0.023242 0.000450 0.003578 0.000000 -0.008285 0.000000
# 2 0.000450 0.025578 -0.000572 0.000000 0.001096 0.000000
# 3 0.003578 -0.000572 0.012711 0.000000 -0.002391 0.000000
# 4 0.000000 0.000000 0.000000 0.027332 0.000000 -0.016219
# 5 -0.008285 0.001096 -0.002391 0.000000 0.045424 0.000000
# 6 0.000000 0.000000 0.000000 -0.016219 0.000000 0.058958
#
#
# Mechanical properties :
#
#
# Convention : Reuss Voigt Hill
#
# Bulk Modulus (GPa) = 14.61053 16.28618 15.44835
# Shear Modulus (GPa) = 23.90654 29.59416 26.75035
#
# Velocity S-wave (km/s) = 3.29914 3.67067 3.48985
# Velocity P-wave (km/s) = 4.60048 5.03786 4.82413
#
# Compressibility (1/GPa) = 0.06844379
#
# Stress axis : x y z
#
# Youngs Moduli (GPa) = 43.02485 39.09596 78.67416
#
# Poissons Ratio (x) = -0.01759 -0.28150
# Poissons Ratio (y) = -0.01936 0.04497
# Poissons Ratio (z) = -0.15395 0.02235
#
# Static dielectric constant tensor:
#      x y z
#    x 1.774670 0.000000 0.001800 
#    y 0.000000 1.818300 0.000000 
#    z 0.001800 0.000000 1.814160 
# 
# From -- ./inp_files/38927.got.cif
#   From: 2010.05.17/outbox.cif.g08.bks.cpg/sg14_20_cif.got.tgz:38927.got - 2010.06.03 17:49:19.
