data_PCOD9248615
_publ_section_title
;
Structure prediction by ZEFSAII (Michael W. Deem and Ramdas Pophale) SiO2 
 PCOD9248615
Probable space group: P 21/C
;
_chemical_formula_sum "Si O2"
_cell_formula_units_Z 20
_cell_length_a 17.223738
_cell_length_b 5.190417
_cell_length_c 12.838796
_cell_angle_alpha 90.000000
_cell_angle_beta 139.442559
_cell_angle_gamma 90.000000
_cell_volume 746.290032
_symmetry_space_group_name_H-M "P 21/C"
_symmetry_group_IT_number 14
_symmetry_cell_setting 'monoclinic'
loop_
_space_group_symop_operation_xyz
x,y,z
-x,1/2+y,1/2-z
-x,-y,-z
x,1/2-y,1/2+z
loop_
_atom_site_type_symbol
_atom_site_label
_atom_site_fract_x
_atom_site_fract_y
_atom_site_fract_z
Si Si1 0.817891 0.884885 0.021172
Si Si2 0.982584 0.118211 0.367716
Si Si3 0.795824 0.453990 0.268592
Si Si4 0.612297 0.773718 0.954982
Si Si5 0.445456 0.786724 0.525573
O O1 0.888444 0.632659 0.054717
O O2 0.818729 0.036606 0.913759
O O3 0.684736 0.858137 0.927150
O O4 0.897549 0.992037 0.195758
O O5 0.086273 0.612909 0.675806
O O6 0.000000 0.000000 0.500000
O O7 0.721763 0.697308 0.147836
O O8 0.693246 0.244341 0.145369
O O9 0.441336 0.986992 0.618021
O O10 0.525115 0.992040 0.915267
O O11 0.500000 0.000000 0.500000
#
# Coordination Sequence:
#
# PCOD9248615 Si02
#       5
#     4   4   4   4   4
#     4  12  22  40  64 101 132 192 223 289 345 426
#     4  12  24  40  65 100 149 190 245 286 357 429
#     4  10  24  41  66  98 140 180 231 291 352 419
#     4  10  22  43  67 100 133 173 232 284 347 417
#     4  10  22  45  71  95 134 177 221 296 359 413
#
# _framework density 26.799234999999999
#
# number of rings (size 3 to 8) (size 9 to 14) (size 15 to 20)
#    1.200    0.000    2.000    4.800    0.000    1.600 
#    0.000    2.000    0.000    0.000    0.000    0.000 
#    0.000    0.000    0.000    0.000    0.000    0.000 
#
# Total GULP energy -111444.096859 kJ/mol
# GULP energy per Si atom -5572.204843 kJ/mol
# Density = 2.673824 g / cm^3
# Si number density = 26.799235 Si / 1000 Ang^3
#
#
#
# Elastic Constant Matrix: (Units=GPa)
#
#
# Indices 1 2 3 4 5 6 
#
# 1 138.6060 21.5214 32.3385 0.0000 -8.9412 0.0000
# 2 21.5214 156.1167 22.1599 0.0000 -2.3316 0.0000
# 3 32.3385 22.1599 132.8126 0.0000 -24.1707 0.0000
# 4 0.0000 0.0000 0.0000 20.3288 0.0000 -0.9810
# 5 -8.9412 -2.3316 -24.1707 0.0000 54.2259 0.0000
# 6 0.0000 0.0000 0.0000 -0.9810 0.0000 34.7513
#
#
#
# Elastic Compliance Matrix: (Units=1/GPa)
#
#
# Indices 1 2 3 4 5 6 
#
# 1 0.007763 -0.000827 -0.001660 0.000000 0.000504 0.000000
# 2 -0.000827 0.006651 -0.000959 0.000000 -0.000278 0.000000
# 3 -0.001660 -0.000959 0.008746 0.000000 0.003583 0.000000
# 4 0.000000 0.000000 0.000000 0.049258 0.000000 0.001390
# 5 0.000504 -0.000278 0.003583 0.000000 0.020110 0.000000
# 6 0.000000 0.000000 0.000000 0.001390 0.000000 0.028815
#
#
# Mechanical properties :
#
#
# Convention : Reuss Voigt Hill
#
# Bulk Modulus (GPa) = 61.47222 64.39723 62.93473
# Shear Modulus (GPa) = 37.40863 45.29556 41.35210
#
# Velocity S-wave (km/s) = 3.74021 4.11564 3.93241
# Velocity P-wave (km/s) = 6.45291 6.83128 6.64479
#
# Compressibility (1/GPa) = 0.01626751
#
# Stress axis : x y z
#
# Youngs Moduli (GPa) = 128.81563 150.34334 114.33985
#
# Poissons Ratio (x) = 0.12433 0.18986
# Poissons Ratio (y) = 0.10652 0.10965
# Poissons Ratio (z) = 0.21389 0.14418
#
# Static dielectric constant tensor:
#      x y z
#    x 2.276590 0.000000 0.027120 
#    y 0.000000 2.365670 0.000000 
#    z 0.027120 0.000000 2.156500 
# 
# From -- ./inp_files/50924.got.cif
#   From: 2010.05.17/outbox.cif.g08.bks.cpg/sg14_26_cif.got.tgz:50924.got - 2010.06.03 17:49:19.
