data_PCOD9248872
_publ_section_title
;
Structure prediction by ZEFSAII (Michael W. Deem and Ramdas Pophale) SiO2 
 PCOD9248872
Probable space group: P 21/C
;
_chemical_formula_sum "Si O2"
_cell_formula_units_Z 28
_cell_length_a 19.284914
_cell_length_b 5.477329
_cell_length_c 13.965239
_cell_angle_alpha 90.000000
_cell_angle_beta 130.249840
_cell_angle_gamma 90.000000
_cell_volume 1125.881730
_symmetry_space_group_name_H-M "P 21/C"
_symmetry_group_IT_number 14
_symmetry_cell_setting 'monoclinic'
loop_
_space_group_symop_operation_xyz
x,y,z
-x,1/2+y,1/2-z
-x,-y,-z
x,1/2-y,1/2+z
loop_
_atom_site_type_symbol
_atom_site_label
_atom_site_fract_x
_atom_site_fract_y
_atom_site_fract_z
Si Si1 0.054605 0.919102 0.913586
Si Si2 0.808687 0.217357 0.103041
Si Si3 0.293420 0.301407 0.030408
Si Si4 0.446311 0.198981 0.516180
Si Si5 0.921886 0.699230 0.931834
Si Si6 0.208011 0.689833 0.190266
Si Si7 0.388279 0.522912 0.288572
O O1 0.133323 0.813889 0.056108
O O2 0.068747 0.197966 0.953079
O O3 0.088584 0.838458 0.841174
O O4 0.957124 0.856231 0.872409
O O5 0.800157 0.264976 0.207751
O O6 0.776267 0.470426 0.026307
O O7 0.751220 0.967719 0.025596
O O8 0.361718 0.376073 0.005364
O O9 0.353901 0.329909 0.180044
O O10 0.407122 0.391729 0.405619
O O11 0.519562 0.332175 0.650474
O O12 0.500000 0.000000 0.500000
O O13 0.822223 0.594718 0.831530
O O14 0.000000 0.500000 0.000000
O O15 0.307128 0.712955 0.235949
#
# Coordination Sequence:
#
# PCOD9248872 Si02
#       7
#     4   4   4   4   4   4   4
#     4  10  22  44  70 100 139 184 234 286 354 416
#     4  12  27  44  73 107 140 185 239 286 347 430
#     4  12  28  46  72 104 142 186 237 287 356 415
#     4  11  27  45  71 102 142 180 243 290 352 421
#     4   9  21  42  69  98 136 182 229 290 346 414
#     4  11  22  45  70  98 142 182 233 286 353 409
#     4  11  25  46  71 101 139 188 230 294 352 420
#
# _framework density 24.869396999999999
#
# number of rings (size 3 to 8) (size 9 to 14) (size 15 to 20)
#    0.000    1.143    2.857    1.714   10.000    2.286 
#    7.714    0.000    0.000    0.000    0.000    0.000 
#    0.000    0.000    0.000    0.000    0.000    0.000 
#
# Total GULP energy -156401.242368 kJ/mol
# GULP energy per Si atom -5585.758656 kJ/mol
# Density = 2.481279 g / cm^3
# Si number density = 24.869397 Si / 1000 Ang^3
#
#
#
# Elastic Constant Matrix: (Units=GPa)
#
#
# Indices 1 2 3 4 5 6 
#
# 1 120.8695 19.8449 5.2081 0.0000 -0.6705 0.0000
# 2 19.8449 79.0147 22.9647 0.0000 16.9425 0.0000
# 3 5.2081 22.9647 80.4965 0.0000 -2.0565 0.0000
# 4 0.0000 0.0000 0.0000 31.6821 0.0000 6.8695
# 5 -0.6705 16.9425 -2.0565 0.0000 28.7956 0.0000
# 6 0.0000 0.0000 0.0000 6.8695 0.0000 40.3177
#
#
#
# Elastic Compliance Matrix: (Units=1/GPa)
#
#
# Indices 1 2 3 4 5 6 
#
# 1 0.008706 -0.002633 0.000233 0.000000 0.001769 0.000000
# 2 -0.002633 0.016985 -0.004941 0.000000 -0.010408 0.000000
# 3 0.000233 -0.004941 0.013917 0.000000 0.003907 0.000000
# 4 0.000000 0.000000 0.000000 0.032774 0.000000 -0.005584
# 5 0.001769 -0.010408 0.003907 0.000000 0.041171 0.000000
# 6 0.000000 0.000000 0.000000 -0.005584 0.000000 0.025754
#
#
# Mechanical properties :
#
#
# Convention : Reuss Voigt Hill
#
# Bulk Modulus (GPa) = 40.12028 41.82399 40.97214
# Shear Modulus (GPa) = 30.80731 35.64994 33.22863
#
# Velocity S-wave (km/s) = 3.52343 3.79025 3.65927
# Velocity P-wave (km/s) = 5.72015 6.00072 5.86211
#
# Compressibility (1/GPa) = 0.02492505
#
# Stress axis : x y z
#
# Youngs Moduli (GPa) = 114.86953 58.87542 71.85320
#
# Poissons Ratio (x) = 0.15505 -0.01676
# Poissons Ratio (y) = 0.30251 0.35504
# Poissons Ratio (z) = -0.02679 0.29091
#
# Static dielectric constant tensor:
#      x y z
#    x 1.960940 0.000000 -0.008700 
#    y 0.000000 2.212260 0.000000 
#    z -0.008700 0.000000 2.006720 
# 
# From -- ./inp_files/49710.got.cif
#   From: 2010.05.17/outbox.cif.g08.bks.cpg/sg14_25_cif.got.tgz:49710.got - 2010.06.03 17:49:19.
