data_PCOD9248499
_publ_section_title
;
Structure prediction by ZEFSAII (Michael W. Deem and Ramdas Pophale) SiO2 
 PCOD9248499
Probable space group: P 21/C
;
_chemical_formula_sum "Si O2"
_cell_formula_units_Z 32
_cell_length_a 21.541834
_cell_length_b 5.343495
_cell_length_c 11.388355
_cell_angle_alpha 90.000000
_cell_angle_beta 102.941479
_cell_angle_gamma 90.000000
_cell_volume 1277.600820
_symmetry_space_group_name_H-M "P 21/C"
_symmetry_group_IT_number 14
_symmetry_cell_setting 'monoclinic'
loop_
_space_group_symop_operation_xyz
x,y,z
-x,1/2+y,1/2-z
-x,-y,-z
x,1/2-y,1/2+z
loop_
_atom_site_type_symbol
_atom_site_label
_atom_site_fract_x
_atom_site_fract_y
_atom_site_fract_z
Si Si1 0.042010 0.359321 0.759196
Si Si2 0.348720 0.079615 0.303538
Si Si3 0.213595 0.112683 0.355232
Si Si4 0.179618 0.862463 0.715375
Si Si5 0.412991 0.848901 0.674024
Si Si6 0.283718 0.477261 0.101791
Si Si7 0.466265 0.310109 0.401022
Si Si8 0.070830 0.387646 0.032117
O O1 0.069439 0.316483 0.638159
O O2 0.009680 0.632390 0.751424
O O3 0.082478 0.320568 0.898944
O O4 0.317771 0.271747 0.196853
O O5 0.400046 0.196286 0.416431
O O6 0.284211 0.019046 0.344631
O O7 0.392845 0.882799 0.251289
O O8 0.171563 0.874495 0.297370
O O9 0.193311 0.375886 0.289906
O O10 0.230167 0.146994 0.498301
O O11 0.242241 0.831425 0.661506
O O12 0.120461 0.911113 0.604354
O O13 0.472768 0.843630 0.613300
O O14 0.345826 0.882666 0.580387
O O15 0.438686 0.055781 0.774321
O O16 0.500000 0.500000 0.500000
O O17 0.000000 0.500000 0.000000
#
# Coordination Sequence:
#
# PCOD9248499 Si02
#       8
#     4   4   4   4   4   4   4   4
#     4  10  22  42  71 106 148 194 234 285 358 431
#     4  10  23  43  60  93 129 170 227 278 342 416
#     4  11  26  45  72  96 137 181 235 282 348 413
#     4  11  26  46  68 108 134 180 239 284 347 424
#     4  11  22  41  59  91 130 162 229 275 343 413
#     4  10  25  43  68  90 131 182 222 292 341 415
#     4  11  25  37  62  94 127 173 218 284 353 414
#     4  10  24  47  74 110 151 190 239 299 364 432
#
# _framework density 25.046945000000001
#
# number of rings (size 3 to 8) (size 9 to 14) (size 15 to 20)
#    0.000    1.500    2.500    0.375    7.000    4.500 
#    4.500    0.000    0.000    0.000    0.000    0.000 
#    0.000    0.000    0.000    0.000    0.000    0.000 
#
# Total GULP energy -178386.923213 kJ/mol
# GULP energy per Si atom -5574.591350 kJ/mol
# Density = 2.498994 g / cm^3
# Si number density = 25.046945 Si / 1000 Ang^3
#
#
#
# Elastic Constant Matrix: (Units=GPa)
#
#
# Indices 1 2 3 4 5 6 
#
# 1 85.4970 23.9527 27.9411 0.0000 25.1682 0.0000
# 2 23.9527 50.3312 28.1001 0.0000 22.9018 0.0000
# 3 27.9411 28.1001 151.7739 0.0000 35.5597 0.0000
# 4 0.0000 0.0000 0.0000 94.1997 0.0000 -28.6970
# 5 25.1682 22.9018 35.5597 0.0000 49.9112 0.0000
# 6 0.0000 0.0000 0.0000 -28.6970 0.0000 55.2268
#
#
#
# Elastic Compliance Matrix: (Units=1/GPa)
#
#
# Indices 1 2 3 4 5 6 
#
# 1 0.014574 -0.004317 -0.000751 0.000000 -0.004833 0.000000
# 2 -0.004317 0.027102 -0.002184 0.000000 -0.008703 0.000000
# 3 -0.000751 -0.002184 0.008172 0.000000 -0.004441 0.000000
# 4 0.000000 0.000000 0.000000 0.012612 0.000000 0.006554
# 5 -0.004833 -0.008703 -0.004441 0.000000 0.029630 0.000000
# 6 0.000000 0.000000 0.000000 0.006554 0.000000 0.021513
#
#
# Mechanical properties :
#
#
# Convention : Reuss Voigt Hill
#
# Bulk Modulus (GPa) = 28.29418 49.73222 39.01320
# Shear Modulus (GPa) = 35.74246 53.70809 44.72527
#
# Velocity S-wave (km/s) = 3.78169 4.63568 4.23029
# Velocity P-wave (km/s) = 5.51264 6.96788 6.28254
#
# Compressibility (1/GPa) = 0.03534296
#
# Stress axis : x y z
#
# Youngs Moduli (GPa) = 68.61506 36.89712 122.36949
#
# Poissons Ratio (x) = 0.15930 0.09195
# Poissons Ratio (y) = 0.29623 0.26726
# Poissons Ratio (z) = 0.05156 0.08058
#
# Static dielectric constant tensor:
#      x y z
#    x 2.392000 0.000000 -0.220670 
#    y 0.000000 2.075390 0.000000 
#    z -0.220670 0.000000 2.106390 
# 
# From -- ./inp_files/35537.got.cif
#   From: 2010.05.17/outbox.cif.g08.bks.cpg/sg14_18_cif.got.tgz:35537.got - 2010.06.03 17:49:19.
