data_PCOD9248718
_publ_section_title
;
Structure prediction by ZEFSAII (Michael W. Deem and Ramdas Pophale) SiO2 
 PCOD9248718
Probable space group: P 21/C
;
_chemical_formula_sum "Si O2"
_cell_formula_units_Z 24
_cell_length_a 8.935885
_cell_length_b 11.838204
_cell_length_c 11.026772
_cell_angle_alpha 90.000000
_cell_angle_beta 64.101202
_cell_angle_gamma 90.000000
_cell_volume 1049.313530
_symmetry_space_group_name_H-M "P 21/C"
_symmetry_group_IT_number 14
_symmetry_cell_setting 'monoclinic'
loop_
_space_group_symop_operation_xyz
x,y,z
-x,1/2+y,1/2-z
-x,-y,-z
x,1/2-y,1/2+z
loop_
_atom_site_type_symbol
_atom_site_label
_atom_site_fract_x
_atom_site_fract_y
_atom_site_fract_z
Si Si1 0.449417 0.818678 0.465961
Si Si2 0.379113 0.099492 0.078717
Si Si3 0.199330 0.431394 0.875935
Si Si4 0.993550 0.923004 0.883504
Si Si5 0.118153 0.814885 0.433590
Si Si6 0.722139 0.973918 0.370637
O O1 0.529842 0.711239 0.497592
O O2 0.290125 0.788084 0.441591
O O3 0.603959 0.883346 0.346820
O O4 0.380836 0.910455 0.583800
O O5 0.753752 0.934277 0.498217
O O6 0.803954 0.912936 0.909873
O O7 0.500000 0.000000 0.000000
O O8 0.345674 0.394239 0.735305
O O9 0.154442 0.562462 0.859358
O O10 0.893122 0.493238 0.749211
O O11 0.064050 0.795798 0.878976
O O12 0.000000 0.000000 0.000000
O O13 0.961975 0.849915 0.575582
#
# Coordination Sequence:
#
# PCOD9248718 Si02
#       6
#     4   4   4   4   4   4
#     4  10  23  43  71 103 136 177 232 283 345 409
#     4  12  27  44  70 105 140 180 236 293 342 413
#     4  10  23  49  73  97 139 188 231 280 355 414
#     4  12  27  45  70 103 143 183 232 286 351 416
#     4  10  22  43  71 100 136 183 225 282 349 415
#     4  10  24  49  73 100 138 187 231 285 349 416
#
# _framework density 22.872097
#
# number of rings (size 3 to 8) (size 9 to 14) (size 15 to 20)
#    0.000    1.333    0.000    5.000    4.667    9.333 
#    9.000    0.000    0.000    0.000    0.000    0.000 
#    0.000    0.000    0.000    0.000    0.000    0.000 
#
# Total GULP energy -134160.094439 kJ/mol
# GULP energy per Si atom -5590.003935 kJ/mol
# Density = 2.282004 g / cm^3
# Si number density = 22.872097 Si / 1000 Ang^3
#
#
#
# Elastic Constant Matrix: (Units=GPa)
#
#
# Indices 1 2 3 4 5 6 
#
# 1 193.2982 63.7125 57.9501 0.0000 -28.5364 0.0000
# 2 63.7125 98.9694 16.6525 0.0000 -7.4943 0.0000
# 3 57.9501 16.6525 68.2338 0.0000 6.6943 0.0000
# 4 0.0000 0.0000 0.0000 15.4261 0.0000 -5.9143
# 5 -28.5364 -7.4943 6.6943 0.0000 24.6336 0.0000
# 6 0.0000 0.0000 0.0000 -5.9143 0.0000 45.9778
#
#
#
# Elastic Compliance Matrix: (Units=1/GPa)
#
#
# Indices 1 2 3 4 5 6 
#
# 1 0.012402 -0.004957 -0.010875 0.000000 0.015814 0.000000
# 2 -0.004957 0.012918 0.001268 0.000000 -0.002156 0.000000
# 3 -0.010875 0.001268 0.025458 0.000000 -0.019130 0.000000
# 4 0.000000 0.000000 0.000000 0.068188 0.000000 0.008771
# 5 0.015814 -0.002156 -0.019130 0.000000 0.063457 0.000000
# 6 0.000000 0.000000 0.000000 0.008771 0.000000 0.022878
#
#
# Mechanical properties :
#
#
# Convention : Reuss Voigt Hill
#
# Bulk Modulus (GPa) = 46.18289 70.79240 58.48765
# Shear Modulus (GPa) = 20.69157 32.01993 26.35575
#
# Velocity S-wave (km/s) = 3.01103 3.74566 3.39825
# Velocity P-wave (km/s) = 5.68542 7.05161 6.40505
#
# Compressibility (1/GPa) = 0.02165304
#
# Stress axis : x y z
#
# Youngs Moduli (GPa) = 80.63333 77.40987 39.27984
#
# Poissons Ratio (x) = 0.38369 0.42715
# Poissons Ratio (y) = 0.39966 -0.04982
# Poissons Ratio (z) = 0.87685 -0.09819
#
# Static dielectric constant tensor:
#      x y z
#    x 1.895730 0.000000 0.003560 
#    y 0.000000 1.872630 0.000000 
#    z 0.003560 0.000000 1.891100 
# 
# From -- ./inp_files/39254.got.cif
#   From: 2010.05.17/outbox.cif.g08.bks.cpg/sg14_20_cif.got.tgz:39254.got - 2010.06.03 17:49:19.
