data_PCOD9248856
_publ_section_title
;
Structure prediction by ZEFSAII (Michael W. Deem and Ramdas Pophale) SiO2 
 PCOD9248856
Probable space group: P 21/C
;
_chemical_formula_sum "Si O2"
_cell_formula_units_Z 20
_cell_length_a 7.493436
_cell_length_b 6.596485
_cell_length_c 19.848458
_cell_angle_alpha 90.000000
_cell_angle_beta 119.951062
_cell_angle_gamma 90.000000
_cell_volume 850.090062
_symmetry_space_group_name_H-M "P 21/C"
_symmetry_group_IT_number 14
_symmetry_cell_setting 'monoclinic'
loop_
_space_group_symop_operation_xyz
x,y,z
-x,1/2+y,1/2-z
-x,-y,-z
x,1/2-y,1/2+z
loop_
_atom_site_type_symbol
_atom_site_label
_atom_site_fract_x
_atom_site_fract_y
_atom_site_fract_z
Si Si1 0.901110 0.021719 0.645203
Si Si2 0.747926 0.229244 0.989696
Si Si3 0.027847 0.365720 0.423217
Si Si4 0.723479 0.720282 0.319698
Si Si5 0.529107 0.958140 0.660256
O O1 0.754570 0.032216 0.681585
O O2 0.938212 0.792439 0.629244
O O3 0.784031 0.129319 0.560621
O O4 0.115651 0.139357 0.690739
O O5 0.935799 0.247668 0.971162
O O6 0.551709 0.302757 0.911222
O O7 0.772108 0.998113 0.019634
O O8 0.853311 0.529593 0.370392
O O9 0.546480 0.648479 0.235766
O O10 0.626226 0.855176 0.360377
#
# Coordination Sequence:
#
# PCOD9248856 Si02
#       5
#     4   4   4   4   4
#     4  11  25  46  71 100 138 180 229 285 345 409
#     4  10  22  44  69 105 136 177 225 285 344 409
#     4  10  22  44  73  96 142 181 218 285 353 398
#     4  11  27  46  65 102 138 183 229 286 342 410
#     4  12  26  45  72  98 141 180 235 282 344 412
#
# _framework density 23.526918999999999
#
# number of rings (size 3 to 8) (size 9 to 14) (size 15 to 20)
#    0.000    1.200    2.000    2.400    8.400    0.800 
#   10.800    0.000    0.000    0.000    0.000    0.000 
#    0.000    0.000    0.000    0.000    0.000    0.000 
#
# Total GULP energy -111972.819925 kJ/mol
# GULP energy per Si atom -5598.640996 kJ/mol
# Density = 2.347337 g / cm^3
# Si number density = 23.526919 Si / 1000 Ang^3
#
#
#
# Elastic Constant Matrix: (Units=GPa)
#
#
# Indices 1 2 3 4 5 6 
#
# 1 76.3564 25.3752 -25.4327 0.0000 -11.3012 0.0000
# 2 25.3752 97.8170 16.1105 0.0000 -3.0444 0.0000
# 3 -25.4327 16.1105 66.9990 0.0000 9.3932 0.0000
# 4 0.0000 0.0000 0.0000 31.0188 0.0000 7.1234
# 5 -11.3012 -3.0444 9.3932 0.0000 17.7788 0.0000
# 6 0.0000 0.0000 0.0000 7.1234 0.0000 12.2511
#
#
#
# Elastic Compliance Matrix: (Units=1/GPa)
#
#
# Indices 1 2 3 4 5 6 
#
# 1 0.018536 -0.005828 0.007479 0.000000 0.006833 0.000000
# 2 -0.005828 0.012674 -0.005448 0.000000 0.001344 0.000000
# 3 0.007479 -0.005448 0.020022 0.000000 -0.006757 0.000000
# 4 0.000000 0.000000 0.000000 0.037207 0.000000 -0.021634
# 5 0.006833 0.001344 -0.006757 0.000000 0.064390 0.000000
# 6 0.000000 0.000000 0.000000 -0.021634 0.000000 0.094204
#
#
# Mechanical properties :
#
#
# Convention : Reuss Voigt Hill
#
# Bulk Modulus (GPa) = 22.91521 30.36428 26.63974
# Shear Modulus (GPa) = 18.57543 27.21768 22.89656
#
# Velocity S-wave (km/s) = 2.81292 3.40498 3.12301
# Velocity P-wave (km/s) = 4.50679 5.32848 4.93477
#
# Compressibility (1/GPa) = 0.04363914
#
# Stress axis : x y z
#
# Youngs Moduli (GPa) = 53.95000 78.90096 49.94454
#
# Poissons Ratio (x) = 0.45981 -0.37356
# Poissons Ratio (y) = 0.31440 0.27211
# Poissons Ratio (z) = -0.40352 0.42987
#
# Static dielectric constant tensor:
#      x y z
#    x 1.896600 0.000000 0.030250 
#    y 0.000000 1.911190 0.000000 
#    z 0.030250 0.000000 1.871850 
# 
# From -- ./inp_files/64226.got.cif
#   From: 2010.05.17/outbox.cif.g08.bks.cpg/sg14_33_cif.got.tgz:64226.got - 2010.06.03 17:49:19.
