data_PCOD9248556
_publ_section_title
;
Structure prediction by ZEFSAII (Michael W. Deem and Ramdas Pophale) SiO2 
 PCOD9248556
Probable space group: P 21/C
;
_chemical_formula_sum "Si O2"
_cell_formula_units_Z 30
_cell_length_a 10.923534
_cell_length_b 12.887867
_cell_length_c 20.696540
_cell_angle_alpha 90.000000
_cell_angle_beta 151.221523
_cell_angle_gamma 90.000000
_cell_volume 1402.717153
_symmetry_space_group_name_H-M "P 21/C"
_symmetry_group_IT_number 14
_symmetry_cell_setting 'monoclinic'
loop_
_space_group_symop_operation_xyz
x,y,z
-x,1/2+y,1/2-z
-x,-y,-z
x,1/2-y,1/2+z
loop_
_atom_site_type_symbol
_atom_site_label
_atom_site_fract_x
_atom_site_fract_y
_atom_site_fract_z
Si Si1 0.288380 0.142065 0.470308
Si Si2 0.910338 0.018156 0.031989
Si Si3 0.598396 0.647478 0.709307
Si Si4 0.155700 0.503522 0.278223
Si Si5 0.331075 0.377737 0.483711
Si Si6 0.753585 0.945804 0.413439
Si Si7 0.597320 0.890708 0.677695
Si Si8 0.500000 0.000000 0.500000
O O1 0.275733 0.258715 0.443768
O O2 0.200768 0.124213 0.502375
O O3 0.561832 0.093306 0.583499
O O4 0.129432 0.052797 0.356027
O O5 0.126438 0.065557 0.177087
O O6 0.806853 0.911610 0.014501
O O7 0.675581 0.096926 0.929434
O O8 0.000000 0.000000 0.000000
O O9 0.794014 0.579340 0.755781
O O10 0.648380 0.624899 0.807521
O O11 0.598039 0.768122 0.692393
O O12 0.222158 0.447509 0.375481
O O13 0.368199 0.594421 0.369668
O O14 0.578311 0.040891 0.355707
O O15 0.000000 0.000000 0.500000
O O16 0.508119 0.912087 0.563756
#
# Coordination Sequence:
#
# PCOD9248556 Si02
#       8
#     4   4   4   4   4   4   4   2
#     4  11  23  40  70  92 133 176 216 281 336 397
#     4  11  24  44  63 100 140 169 230 281 324 421
#     4  11  24  42  70  97 138 180 225 272 349 396
#     4  10  22  43  62  93 133 166 225 278 321 412
#     4  10  24  41  65  95 126 177 218 273 343 388
#     4  11  24  42  62 103 138 173 229 277 328 419
#     4  11  25  43  71  97 137 185 218 289 339 395
#     4  10  24  44  62 104 130 164 236 270 330 406
#
# _framework density 21.387063000000001
#
# number of rings (size 3 to 8) (size 9 to 14) (size 15 to 20)
#    0.000    1.333    2.667    1.600    3.733    3.200 
#    0.000    2.667    0.000    0.000    0.000    0.000 
#    0.000    0.000    0.000    0.000    0.000    0.000 
#
# Total GULP energy -167225.183404 kJ/mol
# GULP energy per Si atom -5574.172780 kJ/mol
# Density = 2.133838 g / cm^3
# Si number density = 21.387063 Si / 1000 Ang^3
#
#
#
# Elastic Constant Matrix: (Units=GPa)
#
#
# Indices 1 2 3 4 5 6 
#
# 1 109.1358 44.6685 7.2912 0.0000 -18.9140 0.0000
# 2 44.6685 166.4685 31.3876 0.0000 0.9639 0.0000
# 3 7.2912 31.3876 62.2594 0.0000 -8.1237 0.0000
# 4 0.0000 0.0000 0.0000 16.1276 0.0000 -9.2388
# 5 -18.9140 0.9639 -8.1237 0.0000 34.8282 0.0000
# 6 0.0000 0.0000 0.0000 -9.2388 0.0000 19.7631
#
#
#
# Elastic Compliance Matrix: (Units=1/GPa)
#
#
# Indices 1 2 3 4 5 6 
#
# 1 0.011629 -0.003389 0.001220 0.000000 0.006693 0.000000
# 2 -0.003389 0.007659 -0.003850 0.000000 -0.002950 0.000000
# 3 0.001220 -0.003850 0.018524 0.000000 0.005090 0.000000
# 4 0.000000 0.000000 0.000000 0.084683 0.000000 0.039588
# 5 0.006693 -0.002950 0.005090 0.000000 0.033616 0.000000
# 6 0.000000 0.000000 0.000000 0.039588 0.000000 0.069106
#
#
# Mechanical properties :
#
#
# Convention : Reuss Voigt Hill
#
# Bulk Modulus (GPa) = 38.79761 56.06205 47.42983
# Shear Modulus (GPa) = 20.33797 31.11154 25.72476
#
# Velocity S-wave (km/s) = 3.08709 3.81818 3.47193
# Velocity P-wave (km/s) = 5.55760 6.76077 6.18849
#
# Compressibility (1/GPa) = 0.02577478
#
# Stress axis : x y z
#
# Youngs Moduli (GPa) = 85.99533 130.55766 53.98465
#
# Poissons Ratio (x) = 0.44247 -0.06587
# Poissons Ratio (y) = 0.29145 0.20782
# Poissons Ratio (z) = -0.10493 0.50259
#
# Static dielectric constant tensor:
#      x y z
#    x 1.619610 0.000000 -0.148050 
#    y 0.000000 1.682300 0.000000 
#    z -0.148050 0.000000 1.690630 
# 
# From -- ./inp_files/67448.got.cif
#   From: 2010.05.17/outbox.cif.g08.bks.cpg/sg14_34_cif.got.tgz:67448.got - 2010.06.03 17:49:19.
