data_PCOD9248508
_publ_section_title
;
Structure prediction by ZEFSAII (Michael W. Deem and Ramdas Pophale) SiO2 
 PCOD9248508
Probable space group: P 21/C
;
_chemical_formula_sum "Si O2"
_cell_formula_units_Z 20
_cell_length_a 10.985173
_cell_length_b 15.121592
_cell_length_c 12.512488
_cell_angle_alpha 90.000000
_cell_angle_beta 23.614250
_cell_angle_gamma 90.000000
_cell_volume 832.595430
_symmetry_space_group_name_H-M "P 21/C"
_symmetry_group_IT_number 14
_symmetry_cell_setting 'monoclinic'
loop_
_space_group_symop_operation_xyz
x,y,z
-x,1/2+y,1/2-z
-x,-y,-z
x,1/2-y,1/2+z
loop_
_atom_site_type_symbol
_atom_site_label
_atom_site_fract_x
_atom_site_fract_y
_atom_site_fract_z
Si Si1 0.638907 0.832568 0.635775
Si Si2 0.220431 0.521692 0.418551
Si Si3 0.160431 0.926962 0.614159
Si Si4 0.741936 0.252327 0.392847
Si Si5 0.346081 0.094724 0.148093
O O1 0.722148 0.897060 0.669900
O O2 0.939464 0.799491 0.338584
O O3 0.475199 0.752675 0.828976
O O4 0.381117 0.883564 0.779379
O O5 0.000000 0.500000 0.500000
O O6 0.022038 0.507949 0.684621
O O7 0.507172 0.456161 0.187921
O O8 0.188925 0.849848 0.680350
O O9 0.951179 0.895970 0.684775
O O10 0.567712 0.319538 0.453054
O O11 0.500000 0.000000 0.000000
#
# Coordination Sequence:
#
# PCOD9248508 Si02
#       5
#     4   4   4   4   4
#     4  10  22  44  66  97 128 178 220 276 331 400
#     4  12  26  43  68  95 135 182 225 269 332 412
#     4  12  25  43  68 100 131 176 224 276 347 389
#     4  10  24  41  63 103 133 166 216 287 337 385
#     4  10  22  42  71  96 131 171 234 272 333 402
#
# _framework density 24.021267999999999
#
# number of rings (size 3 to 8) (size 9 to 14) (size 15 to 20)
#    1.200    0.000    2.000    4.200    2.800    4.800 
#    0.000    0.000    0.000    0.000    0.000    0.000 
#    0.000    0.000    0.000    0.000    0.000    0.000 
#
# Total GULP energy -111696.683555 kJ/mol
# GULP energy per Si atom -5584.834178 kJ/mol
# Density = 2.396659 g / cm^3
# Si number density = 24.021268 Si / 1000 Ang^3
#
#
#
# Elastic Constant Matrix: (Units=GPa)
#
#
# Indices 1 2 3 4 5 6 
#
# 1 82.7503 -17.2003 17.4665 0.0000 -23.9366 0.0000
# 2 -17.2003 74.8760 8.8428 0.0000 4.9473 0.0000
# 3 17.4665 8.8428 109.7202 0.0000 -21.9248 0.0000
# 4 0.0000 0.0000 0.0000 18.4098 0.0000 2.4114
# 5 -23.9366 4.9473 -21.9248 0.0000 29.6902 0.0000
# 6 0.0000 0.0000 0.0000 2.4114 0.0000 23.9298
#
#
#
# Elastic Compliance Matrix: (Units=1/GPa)
#
#
# Indices 1 2 3 4 5 6 
#
# 1 0.016380 0.002983 -0.000362 0.000000 0.012441 0.000000
# 2 0.002983 0.014359 -0.001912 0.000000 -0.001399 0.000000
# 3 -0.000362 -0.001912 0.010946 0.000000 0.008110 0.000000
# 4 0.000000 0.000000 0.000000 0.055045 0.000000 -0.005547
# 5 0.012441 -0.001399 0.008110 0.000000 0.049934 0.000000
# 6 0.000000 0.000000 0.000000 -0.005547 0.000000 0.042348
#
#
# Mechanical properties :
#
#
# Convention : Reuss Voigt Hill
#
# Bulk Modulus (GPa) = 23.19925 31.72939 27.46432
# Shear Modulus (GPa) = 24.75726 31.62178 28.18952
#
# Velocity S-wave (km/s) = 3.21384 3.63217 3.42939
# Velocity P-wave (km/s) = 4.84257 5.55227 5.20952
#
# Compressibility (1/GPa) = 0.04310484
#
# Stress axis : x y z
#
# Youngs Moduli (GPa) = 61.05051 69.64280 91.35425
#
# Poissons Ratio (x) = -0.20778 0.03306
# Poissons Ratio (y) = -0.18214 0.17465
# Poissons Ratio (z) = 0.02209 0.13314
#
# Static dielectric constant tensor:
#      x y z
#    x 1.934180 0.000000 0.018170 
#    y 0.000000 2.017480 0.000000 
#    z 0.018170 0.000000 1.860050 
# 
# From -- ./inp_files/45346.got.cif
#   From: 2010.05.17/outbox.cif.g08.bks.cpg/sg14_23_cif.got.tgz:45346.got - 2010.06.03 17:49:19.
