data_PCOD9248804
_publ_section_title
;
Structure prediction by ZEFSAII (Michael W. Deem and Ramdas Pophale) SiO2 
 PCOD9248804
Probable space group: P 21/C
;
_chemical_formula_sum "Si O2"
_cell_formula_units_Z 28
_cell_length_a 14.054167
_cell_length_b 8.557922
_cell_length_c 10.406307
_cell_angle_alpha 90.000000
_cell_angle_beta 118.673236
_cell_angle_gamma 90.000000
_cell_volume 1098.128192
_symmetry_space_group_name_H-M "P 21/C"
_symmetry_group_IT_number 14
_symmetry_cell_setting 'monoclinic'
loop_
_space_group_symop_operation_xyz
x,y,z
-x,1/2+y,1/2-z
-x,-y,-z
x,1/2-y,1/2+z
loop_
_atom_site_type_symbol
_atom_site_label
_atom_site_fract_x
_atom_site_fract_y
_atom_site_fract_z
Si Si1 0.842183 0.415485 0.949432
Si Si2 0.423295 0.382002 0.727812
Si Si3 0.351623 0.974786 0.515214
Si Si4 0.774458 0.085775 0.805651
Si Si5 0.057228 0.081918 0.244587
Si Si6 0.370059 0.318797 0.423415
Si Si7 0.134685 0.072056 0.791993
O O1 0.717862 0.451298 0.903396
O O2 0.834045 0.239517 0.894776
O O3 0.888913 0.526739 0.870235
O O4 0.902449 0.461277 0.119367
O O5 0.523970 0.450784 0.871433
O O6 0.316883 0.492317 0.672174
O O7 0.449523 0.365562 0.592861
O O8 0.403286 0.221528 0.798097
O O9 0.297366 0.868991 0.368401
O O10 0.333455 0.147194 0.448848
O O11 0.870569 0.966142 0.830039
O O12 0.090380 0.257395 0.300023
O O13 0.928935 0.051498 0.161499
O O14 0.264494 0.424834 0.372038
#
# Coordination Sequence:
#
# PCOD9248804 Si02
#       7
#     4   4   4   4   4   4   4
#     4  11  24  45  69 103 143 188 247 310 358 438
#     4  11  24  43  74 104 146 196 243 304 371 440
#     4  10  23  42  71  97 149 188 240 304 372 430
#     4  10  22  44  67 101 140 190 244 303 357 437
#     4  11  25  45  70 101 144 191 243 305 369 434
#     4  11  23  45  69 104 147 185 248 306 356 433
#     4  12  24  46  70 100 145 190 242 300 376 423
#
# _framework density 25.497933
#
# number of rings (size 3 to 8) (size 9 to 14) (size 15 to 20)
#    0.000    1.143    4.286    3.857    4.000    3.429 
#    0.000    3.571    0.000    0.000    0.000    0.000 
#    0.000    0.000    0.000    0.000    0.000    0.000 
#
# Total GULP energy -156448.106533 kJ/mol
# GULP energy per Si atom -5587.432376 kJ/mol
# Density = 2.543990 g / cm^3
# Si number density = 25.497933 Si / 1000 Ang^3
#
#
#
# Elastic Constant Matrix: (Units=GPa)
#
#
# Indices 1 2 3 4 5 6 
#
# 1 69.6970 -21.8679 -0.2029 0.0000 2.7676 0.0000
# 2 -21.8679 34.3557 25.8867 0.0000 -7.6317 0.0000
# 3 -0.2029 25.8867 109.1251 0.0000 -2.5630 0.0000
# 4 0.0000 0.0000 0.0000 40.6055 0.0000 3.7384
# 5 2.7676 -7.6317 -2.5630 0.0000 20.5533 0.0000
# 6 0.0000 0.0000 0.0000 3.7384 0.0000 32.0000
#
#
#
# Elastic Compliance Matrix: (Units=1/GPa)
#
#
# Indices 1 2 3 4 5 6 
#
# 1 0.019069 0.015422 -0.003559 0.000000 0.002715 0.000000
# 2 0.015422 0.051222 -0.011759 0.000000 0.015476 0.000000
# 3 -0.003559 -0.011759 0.011890 0.000000 -0.002404 0.000000
# 4 0.000000 0.000000 0.000000 0.024895 0.000000 -0.002908
# 5 0.002715 0.015476 -0.002404 0.000000 0.053735 0.000000
# 6 0.000000 0.000000 0.000000 -0.002908 0.000000 0.031590
#
#
# Mechanical properties :
#
#
# Convention : Reuss Voigt Hill
#
# Bulk Modulus (GPa) = 12.13750 24.53439 18.33594
# Shear Modulus (GPa) = 22.76302 32.58922 27.67612
#
# Velocity S-wave (km/s) = 2.99112 3.57895 3.29815
# Velocity P-wave (km/s) = 4.08651 5.16928 4.65946
#
# Compressibility (1/GPa) = 0.08238930
#
# Stress axis : x y z
#
# Youngs Moduli (GPa) = 52.44241 19.52293 84.10345
#
# Poissons Ratio (x) = -0.30109 0.29935
# Poissons Ratio (y) = -0.80879 0.98895
# Poissons Ratio (z) = 0.18666 0.22956
#
# Static dielectric constant tensor:
#      x y z
#    x 2.047950 0.000000 0.014150 
#    y 0.000000 1.978040 0.000000 
#    z 0.014150 0.000000 2.104050 
# 
# From -- ./inp_files/31651.got.cif
#   From: 2010.05.17/outbox.cif.g08.bks.cpg/sg14_16_cif.got.tgz:31651.got - 2010.06.03 17:49:19.
