data_PCOD9248119
_publ_section_title
;
Structure prediction by ZEFSAII (Michael W. Deem and Ramdas Pophale) SiO2 
 PCOD9248119
Probable space group: P 21/C
;
_chemical_formula_sum "Si O2"
_cell_formula_units_Z 20
_cell_length_a 10.574781
_cell_length_b 5.077955
_cell_length_c 27.568970
_cell_angle_alpha 90.000000
_cell_angle_beta 144.328360
_cell_angle_gamma 90.000000
_cell_volume 863.282608
_symmetry_space_group_name_H-M "P 21/C"
_symmetry_group_IT_number 14
_symmetry_cell_setting 'monoclinic'
loop_
_space_group_symop_operation_xyz
x,y,z
-x,1/2+y,1/2-z
-x,-y,-z
x,1/2-y,1/2+z
loop_
_atom_site_type_symbol
_atom_site_label
_atom_site_fract_x
_atom_site_fract_y
_atom_site_fract_z
Si Si1 0.600923 0.250111 0.557225
Si Si2 0.498652 0.987561 0.624844
Si Si3 0.395300 0.254880 0.695145
Si Si4 0.048448 0.750108 0.481465
Si Si5 0.045896 0.218892 0.734036
O O1 0.500000 0.500000 0.500000
O O2 0.861540 0.263139 0.636607
O O3 0.500000 0.000000 0.500000
O O4 0.541463 0.193633 0.594857
O O5 0.299210 0.797406 0.547088
O O6 0.711899 0.812176 0.700908
O O7 0.447300 0.147717 0.657595
O O8 0.493300 0.542308 0.734873
O O9 0.133868 0.256958 0.617000
O O10 0.000000 0.500000 0.500000
O O11 0.000000 0.000000 0.500000
O O12 0.975210 0.417795 0.755629
#
# Coordination Sequence:
#
# PCOD9248119 Si02
#       5
#     4   4   4   4   4
#     4  11  24  41  65  98 130 170 226 273 329 409
#     4  10  24  44  68  92 138 181 210 283 343 378
#     4  11  24  41  65  98 128 167 224 270 325 404
#     4  10  22  41  65  94 129 172 222 270 330 403
#     4  10  22  41  65  94 128 170 219 266 327 402
#
# _framework density 23.167384999999999
#
# number of rings (size 3 to 8) (size 9 to 14) (size 15 to 20)
#    0.000    1.600    0.000    4.800    0.000   17.600 
#    0.000    0.000    0.000    0.000    0.000    0.000 
#    0.000    0.000    0.000    0.000    0.000    0.000 
#
# Total GULP energy -111889.400702 kJ/mol
# GULP energy per Si atom -5594.470035 kJ/mol
# Density = 2.311465 g / cm^3
# Si number density = 23.167385 Si / 1000 Ang^3
#
#
#
# Elastic Constant Matrix: (Units=GPa)
#
#
# Indices 1 2 3 4 5 6 
#
# 1 98.8080 12.1256 39.1592 0.0000 11.5492 0.0000
# 2 12.1256 122.6206 41.4468 0.0000 11.5236 0.0000
# 3 39.1592 41.4468 215.7546 0.0000 46.4377 0.0000
# 4 0.0000 0.0000 0.0000 51.6321 0.0000 -7.1292
# 5 11.5492 11.5236 46.4377 0.0000 45.3445 0.0000
# 6 0.0000 0.0000 0.0000 -7.1292 0.0000 33.0944
#
#
#
# Elastic Compliance Matrix: (Units=1/GPa)
#
#
# Indices 1 2 3 4 5 6 
#
# 1 0.010958 -0.000419 -0.001707 0.000000 -0.000937 0.000000
# 2 -0.000419 0.008752 -0.001475 0.000000 -0.000607 0.000000
# 3 -0.001707 -0.001475 0.006483 0.000000 -0.005829 0.000000
# 4 0.000000 0.000000 0.000000 0.019962 0.000000 0.004300
# 5 -0.000937 -0.000607 -0.005829 0.000000 0.028416 0.000000
# 6 0.000000 0.000000 0.000000 0.004300 0.000000 0.031143
#
#
# Mechanical properties :
#
#
# Convention : Reuss Voigt Hill
#
# Bulk Modulus (GPa) = 52.65206 69.18292 60.91749
# Shear Modulus (GPa) = 41.93063 48.97763 45.45413
#
# Velocity S-wave (km/s) = 4.25891 4.60290 4.43424
# Velocity P-wave (km/s) = 6.85277 7.62731 7.25039
#
# Compressibility (1/GPa) = 0.01899261
#
# Stress axis : x y z
#
# Youngs Moduli (GPa) = 91.25803 114.25781 154.25783
#
# Poissons Ratio (x) = 0.04783 0.26329
# Poissons Ratio (y) = 0.03821 0.22746
# Poissons Ratio (z) = 0.15576 0.16848
#
# Static dielectric constant tensor:
#      x y z
#    x 1.915770 0.000000 0.031690 
#    y 0.000000 1.797570 0.000000 
#    z 0.031690 0.000000 1.908860 
# 
# From -- ./inp_files/79843.got.cif
#   From: 2010.05.17/outbox.cif.g08.bks.cpg/sg14_40_cif.got.tgz:79843.got - 2010.06.03 17:49:19.
