data_PCOD9248825
_publ_section_title
;
Structure prediction by ZEFSAII (Michael W. Deem and Ramdas Pophale) SiO2 
 PCOD9248825
Probable space group: P 21/C
;
_chemical_formula_sum "Si O2"
_cell_formula_units_Z 32
_cell_length_a 21.906938
_cell_length_b 9.403534
_cell_length_c 14.429884
_cell_angle_alpha 90.000000
_cell_angle_beta 30.155750
_cell_angle_gamma 90.000000
_cell_volume 1493.289536
_symmetry_space_group_name_H-M "P 21/C"
_symmetry_group_IT_number 14
_symmetry_cell_setting 'monoclinic'
loop_
_space_group_symop_operation_xyz
x,y,z
-x,1/2+y,1/2-z
-x,-y,-z
x,1/2-y,1/2+z
loop_
_atom_site_type_symbol
_atom_site_label
_atom_site_fract_x
_atom_site_fract_y
_atom_site_fract_z
Si Si1 0.605777 0.963148 0.931567
Si Si2 0.124700 0.946086 0.884029
Si Si3 0.258054 0.165260 0.979560
Si Si4 0.789455 0.544942 0.047031
Si Si5 0.437567 0.568911 0.305625
Si Si6 0.313457 0.320364 0.091878
Si Si7 0.075494 0.576238 0.661572
Si Si8 0.232912 0.797904 0.568201
O O1 0.729764 0.012395 0.719278
O O2 0.622602 0.796310 0.928372
O O3 0.500000 0.000000 0.000000
O O4 0.577598 0.031752 0.066932
O O5 0.188419 0.835548 0.729933
O O6 0.217243 0.079063 0.767629
O O7 0.098558 0.894577 0.022302
O O8 0.000000 0.000000 0.000000
O O9 0.267170 0.301502 0.902370
O O10 0.247445 0.231953 0.096526
O O11 0.144414 0.068832 0.099490
O O12 0.372812 0.058477 0.833684
O O13 0.760709 0.441332 0.999528
O O14 0.933098 0.562055 0.865090
O O15 0.358959 0.712362 0.395894
O O16 0.576305 0.589573 0.096133
O O17 0.133532 0.698879 0.648243
#
# Coordination Sequence:
#
# PCOD9248825 Si02
#       8
#     4   4   4   4   4   4   4   4
#     4  11  25  41  68 102 130 183 234 278 355 411
#     4  12  25  44  71 104 136 190 237 281 359 422
#     4  10  22  44  67  99 135 177 225 282 339 409
#     4  12  22  43  70  93 140 177 222 287 340 413
#     4  10  25  45  67  98 141 176 230 289 346 410
#     4  11  23  45  73  95 140 183 229 292 342 416
#     4  11  25  45  68 102 142 181 232 283 351 414
#     4  11  25  44  68 101 141 178 233 291 342 417
#
# _framework density 21.429198
#
# number of rings (size 3 to 8) (size 9 to 14) (size 15 to 20)
#    0.000    1.000    2.500    3.000    7.000    0.000 
#    0.000    5.000    0.000    0.000    0.000    0.000 
#    0.000    0.000    0.000    0.000    0.000    0.000 
#
# Total GULP energy -179101.338481 kJ/mol
# GULP energy per Si atom -5596.916828 kJ/mol
# Density = 2.138042 g / cm^3
# Si number density = 21.429198 Si / 1000 Ang^3
#
#
#
# Elastic Constant Matrix: (Units=GPa)
#
#
# Indices 1 2 3 4 5 6 
#
# 1 92.2565 41.5663 40.0707 0.0000 -9.6258 0.0000
# 2 41.5663 91.5054 22.7677 0.0000 -6.0355 0.0000
# 3 40.0707 22.7677 131.2498 0.0000 -2.6857 0.0000
# 4 0.0000 0.0000 0.0000 14.1326 0.0000 4.4132
# 5 -9.6258 -6.0355 -2.6857 0.0000 25.5873 0.0000
# 6 0.0000 0.0000 0.0000 4.4132 0.0000 25.9171
#
#
#
# Elastic Compliance Matrix: (Units=1/GPa)
#
#
# Indices 1 2 3 4 5 6 
#
# 1 0.015479 -0.005861 -0.003626 0.000000 0.004060 0.000000
# 2 -0.005861 0.013801 -0.000584 0.000000 0.000989 0.000000
# 3 -0.003626 -0.000584 0.008816 0.000000 -0.000577 0.000000
# 4 0.000000 0.000000 0.000000 0.074732 0.000000 -0.012726
# 5 0.004060 0.000989 -0.000577 0.000000 0.040782 0.000000
# 6 0.000000 0.000000 0.000000 -0.012726 0.000000 0.040752
#
#
# Mechanical properties :
#
#
# Convention : Reuss Voigt Hill
#
# Bulk Modulus (GPa) = 55.70198 58.20235 56.95217
# Shear Modulus (GPa) = 22.67691 27.16785 24.92238
#
# Velocity S-wave (km/s) = 3.25657 3.56447 3.41399
# Velocity P-wave (km/s) = 6.33958 6.64529 6.49423
#
# Compressibility (1/GPa) = 0.01795268
#
# Stress axis : x y z
#
# Youngs Moduli (GPa) = 64.60550 72.45628 113.43522
#
# Poissons Ratio (x) = 0.42468 0.41129
# Poissons Ratio (y) = 0.37867 0.06630
# Poissons Ratio (z) = 0.23425 0.04235
#
# Static dielectric constant tensor:
#      x y z
#    x 1.782360 0.000000 0.004410 
#    y 0.000000 1.790830 0.000000 
#    z 0.004410 0.000000 1.747460 
# 
# From -- ./inp_files/51335.got.cif
#   From: 2010.05.17/outbox.cif.g08.bks.cpg/sg14_26_cif.got.tgz:51335.got - 2010.06.03 17:49:19.
