data_PCOD9248401
_publ_section_title
;
Structure prediction by ZEFSAII (Michael W. Deem and Ramdas Pophale) SiO2 
 PCOD9248401
Probable space group: P 21/C
;
_chemical_formula_sum "Si O2"
_cell_formula_units_Z 22
_cell_length_a 14.439745
_cell_length_b 8.402946
_cell_length_c 20.581398
_cell_angle_alpha 90.000000
_cell_angle_beta 18.683506
_cell_angle_gamma 90.000000
_cell_volume 799.977081
_symmetry_space_group_name_H-M "P 21/C"
_symmetry_group_IT_number 14
_symmetry_cell_setting 'monoclinic'
loop_
_space_group_symop_operation_xyz
x,y,z
-x,1/2+y,1/2-z
-x,-y,-z
x,1/2-y,1/2+z
loop_
_atom_site_type_symbol
_atom_site_label
_atom_site_fract_x
_atom_site_fract_y
_atom_site_fract_z
Si Si1 0.401292 0.778802 0.788421
Si Si2 0.916070 0.001134 0.790682
Si Si3 0.000000 0.000000 0.500000
Si Si4 0.886117 0.695738 0.194149
Si Si5 0.605029 0.000641 0.318148
Si Si6 0.982637 0.296648 0.661337
O O1 0.747196 0.771848 0.560517
O O2 0.327845 0.943101 0.800027
O O3 0.252989 0.636454 0.846420
O O4 0.223722 0.754544 0.972393
O O5 0.263938 0.004258 0.552420
O O6 0.796101 0.861794 0.824129
O O7 0.877783 0.939567 0.888738
O O8 0.848970 0.170001 0.801436
O O9 0.137128 0.045223 0.337858
O O10 0.726901 0.834845 0.261895
O O11 0.746949 0.129427 0.271399
#
# Coordination Sequence:
#
# PCOD9248401 Si02
#       6
#     4   4   2   4   4   4
#     4   9  22  42  66  96 129 170 221 274 329 395
#     4  11  25  45  66 101 133 179 225 276 329 400
#     4   8  20  40  62  98 130 168 212 274 324 398
#     4  10  22  42  67  95 134 168 222 269 338 391
#     4  11  23  43  69 101 130 183 215 281 329 402
#     4  11  24  43  67  95 137 175 227 273 332 392
#
# _framework density 27.500788
#
# number of rings (size 3 to 8) (size 9 to 14) (size 15 to 20)
#    1.091    0.727    0.000    3.273    0.000    8.727 
#    3.273    5.455    0.000    0.000    0.000    0.000 
#    0.000    0.000    0.000    0.000    0.000    0.000 
#
# Total GULP energy -122717.999057 kJ/mol
# GULP energy per Si atom -5578.090866 kJ/mol
# Density = 2.743820 g / cm^3
# Si number density = 27.500788 Si / 1000 Ang^3
#
#
#
# Elastic Constant Matrix: (Units=GPa)
#
#
# Indices 1 2 3 4 5 6 
#
# 1 74.7832 35.6182 -4.2031 0.0000 -9.5596 0.0000
# 2 35.6182 119.5374 33.6108 0.0000 -13.2478 0.0000
# 3 -4.2031 33.6108 81.6644 0.0000 -28.2605 0.0000
# 4 0.0000 0.0000 0.0000 41.3656 0.0000 -6.0520
# 5 -9.5596 -13.2478 -28.2605 0.0000 29.9794 0.0000
# 6 0.0000 0.0000 0.0000 -6.0520 0.0000 58.1578
#
#
#
# Elastic Compliance Matrix: (Units=1/GPa)
#
#
# Indices 1 2 3 4 5 6 
#
# 1 0.017868 -0.006172 0.006660 0.000000 0.009249 0.000000
# 2 -0.006172 0.011604 -0.005937 0.000000 -0.002437 0.000000
# 3 0.006660 -0.005937 0.022052 0.000000 0.020288 0.000000
# 4 0.000000 0.000000 0.000000 0.024548 0.000000 0.002555
# 5 0.009249 -0.002437 0.020288 0.000000 0.054354 0.000000
# 6 0.000000 0.000000 0.000000 0.002555 0.000000 0.017460
#
#
# Mechanical properties :
#
#
# Convention : Reuss Voigt Hill
#
# Bulk Modulus (GPa) = 24.61341 45.11519 34.86430
# Shear Modulus (GPa) = 29.01475 39.96450 34.48963
#
# Velocity S-wave (km/s) = 3.25168 3.81624 3.54522
# Velocity P-wave (km/s) = 4.80285 5.98823 5.42800
#
# Compressibility (1/GPa) = 0.04062826
#
# Stress axis : x y z
#
# Youngs Moduli (GPa) = 55.96533 86.17872 45.34657
#
# Poissons Ratio (x) = 0.53188 -0.30203
# Poissons Ratio (y) = 0.34541 0.26921
# Poissons Ratio (z) = -0.37276 0.51162
#
# Static dielectric constant tensor:
#      x y z
#    x 1.877460 0.000000 0.065810 
#    y 0.000000 2.199060 0.000000 
#    z 0.065810 0.000000 2.193690 
# 
# From -- ./inp_files/73704.got.cif
#   From: 2010.05.17/outbox.cif.g08.bks.cpg/sg14_37_cif.got.tgz:73704.got - 2010.06.03 17:49:19.
