data_PCOD9248599
_publ_section_title
;
Structure prediction by ZEFSAII (Michael W. Deem and Ramdas Pophale) SiO2 
 PCOD9248599
Probable space group: P 21/C
;
_chemical_formula_sum "Si O2"
_cell_formula_units_Z 32
_cell_length_a 13.799552
_cell_length_b 25.131126
_cell_length_c 8.129381
_cell_angle_alpha 90.000000
_cell_angle_beta 150.059251
_cell_angle_gamma 90.000000
_cell_volume 1407.102056
_symmetry_space_group_name_H-M "P 21/C"
_symmetry_group_IT_number 14
_symmetry_cell_setting 'monoclinic'
loop_
_space_group_symop_operation_xyz
x,y,z
-x,1/2+y,1/2-z
-x,-y,-z
x,1/2-y,1/2+z
loop_
_atom_site_type_symbol
_atom_site_label
_atom_site_fract_x
_atom_site_fract_y
_atom_site_fract_z
Si Si1 0.829063 0.086858 0.038727
Si Si2 0.827978 0.536194 0.816803
Si Si3 0.225805 0.988517 0.307581
Si Si4 0.447817 0.940197 0.087554
Si Si5 0.034934 0.192487 0.895773
Si Si6 0.345710 0.877853 0.645115
Si Si7 0.278555 0.353426 0.457282
Si Si8 0.033165 0.311270 0.778864
O O1 0.053454 0.067444 0.370390
O O2 0.855747 0.146259 0.012927
O O3 0.727959 0.036981 0.801497
O O4 0.714092 0.088756 0.038964
O O5 0.659752 0.496041 0.618681
O O6 0.761108 0.582700 0.597353
O O7 0.000000 0.500000 0.000000
O O8 0.268081 0.935204 0.473403
O O9 0.359275 0.038919 0.541087
O O10 0.000000 0.000000 0.000000
O O11 0.482138 0.897524 0.996003
O O12 0.195053 0.171661 0.000912
O O13 0.981008 0.251822 0.758010
O O14 0.841746 0.156732 0.591071
O O15 0.100496 0.190579 0.185265
O O16 0.491892 0.849367 0.734946
O O17 0.170580 0.329606 0.135648
#
# Coordination Sequence:
#
# PCOD9248599 Si02
#       8
#     4   4   4   4   4   4   4   4
#     4  10  22  43  66 103 140 186 246 305 368 440
#     4   9  18  37  69  97 138 191 233 287 359 428
#     4  12  25  41  65 104 153 196 242 303 365 440
#     4  11  23  42  68 102 146 197 244 297 358 448
#     4  12  25  51  77 106 147 189 245 319 378 441
#     4  12  26  47  72 109 145 194 250 299 370 451
#     4  11  25  47  72 107 147 192 244 300 371 440
#     4  11  24  48  78 105 144 190 246 310 384 444
#
# _framework density 22.741775000000001
#
# number of rings (size 3 to 8) (size 9 to 14) (size 15 to 20)
#    0.000    1.000    3.750    3.750    3.500    1.000 
#    6.750    0.000    0.000    0.000    0.000    0.000 
#    0.000    0.000    0.000    0.000    0.000    0.000 
#
# Total GULP energy -178469.960398 kJ/mol
# GULP energy per Si atom -5577.186262 kJ/mol
# Density = 2.269001 g / cm^3
# Si number density = 22.741775 Si / 1000 Ang^3
#
#
#
# Elastic Constant Matrix: (Units=GPa)
#
#
# Indices 1 2 3 4 5 6 
#
# 1 137.6900 54.6784 45.3407 0.0000 6.5220 0.0000
# 2 54.6784 74.8100 15.6289 0.0000 -0.4229 0.0000
# 3 45.3407 15.6289 83.0957 0.0000 10.6035 0.0000
# 4 0.0000 0.0000 0.0000 14.6532 0.0000 -7.5509
# 5 6.5220 -0.4229 10.6035 0.0000 38.4768 0.0000
# 6 0.0000 0.0000 0.0000 -7.5509 0.0000 36.0951
#
#
#
# Elastic Compliance Matrix: (Units=1/GPa)
#
#
# Indices 1 2 3 4 5 6 
#
# 1 0.012023 -0.007745 -0.005009 0.000000 -0.000743 0.000000
# 2 -0.007745 0.018934 0.000488 0.000000 0.001386 0.000000
# 3 -0.005009 0.000488 0.015097 0.000000 -0.003306 0.000000
# 4 0.000000 0.000000 0.000000 0.076490 0.000000 0.016001
# 5 -0.000743 0.001386 -0.003306 0.000000 0.027042 0.000000
# 6 0.000000 0.000000 0.000000 0.016001 0.000000 0.031052
#
#
# Mechanical properties :
#
#
# Convention : Reuss Voigt Hill
#
# Bulk Modulus (GPa) = 46.46293 58.54351 52.50322
# Shear Modulus (GPa) = 23.54662 29.84152 26.69407
#
# Velocity S-wave (km/s) = 3.22124 3.62635 3.42978
# Velocity P-wave (km/s) = 5.85749 6.58274 6.23068
#
# Compressibility (1/GPa) = 0.02152253
#
# Stress axis : x y z
#
# Youngs Moduli (GPa) = 83.17381 52.81470 66.23658
#
# Poissons Ratio (x) = 0.40907 0.33176
# Poissons Ratio (y) = 0.64421 -0.03233
# Poissons Ratio (z) = 0.41660 -0.02578
#
# Static dielectric constant tensor:
#      x y z
#    x 1.973330 0.000000 -0.148610 
#    y 0.000000 1.834880 0.000000 
#    z -0.148610 0.000000 1.985160 
# 
# From -- ./inp_files/17046.got.cif
#   From: 2010.05.17/outbox.cif.g08.bks.cpg/sg14_9_cif.got.tgz:17046.got - 2010.06.03 17:49:19.
