data_PCOD9248487
_publ_section_title
;
Structure prediction by ZEFSAII (Michael W. Deem and Ramdas Pophale) SiO2 
 PCOD9248487
Probable space group: P 21/C
;
_chemical_formula_sum "Si O2"
_cell_formula_units_Z 24
_cell_length_a 15.643509
_cell_length_b 17.349953
_cell_length_c 10.530537
_cell_angle_alpha 90.000000
_cell_angle_beta 23.964929
_cell_angle_gamma 90.000000
_cell_volume 1160.910484
_symmetry_space_group_name_H-M "P 21/C"
_symmetry_group_IT_number 14
_symmetry_cell_setting 'monoclinic'
loop_
_space_group_symop_operation_xyz
x,y,z
-x,1/2+y,1/2-z
-x,-y,-z
x,1/2-y,1/2+z
loop_
_atom_site_type_symbol
_atom_site_label
_atom_site_fract_x
_atom_site_fract_y
_atom_site_fract_z
Si Si1 0.359947 0.420521 0.703049
Si Si2 0.897169 0.922848 0.692603
Si Si3 0.853796 0.932107 0.256110
Si Si4 0.252333 0.811065 0.320124
Si Si5 0.505550 0.028556 0.633401
Si Si6 0.196138 0.673244 0.199168
O O1 0.500000 0.500000 0.500000
O O2 0.250191 0.394472 0.721740
O O3 0.529870 0.355295 0.502937
O O4 0.166022 0.428735 0.065035
O O5 0.065129 0.865426 0.522634
O O6 0.731848 0.949498 0.019952
O O7 0.000000 0.000000 0.500000
O O8 0.612415 0.955593 0.557467
O O9 0.958551 0.857423 0.050777
O O10 0.000000 0.000000 0.000000
O O11 0.244417 0.736284 0.241419
O O12 0.224909 0.802507 0.511631
O O13 0.648159 0.101317 0.481482
O O14 0.500000 0.000000 0.500000
#
# Coordination Sequence:
#
# PCOD9248487 Si02
#       6
#     4   4   4   4   4   4
#     4  12  22  46  72 105 140 180 235 297 347 419
#     4  12  25  41  75 105 138 182 236 287 357 416
#     4  10  22  42  70  98 137 177 230 288 344 411
#     4  12  27  49  69 103 147 188 236 292 353 424
#     4  11  23  43  71 103 137 180 234 292 346 417
#     4  11  27  48  69 101 147 187 236 291 353 420
#
# _framework density 20.673428999999999
#
# number of rings (size 3 to 8) (size 9 to 14) (size 15 to 20)
#    0.000    0.667    5.000    2.000    7.000    2.667 
#    3.000    0.000    0.000    0.000    0.000    0.000 
#    0.000    0.000    0.000    0.000    0.000    0.000 
#
# Total GULP energy -133806.258118 kJ/mol
# GULP energy per Si atom -5575.260755 kJ/mol
# Density = 2.062638 g / cm^3
# Si number density = 20.673429 Si / 1000 Ang^3
#
#
#
# Elastic Constant Matrix: (Units=GPa)
#
#
# Indices 1 2 3 4 5 6 
#
# 1 134.3907 49.9737 33.4256 0.0000 19.8252 0.0000
# 2 49.9737 94.5468 41.0712 0.0000 4.8578 0.0000
# 3 33.4256 41.0712 115.5947 0.0000 17.2015 0.0000
# 4 0.0000 0.0000 0.0000 19.3718 0.0000 -3.0274
# 5 19.8252 4.8578 17.2015 0.0000 53.2834 0.0000
# 6 0.0000 0.0000 0.0000 -3.0274 0.0000 42.1643
#
#
#
# Elastic Compliance Matrix: (Units=1/GPa)
#
#
# Indices 1 2 3 4 5 6 
#
# 1 0.009817 -0.004725 -0.000715 0.000000 -0.002991 0.000000
# 2 -0.004725 0.014786 -0.004148 0.000000 0.001749 0.000000
# 3 -0.000715 -0.004148 0.010752 0.000000 -0.002827 0.000000
# 4 0.000000 0.000000 0.000000 0.052207 0.000000 0.003749
# 5 -0.002991 0.001749 -0.002827 0.000000 0.020634 0.000000
# 6 0.000000 0.000000 0.000000 0.003749 0.000000 0.023986
#
#
# Mechanical properties :
#
#
# Convention : Reuss Voigt Hill
#
# Bulk Modulus (GPa) = 61.80238 65.94149 63.87193
# Shear Modulus (GPa) = 31.89812 37.63469 34.76640
#
# Velocity S-wave (km/s) = 3.93230 4.27129 4.10530
# Velocity P-wave (km/s) = 7.11174 7.50274 7.30986
#
# Compressibility (1/GPa) = 0.01618061
#
# Stress axis : x y z
#
# Youngs Moduli (GPa) = 101.86522 67.63224 93.00643
#
# Poissons Ratio (x) = 0.31953 0.06649
# Poissons Ratio (y) = 0.48127 0.38575
# Poissons Ratio (z) = 0.07283 0.28051
#
# Static dielectric constant tensor:
#      x y z
#    x 1.792090 0.000000 -0.004780 
#    y 0.000000 1.731760 0.000000 
#    z -0.004780 0.000000 1.760140 
# 
# From -- ./inp_files/34378.got.cif
#   From: 2010.05.17/outbox.cif.g08.bks.cpg/sg14_18_cif.got.tgz:34378.got - 2010.06.03 17:49:19.
