data_PCOD9248239
_publ_section_title
;
Structure prediction by ZEFSAII (Michael W. Deem and Ramdas Pophale) SiO2 
 PCOD9248239
Probable space group: P 21/C
;
_chemical_formula_sum "Si O2"
_cell_formula_units_Z 30
_cell_length_a 11.224463
_cell_length_b 15.830648
_cell_length_c 8.649468
_cell_angle_alpha 90.000000
_cell_angle_beta 119.518092
_cell_angle_gamma 90.000000
_cell_volume 1337.435422
_symmetry_space_group_name_H-M "P 21/C"
_symmetry_group_IT_number 14
_symmetry_cell_setting 'monoclinic'
loop_
_space_group_symop_operation_xyz
x,y,z
-x,1/2+y,1/2-z
-x,-y,-z
x,1/2-y,1/2+z
loop_
_atom_site_type_symbol
_atom_site_label
_atom_site_fract_x
_atom_site_fract_y
_atom_site_fract_z
Si Si1 0.255290 0.718593 0.619718
Si Si2 0.560025 0.190985 0.040471
Si Si3 0.681562 0.696349 0.220168
Si Si4 0.412147 0.481639 0.792329
Si Si5 0.888310 0.056845 0.839678
Si Si6 0.500000 0.500000 0.500000
Si Si7 0.125051 0.287500 0.923182
Si Si8 0.962721 0.156579 0.601633
O O1 0.312421 0.689645 0.494114
O O2 0.388817 0.737475 0.807180
O O3 0.147035 0.650632 0.615071
O O4 0.181376 0.807981 0.548796
O O5 0.416794 0.225366 0.881218
O O6 0.538875 0.095500 0.075316
O O7 0.593587 0.619280 0.221899
O O8 0.789150 0.721600 0.419694
O O9 0.767384 0.669979 0.123505
O O10 0.257706 0.512219 0.731942
O O11 0.461914 0.521552 0.662866
O O12 0.500000 0.500000 0.000000
O O13 0.941532 0.076725 0.699794
O O14 0.000000 0.000000 0.000000
O O15 0.053885 0.347937 0.004195
O O16 0.026464 0.231988 0.749585
#
# Coordination Sequence:
#
# PCOD9248239 Si02
#       8
#     4   4   4   4   4   2   4   4
#     4  12  23  45  74 100 143 198 249 299 380 468
#     4  12  25  45  75 108 143 192 252 305 387 464
#     4  11  24  45  72 105 143 197 239 301 382 461
#     4  12  28  49  73 106 156 195 251 318 387 458
#     4  12  26  46  73 107 152 195 253 322 382 450
#     4  12  28  46  74 114 152 190 252 328 384 448
#     4  10  22  41  72 101 142 180 252 300 366 455
#     4  11  22  44  73 103 138 198 247 305 372 462
#
# _framework density 22.430989
#
# number of rings (size 3 to 8) (size 9 to 14) (size 15 to 20)
#    0.000    0.533    4.000    4.000    5.600    1.067 
#    0.000    0.667    0.000    0.000    0.000    0.000 
#    0.000    0.000    0.000    0.000    0.000    0.000 
#
# Total GULP energy -167085.068663 kJ/mol
# GULP energy per Si atom -5569.502289 kJ/mol
# Density = 2.237994 g / cm^3
# Si number density = 22.430989 Si / 1000 Ang^3
#
#
#
# Elastic Constant Matrix: (Units=GPa)
#
#
# Indices 1 2 3 4 5 6 
#
# 1 117.4039 16.7963 55.8101 0.0000 -32.6517 0.0000
# 2 16.7963 61.9107 7.8778 0.0000 -8.5842 0.0000
# 3 55.8101 7.8778 103.7400 0.0000 -16.4046 0.0000
# 4 0.0000 0.0000 0.0000 1591.8042 0.0000 782.4691
# 5 -32.6517 -8.5842 -16.4046 0.0000 55.9264 0.0000
# 6 0.0000 0.0000 0.0000 782.4691 0.0000 432.2699
#
#
#
# Elastic Compliance Matrix: (Units=1/GPa)
#
#
# Indices 1 2 3 4 5 6 
#
# 1 0.013279 -0.002043 -0.006095 0.000000 0.005651 0.000000
# 2 -0.002043 0.016897 0.000039 0.000000 0.001412 0.000000
# 3 -0.006095 0.000039 0.012955 0.000000 0.000247 0.000000
# 4 0.000000 0.000000 0.000000 0.005700 0.000000 -0.010319
# 5 0.005651 0.001412 0.000247 0.000000 0.021469 0.000000
# 6 0.000000 0.000000 0.000000 -0.010319 0.000000 0.020991
#
#
# Mechanical properties :
#
#
# Convention : Reuss Voigt Hill
#
# Bulk Modulus (GPa) = 37.12904 49.33590 43.23247
# Shear Modulus (GPa) = 42.93022 429.50481 236.21752
#
# Velocity S-wave (km/s) = 4.37954 13.85258 10.27313
# Velocity P-wave (km/s) = 6.49325 16.67036 12.65036
#
# Compressibility (1/GPa) = 0.02693310
#
# Stress axis : x y z
#
# Youngs Moduli (GPa) = 75.30665 59.18053 77.19243
#
# Poissons Ratio (x) = 0.12093 0.47049
# Poissons Ratio (y) = 0.15389 -0.00305
# Poissons Ratio (z) = 0.45900 -0.00234
#
# Static dielectric constant tensor:
#      x y z
#    x 1.824840 0.000000 -0.039240 
#    y 0.000000 1.829830 0.000000 
#    z -0.039240 0.000000 1.846770 
# 
# From -- ./inp_files/13153.got.cif
#   From: 2010.05.17/outbox.cif.g08.bks.cpg/sg14_7_cif.got.tgz:13153.got - 2010.06.03 17:49:19.
