data_PCOD9248770
_publ_section_title
;
Structure prediction by ZEFSAII (Michael W. Deem and Ramdas Pophale) SiO2 
 PCOD9248770
Probable space group: P 21/C
;
_chemical_formula_sum "Si O2"
_cell_formula_units_Z 20
_cell_length_a 9.474456
_cell_length_b 14.611386
_cell_length_c 6.030162
_cell_angle_alpha 90.000000
_cell_angle_beta 79.881067
_cell_angle_gamma 90.000000
_cell_volume 821.800143
_symmetry_space_group_name_H-M "P 21/C"
_symmetry_group_IT_number 14
_symmetry_cell_setting 'monoclinic'
loop_
_space_group_symop_operation_xyz
x,y,z
-x,1/2+y,1/2-z
-x,-y,-z
x,1/2-y,1/2+z
loop_
_atom_site_type_symbol
_atom_site_label
_atom_site_fract_x
_atom_site_fract_y
_atom_site_fract_z
Si Si1 0.952809 0.140042 0.867029
Si Si2 0.635110 0.207742 0.969026
Si Si3 0.235538 0.316777 0.051399
Si Si4 0.624673 0.881330 0.100921
Si Si5 0.879010 0.948596 0.793958
O O1 0.805279 0.192924 0.918340
O O2 0.090272 0.194123 0.738080
O O3 0.926912 0.050379 0.721183
O O4 0.997978 0.099009 0.092872
O O5 0.605202 0.256148 0.731574
O O6 0.529851 0.120490 0.965491
O O7 0.307050 0.219405 0.981394
O O8 0.179125 0.381896 0.875526
O O9 0.359649 0.375018 0.140224
O O10 0.739643 0.955368 0.992027
#
# Coordination Sequence:
#
# PCOD9248770 Si02
#       5
#     4   4   4   4   4
#     4  10  26  39  64  98 132 174 219 283 334 391
#     4  12  27  45  67 102 138 174 226 281 330 396
#     4  11  20  39  66  92 123 174 221 273 326 405
#     4  11  22  39  68  92 127 176 223 272 333 400
#     4  10  22  44  64  94 133 170 229 269 337 400
#
# _framework density 24.336818000000001
#
# number of rings (size 3 to 8) (size 9 to 14) (size 15 to 20)
#    0.000    1.200    4.000    0.600    8.400    0.800 
#    0.000    1.000    0.000    0.000    0.000    0.000 
#    0.000    0.000    0.000    0.000    0.000    0.000 
#
# Total GULP energy -111542.474896 kJ/mol
# GULP energy per Si atom -5577.123745 kJ/mol
# Density = 2.428143 g / cm^3
# Si number density = 24.336818 Si / 1000 Ang^3
#
#
#
# Elastic Constant Matrix: (Units=GPa)
#
#
# Indices 1 2 3 4 5 6 
#
# 1 145.3592 6.3447 26.3953 0.0000 15.5081 0.0000
# 2 6.3447 53.5370 17.3282 0.0000 2.1791 0.0000
# 3 26.3953 17.3282 83.0061 0.0000 11.3214 0.0000
# 4 0.0000 0.0000 0.0000 27.6426 0.0000 -2.2336
# 5 15.5081 2.1791 11.3214 0.0000 25.5846 0.0000
# 6 0.0000 0.0000 0.0000 -2.2336 0.0000 43.1819
#
#
#
# Elastic Compliance Matrix: (Units=1/GPa)
#
#
# Indices 1 2 3 4 5 6 
#
# 1 0.007631 -0.000142 -0.001881 0.000000 -0.003781 0.000000
# 2 -0.000142 0.020035 -0.004168 0.000000 0.000224 0.000000
# 3 -0.001881 -0.004168 0.014167 0.000000 -0.004774 0.000000
# 4 0.000000 0.000000 0.000000 0.036328 0.000000 0.001879
# 5 -0.003781 0.000224 -0.004774 0.000000 0.043471 0.000000
# 6 0.000000 0.000000 0.000000 0.001879 0.000000 0.023255
#
#
# Mechanical properties :
#
#
# Convention : Reuss Voigt Hill
#
# Bulk Modulus (GPa) = 33.95460 42.44873 38.20166
# Shear Modulus (GPa) = 29.92483 34.73746 32.33114
#
# Velocity S-wave (km/s) = 3.51039 3.78214 3.64880
# Velocity P-wave (km/s) = 5.51477 6.04590 5.78643
#
# Compressibility (1/GPa) = 0.02945109
#
# Stress axis : x y z
#
# Youngs Moduli (GPa) = 131.05014 49.91164 70.58794
#
# Poissons Ratio (x) = 0.00706 0.13280
# Poissons Ratio (y) = 0.01855 0.29422
# Poissons Ratio (z) = 0.24654 0.20804
#
# Static dielectric constant tensor:
#      x y z
#    x 1.909910 0.000000 0.010550 
#    y 0.000000 1.935800 0.000000 
#    z 0.010550 0.000000 2.213990 
# 
# From -- ./inp_files/1158.got.cif
#   From: 2010.05.17/outbox.cif.g08.bks.cpg/sg14_1_cif.got.tgz:1158.got - 2010.06.03 17:49:19.
