data_PCOD9248555
_publ_section_title
;
Structure prediction by ZEFSAII (Michael W. Deem and Ramdas Pophale) SiO2 
 PCOD9248555
Probable space group: P 21/C
;
_chemical_formula_sum "Si O2"
_cell_formula_units_Z 32
_cell_length_a 11.858585
_cell_length_b 20.979444
_cell_length_c 11.169241
_cell_angle_alpha 90.000000
_cell_angle_beta 33.152578
_cell_angle_gamma 90.000000
_cell_volume 1519.619931
_symmetry_space_group_name_H-M "P 21/C"
_symmetry_group_IT_number 14
_symmetry_cell_setting 'monoclinic'
loop_
_space_group_symop_operation_xyz
x,y,z
-x,1/2+y,1/2-z
-x,-y,-z
x,1/2-y,1/2+z
loop_
_atom_site_type_symbol
_atom_site_label
_atom_site_fract_x
_atom_site_fract_y
_atom_site_fract_z
Si Si1 0.738141 0.009491 0.302665
Si Si2 0.370281 0.159376 0.168125
Si Si3 0.096889 0.048129 0.316799
Si Si4 0.899851 0.746538 0.941304
Si Si5 0.748716 0.171013 0.011673
Si Si6 0.164142 0.633819 0.139312
Si Si7 0.533058 0.215242 0.785800
Si Si8 0.105856 0.967067 0.084939
O O1 0.776493 0.080400 0.317956
O O2 0.500000 0.000000 0.500000
O O3 0.825082 0.994402 0.093420
O O4 0.857482 0.966895 0.294809
O O5 0.259454 0.092743 0.240075
O O6 0.193473 0.211813 0.358148
O O7 0.540861 0.159965 0.120022
O O8 0.498831 0.177985 0.937228
O O9 0.948845 0.096846 0.371878
O O10 0.180617 0.001838 0.137505
O O11 0.000000 0.000000 0.500000
O O12 0.063250 0.698552 0.734826
O O13 0.017168 0.814241 0.833835
O O14 0.692580 0.760290 0.050325
O O15 0.812549 0.103206 0.002783
O O16 0.686887 0.224930 0.161965
O O17 0.360220 0.671280 0.910170
#
# Coordination Sequence:
#
# PCOD9248555 Si02
#       8
#     4   4   4   4   4   4   4   4
#     4  10  24  43  67  93 128 178 231 272 330 402
#     4  11  24  40  68 100 134 177 227 274 348 406
#     4  11  24  43  68 100 139 185 219 284 347 407
#     4  10  22  43  62  93 132 176 220 278 332 400
#     4  10  24  42  65  99 134 168 226 276 338 410
#     4  10  23  43  67  96 136 177 231 277 344 403
#     4  10  23  40  66  97 130 177 221 280 339 402
#     4  10  24  44  65  95 133 176 222 280 337 392
#
# _framework density 21.057897000000001
#
# number of rings (size 3 to 8) (size 9 to 14) (size 15 to 20)
#    0.000    1.750    1.250    0.750    5.250    9.500 
#    0.000    0.000    0.000    0.000    0.000    0.000 
#    0.000    0.000    0.000    0.000    0.000    0.000 
#
# Total GULP energy -178541.346970 kJ/mol
# GULP energy per Si atom -5579.417093 kJ/mol
# Density = 2.100997 g / cm^3
# Si number density = 21.057897 Si / 1000 Ang^3
#
#
#
# Elastic Constant Matrix: (Units=GPa)
#
#
# Indices 1 2 3 4 5 6 
#
# 1 44.9377 32.4469 24.7246 0.0000 -4.8656 0.0000
# 2 32.4469 107.0273 40.2003 0.0000 -0.3598 0.0000
# 3 24.7246 40.2003 100.0148 0.0000 -6.5346 0.0000
# 4 0.0000 0.0000 0.0000 28.5303 0.0000 -5.2581
# 5 -4.8656 -0.3598 -6.5346 0.0000 33.9749 0.0000
# 6 0.0000 0.0000 0.0000 -5.2581 0.0000 26.2252
#
#
#
# Elastic Compliance Matrix: (Units=1/GPa)
#
#
# Indices 1 2 3 4 5 6 
#
# 1 0.030473 -0.007635 -0.004238 0.000000 0.003468 0.000000
# 2 -0.007635 0.012936 -0.003418 0.000000 -0.001614 0.000000
# 3 -0.004238 -0.003418 0.012535 0.000000 0.001768 0.000000
# 4 0.000000 0.000000 0.000000 0.036395 0.000000 0.007297
# 5 0.003468 -0.001614 0.001768 0.000000 0.030253 0.000000
# 6 0.000000 0.000000 0.000000 0.007297 0.000000 0.039594
#
#
# Mechanical properties :
#
#
# Convention : Reuss Voigt Hill
#
# Bulk Modulus (GPa) = 39.42622 49.63592 44.53107
# Shear Modulus (GPa) = 24.84811 28.05330 26.45070
#
# Velocity S-wave (km/s) = 3.43882 3.65389 3.54799
# Velocity P-wave (km/s) = 5.87629 6.43611 6.16256
#
# Compressibility (1/GPa) = 0.02536383
#
# Stress axis : x y z
#
# Youngs Moduli (GPa) = 32.81607 77.30171 79.77429
#
# Poissons Ratio (x) = 0.59019 0.33807
# Poissons Ratio (y) = 0.25055 0.27264
# Poissons Ratio (z) = 0.13907 0.26419
#
# Static dielectric constant tensor:
#      x y z
#    x 1.784150 0.000000 -0.014750 
#    y 0.000000 1.762850 0.000000 
#    z -0.014750 0.000000 1.918740 
# 
# From -- ./inp_files/30719.got.cif
#   From: 2010.05.17/outbox.cif.g08.bks.cpg/sg14_16_cif.got.tgz:30719.got - 2010.06.03 17:49:19.
