data_PCOD9248907
_publ_section_title
;
Structure prediction by ZEFSAII (Michael W. Deem and Ramdas Pophale) SiO2 
 PCOD9248907
Probable space group: P 21/C
;
_chemical_formula_sum "Si O2"
_cell_formula_units_Z 28
_cell_length_a 16.385694
_cell_length_b 8.819215
_cell_length_c 9.404649
_cell_angle_alpha 90.000000
_cell_angle_beta 72.796783
_cell_angle_gamma 90.000000
_cell_volume 1298.254252
_symmetry_space_group_name_H-M "P 21/C"
_symmetry_group_IT_number 14
_symmetry_cell_setting 'monoclinic'
loop_
_space_group_symop_operation_xyz
x,y,z
-x,1/2+y,1/2-z
-x,-y,-z
x,1/2-y,1/2+z
loop_
_atom_site_type_symbol
_atom_site_label
_atom_site_fract_x
_atom_site_fract_y
_atom_site_fract_z
Si Si1 0.094889 0.937262 0.451715
Si Si2 0.317406 0.328472 0.252642
Si Si3 0.714241 0.345321 0.688440
Si Si4 0.246818 0.385623 0.018991
Si Si5 0.520090 0.869788 0.876623
Si Si6 0.167772 0.784071 0.138057
Si Si7 0.602534 0.101788 0.638074
O O1 0.123645 0.894318 0.275893
O O2 0.103728 0.798534 0.560882
O O3 0.164786 0.051811 0.481234
O O4 0.000000 0.000000 0.500000
O O5 0.339983 0.502123 0.272888
O O6 0.286107 0.251015 0.410474
O O7 0.392981 0.227111 0.148540
O O8 0.238538 0.332650 0.183955
O O9 0.761295 0.346090 0.510036
O O10 0.784901 0.330007 0.775815
O O11 0.656331 0.194577 0.729587
O O12 0.322433 0.512049 0.979509
O O13 0.448440 0.739444 0.907422
O O14 0.539434 0.971655 0.726790
O O15 0.500000 0.000000 0.000000
#
# Coordination Sequence:
#
# PCOD9248907 Si02
#       7
#     4   4   4   4   4   4   4
#     4  11  24  46  71 106 144 172 231 284 342 417
#     4  11  26  42  66  99 135 184 236 286 344 410
#     4  11  21  42  75  94 137 181 238 272 344 420
#     4  11  25  44  68  98 136 184 233 279 351 416
#     4  11  28  41  62  96 137 179 233 291 349 399
#     4  10  22  44  71 107 130 186 225 277 349 408
#     4  11  24  43  65  96 134 181 232 288 342 415
#
# _framework density 21.567425
#
# number of rings (size 3 to 8) (size 9 to 14) (size 15 to 20)
#    0.000    1.143    4.286    0.857   12.000    1.714 
#    0.000    1.429    0.000    0.000    0.000    0.000 
#    0.000    0.000    0.000    0.000    0.000    0.000 
#
# Total GULP energy -156192.186575 kJ/mol
# GULP energy per Si atom -5578.292378 kJ/mol
# Density = 2.151834 g / cm^3
# Si number density = 21.567425 Si / 1000 Ang^3
#
#
#
# Elastic Constant Matrix: (Units=GPa)
#
#
# Indices 1 2 3 4 5 6 
#
# 1 100.8008 34.7978 31.1015 0.0000 1.2678 0.0000
# 2 34.7978 114.4550 31.1910 0.0000 0.8294 0.0000
# 3 31.1015 31.1910 112.1159 0.0000 8.3138 0.0000
# 4 0.0000 0.0000 0.0000 26.8000 0.0000 2.2953
# 5 1.2678 0.8294 8.3138 0.0000 24.1164 0.0000
# 6 0.0000 0.0000 0.0000 2.2953 0.0000 41.3810
#
#
#
# Elastic Compliance Matrix: (Units=1/GPa)
#
#
# Indices 1 2 3 4 5 6 
#
# 1 0.011670 -0.002880 -0.002461 0.000000 0.000334 0.000000
# 2 -0.002880 0.010173 -0.002069 0.000000 0.000515 0.000000
# 3 -0.002461 -0.002069 0.010429 0.000000 -0.003395 0.000000
# 4 0.000000 0.000000 0.000000 0.037492 0.000000 -0.002080
# 5 0.000334 0.000515 -0.003395 0.000000 0.042601 0.000000
# 6 0.000000 0.000000 0.000000 -0.002080 0.000000 0.024281
#
#
# Mechanical properties :
#
#
# Convention : Reuss Voigt Hill
#
# Bulk Modulus (GPa) = 57.30019 57.95027 57.62523
# Shear Modulus (GPa) = 31.78992 33.81159 32.80076
#
# Velocity S-wave (km/s) = 3.84341 3.96373 3.90403
# Velocity P-wave (km/s) = 6.80598 6.91924 6.86284
#
# Compressibility (1/GPa) = 0.01745195
#
# Stress axis : x y z
#
# Youngs Moduli (GPa) = 85.69150 98.30119 95.88224
#
# Poissons Ratio (x) = 0.28308 0.23595
# Poissons Ratio (y) = 0.24677 0.19842
# Poissons Ratio (z) = 0.21087 0.20343
#
# Static dielectric constant tensor:
#      x y z
#    x 1.786370 0.000000 0.007210 
#    y 0.000000 1.835220 0.000000 
#    z 0.007210 0.000000 1.858590 
# 
# From -- ./inp_files/17554.got.cif
#   From: 2010.05.17/outbox.cif.g08.bks.cpg/sg14_9_cif.got.tgz:17554.got - 2010.06.03 17:49:19.
