data_PCOD9248647
_publ_section_title
;
Structure prediction by ZEFSAII (Michael W. Deem and Ramdas Pophale) SiO2 
 PCOD9248647
Probable space group: P 21/C
;
_chemical_formula_sum "Si O2"
_cell_formula_units_Z 32
_cell_length_a 14.184963
_cell_length_b 16.457368
_cell_length_c 11.659353
_cell_angle_alpha 90.000000
_cell_angle_beta 150.161064
_cell_angle_gamma 90.000000
_cell_volume 1354.289756
_symmetry_space_group_name_H-M "P 21/C"
_symmetry_group_IT_number 14
_symmetry_cell_setting 'monoclinic'
loop_
_space_group_symop_operation_xyz
x,y,z
-x,1/2+y,1/2-z
-x,-y,-z
x,1/2-y,1/2+z
loop_
_atom_site_type_symbol
_atom_site_label
_atom_site_fract_x
_atom_site_fract_y
_atom_site_fract_z
Si Si1 0.363784 0.194962 0.297501
Si Si2 0.975618 0.976422 0.262257
Si Si3 0.319582 0.943250 0.777013
Si Si4 0.485414 0.413282 0.125311
Si Si5 0.951594 0.318182 0.320656
Si Si6 0.348615 0.814533 0.989134
Si Si7 0.892358 0.432043 0.461210
Si Si8 0.540965 0.571261 0.301990
O O1 0.358428 0.138820 0.405195
O O2 0.505672 0.269424 0.442454
O O3 0.433110 0.135842 0.269770
O O4 0.155641 0.222660 0.045089
O O5 0.131385 0.983757 0.525541
O O6 0.030007 0.896191 0.243297
O O7 0.973100 0.054157 0.174205
O O8 0.754263 0.958540 0.061024
O O9 0.262466 0.886161 0.821464
O O10 0.418582 0.894940 0.776549
O O11 0.500000 0.000000 0.000000
O O12 0.551175 0.353427 0.295490
O O13 0.424285 0.494886 0.125972
O O14 0.667870 0.443674 0.244195
O O15 0.907096 0.351268 0.401905
O O16 0.800050 0.251968 0.126689
O O17 0.000000 0.500000 0.500000
#
# Coordination Sequence:
#
# PCOD9248647 Si02
#       8
#     4   4   4   4   4   4   4   4
#     4  11  25  43  75 102 134 180 240 291 351 419
#     4   9  22  41  70  98 133 172 230 293 346 416
#     4  12  26  45  68  96 141 195 229 283 355 430
#     4  11  23  45  70 102 143 179 231 302 346 417
#     4  10  22  43  68 101 136 179 223 292 357 412
#     4  12  27  46  62 105 148 186 228 288 365 427
#     4   9  19  39  70 104 127 172 232 288 351 399
#     4  10  23  45  70 104 131 176 240 291 350 409
#
# _framework density 23.628622
#
# number of rings (size 3 to 8) (size 9 to 14) (size 15 to 20)
#    0.000    1.500    2.500    1.875    7.000    1.500 
#    9.000    0.000    0.000    0.000    0.000    0.000 
#    0.000    0.000    0.000    0.000    0.000    0.000 
#
# Total GULP energy -178928.285128 kJ/mol
# GULP energy per Si atom -5591.508910 kJ/mol
# Density = 2.357484 g / cm^3
# Si number density = 23.628622 Si / 1000 Ang^3
#
#
#
# Elastic Constant Matrix: (Units=GPa)
#
#
# Indices 1 2 3 4 5 6 
#
# 1 74.1526 9.6318 8.5623 0.0000 -4.5747 0.0000
# 2 9.6318 54.8019 5.2344 0.0000 -0.7338 0.0000
# 3 8.5623 5.2344 106.3004 0.0000 -6.5276 0.0000
# 4 0.0000 0.0000 0.0000 27.1143 0.0000 -6.5394
# 5 -4.5747 -0.7338 -6.5276 0.0000 27.1428 0.0000
# 6 0.0000 0.0000 0.0000 -6.5394 0.0000 13.6288
#
#
#
# Elastic Compliance Matrix: (Units=1/GPa)
#
#
# Indices 1 2 3 4 5 6 
#
# 1 0.014022 -0.002352 -0.000886 0.000000 0.002087 0.000000
# 2 -0.002352 0.018730 -0.000737 0.000000 -0.000067 0.000000
# 3 -0.000886 -0.000737 0.009647 0.000000 0.002151 0.000000
# 4 0.000000 0.000000 0.000000 0.041707 0.000000 0.020012
# 5 0.002087 -0.000067 0.002151 0.000000 0.037709 0.000000
# 6 0.000000 0.000000 0.000000 0.020012 0.000000 0.082976
#
#
# Mechanical properties :
#
#
# Convention : Reuss Voigt Hill
#
# Bulk Modulus (GPa) = 29.02705 31.34578 30.18641
# Shear Modulus (GPa) = 22.29905 27.69895 24.99900
#
# Velocity S-wave (km/s) = 3.07535 3.42755 3.25621
# Velocity P-wave (km/s) = 4.99217 5.38135 5.19041
#
# Compressibility (1/GPa) = 0.03445063
#
# Stress axis : x y z
#
# Youngs Moduli (GPa) = 71.31556 53.38911 103.65919
#
# Poissons Ratio (x) = 0.12557 0.09179
# Poissons Ratio (y) = 0.16773 0.07640
# Poissons Ratio (z) = 0.06315 0.03935
#
# Static dielectric constant tensor:
#      x y z
#    x 1.930460 0.000000 -0.000620 
#    y 0.000000 1.881960 0.000000 
#    z -0.000620 0.000000 1.937620 
# 
# From -- ./inp_files/33077.got.cif
#   From: 2010.05.17/outbox.cif.g08.bks.cpg/sg14_17_cif.got.tgz:33077.got - 2010.06.03 17:49:19.
