data_PCOD9248200
_publ_section_title
;
Structure prediction by ZEFSAII (Michael W. Deem and Ramdas Pophale) SiO2 
 PCOD9248200
Probable space group: P 21/C
;
_chemical_formula_sum "Si O2"
_cell_formula_units_Z 20
_cell_length_a 21.154530
_cell_length_b 9.444231
_cell_length_c 9.312412
_cell_angle_alpha 90.000000
_cell_angle_beta 24.538427
_cell_angle_gamma 90.000000
_cell_volume 772.676479
_symmetry_space_group_name_H-M "P 21/C"
_symmetry_group_IT_number 14
_symmetry_cell_setting 'monoclinic'
loop_
_space_group_symop_operation_xyz
x,y,z
-x,1/2+y,1/2-z
-x,-y,-z
x,1/2-y,1/2+z
loop_
_atom_site_type_symbol
_atom_site_label
_atom_site_fract_x
_atom_site_fract_y
_atom_site_fract_z
Si Si1 0.110751 0.696902 0.756362
Si Si2 0.161054 0.250179 0.836228
Si Si3 0.384457 0.602399 0.323014
Si Si4 0.500660 0.359930 0.593750
Si Si5 0.937904 0.071287 0.938296
O O1 0.073178 0.313549 0.878828
O O2 0.203718 0.592364 0.667264
O O3 0.151734 0.648992 0.508978
O O4 0.124245 0.857413 0.787963
O O5 0.336146 0.213495 0.459783
O O6 0.107357 0.364265 0.065534
O O7 0.084698 0.095559 0.021854
O O8 0.428186 0.608526 0.398138
O O9 0.500000 0.500000 0.000000
O O10 0.411246 0.747897 0.183797
O O11 0.500000 0.500000 0.500000
#
# Coordination Sequence:
#
# PCOD9248200 Si02
#       5
#     4   4   4   4   4
#     4  10  23  43  71  99 147 193 246 306 376 444
#     4  10  25  43  73 103 148 194 258 305 384 446
#     4  12  26  48  75 111 152 200 255 316 388 456
#     4  12  27  48  78 111 153 199 254 317 391 457
#     4  10  22  41  69 101 144 192 254 307 373 440
#
# _framework density 25.884055
#
# number of rings (size 3 to 8) (size 9 to 14) (size 15 to 20)
#    1.200    0.000    0.000    5.400    2.800    2.400 
#    0.000    0.000    0.000    0.000    0.000    0.000 
#    0.000    0.000    0.000    0.000    0.000    0.000 
#
# Total GULP energy -111636.604214 kJ/mol
# GULP energy per Si atom -5581.830211 kJ/mol
# Density = 2.582514 g / cm^3
# Si number density = 25.884055 Si / 1000 Ang^3
#
#
#
# Elastic Constant Matrix: (Units=GPa)
#
#
# Indices 1 2 3 4 5 6 
#
# 1 200.2118 28.7615 44.9903 0.0000 24.3753 0.0000
# 2 28.7615 170.8206 61.5247 0.0000 9.8705 0.0000
# 3 44.9903 61.5247 92.8988 0.0000 -1.1763 0.0000
# 4 0.0000 0.0000 0.0000 66.4817 0.0000 7.4754
# 5 24.3753 9.8705 -1.1763 0.0000 55.2473 0.0000
# 6 0.0000 0.0000 0.0000 7.4754 0.0000 31.8126
#
#
#
# Elastic Compliance Matrix: (Units=1/GPa)
#
#
# Indices 1 2 3 4 5 6 
#
# 1 0.005992 0.000274 -0.003118 0.000000 -0.002759 0.000000
# 2 0.000274 0.007824 -0.005335 0.000000 -0.001632 0.000000
# 3 -0.003118 -0.005335 0.015841 0.000000 0.002666 0.000000
# 4 0.000000 0.000000 0.000000 0.015450 0.000000 -0.003630
# 5 -0.002759 -0.001632 0.002666 0.000000 0.019666 0.000000
# 6 0.000000 0.000000 0.000000 -0.003630 0.000000 0.032287
#
#
# Mechanical properties :
#
#
# Convention : Reuss Voigt Hill
#
# Bulk Modulus (GPa) = 75.19491 81.60936 78.40213
# Shear Modulus (GPa) = 42.42648 52.61864 47.52256
#
# Velocity S-wave (km/s) = 4.05297 4.51362 4.28948
# Velocity P-wave (km/s) = 7.14254 7.66557 7.40867
#
# Compressibility (1/GPa) = 0.01329877
#
# Stress axis : x y z
#
# Youngs Moduli (GPa) = 166.89044 127.81660 63.12679
#
# Poissons Ratio (x) = -0.03496 0.19683
# Poissons Ratio (y) = -0.04565 0.33676
# Poissons Ratio (z) = 0.52036 0.68185
#
# Static dielectric constant tensor:
#      x y z
#    x 2.046040 0.000000 0.060800 
#    y 0.000000 1.942330 0.000000 
#    z 0.060800 0.000000 1.820690 
# 
# From -- ./inp_files/19342.got.cif
#   From: 2010.05.17/outbox.cif.g08.bks.cpg/sg14_10_cif.got.tgz:19342.got - 2010.06.03 17:49:19.
