data_PCOD9248746
_publ_section_title
;
Structure prediction by ZEFSAII (Michael W. Deem and Ramdas Pophale) SiO2 
 PCOD9248746
Probable space group: P 21/C
;
_chemical_formula_sum "Si O2"
_cell_formula_units_Z 28
_cell_length_a 14.657787
_cell_length_b 5.452443
_cell_length_c 13.066892
_cell_angle_alpha 90.000000
_cell_angle_beta 87.393124
_cell_angle_gamma 90.000000
_cell_volume 1043.235041
_symmetry_space_group_name_H-M "P 21/C"
_symmetry_group_IT_number 14
_symmetry_cell_setting 'monoclinic'
loop_
_space_group_symop_operation_xyz
x,y,z
-x,1/2+y,1/2-z
-x,-y,-z
x,1/2-y,1/2+z
loop_
_atom_site_type_symbol
_atom_site_label
_atom_site_fract_x
_atom_site_fract_y
_atom_site_fract_z
Si Si1 0.050777 0.262334 0.634434
Si Si2 0.805223 0.096388 0.529396
Si Si3 0.511239 0.398840 0.187245
Si Si4 0.655366 0.755079 0.432585
Si Si5 0.766931 0.681633 0.246940
Si Si6 0.999577 0.233650 0.415992
Si Si7 0.669132 0.439480 0.614587
O O1 0.139485 0.253770 0.699021
O O2 0.999419 0.520140 0.647426
O O3 0.067081 0.268877 0.508581
O O4 0.989129 0.019744 0.644129
O O5 0.898358 0.183284 0.467966
O O6 0.757953 0.355235 0.550566
O O7 0.737399 0.935341 0.462566
O O8 0.795576 0.970599 0.643922
O O9 0.514503 0.669051 0.235777
O O10 0.431464 0.395111 0.107966
O O11 0.607507 0.296175 0.141569
O O12 0.699869 0.582692 0.340538
O O13 0.620966 0.613858 0.535010
O O14 0.708578 0.913848 0.209033
#
# Coordination Sequence:
#
# PCOD9248746 Si02
#       7
#     4   4   4   4   4   4   4
#     4  10  22  43  73  98 145 184 237 286 355 412
#     4  11  25  41  70 103 143 183 242 288 353 427
#     4  12  27  48  74 106 143 183 234 292 358 427
#     4  11  24  45  71  99 139 187 233 295 354 423
#     4  11  23  44  66 105 135 191 233 297 350 422
#     4  10  22  44  69 106 136 189 232 290 350 424
#     4  11  26  43  70 103 139 184 240 289 354 424
#
# _framework density 26.839590999999999
#
# number of rings (size 3 to 8) (size 9 to 14) (size 15 to 20)
#    0.000    1.143    2.857    2.143    8.000    1.714 
#    2.571    0.000    0.000    0.000    0.000    0.000 
#    0.000    0.000    0.000    0.000    0.000    0.000 
#
# Total GULP energy -156522.993424 kJ/mol
# GULP energy per Si atom -5590.106908 kJ/mol
# Density = 2.677850 g / cm^3
# Si number density = 26.839591 Si / 1000 Ang^3
#
#
#
# Elastic Constant Matrix: (Units=GPa)
#
#
# Indices 1 2 3 4 5 6 
#
# 1 141.9731 11.0026 47.9776 0.0000 14.7586 0.0000
# 2 11.0026 118.2292 29.7739 0.0000 8.8862 0.0000
# 3 47.9776 29.7739 156.1707 0.0000 27.9619 0.0000
# 4 0.0000 0.0000 0.0000 -1.4960 0.0000 1.2219
# 5 14.7586 8.8862 27.9619 0.0000 63.0249 0.0000
# 6 0.0000 0.0000 0.0000 1.2219 0.0000 37.1604
#
#
#
# Elastic Compliance Matrix: (Units=1/GPa)
#
#
# Indices 1 2 3 4 5 6 
#
# 1 0.007901 -0.000104 -0.002258 0.000000 -0.000834 0.000000
# 2 -0.000104 0.008903 -0.001570 0.000000 -0.000535 0.000000
# 3 -0.002258 -0.001570 0.007889 0.000000 -0.002750 0.000000
# 4 0.000000 0.000000 0.000000 -0.650958 0.000000 0.021405
# 5 -0.000834 -0.000535 -0.002750 0.000000 0.017357 0.000000
# 6 0.000000 0.000000 0.000000 0.021405 0.000000 0.026207
#
#
# Mechanical properties :
#
#
# Convention : Reuss Voigt Hill
#
# Bulk Modulus (GPa) = 59.42011 65.98681 62.70346
# Shear Modulus (GPa) = -8.78384 41.57912 16.39764
#
# Velocity S-wave (km/s) = -1.81103 3.94022 2.47442
# Velocity P-wave (km/s) = 4.22066 6.73346 5.61931
#
# Compressibility (1/GPa) = 0.01682932
#
# Stress axis : x y z
#
# Youngs Moduli (GPa) = 126.55856 112.31769 126.76430
#
# Poissons Ratio (x) = 0.01167 0.28628
# Poissons Ratio (y) = 0.01315 0.19899
# Poissons Ratio (z) = 0.28581 0.17631
#
# Static dielectric constant tensor:
#      x y z
#    x 2.048310 0.000000 -0.023630 
#    y 0.000000 2.180140 0.000000 
#    z -0.023630 0.000000 2.199220 
# 
# From -- ./inp_files/47837.got.cif
#   From: 2010.05.17/outbox.cif.g08.bks.cpg/sg14_24_cif.got.tgz:47837.got - 2010.06.03 17:49:19.
