data_PCOD9248441
_publ_section_title
;
Structure prediction by ZEFSAII (Michael W. Deem and Ramdas Pophale) SiO2 
 PCOD9248441
Probable space group: P 21/C
;
_chemical_formula_sum "Si O2"
_cell_formula_units_Z 30
_cell_length_a 13.428579
_cell_length_b 11.663310
_cell_length_c 9.344430
_cell_angle_alpha 90.000000
_cell_angle_beta 122.084718
_cell_angle_gamma 90.000000
_cell_volume 1240.004481
_symmetry_space_group_name_H-M "P 21/C"
_symmetry_group_IT_number 14
_symmetry_cell_setting 'monoclinic'
loop_
_space_group_symop_operation_xyz
x,y,z
-x,1/2+y,1/2-z
-x,-y,-z
x,1/2-y,1/2+z
loop_
_atom_site_type_symbol
_atom_site_label
_atom_site_fract_x
_atom_site_fract_y
_atom_site_fract_z
Si Si1 0.407170 0.152786 0.396563
Si Si2 0.670297 0.589796 0.655121
Si Si3 0.893482 0.710187 0.966421
Si Si4 0.150153 0.857593 0.386738
Si Si5 0.000000 0.500000 0.000000
Si Si6 0.787940 0.577616 0.463886
Si Si7 0.401026 0.970094 0.629938
Si Si8 0.083239 0.644437 0.502627
O O1 0.391933 0.287526 0.405611
O O2 0.289908 0.099141 0.236081
O O3 0.427831 0.085275 0.559349
O O4 0.508026 0.122711 0.359605
O O5 0.703422 0.539614 0.527620
O O6 0.601607 0.504857 0.706562
O O7 0.797970 0.622083 0.825890
O O8 0.991247 0.620470 0.088300
O O9 0.951809 0.803394 0.904501
O O10 0.833445 0.793826 0.034307
O O11 0.158650 0.732652 0.465918
O O12 0.119212 0.849119 0.197085
O O13 0.053257 0.925034 0.406288
O O14 0.271678 0.924639 0.496684
O O15 0.888408 0.484268 0.521876
#
# Coordination Sequence:
#
# PCOD9248441 Si02
#       8
#     4   4   4   4   2   4   4   4
#     4  10  23  45  69  99 135 182 235 284 359 409
#     4  11  24  43  70 106 134 180 235 293 347 424
#     4  10  23  41  66  97 142 185 224 282 346 414
#     4  11  25  46  67 100 141 186 232 289 352 414
#     4  10  22  42  68  98 132 180 228 274 340 418
#     4  11  24  43  68 103 139 180 239 292 344 416
#     4  11  23  46  73  95 141 186 226 296 355 422
#     4  11  26  44  66 100 143 186 235 290 346 425
#
# _framework density 24.193460000000002
#
# number of rings (size 3 to 8) (size 9 to 14) (size 15 to 20)
#    0.000    1.333    2.667    2.000    5.600    1.600 
#    7.200    0.000    0.000    0.000    0.000    0.000 
#    0.000    0.000    0.000    0.000    0.000    0.000 
#
# Total GULP energy -167379.423739 kJ/mol
# GULP energy per Si atom -5579.314125 kJ/mol
# Density = 2.413839 g / cm^3
# Si number density = 24.193460 Si / 1000 Ang^3
#
#
#
# Elastic Constant Matrix: (Units=GPa)
#
#
# Indices 1 2 3 4 5 6 
#
# 1 75.4714 10.0823 7.8696 0.0000 -14.6666 0.0000
# 2 10.0823 89.8535 12.6232 0.0000 -10.5433 0.0000
# 3 7.8696 12.6232 66.0020 0.0000 -15.3049 0.0000
# 4 0.0000 0.0000 0.0000 24.4499 0.0000 -12.1032
# 5 -14.6666 -10.5433 -15.3049 0.0000 26.5904 0.0000
# 6 0.0000 0.0000 0.0000 -12.1032 0.0000 20.4429
#
#
#
# Elastic Compliance Matrix: (Units=1/GPa)
#
#
# Indices 1 2 3 4 5 6 
#
# 1 0.014891 -0.000760 0.000236 0.000000 0.008048 0.000000
# 2 -0.000760 0.011814 -0.001362 0.000000 0.003482 0.000000
# 3 0.000236 -0.001362 0.017643 0.000000 0.009745 0.000000
# 4 0.000000 0.000000 0.000000 0.057856 0.000000 0.034254
# 5 0.008048 0.003482 0.009745 0.000000 0.049037 0.000000
# 6 0.000000 0.000000 0.000000 0.034254 0.000000 0.069196
#
#
# Mechanical properties :
#
#
# Convention : Reuss Voigt Hill
#
# Bulk Modulus (GPa) = 24.64397 32.49747 28.57072
# Shear Modulus (GPa) = 21.03190 27.68007 24.35599
#
# Velocity S-wave (km/s) = 2.95162 3.38614 3.17632
# Velocity P-wave (km/s) = 4.67166 5.36185 5.02861
#
# Compressibility (1/GPa) = 0.04057788
#
# Stress axis : x y z
#
# Youngs Moduli (GPa) = 67.15494 84.64318 56.67924
#
# Poissons Ratio (x) = 0.06430 -0.01338
# Poissons Ratio (y) = 0.05102 0.07717
# Poissons Ratio (z) = -0.01585 0.11525
#
# Static dielectric constant tensor:
#      x y z
#    x 2.024180 0.000000 0.023290 
#    y 0.000000 1.928610 0.000000 
#    z 0.023290 0.000000 1.935880 
# 
# From -- ./inp_files/15858.got.cif
#   From: 2010.05.17/outbox.cif.g08.bks.cpg/sg14_8_cif.got.tgz:15858.got - 2010.06.03 17:49:19.
