data_PCOD9248828
_publ_section_title
;
Structure prediction by ZEFSAII (Michael W. Deem and Ramdas Pophale) SiO2 
 PCOD9248828
Probable space group: P 21/C
;
_chemical_formula_sum "Si O2"
_cell_formula_units_Z 20
_cell_length_a 6.960590
_cell_length_b 10.239557
_cell_length_c 14.154720
_cell_angle_alpha 90.000000
_cell_angle_beta 130.614222
_cell_angle_gamma 90.000000
_cell_volume 765.831230
_symmetry_space_group_name_H-M "P 21/C"
_symmetry_group_IT_number 14
_symmetry_cell_setting 'monoclinic'
loop_
_space_group_symop_operation_xyz
x,y,z
-x,1/2+y,1/2-z
-x,-y,-z
x,1/2-y,1/2+z
loop_
_atom_site_type_symbol
_atom_site_label
_atom_site_fract_x
_atom_site_fract_y
_atom_site_fract_z
Si Si1 0.590892 0.357574 0.939720
Si Si2 0.087766 0.033804 0.633620
Si Si3 0.111628 0.025609 0.245848
Si Si4 0.332592 0.128530 0.970273
Si Si5 0.624157 0.721097 0.301574
O O1 0.151799 0.630113 0.922703
O O2 0.621249 0.322091 0.837633
O O3 0.404933 0.483081 0.874330
O O4 0.425427 0.243550 0.932174
O O5 0.329323 0.126041 0.702794
O O6 0.000000 0.000000 0.500000
O O7 0.056177 0.942067 0.714396
O O8 0.156034 0.137334 0.181462
O O9 0.956586 0.910616 0.146353
O O10 0.368134 0.178787 0.088161
O O11 0.500000 0.000000 0.000000
#
# Coordination Sequence:
#
# PCOD9248828 Si02
#       5
#     4   4   4   4   4
#     4  10  25  44  66 103 133 174 232 277 331 416
#     4  12  24  45  71  98 140 180 223 283 342 396
#     4  10  22  44  68 100 130 178 222 274 342 394
#     4  12  24  45  71  98 140 180 223 283 342 396
#     4  10  25  44  66 103 133 174 232 277 331 416
#
# _framework density 26.115416
#
# number of rings (size 3 to 8) (size 9 to 14) (size 15 to 20)
#    1.200    0.000    2.000    3.600    2.800    0.000 
#   10.800    0.000    0.000    0.000    0.000    0.000 
#    0.000    0.000    0.000    0.000    0.000    0.000 
#
# Total GULP energy -111571.896746 kJ/mol
# GULP energy per Si atom -5578.594837 kJ/mol
# Density = 2.605598 g / cm^3
# Si number density = 26.115416 Si / 1000 Ang^3
#
#
#
# Elastic Constant Matrix: (Units=GPa)
#
#
# Indices 1 2 3 4 5 6 
#
# 1 49.4775 11.6970 21.7748 0.0000 -13.0506 0.0000
# 2 11.6970 39.2300 -2.8018 0.0000 -13.8289 0.0000
# 3 21.7748 -2.8018 140.2530 0.0000 -40.4688 0.0000
# 4 0.0000 0.0000 0.0000 39.2453 0.0000 -10.9538
# 5 -13.0506 -13.8289 -40.4688 0.0000 76.4879 0.0000
# 6 0.0000 0.0000 0.0000 -10.9538 0.0000 26.7926
#
#
#
# Elastic Compliance Matrix: (Units=1/GPa)
#
#
# Indices 1 2 3 4 5 6 
#
# 1 0.023666 -0.006996 -0.003557 0.000000 0.000891 0.000000
# 2 -0.006996 0.029948 0.003425 0.000000 0.006033 0.000000
# 3 -0.003557 0.003425 0.009151 0.000000 0.004854 0.000000
# 4 0.000000 0.000000 0.000000 0.028763 0.000000 0.011759
# 5 0.000891 0.006033 0.004854 0.000000 0.016885 0.000000
# 6 0.000000 0.000000 0.000000 0.011759 0.000000 0.042131
#
#
# Mechanical properties :
#
#
# Convention : Reuss Voigt Hill
#
# Bulk Modulus (GPa) = 20.61450 32.25560 26.43505
# Shear Modulus (GPa) = 27.62899 41.72452 34.67676
#
# Velocity S-wave (km/s) = 3.25615 4.00146 3.64789
# Velocity P-wave (km/s) = 4.69547 5.80748 5.28083
#
# Compressibility (1/GPa) = 0.04850953
#
# Stress axis : x y z
#
# Youngs Moduli (GPa) = 42.25551 33.39117 109.27477
#
# Poissons Ratio (x) = 0.23361 0.38867
# Poissons Ratio (y) = 0.29562 -0.37429
# Poissons Ratio (z) = 0.15029 -0.11437
#
# Static dielectric constant tensor:
#      x y z
#    x 2.194740 0.000000 -0.035970 
#    y 0.000000 2.142680 0.000000 
#    z -0.035970 0.000000 2.067270 
# 
# From -- ./inp_files/23557.got.cif
#   From: 2010.05.17/outbox.cif.g08.bks.cpg/sg14_12_cif.got.tgz:23557.got - 2010.06.03 17:49:19.
