data_PCOD9248666
_publ_section_title
;
Structure prediction by ZEFSAII (Michael W. Deem and Ramdas Pophale) SiO2 
 PCOD9248666
Probable space group: P 21/C
;
_chemical_formula_sum "Si O2"
_cell_formula_units_Z 20
_cell_length_a 6.939468
_cell_length_b 17.793495
_cell_length_c 8.229523
_cell_angle_alpha 90.000000
_cell_angle_beta 50.327087
_cell_angle_gamma 90.000000
_cell_volume 782.139838
_symmetry_space_group_name_H-M "P 21/C"
_symmetry_group_IT_number 14
_symmetry_cell_setting 'monoclinic'
loop_
_space_group_symop_operation_xyz
x,y,z
-x,1/2+y,1/2-z
-x,-y,-z
x,1/2-y,1/2+z
loop_
_atom_site_type_symbol
_atom_site_label
_atom_site_fract_x
_atom_site_fract_y
_atom_site_fract_z
Si Si1 0.519676 0.325819 0.491444
Si Si2 0.195211 0.537346 0.166391
Si Si3 0.067109 0.209230 0.736099
Si Si4 0.234812 0.404770 0.410775
Si Si5 0.629637 0.906808 0.615080
O O1 0.270968 0.274779 0.632248
O O2 0.493928 0.372331 0.338603
O O3 0.773256 0.277943 0.367780
O O4 0.505224 0.384944 0.646885
O O5 0.231912 0.476225 0.293858
O O6 0.243261 0.487986 0.981348
O O7 0.927147 0.572236 0.343573
O O8 0.413392 0.595924 0.091977
O O9 0.098107 0.160820 0.884147
O O10 0.162585 0.154388 0.541188
#
# Coordination Sequence:
#
# PCOD9248666 Si02
#       5
#     4   4   4   4   4
#     4  12  26  43  70  98 132 179 229 272 329 399
#     4   9  20  44  67  99 140 172 208 283 333 397
#     4  11  26  45  64 100 135 173 227 279 329 390
#     4  10  22  43  70  94 140 173 218 274 335 395
#     4  10  22  43  68  97 134 174 219 267 340 390
#
# _framework density 25.570875999999998
#
# number of rings (size 3 to 8) (size 9 to 14) (size 15 to 20)
#    0.000    1.600    2.000    1.200    2.800    6.400 
#    7.200    0.000    0.000    0.000    0.000    0.000 
#    0.000    0.000    0.000    0.000    0.000    0.000 
#
# Total GULP energy -111836.712528 kJ/mol
# GULP energy per Si atom -5591.835626 kJ/mol
# Density = 2.551268 g / cm^3
# Si number density = 25.570876 Si / 1000 Ang^3
#
#
#
# Elastic Constant Matrix: (Units=GPa)
#
#
# Indices 1 2 3 4 5 6 
#
# 1 117.3866 43.9419 38.4537 0.0000 -19.6065 0.0000
# 2 43.9419 97.5726 30.7675 0.0000 -11.2394 0.0000
# 3 38.4537 30.7675 63.8865 0.0000 -18.1605 0.0000
# 4 0.0000 0.0000 0.0000 34.3513 0.0000 -9.5012
# 5 -19.6065 -11.2394 -18.1605 0.0000 31.8814 0.0000
# 6 0.0000 0.0000 0.0000 -9.5012 0.0000 28.7917
#
#
#
# Elastic Compliance Matrix: (Units=1/GPa)
#
#
# Indices 1 2 3 4 5 6 
#
# 1 0.011893 -0.003547 -0.004447 0.000000 0.003531 0.000000
# 2 -0.003547 0.013176 -0.004188 0.000000 0.000078 0.000000
# 3 -0.004447 -0.004188 0.022849 0.000000 0.008804 0.000000
# 4 0.000000 0.000000 0.000000 0.032035 0.000000 0.010571
# 5 0.003531 0.000078 0.008804 0.000000 0.038580 0.000000
# 6 0.000000 0.000000 0.000000 0.010571 0.000000 0.038221
#
#
# Mechanical properties :
#
#
# Convention : Reuss Voigt Hill
#
# Bulk Modulus (GPa) = 42.45596 56.13023 49.29309
# Shear Modulus (GPa) = 26.45936 30.05038 28.25487
#
# Velocity S-wave (km/s) = 3.22024 3.43181 3.32770
# Velocity P-wave (km/s) = 5.51959 6.14016 5.83813
#
# Compressibility (1/GPa) = 0.02355382
#
# Stress axis : x y z
#
# Youngs Moduli (GPa) = 84.08306 75.89609 43.76573
#
# Poissons Ratio (x) = 0.26922 0.19461
# Poissons Ratio (y) = 0.29826 0.18330
# Poissons Ratio (z) = 0.37388 0.31787
#
# Static dielectric constant tensor:
#      x y z
#    x 2.014390 0.000000 -0.029050 
#    y 0.000000 2.030060 0.000000 
#    z -0.029050 0.000000 2.103860 
# 
# From -- ./inp_files/5832.got.cif
#   From: 2010.05.17/outbox.cif.g08.bks.cpg/sg14_3_cif.got.tgz:5832.got - 2010.06.03 17:49:19.
