data_PCOD9248252
_publ_section_title
;
Structure prediction by ZEFSAII (Michael W. Deem and Ramdas Pophale) SiO2 
 PCOD9248252
Probable space group: P 21/C
;
_chemical_formula_sum "Si O2"
_cell_formula_units_Z 26
_cell_length_a 12.746436
_cell_length_b 12.174432
_cell_length_c 20.702257
_cell_angle_alpha 90.000000
_cell_angle_beta 19.943578
_cell_angle_gamma 90.000000
_cell_volume 1095.796824
_symmetry_space_group_name_H-M "P 21/C"
_symmetry_group_IT_number 14
_symmetry_cell_setting 'monoclinic'
loop_
_space_group_symop_operation_xyz
x,y,z
-x,1/2+y,1/2-z
-x,-y,-z
x,1/2-y,1/2+z
loop_
_atom_site_type_symbol
_atom_site_label
_atom_site_fract_x
_atom_site_fract_y
_atom_site_fract_z
Si Si1 0.055895 0.020468 0.082563
Si Si2 0.019334 0.604765 0.942132
Si Si3 0.529581 0.249519 0.021143
Si Si4 0.113469 0.727652 0.566006
Si Si5 0.431735 0.197569 0.795882
Si Si6 0.500000 0.000000 0.500000
Si Si7 0.541357 0.075461 0.914239
O O1 0.101020 0.891632 0.039899
O O2 0.178869 0.102944 0.956062
O O3 0.286839 0.045574 0.009042
O O4 0.722522 0.034645 0.307173
O O5 0.301944 0.678353 0.805420
O O6 0.126431 0.563733 0.810395
O O7 0.000000 0.500000 0.000000
O O8 0.730550 0.684475 0.106587
O O9 0.544733 0.378733 0.004831
O O10 0.221237 0.218756 0.239469
O O11 0.808767 0.208069 0.903580
O O12 0.515077 0.195848 0.959512
O O13 0.373962 0.802211 0.382909
O O14 0.500000 0.000000 0.000000
#
# Coordination Sequence:
#
# PCOD9248252 Si02
#       7
#     4   4   4   4   4   2   4
#     4  10  22  43  65  98 134 175 230 293 353 427
#     4  11  26  47  72 104 148 189 246 302 366 444
#     4  11  23  41  66  95 133 177 225 285 351 416
#     4  11  23  41  65  95 136 177 228 287 352 422
#     4  11  23  44  70  97 142 187 240 292 367 440
#     4  10  22  42  60  94 138 166 218 294 348 420
#     4  11  22  41  71  99 130 180 237 285 363 418
#
# _framework density 23.727028000000001
#
# number of rings (size 3 to 8) (size 9 to 14) (size 15 to 20)
#    0.000    1.231    1.538    4.615    2.154    1.231 
#    2.769   13.846    0.000    0.000    0.000    0.000 
#    0.000    0.000    0.000    0.000    0.000    0.000 
#
# Total GULP energy -144839.731910 kJ/mol
# GULP energy per Si atom -5570.758920 kJ/mol
# Density = 2.367302 g / cm^3
# Si number density = 23.727028 Si / 1000 Ang^3
#
#
#
# Elastic Constant Matrix: (Units=GPa)
#
#
# Indices 1 2 3 4 5 6 
#
# 1 43.7681 5.5000 2.0177 0.0000 -1.3113 0.0000
# 2 5.5000 91.7688 25.4499 0.0000 7.1259 0.0000
# 3 2.0177 25.4499 136.7923 0.0000 20.8404 0.0000
# 4 0.0000 0.0000 0.0000 41.7672 0.0000 13.6948
# 5 -1.3113 7.1259 20.8404 0.0000 30.9383 0.0000
# 6 0.0000 0.0000 0.0000 13.6948 0.0000 28.9839
#
#
#
# Elastic Compliance Matrix: (Units=1/GPa)
#
#
# Indices 1 2 3 4 5 6 
#
# 1 0.023085 -0.001416 -0.000307 0.000000 0.001512 0.000000
# 2 -0.001416 0.011627 -0.001922 0.000000 -0.001443 0.000000
# 3 -0.000307 -0.001922 0.008477 0.000000 -0.005280 0.000000
# 4 0.000000 0.000000 0.000000 0.028331 0.000000 -0.013387
# 5 0.001512 -0.001443 -0.005280 0.000000 0.036276 0.000000
# 6 0.000000 0.000000 0.000000 -0.013387 0.000000 0.040827
#
#
# Mechanical properties :
#
#
# Convention : Reuss Voigt Hill
#
# Bulk Modulus (GPa) = 27.85675 37.58496 32.72086
# Shear Modulus (GPa) = 29.78309 36.29531 33.03920
#
# Velocity S-wave (km/s) = 3.54678 3.91538 3.73563
# Velocity P-wave (km/s) = 5.34218 6.02622 5.69448
#
# Compressibility (1/GPa) = 0.03589794
#
# Stress axis : x y z
#
# Youngs Moduli (GPa) = 43.31812 86.00670 117.96568
#
# Poissons Ratio (x) = 0.12176 0.03626
# Poissons Ratio (y) = 0.06133 0.22678
# Poissons Ratio (z) = 0.01332 0.16534
#
# Static dielectric constant tensor:
#      x y z
#    x 1.963180 0.000000 -0.013420 
#    y 0.000000 1.933810 0.000000 
#    z -0.013420 0.000000 1.982470 
# 
# From -- ./inp_files/68525.got.cif
#   From: 2010.05.17/outbox.cif.g08.bks.cpg/sg14_35_cif.got.tgz:68525.got - 2010.06.03 17:49:19.
