data_PCOD9248689
_publ_section_title
;
Structure prediction by ZEFSAII (Michael W. Deem and Ramdas Pophale) SiO2 
 PCOD9248689
Probable space group: P 21/C
;
_chemical_formula_sum "Si O2"
_cell_formula_units_Z 28
_cell_length_a 29.308120
_cell_length_b 5.107074
_cell_length_c 20.965463
_cell_angle_alpha 90.000000
_cell_angle_beta 161.571988
_cell_angle_gamma 90.000000
_cell_volume 991.988865
_symmetry_space_group_name_H-M "P 21/C"
_symmetry_group_IT_number 14
_symmetry_cell_setting 'monoclinic'
loop_
_space_group_symop_operation_xyz
x,y,z
-x,1/2+y,1/2-z
-x,-y,-z
x,1/2-y,1/2+z
loop_
_atom_site_type_symbol
_atom_site_label
_atom_site_fract_x
_atom_site_fract_y
_atom_site_fract_z
Si Si1 0.325917 0.960285 0.483141
Si Si2 0.927200 0.807924 0.013420
Si Si3 0.902227 0.777198 0.616623
Si Si4 0.278508 0.931774 0.822062
Si Si5 0.129349 0.190760 0.789210
Si Si6 0.398537 0.751515 0.354974
Si Si7 0.564048 0.237335 0.236585
O O1 0.230633 0.773424 0.312202
O O2 0.255318 0.237574 0.408141
O O3 0.355563 0.836722 0.591780
O O4 0.470461 0.011315 0.634255
O O5 0.821792 0.684299 0.821846
O O6 0.052467 0.586829 0.184950
O O7 0.840219 0.789058 0.965447
O O8 0.009186 0.082595 0.117089
O O9 0.813134 0.734034 0.562427
O O10 0.967035 0.068014 0.703312
O O11 0.286708 0.779898 0.764792
O O12 0.437507 0.031138 0.051745
O O13 0.500000 0.500000 0.500000
O O14 0.350445 0.758958 0.216855
O O15 0.500000 0.000000 0.500000
#
# Coordination Sequence:
#
# PCOD9248689 Si02
#       7
#     4   4   4   4   4   4   4
#     4  12  25  43  71  95 143 183 228 285 346 418
#     4  10  23  42  66  99 137 172 229 281 338 410
#     4   8  16  37  60  87 128 168 218 265 321 395
#     4  11  25  43  71 100 137 181 225 293 345 405
#     4  10  24  41  66 100 133 183 220 275 345 415
#     4  10  22  43  69  97 132 175 231 283 338 402
#     4  11  25  46  67 101 138 182 238 281 349 414
#
# _framework density 28.226122
#
# number of rings (size 3 to 8) (size 9 to 14) (size 15 to 20)
#    0.000    1.714    2.857    0.000    6.000    1.143 
#    0.000    0.000    3.143    0.000    0.000    0.000 
#    0.000    0.000    0.000    0.000    0.000    0.000 
#
# Total GULP energy -157072.060728 kJ/mol
# GULP energy per Si atom -5609.716455 kJ/mol
# Density = 2.816188 g / cm^3
# Si number density = 28.226122 Si / 1000 Ang^3
#
#
#
# Elastic Constant Matrix: (Units=GPa)
#
#
# Indices 1 2 3 4 5 6 
#
# 1 199.1933 25.6397 51.2006 0.0000 -44.5628 0.0000
# 2 25.6397 149.3617 37.6690 0.0000 -0.7519 0.0000
# 3 51.2006 37.6690 94.4437 0.0000 -25.4405 0.0000
# 4 0.0000 0.0000 0.0000 53.2152 0.0000 -6.4992
# 5 -44.5628 -0.7519 -25.4405 0.0000 51.9961 0.0000
# 6 0.0000 0.0000 0.0000 -6.4992 0.0000 43.5631
#
#
#
# Elastic Compliance Matrix: (Units=1/GPa)
#
#
# Indices 1 2 3 4 5 6 
#
# 1 0.006692 -0.000587 -0.002132 0.000000 0.004683 0.000000
# 2 -0.000587 0.007605 -0.003249 0.000000 -0.001983 0.000000
# 3 -0.002132 -0.003249 0.014438 0.000000 0.005190 0.000000
# 4 0.000000 0.000000 0.000000 0.019140 0.000000 0.002856
# 5 0.004683 -0.001983 0.005190 0.000000 0.025757 0.000000
# 6 0.000000 0.000000 0.000000 0.002856 0.000000 0.023381
#
#
# Mechanical properties :
#
#
# Convention : Reuss Voigt Hill
#
# Bulk Modulus (GPa) = 59.53031 74.66860 67.09945
# Shear Modulus (GPa) = 43.64906 51.65415 47.65160
#
# Velocity S-wave (km/s) = 3.93670 4.28251 4.11324
# Velocity P-wave (km/s) = 6.46528 7.13893 6.81044
#
# Compressibility (1/GPa) = 0.01679817
#
# Stress axis : x y z
#
# Youngs Moduli (GPa) = 149.44146 131.48429 69.26129
#
# Poissons Ratio (x) = 0.07724 0.14765
# Poissons Ratio (y) = 0.08779 0.22504
# Poissons Ratio (z) = 0.31858 0.42722
#
# Static dielectric constant tensor:
#      x y z
#    x 2.184780 0.000000 -0.040420 
#    y 0.000000 2.168330 0.000000 
#    z -0.040420 0.000000 2.150200 
# 
# From -- ./inp_files/62159.got.cif
#   From: 2010.05.17/outbox.cif.g08.bks.cpg/sg14_32_cif.got.tgz:62159.got - 2010.06.03 17:49:19.
