data_PCOD9248622
_publ_section_title
;
Structure prediction by ZEFSAII (Michael W. Deem and Ramdas Pophale) SiO2 
 PCOD9248622
Probable space group: P 21/C
;
_chemical_formula_sum "Si O2"
_cell_formula_units_Z 32
_cell_length_a 5.441011
_cell_length_b 11.217541
_cell_length_c 25.096050
_cell_angle_alpha 90.000000
_cell_angle_beta 71.429065
_cell_angle_gamma 90.000000
_cell_volume 1451.974367
_symmetry_space_group_name_H-M "P 21/C"
_symmetry_group_IT_number 14
_symmetry_cell_setting 'monoclinic'
loop_
_space_group_symop_operation_xyz
x,y,z
-x,1/2+y,1/2-z
-x,-y,-z
x,1/2-y,1/2+z
loop_
_atom_site_type_symbol
_atom_site_label
_atom_site_fract_x
_atom_site_fract_y
_atom_site_fract_z
Si Si1 0.378667 0.294145 0.327205
Si Si2 0.545468 0.307970 0.093021
Si Si3 0.522270 0.524714 0.167789
Si Si4 0.198594 0.615788 0.773456
Si Si5 0.093832 0.021461 0.791717
Si Si6 0.768990 0.159641 0.996657
Si Si7 0.992932 0.289363 0.641389
Si Si8 0.355773 0.084079 0.936789
O O1 0.415635 0.161864 0.346588
O O2 0.566202 0.304850 0.263318
O O3 0.121866 0.349338 0.317799
O O4 0.434563 0.385169 0.371330
O O5 0.471527 0.439152 0.120691
O O6 0.705274 0.286460 0.027871
O O7 0.277929 0.236154 0.099456
O O8 0.745669 0.254099 0.123780
O O9 0.774007 0.467191 0.177638
O O10 0.315491 0.507338 0.231284
O O11 0.152417 0.527255 0.728597
O O12 0.991175 0.713901 0.804370
O O13 0.063880 0.923713 0.838623
O O14 0.697281 0.053450 0.043756
O O15 0.581449 0.132863 0.959866
O O16 0.073943 0.146225 0.964034
#
# Coordination Sequence:
#
# PCOD9248622 Si02
#       8
#     4   4   4   4   4   4   4   4
#     4  11  24  40  61  92 133 174 211 263 329 385
#     4  11  23  43  65  94 122 176 207 269 316 384
#     4  10  23  40  58  92 136 171 215 257 317 394
#     4  10  23  36  58  90 129 173 206 255 309 381
#     4  11  23  36  60  90 131 175 209 267 305 391
#     4  10  22  43  67  89 126 153 223 275 321 370
#     4  11  23  38  64  93 128 164 221 247 316 381
#     4  10  23  42  65  95 120 164 208 279 323 371
#
# _framework density 22.038958000000001
#
# number of rings (size 3 to 8) (size 9 to 14) (size 15 to 20)
#    0.000    1.500    2.500    1.500    8.750    1.000 
#    0.000    1.250    0.000    0.000    0.000    0.000 
#    0.000    0.000    0.000    0.000    0.000    0.000 
#
# Total GULP energy -178138.700465 kJ/mol
# GULP energy per Si atom -5566.834390 kJ/mol
# Density = 2.198880 g / cm^3
# Si number density = 22.038958 Si / 1000 Ang^3
#
#
#
# Elastic Constant Matrix: (Units=GPa)
#
#
# Indices 1 2 3 4 5 6 
#
# 1 67.1032 15.2120 4.8389 0.0000 -4.3310 0.0000
# 2 15.2120 57.7614 -0.4818 0.0000 -4.5542 0.0000
# 3 4.8389 -0.4818 47.7895 0.0000 0.2069 0.0000
# 4 0.0000 0.0000 0.0000 25.6719 0.0000 -0.4364
# 5 -4.3310 -4.5542 0.2069 0.0000 31.0615 0.0000
# 6 0.0000 0.0000 0.0000 -0.4364 0.0000 16.6133
#
#
#
# Elastic Compliance Matrix: (Units=1/GPa)
#
#
# Indices 1 2 3 4 5 6 
#
# 1 0.016062 -0.004114 -0.001675 0.000000 0.001648 0.000000
# 2 -0.004114 0.018570 0.000595 0.000000 0.002145 0.000000
# 3 -0.001675 0.000595 0.021102 0.000000 -0.000287 0.000000
# 4 0.000000 0.000000 0.000000 0.038971 0.000000 0.001024
# 5 0.001648 0.002145 -0.000287 0.000000 0.032740 0.000000
# 6 0.000000 0.000000 0.000000 0.001024 0.000000 0.060220
#
#
# Mechanical properties :
#
#
# Convention : Reuss Voigt Hill
#
# Bulk Modulus (GPa) = 22.05313 23.53247 22.79280
# Shear Modulus (GPa) = 23.45555 24.87501 24.16528
#
# Velocity S-wave (km/s) = 3.26586 3.36323 3.31491
# Velocity P-wave (km/s) = 4.92436 5.07766 5.00160
#
# Compressibility (1/GPa) = 0.04534505
#
# Stress axis : x y z
#
# Youngs Moduli (GPa) = 62.25790 53.84967 47.38899
#
# Poissons Ratio (x) = 0.22155 0.07938
# Poissons Ratio (y) = 0.25614 -0.02817
# Poissons Ratio (z) = 0.10428 -0.03202
#
# Static dielectric constant tensor:
#      x y z
#    x 1.954830 0.000000 -0.009070 
#    y 0.000000 1.867270 0.000000 
#    z -0.009070 0.000000 1.835430 
# 
# From -- ./inp_files/71241.got.cif
#   From: 2010.05.17/outbox.cif.g08.bks.cpg/sg14_36_cif.got.tgz:71241.got - 2010.06.03 17:49:19.
