data_PCOD9248707
_publ_section_title
;
Structure prediction by ZEFSAII (Michael W. Deem and Ramdas Pophale) SiO2 
 PCOD9248707
Probable space group: P 21/C
;
_chemical_formula_sum "Si O2"
_cell_formula_units_Z 30
_cell_length_a 8.522182
_cell_length_b 24.514665
_cell_length_c 9.555602
_cell_angle_alpha 90.000000
_cell_angle_beta 139.600394
_cell_angle_gamma 90.000000
_cell_volume 1293.858157
_symmetry_space_group_name_H-M "P 21/C"
_symmetry_group_IT_number 14
_symmetry_cell_setting 'monoclinic'
loop_
_space_group_symop_operation_xyz
x,y,z
-x,1/2+y,1/2-z
-x,-y,-z
x,1/2-y,1/2+z
loop_
_atom_site_type_symbol
_atom_site_label
_atom_site_fract_x
_atom_site_fract_y
_atom_site_fract_z
Si Si1 0.237042 0.833634 0.089455
Si Si2 0.272710 0.291223 0.742060
Si Si3 0.459554 0.965678 0.738005
Si Si4 0.311954 0.882761 0.852641
Si Si5 0.000000 0.000000 0.000000
Si Si6 0.837279 0.553598 0.089193
Si Si7 0.398673 0.888195 0.447969
Si Si8 0.480388 0.225800 0.110453
O O1 0.197484 0.873935 0.195809
O O2 0.379685 0.779733 0.238355
O O3 0.359857 0.866359 0.046712
O O4 0.974218 0.813667 0.863480
O O5 0.262290 0.283591 0.570336
O O6 0.489282 0.333629 0.912530
O O7 0.359393 0.238009 0.880222
O O8 0.468334 0.930168 0.885001
O O9 0.343815 0.926920 0.538501
O O10 0.722138 0.983051 0.859964
O O11 0.276724 0.016186 0.609648
O O12 0.351305 0.826713 0.793854
O O13 0.041840 0.906597 0.669348
O O14 0.942433 0.978276 0.796828
O O15 0.611827 0.586471 0.999922
#
# Coordination Sequence:
#
# PCOD9248707 Si02
#       8
#     4   4   4   4   2   4   4   4
#     4  11  26  44  73 101 142 185 231 297 361 431
#     4  11  23  43  68  98 137 181 231 292 358 433
#     4  11  25  46  73 107 143 188 248 295 358 428
#     4  12  25  47  69 105 147 186 236 299 362 425
#     4  10  24  48  76  98 142 188 236 298 358 416
#     4  11  25  44  71 104 144 189 240 300 353 432
#     4  10  22  43  70  97 136 184 235 282 356 428
#     4  11  25  46  67 103 138 180 237 295 353 441
#
# _framework density 23.186467
#
# number of rings (size 3 to 8) (size 9 to 14) (size 15 to 20)
#    0.000    1.067    4.000    2.000    5.600    0.533 
#    2.400    0.000    0.000    0.000    0.000    0.000 
#    0.000    0.000    0.000    0.000    0.000    0.000 
#
# Total GULP energy -167119.237261 kJ/mol
# GULP energy per Si atom -5570.641242 kJ/mol
# Density = 2.313369 g / cm^3
# Si number density = 23.186467 Si / 1000 Ang^3
#
#
#
# Elastic Constant Matrix: (Units=GPa)
#
#
# Indices 1 2 3 4 5 6 
#
# 1 84.1379 31.1750 26.5519 0.0000 -10.2866 0.0000
# 2 31.1750 71.8264 41.7955 0.0000 -3.7463 0.0000
# 3 26.5519 41.7955 68.9766 0.0000 -6.4037 0.0000
# 4 0.0000 0.0000 0.0000 26.8155 0.0000 -0.1139
# 5 -10.2866 -3.7463 -6.4037 0.0000 23.8859 0.0000
# 6 0.0000 0.0000 0.0000 -0.1139 0.0000 26.7658
#
#
#
# Elastic Compliance Matrix: (Units=1/GPa)
#
#
# Indices 1 2 3 4 5 6 
#
# 1 0.015068 -0.004903 -0.002357 0.000000 0.005088 0.000000
# 2 -0.004903 0.023101 -0.012275 0.000000 -0.001779 0.000000
# 3 -0.002357 -0.012275 0.023146 0.000000 0.003265 0.000000
# 4 0.000000 0.000000 0.000000 0.037293 0.000000 0.000159
# 5 0.005088 -0.001779 0.003265 0.000000 0.044653 0.000000
# 6 0.000000 0.000000 0.000000 0.000159 0.000000 0.037362
#
#
# Mechanical properties :
#
#
# Convention : Reuss Voigt Hill
#
# Bulk Modulus (GPa) = 44.95588 47.10949 46.03268
# Shear Modulus (GPa) = 22.01599 23.85467 22.93533
#
# Velocity S-wave (km/s) = 3.08477 3.21100 3.14852
# Velocity P-wave (km/s) = 5.66733 5.84030 5.75447
#
# Compressibility (1/GPa) = 0.02224403
#
# Stress axis : x y z
#
# Youngs Moduli (GPa) = 66.36672 43.28864 43.20365
#
# Poissons Ratio (x) = 0.21225 0.10183
# Poissons Ratio (y) = 0.32540 0.53034
# Poissons Ratio (z) = 0.15642 0.53139
#
# Static dielectric constant tensor:
#      x y z
#    x 1.834770 0.000000 -0.049240 
#    y 0.000000 1.945830 0.000000 
#    z -0.049240 0.000000 1.880660 
# 
# From -- ./inp_files/11208.got.cif
#   From: 2010.05.17/outbox.cif.g08.bks.cpg/sg14_6_cif.got.tgz:11208.got - 2010.06.03 17:49:19.
