data_PCOD9248625
_publ_section_title
;
Structure prediction by ZEFSAII (Michael W. Deem and Ramdas Pophale) SiO2 
 PCOD9248625
Probable space group: P 21/C
;
_chemical_formula_sum "Si O2"
_cell_formula_units_Z 28
_cell_length_a 24.353193
_cell_length_b 7.305039
_cell_length_c 22.152194
_cell_angle_alpha 90.000000
_cell_angle_beta 162.151316
_cell_angle_gamma 90.000000
_cell_volume 1207.901852
_symmetry_space_group_name_H-M "P 21/C"
_symmetry_group_IT_number 14
_symmetry_cell_setting 'monoclinic'
loop_
_space_group_symop_operation_xyz
x,y,z
-x,1/2+y,1/2-z
-x,-y,-z
x,1/2-y,1/2+z
loop_
_atom_site_type_symbol
_atom_site_label
_atom_site_fract_x
_atom_site_fract_y
_atom_site_fract_z
Si Si1 0.894090 0.103116 0.837903
Si Si2 0.475393 0.114181 0.237707
Si Si3 0.165656 0.508302 0.853653
Si Si4 0.670120 0.098949 0.145707
Si Si5 0.902748 0.066966 0.184125
Si Si6 0.890843 0.956161 0.484176
Si Si7 0.476820 0.455460 0.329181
O O1 0.705714 0.187262 0.665674
O O2 0.876943 0.978940 0.760620
O O3 0.012278 0.275902 0.939474
O O4 0.000000 0.000000 0.000000
O O5 0.493576 0.277769 0.304262
O O6 0.625713 0.971427 0.418784
O O7 0.536894 0.122444 0.231719
O O8 0.274348 0.036839 0.023688
O O9 0.140126 0.725672 0.840900
O O10 0.043030 0.418508 0.776121
O O11 0.831528 0.064785 0.361938
O O12 0.641971 0.020660 0.048316
O O13 0.500000 0.000000 0.000000
O O14 0.988653 0.972725 0.333681
O O15 0.702027 0.922161 0.320037
#
# Coordination Sequence:
#
# PCOD9248625 Si02
#       7
#     4   4   4   4   4   4   4
#     4  11  23  44  65  97 137 174 223 291 346 397
#     4  12  21  41  66  97 135 173 216 273 341 396
#     4  11  24  43  65  98 140 170 222 278 336 405
#     4  10  22  44  68  91 131 180 227 272 331 418
#     4  11  23  40  69  98 130 175 218 279 339 395
#     4  10  22  43  67  93 129 179 228 271 332 415
#     4  11  22  43  66  96 134 174 219 281 334 399
#
# _framework density 23.180692000000001
#
# number of rings (size 3 to 8) (size 9 to 14) (size 15 to 20)
#    0.000    1.143    4.286    3.000    0.000    1.143 
#    2.571    2.857    0.000    0.000    0.000    0.000 
#    0.000    0.000    0.000    0.000    0.000    0.000 
#
# Total GULP energy -156056.827609 kJ/mol
# GULP energy per Si atom -5573.458129 kJ/mol
# Density = 2.312793 g / cm^3
# Si number density = 23.180692 Si / 1000 Ang^3
#
#
#
# Elastic Constant Matrix: (Units=GPa)
#
#
# Indices 1 2 3 4 5 6 
#
# 1 169.5480 45.2632 87.6153 0.0000 -24.9489 0.0000
# 2 45.2632 41.3519 19.1949 0.0000 -2.7629 0.0000
# 3 87.6153 19.1949 149.2517 0.0000 -31.8663 0.0000
# 4 0.0000 0.0000 0.0000 39.6323 0.0000 -5.6297
# 5 -24.9489 -2.7629 -31.8663 0.0000 70.6670 0.0000
# 6 0.0000 0.0000 0.0000 -5.6297 0.0000 35.7396
#
#
#
# Elastic Compliance Matrix: (Units=1/GPa)
#
#
# Indices 1 2 3 4 5 6 
#
# 1 0.011424 -0.010034 -0.005133 0.000000 0.001326 0.000000
# 2 -0.010034 0.034549 0.001083 0.000000 -0.001703 0.000000
# 3 -0.005133 0.001083 0.010176 0.000000 0.002819 0.000000
# 4 0.000000 0.000000 0.000000 0.025809 0.000000 0.004066
# 5 0.001326 -0.001703 0.002819 0.000000 0.015824 0.000000
# 6 0.000000 0.000000 0.000000 0.004066 0.000000 0.028621
#
#
# Mechanical properties :
#
#
# Convention : Reuss Voigt Hill
#
# Bulk Modulus (GPa) = 35.73686 73.81095 54.77391
# Shear Modulus (GPa) = 30.50706 43.07966 36.79336
#
# Velocity S-wave (km/s) = 3.63168 4.31563 3.98834
# Velocity P-wave (km/s) = 5.74766 7.53283 6.69997
#
# Compressibility (1/GPa) = 0.02798231
#
# Stress axis : x y z
#
# Youngs Moduli (GPa) = 87.53310 28.94453 98.27318
#
# Poissons Ratio (x) = 0.29042 0.50441
# Poissons Ratio (y) = 0.87828 -0.10645
# Poissons Ratio (z) = 0.44929 -0.03135
#
# Static dielectric constant tensor:
#      x y z
#    x 1.877950 0.000000 0.010300 
#    y 0.000000 2.101750 0.000000 
#    z 0.010300 0.000000 1.945740 
# 
# From -- ./inp_files/70242.got.cif
#   From: 2010.05.17/outbox.cif.g08.bks.cpg/sg14_36_cif.got.tgz:70242.got - 2010.06.03 17:49:19.
