data_PCOD9248176
_publ_section_title
;
Structure prediction by ZEFSAII (Michael W. Deem and Ramdas Pophale) SiO2 
 PCOD9248176
Probable space group: P 21/C
;
_chemical_formula_sum "Si O2"
_cell_formula_units_Z 28
_cell_length_a 7.025330
_cell_length_b 14.970075
_cell_length_c 12.232297
_cell_angle_alpha 90.000000
_cell_angle_beta 108.582460
_cell_angle_gamma 90.000000
_cell_volume 1219.398543
_symmetry_space_group_name_H-M "P 21/C"
_symmetry_group_IT_number 14
_symmetry_cell_setting 'monoclinic'
loop_
_space_group_symop_operation_xyz
x,y,z
-x,1/2+y,1/2-z
-x,-y,-z
x,1/2-y,1/2+z
loop_
_atom_site_type_symbol
_atom_site_label
_atom_site_fract_x
_atom_site_fract_y
_atom_site_fract_z
Si Si1 0.026484 0.930602 0.656022
Si Si2 0.400841 0.014691 0.364069
Si Si3 0.486100 0.154216 0.727778
Si Si4 0.444745 0.600315 0.521697
Si Si5 0.052197 0.672408 0.373524
Si Si6 0.572522 0.651377 0.311737
Si Si7 0.042035 0.130514 0.593688
O O1 0.115368 0.872627 0.770013
O O2 0.060294 0.894470 0.540368
O O3 0.789843 0.927036 0.638136
O O4 0.055997 0.037565 0.662549
O O5 0.369794 0.916033 0.306638
O O6 0.500000 0.000000 0.500000
O O7 0.498715 0.070210 0.280880
O O8 0.528833 0.258142 0.749402
O O9 0.277304 0.152588 0.622736
O O10 0.454889 0.120969 0.845185
O O11 0.500000 0.500000 0.500000
O O12 0.524956 0.652071 0.431293
O O13 0.208680 0.626862 0.486149
O O14 0.817593 0.650524 0.351932
O O15 0.059851 0.780361 0.377035
#
# Coordination Sequence:
#
# PCOD9248176 Si02
#       7
#     4   4   4   4   4   4   4
#     4  10  22  41  67  96 132 175 229 289 334 413
#     4  11  22  41  67  95 128 173 229 279 337 405
#     4  11  24  42  66  99 129 178 222 279 346 402
#     4  12  25  46  68  99 144 179 225 283 346 418
#     4  10  25  43  66 101 134 182 228 279 349 408
#     4  10  26  44  65  98 136 180 228 281 345 407
#     4  10  22  43  66  96 133 176 227 281 342 400
#
# _framework density 22.962139000000001
#
# number of rings (size 3 to 8) (size 9 to 14) (size 15 to 20)
#    0.000    1.429    2.857    0.857    4.000    5.143 
#    2.571    0.000    0.000    0.000    0.000    0.000 
#    0.000    0.000    0.000    0.000    0.000    0.000 
#
# Total GULP energy -156159.614301 kJ/mol
# GULP energy per Si atom -5577.129082 kJ/mol
# Density = 2.290988 g / cm^3
# Si number density = 22.962139 Si / 1000 Ang^3
#
#
#
# Elastic Constant Matrix: (Units=GPa)
#
#
# Indices 1 2 3 4 5 6 
#
# 1 45.3891 9.1383 20.8557 0.0000 -1.2171 0.0000
# 2 9.1383 122.2282 36.4314 0.0000 1.0563 0.0000
# 3 20.8557 36.4314 90.0042 0.0000 -0.1969 0.0000
# 4 0.0000 0.0000 0.0000 31.3809 0.0000 -3.0636
# 5 -1.2171 1.0563 -0.1969 0.0000 29.5118 0.0000
# 6 0.0000 0.0000 0.0000 -3.0636 0.0000 30.9322
#
#
#
# Elastic Compliance Matrix: (Units=1/GPa)
#
#
# Indices 1 2 3 4 5 6 
#
# 1 0.024688 -0.000170 -0.005650 0.000000 0.000987 0.000000
# 2 -0.000170 0.009309 -0.003729 0.000000 -0.000365 0.000000
# 3 -0.005650 -0.003729 0.013929 0.000000 -0.000007 0.000000
# 4 0.000000 0.000000 0.000000 0.032178 0.000000 0.003187
# 5 0.000987 -0.000365 -0.000007 0.000000 0.033938 0.000000
# 6 0.000000 0.000000 0.000000 0.003187 0.000000 0.032644
#
#
# Mechanical properties :
#
#
# Convention : Reuss Voigt Hill
#
# Bulk Modulus (GPa) = 34.68870 43.38580 39.03725
# Shear Modulus (GPa) = 28.50707 31.11138 29.80922
#
# Velocity S-wave (km/s) = 3.52729 3.68489 3.60695
# Velocity P-wave (km/s) = 5.63283 6.08605 5.86382
#
# Compressibility (1/GPa) = 0.02882783
#
# Stress axis : x y z
#
# Youngs Moduli (GPa) = 40.50476 107.42437 71.79139
#
# Poissons Ratio (x) = 0.01831 0.40560
# Poissons Ratio (y) = 0.00690 0.26773
# Poissons Ratio (z) = 0.22884 0.40062
#
# Static dielectric constant tensor:
#      x y z
#    x 1.903970 0.000000 0.111080 
#    y 0.000000 2.058560 0.000000 
#    z 0.111080 0.000000 1.585230 
# 
# From -- ./inp_files/25322.got.cif
#   From: 2010.05.17/outbox.cif.g08.bks.cpg/sg14_13_cif.got.tgz:25322.got - 2010.06.03 17:49:19.
