data_PCOD9248596
_publ_section_title
;
Structure prediction by ZEFSAII (Michael W. Deem and Ramdas Pophale) SiO2 
 PCOD9248596
Probable space group: P 21/C
;
_chemical_formula_sum "Si O2"
_cell_formula_units_Z 28
_cell_length_a 7.733716
_cell_length_b 12.300257
_cell_length_c 15.920365
_cell_angle_alpha 90.000000
_cell_angle_beta 58.631793
_cell_angle_gamma 90.000000
_cell_volume 1293.099088
_symmetry_space_group_name_H-M "P 21/C"
_symmetry_group_IT_number 14
_symmetry_cell_setting 'monoclinic'
loop_
_space_group_symop_operation_xyz
x,y,z
-x,1/2+y,1/2-z
-x,-y,-z
x,1/2-y,1/2+z
loop_
_atom_site_type_symbol
_atom_site_label
_atom_site_fract_x
_atom_site_fract_y
_atom_site_fract_z
Si Si1 0.687227 0.077776 0.288240
Si Si2 0.450135 0.453687 0.422559
Si Si3 0.286149 0.700353 0.956146
Si Si4 0.871975 0.099577 0.068847
Si Si5 0.665989 0.431980 0.205658
Si Si6 0.134770 0.016580 0.586576
Si Si7 0.408569 0.278381 0.972087
O O1 0.852465 0.107355 0.174644
O O2 0.571068 0.176545 0.363410
O O3 0.505500 0.007557 0.293272
O O4 0.793004 0.009777 0.336661
O O5 0.500000 0.500000 0.500000
O O6 0.347392 0.554155 0.402377
O O7 0.627814 0.420746 0.314258
O O8 0.327991 0.340429 0.466416
O O9 0.111523 0.789729 0.988037
O O10 0.356126 0.677673 0.843239
O O11 0.209897 0.586042 0.012965
O O12 0.463888 0.735384 0.973955
O O13 0.000000 0.000000 0.000000
O O14 0.894702 0.473542 0.138861
O O15 0.244255 0.127114 0.528441
#
# Coordination Sequence:
#
# PCOD9248596 Si02
#       7
#     4   4   4   4   4   4   4
#     4  10  22  43  65  99 129 173 220 280 334 390
#     4  11  25  44  62  93 136 179 215 272 336 399
#     4  11  21  43  66 100 132 173 218 287 326 396
#     4  11  26  42  65  92 140 178 226 271 340 408
#     4  11  23  41  69  97 133 170 226 274 332 395
#     4  11  23  40  76  97 130 172 229 276 336 400
#     4  11  21  43  69  96 135 171 221 277 342 391
#
# _framework density 21.653406
#
# number of rings (size 3 to 8) (size 9 to 14) (size 15 to 20)
#    0.000    1.143    4.286    2.143    4.000    0.000 
#    0.000    2.857    0.000    0.000    0.000    0.000 
#    0.000    0.000    0.000    0.000    0.000    0.000 
#
# Total GULP energy -156177.985665 kJ/mol
# GULP energy per Si atom -5577.785202 kJ/mol
# Density = 2.160412 g / cm^3
# Si number density = 21.653406 Si / 1000 Ang^3
#
#
#
# Elastic Constant Matrix: (Units=GPa)
#
#
# Indices 1 2 3 4 5 6 
#
# 1 78.7382 12.9438 25.1963 0.0000 14.0903 0.0000
# 2 12.9438 111.1786 15.1850 0.0000 14.1458 0.0000
# 3 25.1963 15.1850 116.6862 0.0000 26.8999 0.0000
# 4 0.0000 0.0000 0.0000 16.5166 0.0000 1.7776
# 5 14.0903 14.1458 26.8999 0.0000 27.3527 0.0000
# 6 0.0000 0.0000 0.0000 1.7776 0.0000 32.2291
#
#
#
# Elastic Compliance Matrix: (Units=1/GPa)
#
#
# Indices 1 2 3 4 5 6 
#
# 1 0.014334 -0.000759 -0.001791 0.000000 -0.005231 0.000000
# 2 -0.000759 0.009670 -0.000041 0.000000 -0.004570 0.000000
# 3 -0.001791 -0.000041 0.011308 0.000000 -0.010177 0.000000
# 4 0.000000 0.000000 0.000000 0.060907 0.000000 -0.003359
# 5 -0.005231 -0.004570 -0.010177 0.000000 0.051626 0.000000
# 6 0.000000 0.000000 0.000000 -0.003359 0.000000 0.031213
#
#
# Mechanical properties :
#
#
# Convention : Reuss Voigt Hill
#
# Bulk Modulus (GPa) = 33.18816 45.91701 39.55259
# Shear Modulus (GPa) = 25.73568 32.10488 28.92028
#
# Velocity S-wave (km/s) = 3.45124 3.85472 3.65855
# Velocity P-wave (km/s) = 5.58943 6.40807 6.01270
#
# Compressibility (1/GPa) = 0.03013122
#
# Stress axis : x y z
#
# Youngs Moduli (GPa) = 69.76384 103.41371 88.43137
#
# Poissons Ratio (x) = 0.07846 0.15835
# Poissons Ratio (y) = 0.05293 0.00364
# Poissons Ratio (z) = 0.12492 0.00425
#
# Static dielectric constant tensor:
#      x y z
#    x 1.826980 0.000000 -0.017710 
#    y 0.000000 1.859580 0.000000 
#    z -0.017710 0.000000 1.866210 
# 
# From -- ./inp_files/40223.got.cif
#   From: 2010.05.17/outbox.cif.g08.bks.cpg/sg14_21_cif.got.tgz:40223.got - 2010.06.03 17:49:19.
