data_PCOD9248171
_publ_section_title
;
Structure prediction by ZEFSAII (Michael W. Deem and Ramdas Pophale) SiO2 
 PCOD9248171
Probable space group: P 21/C
;
_chemical_formula_sum "Si O2"
_cell_formula_units_Z 18
_cell_length_a 4.862328
_cell_length_b 14.735948
_cell_length_c 10.016986
_cell_angle_alpha 90.000000
_cell_angle_beta 78.472960
_cell_angle_gamma 90.000000
_cell_volume 703.250996
_symmetry_space_group_name_H-M "P 21/C"
_symmetry_group_IT_number 14
_symmetry_cell_setting 'monoclinic'
loop_
_space_group_symop_operation_xyz
x,y,z
-x,1/2+y,1/2-z
-x,-y,-z
x,1/2-y,1/2+z
loop_
_atom_site_type_symbol
_atom_site_label
_atom_site_fract_x
_atom_site_fract_y
_atom_site_fract_z
Si Si1 0.000000 0.500000 0.500000
Si Si2 0.492881 0.335139 0.937881
Si Si3 0.458422 0.622602 0.604288
Si Si4 0.065468 0.836832 0.381579
Si Si5 0.191215 0.627619 0.338410
O O1 0.727977 0.561209 0.589019
O O2 0.045779 0.446958 0.644723
O O3 0.443898 0.227498 0.920047
O O4 0.555287 0.377546 0.788384
O O5 0.778133 0.343880 0.992506
O O6 0.246215 0.369326 0.057094
O O7 0.252082 0.619404 0.749468
O O8 0.270174 0.602457 0.487917
O O9 0.073692 0.729163 0.343863
#
# Coordination Sequence:
#
# PCOD9248171 Si02
#       5
#     2   4   4   4   4
#     4  12  22  40  60  96 124 170 196 260 304 390
#     4  10  22  41  67  94 121 161 213 260 302 359
#     4  10  23  38  65  91 126 163 209 253 308 372
#     4  10  22  41  67  94 121 161 213 260 302 359
#     4  10  23  38  65  91 126 163 209 253 308 372
#
# _framework density 25.595414000000002
#
# number of rings (size 3 to 8) (size 9 to 14) (size 15 to 20)
#    0.000    1.778    2.222    0.667    6.222    5.333 
#    0.000    2.222    0.000    0.000    0.000    0.000 
#    0.000    0.000    0.000    0.000    0.000    0.000 
#
# Total GULP energy -100381.659756 kJ/mol
# GULP energy per Si atom -5576.758875 kJ/mol
# Density = 2.553716 g / cm^3
# Si number density = 25.595414 Si / 1000 Ang^3
#
#
#
# Elastic Constant Matrix: (Units=GPa)
#
#
# Indices 1 2 3 4 5 6 
#
# 1 57.8125 27.5573 32.2102 0.0000 -21.1519 0.0000
# 2 27.5573 87.3519 58.7132 0.0000 -6.5266 0.0000
# 3 32.2102 58.7132 186.1037 0.0000 -46.2698 0.0000
# 4 0.0000 0.0000 0.0000 46.2783 0.0000 -8.8223
# 5 -21.1519 -6.5266 -46.2698 0.0000 50.9163 0.0000
# 6 0.0000 0.0000 0.0000 -8.8223 0.0000 25.6654
#
#
#
# Elastic Compliance Matrix: (Units=1/GPa)
#
#
# Indices 1 2 3 4 5 6 
#
# 1 0.023896 -0.007145 0.000464 0.000000 0.009432 0.000000
# 2 -0.007145 0.017023 -0.005593 0.000000 -0.005869 0.000000
# 3 0.000464 -0.005593 0.008949 0.000000 0.007608 0.000000
# 4 0.000000 0.000000 0.000000 0.023124 0.000000 0.007949
# 5 0.009432 -0.005869 0.007608 0.000000 0.029720 0.000000
# 6 0.000000 0.000000 0.000000 0.007949 0.000000 0.041695
#
#
# Mechanical properties :
#
#
# Convention : Reuss Voigt Hill
#
# Bulk Modulus (GPa) = 39.49678 63.13661 51.31669
# Shear Modulus (GPa) = 28.18549 38.75782 33.47165
#
# Velocity S-wave (km/s) = 3.32202 3.89556 3.62017
# Velocity P-wave (km/s) = 5.49355 6.70481 6.12918
#
# Compressibility (1/GPa) = 0.02531852
#
# Stress axis : x y z
#
# Youngs Moduli (GPa) = 41.84797 58.74443 111.74207
#
# Poissons Ratio (x) = 0.41975 -0.05179
# Poissons Ratio (y) = 0.29902 0.62497
# Poissons Ratio (z) = -0.01940 0.32855
#
# Static dielectric constant tensor:
#      x y z
#    x 2.491300 0.000000 -0.068580 
#    y 0.000000 2.740750 0.000000 
#    z -0.068580 0.000000 2.009510 
# 
# From -- ./inp_files/5117.got.cif
#   From: 2010.05.17/outbox.cif.g08.bks.cpg/sg14_3_cif.got.tgz:5117.got - 2010.06.03 17:49:19.
