data_PCOD9248536
_publ_section_title
;
Structure prediction by ZEFSAII (Michael W. Deem and Ramdas Pophale) SiO2 
 PCOD9248536
Probable space group: P 21/C
;
_chemical_formula_sum "Si O2"
_cell_formula_units_Z 20
_cell_length_a 8.466282
_cell_length_b 10.549302
_cell_length_c 9.161431
_cell_angle_alpha 90.000000
_cell_angle_beta 87.570772
_cell_angle_gamma 90.000000
_cell_volume 817.502917
_symmetry_space_group_name_H-M "P 21/C"
_symmetry_group_IT_number 14
_symmetry_cell_setting 'monoclinic'
loop_
_space_group_symop_operation_xyz
x,y,z
-x,1/2+y,1/2-z
-x,-y,-z
x,1/2-y,1/2+z
loop_
_atom_site_type_symbol
_atom_site_label
_atom_site_fract_x
_atom_site_fract_y
_atom_site_fract_z
Si Si1 0.048845 0.873736 0.410700
Si Si2 0.887690 0.848288 0.104811
Si Si3 0.387855 0.801395 0.483440
Si Si4 0.602954 0.676223 0.225500
Si Si5 0.319963 0.527792 0.561866
O O1 0.987678 0.874829 0.246690
O O2 0.973942 0.747935 0.490203
O O3 0.236362 0.865327 0.421653
O O4 0.000000 0.000000 0.500000
O O5 0.728486 0.772506 0.154648
O O6 0.817722 0.977218 0.038644
O O7 0.504081 0.750700 0.353070
O O8 0.486637 0.872849 0.603649
O O9 0.320327 0.677612 0.570720
O O10 0.692095 0.560867 0.297713
O O11 0.500000 0.500000 0.500000
#
# Coordination Sequence:
#
# PCOD9248536 Si02
#       5
#     4   4   4   4   4
#     4  12  30  47  69 107 148 192 234 293 358 429
#     4  12  24  48  70 103 144 182 243 290 355 420
#     4  11  25  44  70 101 144 181 235 285 357 418
#     4  11  21  44  72 105 127 185 237 288 346 420
#     4  10  22  42  74  97 136 180 231 290 351 410
#
# _framework density 24.464742999999999
#
# number of rings (size 3 to 8) (size 9 to 14) (size 15 to 20)
#    0.000    0.800    6.000    1.200    8.400    4.000 
#    0.000    3.000    0.000    0.000    0.000    0.000 
#    0.000    0.000    0.000    0.000    0.000    0.000 
#
# Total GULP energy -112117.304221 kJ/mol
# GULP energy per Si atom -5605.865211 kJ/mol
# Density = 2.440906 g / cm^3
# Si number density = 24.464743 Si / 1000 Ang^3
#
#
#
# Elastic Constant Matrix: (Units=GPa)
#
#
# Indices 1 2 3 4 5 6 
#
# 1 104.3442 -4.1980 39.8369 0.0000 30.3251 0.0000
# 2 -4.1980 55.0561 12.1729 0.0000 12.7600 0.0000
# 3 39.8369 12.1729 158.1170 0.0000 50.7346 0.0000
# 4 0.0000 0.0000 0.0000 39.3114 0.0000 -1.1512
# 5 30.3251 12.7600 50.7346 0.0000 62.6494 0.0000
# 6 0.0000 0.0000 0.0000 -1.1512 0.0000 41.8176
#
#
#
# Elastic Compliance Matrix: (Units=1/GPa)
#
#
# Indices 1 2 3 4 5 6 
#
# 1 0.011693 0.002367 -0.001564 0.000000 -0.004876 0.000000
# 2 0.002367 0.019553 -0.000616 0.000000 -0.004629 0.000000
# 3 -0.001564 -0.000616 0.008759 0.000000 -0.006210 0.000000
# 4 0.000000 0.000000 0.000000 0.025458 0.000000 0.000701
# 5 -0.004876 -0.004629 -0.006210 0.000000 0.024294 0.000000
# 6 0.000000 0.000000 0.000000 0.000701 0.000000 0.023933
#
#
# Mechanical properties :
#
#
# Convention : Reuss Voigt Hill
#
# Bulk Modulus (GPa) = 24.76553 45.90455 35.33504
# Shear Modulus (GPa) = 39.44000 46.73605 43.08803
#
# Velocity S-wave (km/s) = 4.01947 4.37549 4.20125
# Velocity P-wave (km/s) = 5.62907 6.65814 6.16512
#
# Compressibility (1/GPa) = 0.04037870
#
# Stress axis : x y z
#
# Youngs Moduli (GPa) = 85.52176 51.14320 114.17378
#
# Poissons Ratio (x) = -0.12107 0.17854
# Poissons Ratio (y) = -0.20246 0.07038
# Poissons Ratio (z) = 0.13374 0.03153
#
# Static dielectric constant tensor:
#      x y z
#    x 1.950630 0.000000 -0.035070 
#    y 0.000000 1.959990 0.000000 
#    z -0.035070 0.000000 1.953730 
# 
# From -- ./inp_files/7848.got.cif
#   From: 2010.05.17/outbox.cif.g08.bks.cpg/sg14_4_cif.got.tgz:7848.got - 2010.06.03 17:49:19.
