data_PCOD9248141
_publ_section_title
;
Structure prediction by ZEFSAII (Michael W. Deem and Ramdas Pophale) SiO2 
 PCOD9248141
Probable space group: P 21/C
;
_chemical_formula_sum "Si O2"
_cell_formula_units_Z 20
_cell_length_a 11.278958
_cell_length_b 9.484351
_cell_length_c 18.652661
_cell_angle_alpha 90.000000
_cell_angle_beta 25.274959
_cell_angle_gamma 90.000000
_cell_volume 851.936698
_symmetry_space_group_name_H-M "P 21/C"
_symmetry_group_IT_number 14
_symmetry_cell_setting 'monoclinic'
loop_
_space_group_symop_operation_xyz
x,y,z
-x,1/2+y,1/2-z
-x,-y,-z
x,1/2-y,1/2+z
loop_
_atom_site_type_symbol
_atom_site_label
_atom_site_fract_x
_atom_site_fract_y
_atom_site_fract_z
Si Si1 0.783081 0.616291 0.262197
Si Si2 0.940627 0.135361 0.946563
Si Si3 0.819151 0.672377 0.452611
Si Si4 0.698408 0.332822 0.372156
Si Si5 0.658918 0.790757 0.684152
O O1 0.853944 0.480275 0.269742
O O2 0.480587 0.659628 0.457777
O O3 0.759357 0.594452 0.188734
O O4 0.979220 0.751956 0.158863
O O5 0.214122 0.149558 0.847417
O O6 0.672382 0.196742 0.134567
O O7 0.877710 0.981050 0.953349
O O8 0.540806 0.674177 0.558074
O O9 0.779646 0.784105 0.538983
O O10 0.081739 0.712598 0.261261
#
# Coordination Sequence:
#
# PCOD9248141 Si02
#       5
#     4   4   4   4   4
#     4   9  24  44  65  85 132 171 206 254 325 372
#     4  10  22  42  66  90 127 165 214 254 314 374
#     4  12  24  40  64  99 126 160 217 264 308 376
#     4  11  25  42  64  95 130 164 212 262 315 380
#     4  10  22  41  66  89 127 168 206 258 314 377
#
# _framework density 23.475923000000002
#
# number of rings (size 3 to 8) (size 9 to 14) (size 15 to 20)
#    1.200    0.400    2.000    1.800    2.800    4.800 
#    0.000    0.000    0.000    0.000    0.000    0.000 
#    0.000    0.000    0.000    0.000    0.000    0.000 
#
# Total GULP energy -111611.983050 kJ/mol
# GULP energy per Si atom -5580.599152 kJ/mol
# Density = 2.342249 g / cm^3
# Si number density = 23.475923 Si / 1000 Ang^3
#
#
#
# Elastic Constant Matrix: (Units=GPa)
#
#
# Indices 1 2 3 4 5 6 
#
# 1 64.1102 21.0236 14.9410 0.0000 19.1583 0.0000
# 2 21.0236 42.5103 44.8186 0.0000 -30.4613 0.0000
# 3 14.9410 44.8186 94.3487 0.0000 1.4288 0.0000
# 4 0.0000 0.0000 0.0000 35.2310 0.0000 4.8437
# 5 19.1583 -30.4613 1.4288 0.0000 12.8132 0.0000
# 6 0.0000 0.0000 0.0000 4.8437 0.0000 20.2789
#
#
#
# Elastic Compliance Matrix: (Units=1/GPa)
#
#
# Indices 1 2 3 4 5 6 
#
# 1 0.010030 0.011027 -0.007008 0.000000 0.011999 0.000000
# 2 0.011027 -0.006196 0.001673 0.000000 -0.031404 0.000000
# 3 -0.007008 0.001673 0.010713 0.000000 0.013261 0.000000
# 4 0.000000 0.000000 0.000000 0.029348 0.000000 -0.007010
# 5 0.011999 -0.031404 0.013261 0.000000 -0.016034 0.000000
# 6 0.000000 0.000000 0.000000 -0.007010 0.000000 0.050987
#
#
# Mechanical properties :
#
#
# Convention : Reuss Voigt Hill
#
# Bulk Modulus (GPa) = 38.56593 40.28173 39.42383
# Shear Modulus (GPa) = 65.69644 21.67703 43.68674
#
# Velocity S-wave (km/s) = 5.29579 3.04200 4.31851
# Velocity P-wave (km/s) = 7.33876 5.43455 6.45723
#
# Compressibility (1/GPa) = 0.02592962
#
# Stress axis : x y z
#
# Youngs Moduli (GPa) = 99.70503 -161.38918 93.34191
#
# Poissons Ratio (x) = 1.77958 0.65414
# Poissons Ratio (y) = -1.09941 -0.15614
# Poissons Ratio (z) = 0.69873 0.26997
#
# Static dielectric constant tensor:
#      x y z
#    x 2.021270 0.000000 0.002320 
#    y 0.000000 1.905010 0.000000 
#    z 0.002320 0.000000 1.820540 
# 
# From -- ./inp_files/12060.got.cif
#   From: 2010.05.17/outbox.cif.g08.bks.cpg/sg14_7_cif.got.tgz:12060.got - 2010.06.03 17:49:19.
