data_PCOD9248832
_publ_section_title
;
Structure prediction by ZEFSAII (Michael W. Deem and Ramdas Pophale) SiO2 
 PCOD9248832
Probable space group: P 21/C
;
_chemical_formula_sum "Si O2"
_cell_formula_units_Z 16
_cell_length_a 6.607497
_cell_length_b 7.422377
_cell_length_c 15.080548
_cell_angle_alpha 90.000000
_cell_angle_beta 123.665526
_cell_angle_gamma 90.000000
_cell_volume 615.560357
_symmetry_space_group_name_H-M "P 21/C"
_symmetry_group_IT_number 14
_symmetry_cell_setting 'monoclinic'
loop_
_space_group_symop_operation_xyz
x,y,z
-x,1/2+y,1/2-z
-x,-y,-z
x,1/2-y,1/2+z
loop_
_atom_site_type_symbol
_atom_site_label
_atom_site_fract_x
_atom_site_fract_y
_atom_site_fract_z
Si Si1 0.973136 0.741477 0.074956
Si Si2 0.521805 0.227215 0.102255
Si Si3 0.010068 0.177429 0.628053
Si Si4 0.486908 0.588468 0.736327
O O1 0.985567 0.538837 0.114574
O O2 0.208528 0.846765 0.165054
O O3 0.695567 0.805974 0.019924
O O4 0.000744 0.747130 0.975026
O O5 0.785289 0.241301 0.125054
O O6 0.467123 0.412869 0.145336
O O7 0.510702 0.075529 0.174820
O O8 0.276666 0.209396 0.734699
#
# Coordination Sequence:
#
# PCOD9248832 Si02
#       4
#     4   4   4   4
#     4  10  22  44  68 101 142 180 234 289 345 415
#     4  11  24  42  71 102 141 184 233 284 349 410
#     4  10  23  42  68 104 139 187 224 292 352 406
#     4  11  23  44  68 104 143 182 231 292 336 421
#
# _framework density 25.992577000000001
#
# number of rings (size 3 to 8) (size 9 to 14) (size 15 to 20)
#    0.000    1.500    2.500    1.500    0.000    7.000 
#    0.000    0.000    0.000    0.000    0.000    0.000 
#    0.000    0.000    0.000    0.000    0.000    0.000 
#
# Total GULP energy -89411.596831 kJ/mol
# GULP energy per Si atom -5588.224802 kJ/mol
# Density = 2.593342 g / cm^3
# Si number density = 25.992577 Si / 1000 Ang^3
#
#
#
# Elastic Constant Matrix: (Units=GPa)
#
#
# Indices 1 2 3 4 5 6 
#
# 1 168.2679 36.8348 50.9004 0.0000 54.9484 0.0000
# 2 36.8348 54.4608 23.2470 0.0000 7.6818 0.0000
# 3 50.9004 23.2470 125.3886 0.0000 45.6343 0.0000
# 4 0.0000 0.0000 0.0000 37.9899 0.0000 6.2432
# 5 54.9484 7.6818 45.6343 0.0000 55.3515 0.0000
# 6 0.0000 0.0000 0.0000 6.2432 0.0000 35.7398
#
#
#
# Elastic Compliance Matrix: (Units=1/GPa)
#
#
# Indices 1 2 3 4 5 6 
#
# 1 0.010248 -0.005750 0.000454 0.000000 -0.009750 0.000000
# 2 -0.005750 0.023172 -0.004099 0.000000 0.005872 0.000000
# 3 0.000454 -0.004099 0.012155 0.000000 -0.009903 0.000000
# 4 0.000000 0.000000 0.000000 0.027101 0.000000 -0.004734
# 5 -0.009750 0.005872 -0.009903 0.000000 0.035095 0.000000
# 6 0.000000 0.000000 0.000000 -0.004734 0.000000 0.028807
#
#
# Mechanical properties :
#
#
# Convention : Reuss Voigt Hill
#
# Bulk Modulus (GPa) = 37.33246 63.34240 50.33743
# Shear Modulus (GPa) = 30.43285 41.62525 36.02905
#
# Velocity S-wave (km/s) = 3.42545 4.00613 3.72711
# Velocity P-wave (km/s) = 5.48077 6.76912 6.15873
#
# Compressibility (1/GPa) = 0.02678634
#
# Stress axis : x y z
#
# Youngs Moduli (GPa) = 97.57928 43.15491 82.27123
#
# Poissons Ratio (x) = 0.24814 -0.03738
# Poissons Ratio (y) = 0.56108 0.33722
# Poissons Ratio (z) = -0.04434 0.17689
#
# Static dielectric constant tensor:
#      x y z
#    x 2.056440 0.000000 0.054540 
#    y 0.000000 2.282230 0.000000 
#    z 0.054540 0.000000 2.030010 
# 
# From -- ./inp_files/36608.got.cif
#   From: 2010.05.17/outbox.cif.g08.bks.cpg/sg14_19_cif.got.tgz:36608.got - 2010.06.03 17:49:19.
