data_PCOD9248634
_publ_section_title
;
Structure prediction by ZEFSAII (Michael W. Deem and Ramdas Pophale) SiO2 
 PCOD9248634
Probable space group: P 21/C
;
_chemical_formula_sum "Si O2"
_cell_formula_units_Z 28
_cell_length_a 13.132458
_cell_length_b 10.076859
_cell_length_c 14.026891
_cell_angle_alpha 90.000000
_cell_angle_beta 142.876581
_cell_angle_gamma 90.000000
_cell_volume 1120.299966
_symmetry_space_group_name_H-M "P 21/C"
_symmetry_group_IT_number 14
_symmetry_cell_setting 'monoclinic'
loop_
_space_group_symop_operation_xyz
x,y,z
-x,1/2+y,1/2-z
-x,-y,-z
x,1/2-y,1/2+z
loop_
_atom_site_type_symbol
_atom_site_label
_atom_site_fract_x
_atom_site_fract_y
_atom_site_fract_z
Si Si1 0.247764 0.544742 0.292403
Si Si2 0.691227 0.158846 0.686360
Si Si3 0.072594 0.323319 0.844715
Si Si4 0.002075 0.957625 0.157799
Si Si5 0.322857 0.178254 0.702324
Si Si6 0.377230 0.505921 0.590879
Si Si7 0.512672 0.580556 0.142347
O O1 0.324860 0.684216 0.313331
O O2 0.241276 0.436266 0.205468
O O3 0.346429 0.480167 0.456057
O O4 0.072554 0.597165 0.205824
O O5 0.639556 0.125190 0.538019
O O6 0.884222 0.107049 0.840285
O O7 0.566870 0.067679 0.653948
O O8 0.015881 0.171817 0.785565
O O9 0.095749 0.414996 0.770896
O O10 0.230075 0.313443 0.032724
O O11 0.808364 0.003741 0.000851
O O12 0.333029 0.318294 0.763156
O O13 0.519532 0.142096 0.835601
O O14 0.495561 0.419850 0.749012
#
# Coordination Sequence:
#
# PCOD9248634 Si02
#       7
#     4   4   4   4   4   4   4
#     4  10  23  44  66  93 135 175 216 272 331 397
#     4  10  23  45  64  95 137 168 223 272 334 392
#     4  10  22  43  67  96 135 171 226 268 337 391
#     4  10  22  44  67  96 133 174 217 277 325 401
#     4  12  23  43  67  98 135 173 224 270 330 400
#     4  11  23  41  67  96 131 173 220 268 329 387
#     4  11  24  42  68  99 129 174 221 277 330 389
#
# _framework density 24.993304999999999
#
# number of rings (size 3 to 8) (size 9 to 14) (size 15 to 20)
#    0.000    1.429    2.857    1.714    0.000    4.000 
#   12.857    0.000    0.000    0.000    0.000    0.000 
#    0.000    0.000    0.000    0.000    0.000    0.000 
#
# Total GULP energy -156334.754808 kJ/mol
# GULP energy per Si atom -5583.384100 kJ/mol
# Density = 2.493642 g / cm^3
# Si number density = 24.993305 Si / 1000 Ang^3
#
#
#
# Elastic Constant Matrix: (Units=GPa)
#
#
# Indices 1 2 3 4 5 6 
#
# 1 66.9464 24.9508 12.0213 0.0000 5.9156 0.0000
# 2 24.9508 87.6394 -15.0947 0.0000 -4.7831 0.0000
# 3 12.0213 -15.0947 73.2424 0.0000 -2.0140 0.0000
# 4 0.0000 0.0000 0.0000 35.5555 0.0000 -2.0044
# 5 5.9156 -4.7831 -2.0140 0.0000 28.7278 0.0000
# 6 0.0000 0.0000 0.0000 -2.0044 0.0000 36.9969
#
#
#
# Elastic Compliance Matrix: (Units=1/GPa)
#
#
# Indices 1 2 3 4 5 6 
#
# 1 0.018569 -0.006345 -0.004498 0.000000 -0.005195 0.000000
# 2 -0.006345 0.014132 0.004062 0.000000 0.003944 0.000000
# 3 -0.004498 0.004062 0.015302 0.000000 0.002675 0.000000
# 4 0.000000 0.000000 0.000000 0.028211 0.000000 0.001528
# 5 -0.005195 0.003944 0.002675 0.000000 0.036724 0.000000
# 6 0.000000 0.000000 0.000000 0.001528 0.000000 0.027112
#
#
# Mechanical properties :
#
#
# Convention : Reuss Voigt Hill
#
# Bulk Modulus (GPa) = 29.03482 30.17587 29.60535
# Shear Modulus (GPa) = 30.28618 33.98609 32.13613
#
# Velocity S-wave (km/s) = 3.48483 3.69156 3.58968
# Velocity P-wave (km/s) = 5.27582 5.50181 5.39000
#
# Compressibility (1/GPa) = 0.03444140
#
# Stress axis : x y z
#
# Youngs Moduli (GPa) = 53.85363 70.76293 65.34941
#
# Poissons Ratio (x) = 0.44898 0.29395
# Poissons Ratio (y) = 0.34169 -0.26547
# Poissons Ratio (z) = 0.24224 -0.28746
#
# Static dielectric constant tensor:
#      x y z
#    x 2.015260 0.000000 0.011920 
#    y 0.000000 2.010350 0.000000 
#    z 0.011920 0.000000 1.998430 
# 
# From -- ./inp_files/46749.got.cif
#   From: 2010.05.17/outbox.cif.g08.bks.cpg/sg14_24_cif.got.tgz:46749.got - 2010.06.03 17:49:19.
