data_PCOD9248185
_publ_section_title
;
Structure prediction by ZEFSAII (Michael W. Deem and Ramdas Pophale) SiO2 
 PCOD9248185
Probable space group: P 21/C
;
_chemical_formula_sum "Si O2"
_cell_formula_units_Z 24
_cell_length_a 9.277817
_cell_length_b 11.589286
_cell_length_c 9.285129
_cell_angle_alpha 90.000000
_cell_angle_beta 65.737292
_cell_angle_gamma 90.000000
_cell_volume 910.182600
_symmetry_space_group_name_H-M "P 21/C"
_symmetry_group_IT_number 14
_symmetry_cell_setting 'monoclinic'
loop_
_space_group_symop_operation_xyz
x,y,z
-x,1/2+y,1/2-z
-x,-y,-z
x,1/2-y,1/2+z
loop_
_atom_site_type_symbol
_atom_site_label
_atom_site_fract_x
_atom_site_fract_y
_atom_site_fract_z
Si Si1 0.540171 0.708222 0.954975
Si Si2 0.924250 0.402262 0.742184
Si Si3 0.749624 0.551984 0.053619
Si Si4 0.865842 0.749533 0.686250
Si Si5 0.444854 0.899243 0.189567
Si Si6 0.789278 0.514379 0.547518
O O1 0.708293 0.766851 0.846933
O O2 0.475729 0.660860 0.832358
O O3 0.593620 0.608300 0.043923
O O4 0.429372 0.799542 0.078833
O O5 0.821867 0.405245 0.637767
O O6 0.982838 0.280539 0.780844
O O7 0.084026 0.470920 0.630569
O O8 0.832177 0.471474 0.902970
O O9 0.858161 0.656665 0.062189
O O10 0.697755 0.481824 0.214727
O O11 0.837440 0.624612 0.629660
O O12 0.605756 0.969875 0.089193
#
# Coordination Sequence:
#
# PCOD9248185 Si02
#       6
#     4   4   4   4   4   4
#     4  11  21  44  68  90 129 173 206 253 331 381
#     4  11  22  40  64  97 123 166 216 262 313 381
#     4  12  23  40  69  94 126 166 215 268 309 381
#     4  11  21  42  68  90 127 174 212 249 327 386
#     4  11  23  43  69  93 124 174 215 257 322 380
#     4  10  22  41  68  88 128 173 206 257 329 384
#
# _framework density 26.368334999999998
#
# number of rings (size 3 to 8) (size 9 to 14) (size 15 to 20)
#    0.000    1.000    8.333    1.000    0.000    0.667 
#    3.000    0.000    0.000    0.000    0.000    0.000 
#    0.000    0.000    0.000    0.000    0.000    0.000 
#
# Total GULP energy -134508.631762 kJ/mol
# GULP energy per Si atom -5604.526323 kJ/mol
# Density = 2.630832 g / cm^3
# Si number density = 26.368335 Si / 1000 Ang^3
#
#
#
# Elastic Constant Matrix: (Units=GPa)
#
#
# Indices 1 2 3 4 5 6 
#
# 1 79.3522 21.8945 5.8291 0.0000 12.3486 0.0000
# 2 21.8945 70.1339 25.2944 0.0000 1.0308 0.0000
# 3 5.8291 25.2944 135.0149 0.0000 -20.8897 0.0000
# 4 0.0000 0.0000 0.0000 35.9589 0.0000 -1.5496
# 5 12.3486 1.0308 -20.8897 0.0000 19.2863 0.0000
# 6 0.0000 0.0000 0.0000 -1.5496 0.0000 36.1209
#
#
#
# Elastic Compliance Matrix: (Units=1/GPa)
#
#
# Indices 1 2 3 4 5 6 
#
# 1 0.015677 -0.004104 -0.001714 0.000000 -0.011675 0.000000
# 2 -0.004104 0.016731 -0.003230 0.000000 -0.001765 0.000000
# 3 -0.001714 -0.003230 0.009950 0.000000 0.012047 0.000000
# 4 0.000000 0.000000 0.000000 0.027861 0.000000 0.001195
# 5 -0.011675 -0.001765 0.012047 0.000000 0.072469 0.000000
# 6 0.000000 0.000000 0.000000 0.001195 0.000000 0.027736
#
#
# Mechanical properties :
#
#
# Convention : Reuss Voigt Hill
#
# Bulk Modulus (GPa) = 41.22038 43.39299 42.30669
# Shear Modulus (GPa) = 25.43129 33.70542 29.56836
#
# Velocity S-wave (km/s) = 3.10895 3.57915 3.35230
# Velocity P-wave (km/s) = 5.34358 5.79419 5.57344
#
# Compressibility (1/GPa) = 0.02425985
#
# Stress axis : x y z
#
# Youngs Moduli (GPa) = 63.78655 59.77031 100.50488
#
# Poissons Ratio (x) = 0.24531 0.17230
# Poissons Ratio (y) = 0.26180 0.32466
# Poissons Ratio (z) = 0.10935 0.19308
#
# Static dielectric constant tensor:
#      x y z
#    x 2.094800 0.000000 0.026830 
#    y 0.000000 2.112240 0.000000 
#    z 0.026830 0.000000 2.045030 
# 
# From -- ./inp_files/28988.got.cif
#   From: 2010.05.17/outbox.cif.g08.bks.cpg/sg14_15_cif.got.tgz:28988.got - 2010.06.03 17:49:19.
