data_PCOD9248420
_publ_section_title
;
Structure prediction by ZEFSAII (Michael W. Deem and Ramdas Pophale) SiO2 
 PCOD9248420
Probable space group: P 21/C
;
_chemical_formula_sum "Si O2"
_cell_formula_units_Z 24
_cell_length_a 5.971261
_cell_length_b 18.532070
_cell_length_c 9.867368
_cell_angle_alpha 90.000000
_cell_angle_beta 123.706731
_cell_angle_gamma 90.000000
_cell_volume 908.357192
_symmetry_space_group_name_H-M "P 21/C"
_symmetry_group_IT_number 14
_symmetry_cell_setting 'monoclinic'
loop_
_space_group_symop_operation_xyz
x,y,z
-x,1/2+y,1/2-z
-x,-y,-z
x,1/2-y,1/2+z
loop_
_atom_site_type_symbol
_atom_site_label
_atom_site_fract_x
_atom_site_fract_y
_atom_site_fract_z
Si Si1 0.256327 0.968174 0.166417
Si Si2 0.580505 0.891557 0.614591
Si Si3 0.954604 0.078820 0.423866
Si Si4 0.605497 0.107598 0.047849
Si Si5 0.032944 0.275686 0.617961
Si Si6 0.956744 0.666571 0.652614
O O1 0.180252 0.894885 0.219134
O O2 0.357663 0.029337 0.300748
O O3 0.428023 0.940705 0.096992
O O4 0.000000 0.000000 0.000000
O O5 0.263284 0.883585 0.547142
O O6 0.733550 0.829631 0.751377
O O7 0.750811 0.891616 0.528577
O O8 0.786719 0.074328 0.226457
O O9 0.000000 0.000000 0.500000
O O10 0.758792 0.182425 0.065777
O O11 0.307325 0.126178 0.987739
O O12 0.080127 0.203863 0.717220
O O13 0.008924 0.270992 0.448291
#
# Coordination Sequence:
#
# PCOD9248420 Si02
#       6
#     4   4   4   4   4   4
#     4  11  20  40  71 100 131 177 239 291 360 424
#     4  11  23  44  70 100 143 184 231 300 357 426
#     4  11  22  41  66  98 140 180 223 289 364 419
#     4  10  22  42  68  92 136 181 232 290 349 426
#     4  10  23  44  65  98 135 189 235 291 360 428
#     4  11  23  43  69  98 139 184 243 296 360 433
#
# _framework density 26.421323999999998
#
# number of rings (size 3 to 8) (size 9 to 14) (size 15 to 20)
#    0.000    1.333    6.667    0.500    2.333    4.000 
#    6.000    5.000    0.000    0.000    0.000    0.000 
#    0.000    0.000    0.000    0.000    0.000    0.000 
#
# Total GULP energy -134254.937575 kJ/mol
# GULP energy per Si atom -5593.955732 kJ/mol
# Density = 2.636119 g / cm^3
# Si number density = 26.421324 Si / 1000 Ang^3
#
#
#
# Elastic Constant Matrix: (Units=GPa)
#
#
# Indices 1 2 3 4 5 6 
#
# 1 177.2085 27.7486 42.7534 0.0000 -0.6451 0.0000
# 2 27.7486 88.2636 36.6608 0.0000 2.7415 0.0000
# 3 42.7534 36.6608 90.7392 0.0000 -3.4980 0.0000
# 4 0.0000 0.0000 0.0000 55.7383 0.0000 -10.0897
# 5 -0.6451 2.7415 -3.4980 0.0000 41.0224 0.0000
# 6 0.0000 0.0000 0.0000 -10.0897 0.0000 32.7042
#
#
#
# Elastic Compliance Matrix: (Units=1/GPa)
#
#
# Indices 1 2 3 4 5 6 
#
# 1 0.006428 -0.000913 -0.002662 0.000000 -0.000065 0.000000
# 2 -0.000913 0.013823 -0.005208 0.000000 -0.001382 0.000000
# 3 -0.002662 -0.005208 0.014438 0.000000 0.001537 0.000000
# 4 0.000000 0.000000 0.000000 0.019002 0.000000 0.005862
# 5 -0.000065 -0.001382 0.001537 0.000000 0.024599 0.000000
# 6 0.000000 0.000000 0.000000 0.005862 0.000000 0.032386
#
#
# Mechanical properties :
#
#
# Convention : Reuss Voigt Hill
#
# Bulk Modulus (GPa) = 58.40154 63.39299 60.89727
# Shear Modulus (GPa) = 37.32718 42.49620 39.91169
#
# Velocity S-wave (km/s) = 3.76276 4.01484 3.89084
# Velocity P-wave (km/s) = 6.40544 6.74812 6.57902
#
# Compressibility (1/GPa) = 0.01712284
#
# Stress axis : x y z
#
# Youngs Moduli (GPa) = 155.56639 72.34439 69.26005
#
# Poissons Ratio (x) = 0.06606 0.18439
# Poissons Ratio (y) = 0.14204 0.36069
# Poissons Ratio (z) = 0.41417 0.37676
#
# Static dielectric constant tensor:
#      x y z
#    x 2.150150 0.000000 -0.031890 
#    y 0.000000 2.158810 0.000000 
#    z -0.031890 0.000000 2.049670 
# 
# From -- ./inp_files/21277.got.cif
#   From: 2010.05.17/outbox.cif.g08.bks.cpg/sg14_11_cif.got.tgz:21277.got - 2010.06.03 17:49:19.
