data_PCOD9248812
_publ_section_title
;
Structure prediction by ZEFSAII (Michael W. Deem and Ramdas Pophale) SiO2 
 PCOD9248812
Probable space group: P 21/C
;
_chemical_formula_sum "Si O2"
_cell_formula_units_Z 32
_cell_length_a 8.077773
_cell_length_b 13.736620
_cell_length_c 13.982026
_cell_angle_alpha 90.000000
_cell_angle_beta 91.380941
_cell_angle_gamma 90.000000
_cell_volume 1551.013151
_symmetry_space_group_name_H-M "P 21/C"
_symmetry_group_IT_number 14
_symmetry_cell_setting 'monoclinic'
loop_
_space_group_symop_operation_xyz
x,y,z
-x,1/2+y,1/2-z
-x,-y,-z
x,1/2-y,1/2+z
loop_
_atom_site_type_symbol
_atom_site_label
_atom_site_fract_x
_atom_site_fract_y
_atom_site_fract_z
Si Si1 0.353892 0.465987 0.598106
Si Si2 0.909925 0.897591 0.023698
Si Si3 0.031317 0.753743 0.677536
Si Si4 0.616346 0.152366 0.013404
Si Si5 0.272035 0.405280 0.806996
Si Si6 0.172364 0.547775 0.971304
Si Si7 0.383059 0.661375 0.104491
Si Si8 0.065274 0.743630 0.399804
O O1 0.276150 0.432448 0.493875
O O2 0.374288 0.580348 0.578135
O O3 0.514274 0.399202 0.595591
O O4 0.263625 0.443618 0.696987
O O5 0.979863 0.842863 0.117329
O O6 0.911745 0.810848 0.944605
O O7 0.000000 0.000000 0.000000
O O8 0.212792 0.794150 0.648415
O O9 0.047093 0.736101 0.789547
O O10 0.878204 0.830619 0.669507
O O11 0.793667 0.169227 0.064325
O O12 0.561328 0.257825 0.973478
O O13 0.245633 0.493371 0.880801
O O14 0.455084 0.360164 0.829383
O O15 0.114747 0.656475 0.947853
O O16 0.314022 0.562903 0.053350
O O17 0.000000 0.500000 0.000000
#
# Coordination Sequence:
#
# PCOD9248812 Si02
#       8
#     4   4   4   4   4   4   4   4
#     4  11  23  41  67  99 132 171 226 278 336 403
#     4  12  22  42  67  95 133 175 217 277 342 392
#     4  12  24  42  70 100 134 172 229 277 330 411
#     4  10  22  44  67  92 135 174 218 283 339 396
#     4  12  25  42  69 101 132 177 230 275 335 409
#     4  11  23  44  67  95 134 180 223 272 335 401
#     4  11  23  45  66  93 136 175 220 277 339 392
#     4  11  23  40  67  97 128 177 216 275 336 391
#
# _framework density 20.631675000000001
#
# number of rings (size 3 to 8) (size 9 to 14) (size 15 to 20)
#    0.000    0.750    6.250    1.875    3.500    0.000 
#    0.000    1.250    0.000    0.000    0.000    0.000 
#    0.000    0.000    0.000    0.000    0.000    0.000 
#
# Total GULP energy -178153.868386 kJ/mol
# GULP energy per Si atom -5567.308387 kJ/mol
# Density = 2.058472 g / cm^3
# Si number density = 20.631675 Si / 1000 Ang^3
#
#
#
# Elastic Constant Matrix: (Units=GPa)
#
#
# Indices 1 2 3 4 5 6 
#
# 1 84.5812 33.2297 11.6501 0.0000 0.1304 0.0000
# 2 33.2297 92.6624 25.3538 0.0000 -2.7595 0.0000
# 3 11.6501 25.3538 99.4649 0.0000 -1.1664 0.0000
# 4 0.0000 0.0000 0.0000 23.6679 0.0000 -2.2506
# 5 0.1304 -2.7595 -1.1664 0.0000 23.5081 0.0000
# 6 0.0000 0.0000 0.0000 -2.2506 0.0000 19.3451
#
#
#
# Elastic Compliance Matrix: (Units=1/GPa)
#
#
# Indices 1 2 3 4 5 6 
#
# 1 0.013786 -0.004858 -0.000384 0.000000 -0.000666 0.000000
# 2 -0.004858 0.013348 -0.002816 0.000000 0.001454 0.000000
# 3 -0.000384 -0.002816 0.010819 0.000000 0.000208 0.000000
# 4 0.000000 0.000000 0.000000 0.042724 0.000000 0.004970
# 5 -0.000666 0.001454 0.000208 0.000000 0.042723 0.000000
# 6 0.000000 0.000000 0.000000 0.004970 0.000000 0.052271
#
#
# Mechanical properties :
#
#
# Convention : Reuss Voigt Hill
#
# Bulk Modulus (GPa) = 45.79772 46.35285 46.07528
# Shear Modulus (GPa) = 25.11718 27.06921 26.09320
#
# Velocity S-wave (km/s) = 3.49292 3.62611 3.56014
# Velocity P-wave (km/s) = 6.20591 6.32829 6.26740
#
# Compressibility (1/GPa) = 0.02183515
#
# Stress axis : x y z
#
# Youngs Moduli (GPa) = 72.53924 74.91735 92.42904
#
# Poissons Ratio (x) = 0.36398 0.03550
# Poissons Ratio (y) = 0.35243 0.26031
# Poissons Ratio (z) = 0.02786 0.21099
#
# Static dielectric constant tensor:
#      x y z
#    x 1.883150 0.000000 0.003310 
#    y 0.000000 1.788570 0.000000 
#    z 0.003310 0.000000 1.789180 
# 
# From -- ./inp_files/40060.got.cif
#   From: 2010.05.17/outbox.cif.g08.bks.cpg/sg14_21_cif.got.tgz:40060.got - 2010.06.03 17:49:19.
