data_PCOD9248876
_publ_section_title
;
Structure prediction by ZEFSAII (Michael W. Deem and Ramdas Pophale) SiO2 
 PCOD9248876
Probable space group: P 21/C
;
_chemical_formula_sum "Si O2"
_cell_formula_units_Z 28
_cell_length_a 10.639531
_cell_length_b 14.600001
_cell_length_c 9.057375
_cell_angle_alpha 90.000000
_cell_angle_beta 59.641336
_cell_angle_gamma 90.000000
_cell_volume 1214.024296
_symmetry_space_group_name_H-M "P 21/C"
_symmetry_group_IT_number 14
_symmetry_cell_setting 'monoclinic'
loop_
_space_group_symop_operation_xyz
x,y,z
-x,1/2+y,1/2-z
-x,-y,-z
x,1/2-y,1/2+z
loop_
_atom_site_type_symbol
_atom_site_label
_atom_site_fract_x
_atom_site_fract_y
_atom_site_fract_z
Si Si1 0.563881 0.352330 0.094931
Si Si2 0.096084 0.409779 0.962813
Si Si3 0.543342 0.498913 0.645603
Si Si4 0.664373 0.180125 0.212620
Si Si5 0.008423 0.792883 0.993641
Si Si6 0.745444 0.828103 0.376189
Si Si7 0.206996 0.129266 0.081153
O O1 0.567183 0.446779 0.182966
O O2 0.661474 0.335671 0.891103
O O3 0.401770 0.346694 0.122503
O O4 0.598410 0.224692 0.695500
O O5 0.192854 0.397626 0.759384
O O6 0.201027 0.404312 0.041561
O O7 0.000000 0.500000 0.000000
O O8 0.999137 0.316257 0.033605
O O9 0.500000 0.500000 0.500000
O O10 0.571302 0.398873 0.690969
O O11 0.696452 0.554715 0.557915
O O12 0.830757 0.178539 0.059051
O O13 0.953577 0.853574 0.888339
O O14 0.882807 0.811705 0.187465
O O15 0.723291 0.730603 0.471891
#
# Coordination Sequence:
#
# PCOD9248876 Si02
#       7
#     4   4   4   4   4   4   4
#     4  12  27  50  73 109 150 194 248 306 373 455
#     4  10  24  39  72 106 140 181 248 302 364 435
#     4  12  27  49  74 105 148 199 248 304 373 450
#     4  12  29  46  76 108 149 192 247 316 376 432
#     4  10  24  47  70 101 144 190 239 304 372 433
#     4  10  22  45  75  97 141 197 240 294 375 442
#     4  10  22  44  70 101 140 186 245 291 365 444
#
# _framework density 23.063787999999999
#
# number of rings (size 3 to 8) (size 9 to 14) (size 15 to 20)
#    0.000    1.143    1.429    3.000   14.000    2.857 
#    0.000    0.000    0.000    0.000    0.000    0.000 
#    0.000    0.000    0.000    0.000    0.000    0.000 
#
# Total GULP energy -156684.820378 kJ/mol
# GULP energy per Si atom -5595.886442 kJ/mol
# Density = 2.301129 g / cm^3
# Si number density = 23.063788 Si / 1000 Ang^3
#
#
#
# Elastic Constant Matrix: (Units=GPa)
#
#
# Indices 1 2 3 4 5 6 
#
# 1 71.9631 24.4418 11.3197 0.0000 -1.8720 0.0000
# 2 24.4418 88.7101 2.0242 0.0000 -7.7457 0.0000
# 3 11.3197 2.0242 74.9819 0.0000 -7.2597 0.0000
# 4 0.0000 0.0000 0.0000 30.8631 0.0000 2.9221
# 5 -1.8720 -7.7457 -7.2597 0.0000 30.7665 0.0000
# 6 0.0000 0.0000 0.0000 2.9221 0.0000 30.3425
#
#
#
# Elastic Compliance Matrix: (Units=1/GPa)
#
#
# Indices 1 2 3 4 5 6 
#
# 1 0.015716 -0.004337 -0.002322 0.000000 -0.000683 0.000000
# 2 -0.004337 0.012723 0.000610 0.000000 0.003083 0.000000
# 3 -0.002322 0.000610 0.013991 0.000000 0.003314 0.000000
# 4 0.000000 0.000000 0.000000 0.032699 0.000000 -0.003149
# 5 -0.000683 0.003083 0.003314 0.000000 0.034019 0.000000
# 6 0.000000 0.000000 0.000000 -0.003149 0.000000 0.033260
#
#
# Mechanical properties :
#
#
# Convention : Reuss Voigt Hill
#
# Bulk Modulus (GPa) = 32.96748 34.58073 33.77410
# Shear Modulus (GPa) = 30.37325 31.58573 30.97949
#
# Velocity S-wave (km/s) = 3.63288 3.70468 3.66896
# Velocity P-wave (km/s) = 5.64997 5.77284 5.71173
#
# Compressibility (1/GPa) = 0.03033292
#
# Stress axis : x y z
#
# Youngs Moduli (GPa) = 63.62753 78.59844 71.47232
#
# Poissons Ratio (x) = 0.34088 0.16594
# Poissons Ratio (y) = 0.27595 -0.04358
# Poissons Ratio (z) = 0.14773 -0.04793
#
# Static dielectric constant tensor:
#      x y z
#    x 1.894240 0.000000 0.023930 
#    y 0.000000 1.842430 0.000000 
#    z 0.023930 0.000000 1.895980 
# 
# From -- ./inp_files/12993.got.cif
#   From: 2010.05.17/outbox.cif.g08.bks.cpg/sg14_7_cif.got.tgz:12993.got - 2010.06.03 17:49:19.
