data_PCOD9248501
_publ_section_title
;
Structure prediction by ZEFSAII (Michael W. Deem and Ramdas Pophale) SiO2 
 PCOD9248501
Probable space group: P 21/C
;
_chemical_formula_sum "Si O2"
_cell_formula_units_Z 32
_cell_length_a 13.937451
_cell_length_b 22.260595
_cell_length_c 9.196858
_cell_angle_alpha 90.000000
_cell_angle_beta 31.813776
_cell_angle_gamma 90.000000
_cell_volume 1504.188125
_symmetry_space_group_name_H-M "P 21/C"
_symmetry_group_IT_number 14
_symmetry_cell_setting 'monoclinic'
loop_
_space_group_symop_operation_xyz
x,y,z
-x,1/2+y,1/2-z
-x,-y,-z
x,1/2-y,1/2+z
loop_
_atom_site_type_symbol
_atom_site_label
_atom_site_fract_x
_atom_site_fract_y
_atom_site_fract_z
Si Si1 0.803506 0.349775 0.162853
Si Si2 0.604452 0.362620 0.985215
Si Si3 0.905120 0.770972 0.541486
Si Si4 0.857954 0.923532 0.292139
Si Si5 0.490794 0.284217 0.377584
Si Si6 0.045084 0.689570 0.573907
Si Si7 0.881101 0.059846 0.309657
Si Si8 0.513965 0.357944 0.779566
O O1 0.661797 0.309860 0.247965
O O2 0.680642 0.371625 0.456785
O O3 0.877373 0.401406 0.960891
O O4 0.971641 0.313180 0.014831
O O5 0.711409 0.414508 0.932918
O O6 0.534433 0.381375 0.918590
O O7 0.758168 0.312521 0.749593
O O8 0.468958 0.327748 0.265894
O O9 0.911003 0.707736 0.616776
O O10 0.007249 0.768673 0.258089
O O11 0.696553 0.788970 0.791446
O O12 0.998673 0.877443 0.185413
O O13 0.665614 0.890380 0.547506
O O14 0.856695 0.989106 0.362883
O O15 0.940953 0.930928 0.021668
O O16 0.510696 0.215102 0.300591
#
# Coordination Sequence:
#
# PCOD9248501 Si02
#       8
#     4   4   4   4   4   4   4   4
#     4  11  25  42  64  95 132 169 210 267 321 380
#     4  10  23  39  62  91 130 166 212 261 319 380
#     4  12  25  39  65  97 134 167 207 255 331 383
#     4  10  22  42  71  87 125 169 222 263 318 377
#     4  11  24  39  60  97 132 166 209 257 319 395
#     4  11  23  41  62  94 129 168 203 262 321 386
#     4   9  23  46  64  89 122 174 221 264 313 379
#     4  12  21  38  61  94 129 163 208 269 321 381
#
# _framework density 21.273935000000002
#
# number of rings (size 3 to 8) (size 9 to 14) (size 15 to 20)
#    0.000    1.250    2.500    3.000    8.750    1.000 
#    0.000    0.625    0.000    0.000    0.000    0.000 
#    0.000    0.000    0.000    0.000    0.000    0.000 
#
# Total GULP energy -178751.907935 kJ/mol
# GULP energy per Si atom -5585.997123 kJ/mol
# Density = 2.122551 g / cm^3
# Si number density = 21.273935 Si / 1000 Ang^3
#
#
#
# Elastic Constant Matrix: (Units=GPa)
#
#
# Indices 1 2 3 4 5 6 
#
# 1 29.9777 9.5238 10.3567 0.0000 16.2075 0.0000
# 2 9.5238 87.0871 14.0651 0.0000 3.5872 0.0000
# 3 10.3567 14.0651 60.3978 0.0000 -1.6629 0.0000
# 4 0.0000 0.0000 0.0000 28.8864 0.0000 3.7601
# 5 16.2075 3.5872 -1.6629 0.0000 31.6207 0.0000
# 6 0.0000 0.0000 0.0000 3.7601 0.0000 19.1487
#
#
#
# Elastic Compliance Matrix: (Units=1/GPa)
#
#
# Indices 1 2 3 4 5 6 
#
# 1 0.051860 -0.003135 -0.008898 0.000000 -0.026694 0.000000
# 2 -0.003135 0.012193 -0.002299 0.000000 0.000103 0.000000
# 3 -0.008898 -0.002299 0.018778 0.000000 0.005809 0.000000
# 4 0.000000 0.000000 0.000000 0.035526 0.000000 -0.006976
# 5 -0.026694 0.000103 0.005809 0.000000 0.045601 0.000000
# 6 0.000000 0.000000 0.000000 -0.006976 0.000000 0.053593
#
#
# Mechanical properties :
#
#
# Convention : Reuss Voigt Hill
#
# Bulk Modulus (GPa) = 18.46116 27.26152 22.86134
# Shear Modulus (GPa) = 18.92011 25.49896 22.20953
#
# Velocity S-wave (km/s) = 2.98544 3.46584 3.23457
# Velocity P-wave (km/s) = 4.53657 5.37200 4.97186
#
# Compressibility (1/GPa) = 0.05416779
#
# Stress axis : x y z
#
# Youngs Moduli (GPa) = 19.28269 82.01660 53.25410
#
# Poissons Ratio (x) = 0.25711 0.47383
# Poissons Ratio (y) = 0.06045 0.12243
# Poissons Ratio (z) = 0.17157 0.18855
#
# Static dielectric constant tensor:
#      x y z
#    x 1.805240 0.000000 -0.007690 
#    y 0.000000 1.782970 0.000000 
#    z -0.007690 0.000000 1.758000 
# 
# From -- ./inp_files/16998.got.cif
#   From: 2010.05.17/outbox.cif.g08.bks.cpg/sg14_9_cif.got.tgz:16998.got - 2010.06.03 17:49:19.
