data_PCOD9248243
_publ_section_title
;
Structure prediction by ZEFSAII (Michael W. Deem and Ramdas Pophale) SiO2 
 PCOD9248243
Probable space group: P 21/C
;
_chemical_formula_sum "Si O2"
_cell_formula_units_Z 28
_cell_length_a 7.269090
_cell_length_b 14.958969
_cell_length_c 10.237317
_cell_angle_alpha 90.000000
_cell_angle_beta 82.246330
_cell_angle_gamma 90.000000
_cell_volume 1103.008742
_symmetry_space_group_name_H-M "P 21/C"
_symmetry_group_IT_number 14
_symmetry_cell_setting 'monoclinic'
loop_
_space_group_symop_operation_xyz
x,y,z
-x,1/2+y,1/2-z
-x,-y,-z
x,1/2-y,1/2+z
loop_
_atom_site_type_symbol
_atom_site_label
_atom_site_fract_x
_atom_site_fract_y
_atom_site_fract_z
Si Si1 0.923170 0.594164 0.265741
Si Si2 0.003545 0.277151 0.240665
Si Si3 0.070501 0.600197 0.998944
Si Si4 0.768044 0.559795 0.737035
Si Si5 0.621764 0.200366 0.886968
Si Si6 0.224790 0.984191 0.019211
Si Si7 0.525274 0.153814 0.593041
O O1 0.099553 0.526312 0.246288
O O2 0.934672 0.687487 0.339670
O O3 0.763764 0.536632 0.345287
O O4 0.924372 0.635248 0.121524
O O5 0.132608 0.345502 0.308547
O O6 0.956593 0.346635 0.131020
O O7 0.817107 0.251492 0.334927
O O8 0.293493 0.605672 0.982922
O O9 0.000000 0.500000 0.000000
O O10 0.671005 0.528323 0.612122
O O11 0.642161 0.584954 0.871910
O O12 0.549051 0.183200 0.745295
O O13 0.699405 0.113559 0.957694
O O14 0.503220 0.261606 0.997538
O O15 0.000000 0.000000 0.000000
#
# Coordination Sequence:
#
# PCOD9248243 Si02
#       7
#     4   4   4   4   4   4   4
#     4  11  22  40  73 103 136 193 236 304 351 440
#     4  11  23  41  72 102 139 187 251 289 355 446
#     4  11  22  43  68 103 141 188 242 296 358 430
#     4  11  25  45  68 109 145 180 246 305 368 429
#     4  11  23  47  72 104 141 199 239 289 367 447
#     4  10  22  41  75 100 134 186 241 293 354 434
#     4  11  27  45  73 106 152 187 240 307 374 432
#
# _framework density 25.385113
#
# number of rings (size 3 to 8) (size 9 to 14) (size 15 to 20)
#    0.000    1.143    5.714    0.857   10.000    2.286 
#    0.000    1.429    0.000    0.000    0.000    0.000 
#    0.000    0.000    0.000    0.000    0.000    0.000 
#
# Total GULP energy -155870.502144 kJ/mol
# GULP energy per Si atom -5566.803648 kJ/mol
# Density = 2.532734 g / cm^3
# Si number density = 25.385113 Si / 1000 Ang^3
#
#
#
# Elastic Constant Matrix: (Units=GPa)
#
#
# Indices 1 2 3 4 5 6 
#
# 1 44.8613 23.5983 16.6133 0.0000 -8.8158 0.0000
# 2 23.5983 159.8355 34.3855 0.0000 -13.9426 0.0000
# 3 16.6133 34.3855 146.7655 0.0000 -12.0881 0.0000
# 4 0.0000 0.0000 0.0000 49.3417 0.0000 -19.6477
# 5 -8.8158 -13.9426 -12.0881 0.0000 26.2073 0.0000
# 6 0.0000 0.0000 0.0000 -19.6477 0.0000 24.4607
#
#
#
# Elastic Compliance Matrix: (Units=1/GPa)
#
#
# Indices 1 2 3 4 5 6 
#
# 1 0.025678 -0.002871 -0.001713 0.000000 0.006320 0.000000
# 2 -0.002871 0.007129 -0.001156 0.000000 0.002294 0.000000
# 3 -0.001713 -0.001156 0.007464 0.000000 0.002251 0.000000
# 4 0.000000 0.000000 0.000000 0.029797 0.000000 0.023934
# 5 0.006320 0.002294 0.002251 0.000000 0.042542 0.000000
# 6 0.000000 0.000000 0.000000 0.023934 0.000000 0.060107
#
#
# Mechanical properties :
#
#
# Convention : Reuss Voigt Hill
#
# Bulk Modulus (GPa) = 34.73569 55.62850 45.18210
# Shear Modulus (GPa) = 25.80043 38.45963 32.13003
#
# Velocity S-wave (km/s) = 3.19150 3.89658 3.56153
# Velocity P-wave (km/s) = 5.22437 6.49660 5.89491
#
# Compressibility (1/GPa) = 0.02878883
#
# Stress axis : x y z
#
# Youngs Moduli (GPa) = 38.94429 140.26851 133.97861
#
# Poissons Ratio (x) = 0.40274 0.22956
# Poissons Ratio (y) = 0.11182 0.15493
# Poissons Ratio (z) = 0.06673 0.16220
#
# Static dielectric constant tensor:
#      x y z
#    x 2.286680 0.000000 0.139640 
#    y 0.000000 1.844650 0.000000 
#    z 0.139640 0.000000 2.389230 
# 
# From -- ./inp_files/25200.got.cif
#   From: 2010.05.17/outbox.cif.g08.bks.cpg/sg14_13_cif.got.tgz:25200.got - 2010.06.03 17:49:19.
