data_PCOD9248587
_publ_section_title
;
Structure prediction by ZEFSAII (Michael W. Deem and Ramdas Pophale) SiO2 
 PCOD9248587
Probable space group: P 21/C
;
_chemical_formula_sum "Si O2"
_cell_formula_units_Z 24
_cell_length_a 16.326399
_cell_length_b 9.819119
_cell_length_c 15.716303
_cell_angle_alpha 90.000000
_cell_angle_beta 20.526680
_cell_angle_gamma 90.000000
_cell_volume 883.444203
_symmetry_space_group_name_H-M "P 21/C"
_symmetry_group_IT_number 14
_symmetry_cell_setting 'monoclinic'
loop_
_space_group_symop_operation_xyz
x,y,z
-x,1/2+y,1/2-z
-x,-y,-z
x,1/2-y,1/2+z
loop_
_atom_site_type_symbol
_atom_site_label
_atom_site_fract_x
_atom_site_fract_y
_atom_site_fract_z
Si Si1 0.655613 0.827502 0.352520
Si Si2 0.625398 0.496454 0.176375
Si Si3 0.974326 0.606932 0.115812
Si Si4 0.633149 0.473554 0.728471
Si Si5 0.006074 0.296633 0.259851
Si Si6 0.731736 0.174391 0.870320
O O1 0.856799 0.715969 0.168093
O O2 0.577810 0.897259 0.516222
O O3 0.412559 0.763301 0.554948
O O4 0.737140 0.933809 0.201802
O O5 0.753023 0.406674 0.123973
O O6 0.823915 0.587506 0.939370
O O7 0.479816 0.439044 0.238510
O O8 0.462607 0.599578 0.384343
O O9 0.872090 0.456853 0.197621
O O10 0.887722 0.671805 0.290774
O O11 0.818446 0.371881 0.504639
O O12 0.887026 0.246061 0.288055
#
# Coordination Sequence:
#
# PCOD9248587 Si02
#       6
#     4   4   4   4   4   4
#     4  11  23  44  65  99 136 173 219 284 342 385
#     4  10  22  43  65  95 128 185 222 264 328 403
#     4  11  23  40  66  98 133 170 225 273 339 394
#     4  10  23  44  69  93 136 178 223 279 335 390
#     4  10  22  43  66  95 128 181 231 267 324 415
#     4  10  24  42  67  97 137 175 221 281 334 394
#
# _framework density 27.166401
#
# number of rings (size 3 to 8) (size 9 to 14) (size 15 to 20)
#    0.000    1.667    1.667    1.500    2.333    5.333 
#    6.000    0.000    0.000    0.000    0.000    0.000 
#    0.000    0.000    0.000    0.000    0.000    0.000 
#
# Total GULP energy -134404.824527 kJ/mol
# GULP energy per Si atom -5600.201022 kJ/mol
# Density = 2.710457 g / cm^3
# Si number density = 27.166401 Si / 1000 Ang^3
#
#
#
# Elastic Constant Matrix: (Units=GPa)
#
#
# Indices 1 2 3 4 5 6 
#
# 1 152.2630 29.4760 24.1779 0.0000 -16.1994 0.0000
# 2 29.4760 78.5642 17.6409 0.0000 0.1035 0.0000
# 3 24.1779 17.6409 80.5471 0.0000 24.7492 0.0000
# 4 0.0000 0.0000 0.0000 40.1419 0.0000 0.7333
# 5 -16.1994 0.1035 24.7492 0.0000 41.2022 0.0000
# 6 0.0000 0.0000 0.0000 0.7333 0.0000 43.2144
#
#
#
# Elastic Compliance Matrix: (Units=1/GPa)
#
#
# Indices 1 2 3 4 5 6 
#
# 1 0.008148 -0.002255 -0.003603 0.000000 0.005373 0.000000
# 2 -0.002255 0.014163 -0.002626 0.000000 0.000655 0.000000
# 3 -0.003603 -0.002626 0.017788 0.000000 -0.012095 0.000000
# 4 0.000000 0.000000 0.000000 0.024919 0.000000 -0.000423
# 5 0.005373 0.000655 -0.012095 0.000000 0.033647 0.000000
# 6 0.000000 0.000000 0.000000 -0.000423 0.000000 0.023148
#
#
# Mechanical properties :
#
#
# Convention : Reuss Voigt Hill
#
# Bulk Modulus (GPa) = 43.23284 50.44043 46.83663
# Shear Modulus (GPa) = 34.13155 40.91702 37.52428
#
# Velocity S-wave (km/s) = 3.54840 3.88514 3.72058
# Velocity P-wave (km/s) = 5.72161 6.22361 5.97788
#
# Compressibility (1/GPa) = 0.02313056
#
# Stress axis : x y z
#
# Youngs Moduli (GPa) = 122.73079 70.60461 56.21727
#
# Poissons Ratio (x) = 0.15922 0.20255
# Poissons Ratio (y) = 0.27676 0.14765
# Poissons Ratio (z) = 0.44219 0.18544
#
# Static dielectric constant tensor:
#      x y z
#    x 2.172940 0.000000 -0.002090 
#    y 0.000000 2.072670 0.000000 
#    z -0.002090 0.000000 2.134050 
# 
# From -- ./inp_files/60497.got.cif
#   From: 2010.05.17/outbox.cif.g08.bks.cpg/sg14_31_cif.got.tgz:60497.got - 2010.06.03 17:49:19.
