data_PCOD9248306
_publ_section_title
;
Structure prediction by ZEFSAII (Michael W. Deem and Ramdas Pophale) SiO2 
 PCOD9248306
Probable space group: P 21/C
;
_chemical_formula_sum "Si O2"
_cell_formula_units_Z 32
_cell_length_a 11.688273
_cell_length_b 11.746169
_cell_length_c 20.417650
_cell_angle_alpha 90.000000
_cell_angle_beta 148.065499
_cell_angle_gamma 90.000000
_cell_volume 1482.745171
_symmetry_space_group_name_H-M "P 21/C"
_symmetry_group_IT_number 14
_symmetry_cell_setting 'monoclinic'
loop_
_space_group_symop_operation_xyz
x,y,z
-x,1/2+y,1/2-z
-x,-y,-z
x,1/2-y,1/2+z
loop_
_atom_site_type_symbol
_atom_site_label
_atom_site_fract_x
_atom_site_fract_y
_atom_site_fract_z
Si Si1 0.520120 0.322002 0.094608
Si Si2 0.687818 0.543697 0.388532
Si Si3 0.161136 0.666374 0.863989
Si Si4 0.765315 0.130777 0.364558
Si Si5 0.145549 0.866534 0.128602
Si Si6 0.645506 0.106595 0.989557
Si Si7 0.725972 0.627717 0.593000
Si Si8 0.866633 0.520692 0.040814
O O1 0.631891 0.362927 0.080943
O O2 0.711830 0.329847 0.240475
O O3 0.425455 0.197910 0.030614
O O4 0.322324 0.395118 0.026975
O O5 0.483620 0.622487 0.276956
O O6 0.761067 0.482092 0.357198
O O7 0.628037 0.441656 0.408490
O O8 0.893896 0.609474 0.517729
O O9 0.219697 0.779333 0.933155
O O10 0.098370 0.565516 0.882431
O O11 0.955289 0.685687 0.717078
O O12 0.834554 0.260136 0.410869
O O13 0.793316 0.052093 0.441768
O O14 0.920432 0.085332 0.381643
O O15 0.748940 0.002011 0.080841
O O16 0.410050 0.126797 0.905934
#
# Coordination Sequence:
#
# PCOD9248306 Si02
#       8
#     4   4   4   4   4   4   4   4
#     4  11  24  43  66 100 135 175 225 282 338 403
#     4  11  23  45  67  98 135 179 229 280 341 408
#     4  11  24  42  68  96 136 175 220 283 337 402
#     4  11  25  43  73  96 139 179 222 288 333 416
#     4  11  25  42  68 101 132 180 228 279 340 405
#     4  10  22  42  64  96 129 172 228 275 333 400
#     4  10  23  41  68  97 130 179 225 275 340 407
#     4  11  25  44  64 105 133 177 225 273 349 398
#
# _framework density 21.581591
#
# number of rings (size 3 to 8) (size 9 to 14) (size 15 to 20)
#    0.000    1.250    1.250    3.375    7.000    1.000 
#    4.500    3.750    0.000    0.000    0.000    0.000 
#    0.000    0.000    0.000    0.000    0.000    0.000 
#
# Total GULP energy -178919.295726 kJ/mol
# GULP energy per Si atom -5591.227991 kJ/mol
# Density = 2.153247 g / cm^3
# Si number density = 21.581591 Si / 1000 Ang^3
#
#
#
# Elastic Constant Matrix: (Units=GPa)
#
#
# Indices 1 2 3 4 5 6 
#
# 1 92.3180 20.4425 32.9360 0.0000 12.8759 0.0000
# 2 20.4425 77.4091 18.9441 0.0000 13.1433 0.0000
# 3 32.9360 18.9441 84.3156 0.0000 18.6885 0.0000
# 4 0.0000 0.0000 0.0000 20.4968 0.0000 -6.7064
# 5 12.8759 13.1433 18.6885 0.0000 29.3096 0.0000
# 6 0.0000 0.0000 0.0000 -6.7064 0.0000 33.3787
#
#
#
# Elastic Compliance Matrix: (Units=1/GPa)
#
#
# Indices 1 2 3 4 5 6 
#
# 1 0.013077 -0.002067 -0.004165 0.000000 -0.002163 0.000000
# 2 -0.002067 0.014618 -0.001427 0.000000 -0.004737 0.000000
# 3 -0.004165 -0.001427 0.015443 0.000000 -0.007377 0.000000
# 4 0.000000 0.000000 0.000000 0.052221 0.000000 0.010492
# 5 -0.002163 -0.004737 -0.007377 0.000000 0.041897 0.000000
# 6 0.000000 0.000000 0.000000 0.010492 0.000000 0.032067
#
#
# Mechanical properties :
#
#
# Convention : Reuss Voigt Hill
#
# Bulk Modulus (GPa) = 35.94450 44.29864 40.12157
# Shear Modulus (GPa) = 25.78470 28.75171 27.26820
#
# Velocity S-wave (km/s) = 3.46027 3.65394 3.55842
# Velocity P-wave (km/s) = 5.71454 6.19454 5.95938
#
# Compressibility (1/GPa) = 0.02782067
#
# Stress axis : x y z
#
# Youngs Moduli (GPa) = 76.46862 68.40979 64.75534
#
# Poissons Ratio (x) = 0.14141 0.26968
# Poissons Ratio (y) = 0.15807 0.09240
# Poissons Ratio (z) = 0.31846 0.09761
#
# Static dielectric constant tensor:
#      x y z
#    x 1.813880 0.000000 -0.020130 
#    y 0.000000 1.758090 0.000000 
#    z -0.020130 0.000000 1.753070 
# 
# From -- ./inp_files/67428.got.cif
#   From: 2010.05.17/outbox.cif.g08.bks.cpg/sg14_34_cif.got.tgz:67428.got - 2010.06.03 17:49:19.
