data_PCOD9248192
_publ_section_title
;
Structure prediction by ZEFSAII (Michael W. Deem and Ramdas Pophale) SiO2 
 PCOD9248192
Probable space group: P 21/C
;
_chemical_formula_sum "Si O2"
_cell_formula_units_Z 20
_cell_length_a 10.808102
_cell_length_b 9.394746
_cell_length_c 16.092695
_cell_angle_alpha 90.000000
_cell_angle_beta 153.916070
_cell_angle_gamma 90.000000
_cell_volume 718.467551
_symmetry_space_group_name_H-M "P 21/C"
_symmetry_group_IT_number 14
_symmetry_cell_setting 'monoclinic'
loop_
_space_group_symop_operation_xyz
x,y,z
-x,1/2+y,1/2-z
-x,-y,-z
x,1/2-y,1/2+z
loop_
_atom_site_type_symbol
_atom_site_label
_atom_site_fract_x
_atom_site_fract_y
_atom_site_fract_z
Si Si1 0.535000 0.968724 0.617131
Si Si2 0.011459 0.163412 0.306973
Si Si3 0.083681 0.843783 0.575920
Si Si4 0.333915 0.812107 0.066293
Si Si5 0.144678 0.407408 0.482782
O O1 0.506724 0.801894 0.617042
O O2 0.841790 0.027432 0.826483
O O3 0.500000 0.000000 0.500000
O O4 0.263254 0.056787 0.484440
O O5 0.794640 0.152174 0.255249
O O6 0.898056 0.145589 0.145886
O O7 0.114876 0.327049 0.376805
O O8 0.229124 0.771226 0.584693
O O9 0.828545 0.732674 0.443169
O O10 0.000000 0.000000 0.500000
O O11 0.384917 0.974329 0.128540
#
# Coordination Sequence:
#
# PCOD9248192 Si02
#       5
#     4   4   4   4   4
#     4  12  21  42  68  97 136 185 229 281 347 410
#     4  10  22  41  68  96 139 177 232 285 340 412
#     4  10  22  43  68  95 138 180 226 292 352 402
#     4  12  20  42  70  96 140 184 221 293 339 407
#     4  10  24  42  65 100 135 177 238 278 346 412
#
# _framework density 27.837025000000001
#
# number of rings (size 3 to 8) (size 9 to 14) (size 15 to 20)
#    1.200    0.000    6.000    0.600    0.000    0.000 
#    3.600    5.000    0.000    0.000    0.000    0.000 
#    0.000    0.000    0.000    0.000    0.000    0.000 
#
# Total GULP energy -111632.682838 kJ/mol
# GULP energy per Si atom -5581.634142 kJ/mol
# Density = 2.777367 g / cm^3
# Si number density = 27.837025 Si / 1000 Ang^3
#
#
#
# Elastic Constant Matrix: (Units=GPa)
#
#
# Indices 1 2 3 4 5 6 
#
# 1 157.0116 18.7251 37.4622 0.0000 -32.5179 0.0000
# 2 18.7251 200.0293 10.8408 0.0000 9.2327 0.0000
# 3 37.4622 10.8408 114.1039 0.0000 1.1464 0.0000
# 4 0.0000 0.0000 0.0000 15.3556 0.0000 -2.3007
# 5 -32.5179 9.2327 1.1464 0.0000 41.9626 0.0000
# 6 0.0000 0.0000 0.0000 -2.3007 0.0000 65.1320
#
#
#
# Elastic Compliance Matrix: (Units=1/GPa)
#
#
# Indices 1 2 3 4 5 6 
#
# 1 0.008592 -0.000973 -0.002798 0.000000 0.006949 0.000000
# 2 -0.000973 0.005186 -0.000154 0.000000 -0.001891 0.000000
# 3 -0.002798 -0.000154 0.009721 0.000000 -0.002400 0.000000
# 4 0.000000 0.000000 0.000000 0.065469 0.000000 0.002313
# 5 0.006949 -0.001891 -0.002400 0.000000 0.029697 0.000000
# 6 0.000000 0.000000 0.000000 0.002313 0.000000 0.015435
#
#
# Mechanical properties :
#
#
# Convention : Reuss Voigt Hill
#
# Bulk Modulus (GPa) = 63.90655 67.24455 65.57555
# Shear Modulus (GPa) = 33.97476 51.43114 42.70295
#
# Velocity S-wave (km/s) = 3.49734 4.30301 3.92092
# Velocity P-wave (km/s) = 6.27023 6.99263 6.64126
#
# Compressibility (1/GPa) = 0.01564785
#
# Stress axis : x y z
#
# Youngs Moduli (GPa) = 116.39075 192.82581 102.86607
#
# Poissons Ratio (x) = 0.18769 0.28783
# Poissons Ratio (y) = 0.11329 0.01586
# Poissons Ratio (z) = 0.32568 0.02972
#
# Static dielectric constant tensor:
#      x y z
#    x 2.206960 0.000000 0.050880 
#    y 0.000000 2.183160 0.000000 
#    z 0.050880 0.000000 2.385440 
# 
# From -- ./inp_files/57318.got.cif
#   From: 2010.05.17/outbox.cif.g08.bks.cpg/sg14_29_cif.got.tgz:57318.got - 2010.06.03 17:49:19.
