data_PCOD9248008
_publ_section_title
;
Structure prediction by ZEFSAII (Michael W. Deem and Ramdas Pophale) SiO2 
 PCOD9248008
Probable space group: P 21/C
;
_chemical_formula_sum "Si O2"
_cell_formula_units_Z 28
_cell_length_a 14.067323
_cell_length_b 6.859422
_cell_length_c 15.124029
_cell_angle_alpha 90.000000
_cell_angle_beta 112.618966
_cell_angle_gamma 90.000000
_cell_volume 1347.122890
_symmetry_space_group_name_H-M "P 21/C"
_symmetry_group_IT_number 14
_symmetry_cell_setting 'monoclinic'
loop_
_space_group_symop_operation_xyz
x,y,z
-x,1/2+y,1/2-z
-x,-y,-z
x,1/2-y,1/2+z
loop_
_atom_site_type_symbol
_atom_site_label
_atom_site_fract_x
_atom_site_fract_y
_atom_site_fract_z
Si Si1 0.157842 0.781651 0.959635
Si Si2 0.388122 0.533687 0.292136
Si Si3 0.749201 0.143556 0.830469
Si Si4 0.384637 0.293108 0.640427
Si Si5 0.090084 0.106435 0.338990
Si Si6 0.022138 0.536892 0.633715
Si Si7 0.718298 0.635816 0.581883
O O1 0.128041 0.589307 0.897945
O O2 0.224803 0.936502 0.927978
O O3 0.222473 0.739704 0.070196
O O4 0.051691 0.893587 0.947071
O O5 0.303256 0.704518 0.253752
O O6 0.499025 0.635645 0.334063
O O7 0.382925 0.393441 0.204255
O O8 0.364016 0.411397 0.371873
O O9 0.857166 0.052534 0.839470
O O10 0.673712 0.968786 0.829990
O O11 0.329626 0.272783 0.524987
O O12 0.191897 0.226217 0.348365
O O13 0.027915 0.249347 0.381745
O O14 0.017209 0.051022 0.231529
#
# Coordination Sequence:
#
# PCOD9248008 Si02
#       7
#     4   4   4   4   4   4   4
#     4  10  22  41  60  94 130 161 210 261 313 389
#     4  12  23  43  68  92 127 172 214 269 325 374
#     4  11  24  40  64  90 126 167 209 264 327 379
#     4  11  24  45  64  95 129 162 219 273 316 383
#     4  11  21  38  60  92 125 163 207 256 307 383
#     4  11  22  36  62  90 126 166 206 255 313 380
#     4  10  24  41  67  94 127 171 210 260 325 383
#
# _framework density 20.785039000000001
#
# number of rings (size 3 to 8) (size 9 to 14) (size 15 to 20)
#    0.000    1.143    2.857    3.429    2.000    1.714 
#    0.000    0.714    0.000    0.000    0.000    0.000 
#    0.000    0.000    0.000    0.000    0.000    0.000 
#
# Total GULP energy -156501.348008 kJ/mol
# GULP energy per Si atom -5589.333857 kJ/mol
# Density = 2.073773 g / cm^3
# Si number density = 20.785039 Si / 1000 Ang^3
#
#
#
# Elastic Constant Matrix: (Units=GPa)
#
#
# Indices 1 2 3 4 5 6 
#
# 1 102.2176 11.7232 3.0297 0.0000 3.5246 0.0000
# 2 11.7232 52.1616 16.2511 0.0000 3.7530 0.0000
# 3 3.0297 16.2511 63.0969 0.0000 9.8412 0.0000
# 4 0.0000 0.0000 0.0000 16.5722 0.0000 3.0491
# 5 3.5246 3.7530 9.8412 0.0000 26.0093 0.0000
# 6 0.0000 0.0000 0.0000 3.0491 0.0000 17.0365
#
#
#
# Elastic Compliance Matrix: (Units=1/GPa)
#
#
# Indices 1 2 3 4 5 6 
#
# 1 0.010074 -0.002269 0.000279 0.000000 -0.001143 0.000000
# 2 -0.002269 0.021381 -0.005276 0.000000 -0.000781 0.000000
# 3 0.000279 -0.005276 0.018153 0.000000 -0.006145 0.000000
# 4 0.000000 0.000000 0.000000 0.062397 0.000000 -0.011168
# 5 -0.001143 -0.000781 -0.006145 0.000000 0.041041 0.000000
# 6 0.000000 0.000000 0.000000 -0.011168 0.000000 0.060696
#
#
# Mechanical properties :
#
#
# Convention : Reuss Voigt Hill
#
# Bulk Modulus (GPa) = 28.50937 31.05379 29.78158
# Shear Modulus (GPa) = 20.83630 24.35506 22.59568
#
# Velocity S-wave (km/s) = 3.16961 3.42681 3.30072
# Velocity P-wave (km/s) = 5.20973 5.53446 5.37455
#
# Compressibility (1/GPa) = 0.03507619
#
# Stress axis : x y z
#
# Youngs Moduli (GPa) = 99.26126 46.77022 55.08864
#
# Poissons Ratio (x) = 0.10611 -0.01537
# Poissons Ratio (y) = 0.22521 0.29065
# Poissons Ratio (z) = -0.02769 0.24676
#
# Static dielectric constant tensor:
#      x y z
#    x 1.756260 0.000000 -0.036000 
#    y 0.000000 1.702210 0.000000 
#    z -0.036000 0.000000 1.747620 
# 
# From -- ./inp_files/58515.got.cif
#   From: 2010.05.17/outbox.cif.g08.bks.cpg/sg14_30_cif.got.tgz:58515.got - 2010.06.03 17:49:19.
