data_PCOD9248170
_publ_section_title
;
Structure prediction by ZEFSAII (Michael W. Deem and Ramdas Pophale) SiO2 
 PCOD9248170
Probable space group: P 21/C
;
_chemical_formula_sum "Si O2"
_cell_formula_units_Z 20
_cell_length_a 9.466784
_cell_length_b 5.977806
_cell_length_c 22.115898
_cell_angle_alpha 90.000000
_cell_angle_beta 127.213852
_cell_angle_gamma 90.000000
_cell_volume 996.715562
_symmetry_space_group_name_H-M "P 21/C"
_symmetry_group_IT_number 14
_symmetry_cell_setting 'monoclinic'
loop_
_space_group_symop_operation_xyz
x,y,z
-x,1/2+y,1/2-z
-x,-y,-z
x,1/2-y,1/2+z
loop_
_atom_site_type_symbol
_atom_site_label
_atom_site_fract_x
_atom_site_fract_y
_atom_site_fract_z
Si Si1 0.053294 0.523734 0.682779
Si Si2 0.504055 0.968868 0.905085
Si Si3 0.579867 0.081917 0.789456
Si Si4 0.181286 0.664208 0.844648
Si Si5 0.308473 0.227591 0.446145
O O1 0.223750 0.575995 0.687533
O O2 0.102431 0.538584 0.766537
O O3 0.976144 0.274751 0.658114
O O4 0.886591 0.677283 0.621527
O O5 0.570528 0.063540 0.859403
O O6 0.316439 0.841338 0.849802
O O7 0.453355 0.160176 0.939583
O O8 0.640599 0.801246 0.973404
O O9 0.498306 0.833369 0.747567
O O10 0.295721 0.525233 0.921739
#
# Coordination Sequence:
#
# PCOD9248170 Si02
#       5
#     4   4   4   4   4
#     4  11  23  36  65  93 126 171 220 272 320 391
#     4  10  23  42  64  96 128 173 214 276 328 395
#     4  12  27  44  67  98 135 176 221 274 334 393
#     4  11  20  39  64  92 125 170 221 270 318 394
#     4  10  22  41  67  93 130 166 226 267 331 385
#
# _framework density 20.065905000000001
#
# number of rings (size 3 to 8) (size 9 to 14) (size 15 to 20)
#    0.000    1.200    4.000    1.800    5.600    0.800 
#    0.000    1.000    0.000    0.000    0.000    0.000 
#    0.000    0.000    0.000    0.000    0.000    0.000 
#
# Total GULP energy -111451.069960 kJ/mol
# GULP energy per Si atom -5572.553498 kJ/mol
# Density = 2.002023 g / cm^3
# Si number density = 20.065905 Si / 1000 Ang^3
#
#
#
# Elastic Constant Matrix: (Units=GPa)
#
#
# Indices 1 2 3 4 5 6 
#
# 1 109.7578 16.4722 23.3726 0.0000 -1.2886 0.0000
# 2 16.4722 68.5051 16.2552 0.0000 3.2485 0.0000
# 3 23.3726 16.2552 82.3331 0.0000 -3.7382 0.0000
# 4 0.0000 0.0000 0.0000 40.5930 0.0000 10.6207
# 5 -1.2886 3.2485 -3.7382 0.0000 30.6816 0.0000
# 6 0.0000 0.0000 0.0000 10.6207 0.0000 22.8500
#
#
#
# Elastic Compliance Matrix: (Units=1/GPa)
#
#
# Indices 1 2 3 4 5 6 
#
# 1 0.009907 -0.001818 -0.002439 0.000000 0.000311 0.000000
# 2 -0.001818 0.015772 -0.002692 0.000000 -0.002074 0.000000
# 3 -0.002439 -0.002692 0.013452 0.000000 0.001822 0.000000
# 4 0.000000 0.000000 0.000000 0.028045 0.000000 -0.013036
# 5 0.000311 -0.002074 0.001822 0.000000 0.033047 0.000000
# 6 0.000000 0.000000 0.000000 -0.013036 0.000000 0.049823
#
#
# Mechanical properties :
#
#
# Convention : Reuss Voigt Hill
#
# Bulk Modulus (GPa) = 39.63140 41.42177 40.52659
# Shear Modulus (GPa) = 29.00973 32.45799 30.73386
#
# Velocity S-wave (km/s) = 3.80639 4.02626 3.91787
# Velocity P-wave (km/s) = 6.25393 6.50401 6.38019
#
# Compressibility (1/GPa) = 0.02523252
#
# Stress axis : x y z
#
# Youngs Moduli (GPa) = 100.93958 63.40458 74.33608
#
# Poissons Ratio (x) = 0.11528 0.18133
# Poissons Ratio (y) = 0.18352 0.20011
# Poissons Ratio (z) = 0.24622 0.17068
#
# Static dielectric constant tensor:
#      x y z
#    x 1.655990 0.000000 0.033240 
#    y 0.000000 1.845770 0.000000 
#    z 0.033240 0.000000 1.719780 
# 
# From -- ./inp_files/53837.got.cif
#   From: 2010.05.17/outbox.cif.g08.bks.cpg/sg14_27_cif.got.tgz:53837.got - 2010.06.03 17:49:19.
