data_PCOD9248395
_publ_section_title
;
Structure prediction by ZEFSAII (Michael W. Deem and Ramdas Pophale) SiO2 
 PCOD9248395
Probable space group: P 21/C
;
_chemical_formula_sum "Si O2"
_cell_formula_units_Z 30
_cell_length_a 16.558671
_cell_length_b 7.922633
_cell_length_c 9.449464
_cell_angle_alpha 90.000000
_cell_angle_beta 66.349256
_cell_angle_gamma 90.000000
_cell_volume 1135.537192
_symmetry_space_group_name_H-M "P 21/C"
_symmetry_group_IT_number 14
_symmetry_cell_setting 'monoclinic'
loop_
_space_group_symop_operation_xyz
x,y,z
-x,1/2+y,1/2-z
-x,-y,-z
x,1/2-y,1/2+z
loop_
_atom_site_type_symbol
_atom_site_label
_atom_site_fract_x
_atom_site_fract_y
_atom_site_fract_z
Si Si1 0.000000 0.500000 0.500000
Si Si2 0.148159 0.084560 0.994888
Si Si3 0.412285 0.734224 0.066919
Si Si4 0.325374 0.049645 0.979124
Si Si5 0.152032 0.469041 0.934677
Si Si6 0.655350 0.074623 0.641390
Si Si7 0.608515 0.741377 0.829302
Si Si8 0.990273 0.865487 0.684916
O O1 0.110336 0.525669 0.397146
O O2 0.003294 0.317154 0.389843
O O3 0.045539 0.119860 0.127117
O O4 0.224412 0.996986 0.027455
O O5 0.178793 0.273973 0.945257
O O6 0.355947 0.599898 0.017537
O O7 0.514141 0.704882 0.963313
O O8 0.383699 0.911435 0.015032
O O9 0.390961 0.769960 0.244451
O O10 0.361330 0.100155 0.801008
O O11 0.327124 0.206786 0.087522
O O12 0.243780 0.566142 0.877626
O O13 0.091005 0.459859 0.837541
O O14 0.081273 0.540606 0.094662
O O15 0.606414 0.907411 0.730174
#
# Coordination Sequence:
#
# PCOD9248395 Si02
#       8
#     2   4   4   4   4   4   4   4
#     4   8  22  38  64  96 124 166 212 280 326 384
#     4  10  22  42  67  94 132 166 226 266 332 392
#     4  11  24  45  65  99 142 173 225 278 342 399
#     4  11  23  40  71  98 134 174 228 278 329 403
#     4  11  22  44  67  94 130 175 224 265 341 392
#     4  11  24  46  66  98 136 185 218 284 333 412
#     4  11  22  43  71 100 130 182 222 280 340 397
#     4   9  22  41  61  93 124 165 215 275 318 392
#
# _framework density 26.419215000000001
#
# number of rings (size 3 to 8) (size 9 to 14) (size 15 to 20)
#    0.800    0.800    1.333    4.800    1.867    1.067 
#   14.400    2.667    0.000    0.000    0.000    0.000 
#    0.000    0.000    0.000    0.000    0.000    0.000 
#
# Total GULP energy -167565.205086 kJ/mol
# GULP energy per Si atom -5585.506836 kJ/mol
# Density = 2.635908 g / cm^3
# Si number density = 26.419215 Si / 1000 Ang^3
#
#
#
# Elastic Constant Matrix: (Units=GPa)
#
#
# Indices 1 2 3 4 5 6 
#
# 1 116.8461 16.8582 12.0599 0.0000 -3.8865 0.0000
# 2 16.8582 70.5232 31.9139 0.0000 -0.8862 0.0000
# 3 12.0599 31.9139 115.2877 0.0000 4.4067 0.0000
# 4 0.0000 0.0000 0.0000 20.4145 0.0000 15.2926
# 5 -3.8865 -0.8862 4.4067 0.0000 52.8666 0.0000
# 6 0.0000 0.0000 0.0000 15.2926 0.0000 31.0091
#
#
#
# Elastic Compliance Matrix: (Units=1/GPa)
#
#
# Indices 1 2 3 4 5 6 
#
# 1 0.008902 -0.001929 -0.000422 0.000000 0.000657 0.000000
# 2 -0.001929 0.016650 -0.004427 0.000000 0.000506 0.000000
# 3 -0.000422 -0.004427 0.009979 0.000000 -0.000937 0.000000
# 4 0.000000 0.000000 0.000000 0.077683 0.000000 -0.038311
# 5 0.000657 0.000506 -0.000937 0.000000 0.019050 0.000000
# 6 0.000000 0.000000 0.000000 -0.038311 0.000000 0.051142
#
#
# Mechanical properties :
#
#
# Convention : Reuss Voigt Hill
#
# Bulk Modulus (GPa) = 45.50383 47.14677 46.32530
# Shear Modulus (GPa) = 24.47523 36.97971 30.72747
#
# Velocity S-wave (km/s) = 3.04701 3.74535 3.41409
# Velocity P-wave (km/s) = 5.44428 6.04880 5.75448
#
# Compressibility (1/GPa) = 0.02197617
#
# Stress axis : x y z
#
# Youngs Moduli (GPa) = 112.33464 60.05887 100.20658
#
# Poissons Ratio (x) = 0.11582 0.04234
# Poissons Ratio (y) = 0.21664 0.44359
# Poissons Ratio (z) = 0.04746 0.26587
#
# Static dielectric constant tensor:
#      x y z
#    x 2.056430 0.000000 0.073740 
#    y 0.000000 2.166540 0.000000 
#    z 0.073740 0.000000 2.215890 
# 
# From -- ./inp_files/31539.got.cif
#   From: 2010.05.17/outbox.cif.g08.bks.cpg/sg14_16_cif.got.tgz:31539.got - 2010.06.03 17:49:19.
