data_PCOD9248437
_publ_section_title
;
Structure prediction by ZEFSAII (Michael W. Deem and Ramdas Pophale) SiO2 
 PCOD9248437
Probable space group: P 21/C
;
_chemical_formula_sum "Si O2"
_cell_formula_units_Z 20
_cell_length_a 16.444811
_cell_length_b 5.255195
_cell_length_c 8.748541
_cell_angle_alpha 90.000000
_cell_angle_beta 87.812311
_cell_angle_gamma 90.000000
_cell_volume 755.503880
_symmetry_space_group_name_H-M "P 21/C"
_symmetry_group_IT_number 14
_symmetry_cell_setting 'monoclinic'
loop_
_space_group_symop_operation_xyz
x,y,z
-x,1/2+y,1/2-z
-x,-y,-z
x,1/2-y,1/2+z
loop_
_atom_site_type_symbol
_atom_site_label
_atom_site_fract_x
_atom_site_fract_y
_atom_site_fract_z
Si Si1 0.274707 0.486012 0.989964
Si Si2 0.584454 0.771653 0.862438
Si Si3 0.594505 0.272884 0.654904
Si Si4 0.827628 0.800616 0.225538
Si Si5 0.053151 0.260933 0.531747
O O1 0.326523 0.737806 0.955576
O O2 0.229987 0.425794 0.831608
O O3 0.344569 0.278385 0.021565
O O4 0.218014 0.477256 0.146742
O O5 0.593917 0.527034 0.752529
O O6 0.491436 0.760919 0.927576
O O7 0.593556 0.028779 0.766461
O O8 0.861459 0.860135 0.054596
O O9 0.914929 0.747897 0.297440
O O10 0.000000 0.500000 0.500000
O O11 0.000000 0.000000 0.500000
#
# Coordination Sequence:
#
# PCOD9248437 Si02
#       5
#     4   4   4   4   4
#     4  11  21  46  67 105 150 174 242 289 360 405
#     4  10  22  42  68  97 137 195 247 294 349 411
#     4  10  22  42  68  97 137 195 247 294 349 411
#     4  10  24  44  74 110 136 188 218 296 356 414
#     4  11  24  50  75 103 140 180 230 273 348 444
#
# _framework density 26.472396
#
# number of rings (size 3 to 8) (size 9 to 14) (size 15 to 20)
#    0.000    1.600    2.000    1.800    0.000    1.600 
#   14.400    6.000    0.000    0.000    0.000    0.000 
#    0.000    0.000    0.000    0.000    0.000    0.000 
#
# Total GULP energy -111556.159381 kJ/mol
# GULP energy per Si atom -5577.807969 kJ/mol
# Density = 2.641214 g / cm^3
# Si number density = 26.472396 Si / 1000 Ang^3
#
#
#
# Elastic Constant Matrix: (Units=GPa)
#
#
# Indices 1 2 3 4 5 6 
#
# 1 121.6598 39.2472 11.5183 0.0000 -4.8837 0.0000
# 2 39.2472 187.1873 52.3107 0.0000 2.9155 0.0000
# 3 11.5183 52.3107 73.3214 0.0000 -17.0398 0.0000
# 4 0.0000 0.0000 0.0000 43.4443 0.0000 30.0576
# 5 -4.8837 2.9155 -17.0398 0.0000 72.2652 0.0000
# 6 0.0000 0.0000 0.0000 30.0576 0.0000 -121.8315
#
#
#
# Elastic Compliance Matrix: (Units=1/GPa)
#
#
# Indices 1 2 3 4 5 6 
#
# 1 0.008849 -0.001903 0.000132 0.000000 0.000706 0.000000
# 2 -0.001903 0.007233 -0.005247 0.000000 -0.001658 0.000000
# 3 0.000132 -0.005247 0.018422 0.000000 0.004564 0.000000
# 4 0.000000 0.000000 0.000000 0.019662 0.000000 0.004851
# 5 0.000706 -0.001658 0.004564 0.000000 0.015029 0.000000
# 6 0.000000 0.000000 0.000000 0.004851 0.000000 -0.007011
#
#
# Mechanical properties :
#
#
# Convention : Reuss Voigt Hill
#
# Bulk Modulus (GPa) = 48.85655 65.36899 57.11277
# Shear Modulus (GPa) = 60.20929 17.38176 38.79553
#
# Velocity S-wave (km/s) = 4.77426 2.56520 3.83235
# Velocity P-wave (km/s) = 6.99193 5.78969 6.41902
#
# Compressibility (1/GPa) = 0.02046809
#
# Stress axis : x y z
#
# Youngs Moduli (GPa) = 113.00080 138.24793 54.28294
#
# Poissons Ratio (x) = 0.26312 -0.00715
# Poissons Ratio (y) = 0.21507 0.28481
# Poissons Ratio (z) = -0.01489 0.72537
#
# Static dielectric constant tensor:
#      x y z
#    x 2.633990 0.000000 0.083900 
#    y 0.000000 2.103300 0.000000 
#    z 0.083900 0.000000 2.138970 
# 
# From -- ./inp_files/17147.got.cif
#   From: 2010.05.17/outbox.cif.g08.bks.cpg/sg14_9_cif.got.tgz:17147.got - 2010.06.03 17:49:19.
