data_PCOD9248393
_publ_section_title
;
Structure prediction by ZEFSAII (Michael W. Deem and Ramdas Pophale) SiO2 
 PCOD9248393
Probable space group: P 21/C
;
_chemical_formula_sum "Si O2"
_cell_formula_units_Z 24
_cell_length_a 21.377127
_cell_length_b 11.946380
_cell_length_c 15.008751
_cell_angle_alpha 90.000000
_cell_angle_beta 160.533090
_cell_angle_gamma 90.000000
_cell_volume 1277.369473
_symmetry_space_group_name_H-M "P 21/C"
_symmetry_group_IT_number 14
_symmetry_cell_setting 'monoclinic'
loop_
_space_group_symop_operation_xyz
x,y,z
-x,1/2+y,1/2-z
-x,-y,-z
x,1/2-y,1/2+z
loop_
_atom_site_type_symbol
_atom_site_label
_atom_site_fract_x
_atom_site_fract_y
_atom_site_fract_z
Si Si1 0.341482 0.416362 0.251277
Si Si2 0.021885 0.583637 0.112086
Si Si3 0.542431 0.178180 0.516004
Si Si4 0.759740 0.958637 0.588260
Si Si5 0.095291 0.821822 0.121714
Si Si6 0.397299 0.541363 0.725822
O O1 0.500000 0.500000 0.500000
O O2 0.426230 0.291711 0.363951
O O3 0.283109 0.449528 0.073031
O O4 0.161919 0.421325 0.073839
O O5 0.050795 0.708291 0.113076
O O6 0.203265 0.550486 0.413345
O O7 0.000000 0.500000 0.000000
O O8 0.733338 0.195430 0.716679
O O9 0.590101 0.131597 0.677952
O O10 0.427049 0.079790 0.311385
O O11 0.569987 0.941127 0.389978
O O12 0.841592 0.079805 0.725910
O O13 0.914412 0.868422 0.826571
#
# Coordination Sequence:
#
# PCOD9248393 Si02
#       6
#     4   4   4   4   4   4
#     4  12  26  42  64  93 129 167 213 262 314 373
#     4  12  26  42  64  93 129 167 213 262 314 373
#     4  10  22  42  67  94 126 165 210 258 316 376
#     4  10  22  42  67  94 127 165 209 257 315 377
#     4  10  22  42  67  94 126 165 210 258 316 376
#     4  10  22  42  67  94 127 165 209 257 315 377
#
# _framework density 18.788612000000001
#
# number of rings (size 3 to 8) (size 9 to 14) (size 15 to 20)
#    0.000    1.333    0.000    5.000    4.667    4.000 
#    0.000    0.000    0.000    0.000    0.000    0.000 
#    0.000    0.000    0.000    0.000    0.000    0.000 
#
# Total GULP energy -134276.419644 kJ/mol
# GULP energy per Si atom -5594.850818 kJ/mol
# Density = 1.874585 g / cm^3
# Si number density = 18.788612 Si / 1000 Ang^3
#
#
#
# Elastic Constant Matrix: (Units=GPa)
#
#
# Indices 1 2 3 4 5 6 
#
# 1 185.7183 88.4587 114.8176 0.0000 -12.1853 0.0000
# 2 88.4587 90.1759 90.2055 0.0000 -2.6260 0.0000
# 3 114.8176 90.2055 199.1812 0.0000 -8.0683 0.0000
# 4 0.0000 0.0000 0.0000 20.1560 0.0000 12.5911
# 5 -12.1853 -2.6260 -8.0683 0.0000 33.3227 0.0000
# 6 0.0000 0.0000 0.0000 12.5911 0.0000 28.5385
#
#
#
# Elastic Compliance Matrix: (Units=1/GPa)
#
#
# Indices 1 2 3 4 5 6 
#
# 1 0.011050 -0.008226 -0.002532 0.000000 0.002780 0.000000
# 2 -0.008226 0.026412 -0.007329 0.000000 -0.002701 0.000000
# 3 -0.002532 -0.007329 0.009835 0.000000 0.000878 0.000000
# 4 0.000000 0.000000 0.000000 0.068489 0.000000 -0.030217
# 5 0.002780 -0.002701 0.000878 0.000000 0.031026 0.000000
# 6 0.000000 0.000000 0.000000 -0.030217 0.000000 0.048372
#
#
# Mechanical properties :
#
#
# Convention : Reuss Voigt Hill
#
# Bulk Modulus (GPa) = 89.90496 118.00432 103.95464
# Shear Modulus (GPa) = 21.27071 28.50967 24.89019
#
# Velocity S-wave (km/s) = 3.36833 3.89960 3.64366
# Velocity P-wave (km/s) = 7.94243 9.12241 8.55280
#
# Compressibility (1/GPa) = 0.01112286
#
# Stress axis : x y z
#
# Youngs Moduli (GPa) = 90.49450 37.86220 101.68198
#
# Poissons Ratio (x) = 0.31147 0.25744
# Poissons Ratio (y) = 0.74444 0.74519
# Poissons Ratio (z) = 0.22911 0.27748
#
# Static dielectric constant tensor:
#      x y z
#    x 1.618950 0.000000 0.005110 
#    y 0.000000 1.623930 0.000000 
#    z 0.005110 0.000000 1.615500 
# 
# From -- ./inp_files/32133.got.cif
#   From: 2010.05.17/outbox.cif.g08.bks.cpg/sg14_17_cif.got.tgz:32133.got - 2010.06.03 17:49:19.
