data_PCOD9248403
_publ_section_title
;
Structure prediction by ZEFSAII (Michael W. Deem and Ramdas Pophale) SiO2 
 PCOD9248403
Probable space group: P 21/C
;
_chemical_formula_sum "Si O2"
_cell_formula_units_Z 28
_cell_length_a 5.274533
_cell_length_b 19.305577
_cell_length_c 12.616749
_cell_angle_alpha 90.000000
_cell_angle_beta 109.890631
_cell_angle_gamma 90.000000
_cell_volume 1208.094526
_symmetry_space_group_name_H-M "P 21/C"
_symmetry_group_IT_number 14
_symmetry_cell_setting 'monoclinic'
loop_
_space_group_symop_operation_xyz
x,y,z
-x,1/2+y,1/2-z
-x,-y,-z
x,1/2-y,1/2+z
loop_
_atom_site_type_symbol
_atom_site_label
_atom_site_fract_x
_atom_site_fract_y
_atom_site_fract_z
Si Si1 0.785707 0.061392 0.974406
Si Si2 0.720158 0.518454 0.665109
Si Si3 0.987047 0.050644 0.597494
Si Si4 0.845230 0.840918 0.057863
Si Si5 0.568161 0.210507 0.172834
Si Si6 0.451847 0.138673 0.565125
Si Si7 0.171917 0.299812 0.817921
O O1 0.893359 0.138230 0.973677
O O2 0.683375 0.044397 0.078124
O O3 0.583510 0.040862 0.851253
O O4 0.000000 0.000000 0.000000
O O5 0.808928 0.589776 0.620655
O O6 0.919831 0.506287 0.788066
O O7 0.700161 0.086940 0.576730
O O8 0.221848 0.107250 0.609011
O O9 0.000000 0.000000 0.500000
O O10 0.604230 0.826598 0.943218
O O11 0.870771 0.776010 0.136809
O O12 0.568938 0.290961 0.134139
O O13 0.388080 0.203319 0.253754
O O14 0.870012 0.182342 0.235452
O O15 0.298653 0.155882 0.432473
#
# Coordination Sequence:
#
# PCOD9248403 Si02
#       7
#     4   4   4   4   4   4   4
#     4   9  21  41  63 101 129 173 227 290 341 395
#     4  10  22  42  67  97 135 175 234 288 335 406
#     4  12  27  47  72  98 135 193 235 284 353 422
#     4  10  23  39  69  96 133 177 227 274 350 409
#     4  11  24  42  70 103 135 184 226 282 355 409
#     4  11  25  48  66 103 141 180 238 282 348 429
#     4  11  25  43  68 103 143 178 224 290 345 422
#
# _framework density 23.176995000000002
#
# number of rings (size 3 to 8) (size 9 to 14) (size 15 to 20)
#    0.000    1.429    0.000    3.857   10.000    3.429 
#   12.857    0.000    0.000    0.000    0.000    0.000 
#    0.000    0.000    0.000    0.000    0.000    0.000 
#
# Total GULP energy -156417.276764 kJ/mol
# GULP energy per Si atom -5586.331313 kJ/mol
# Density = 2.312424 g / cm^3
# Si number density = 23.176995 Si / 1000 Ang^3
#
#
#
# Elastic Constant Matrix: (Units=GPa)
#
#
# Indices 1 2 3 4 5 6 
#
# 1 115.6708 5.7878 22.4771 0.0000 14.0274 0.0000
# 2 5.7878 37.8031 -3.7416 0.0000 -3.4434 0.0000
# 3 22.4771 -3.7416 116.9101 0.0000 10.9341 0.0000
# 4 0.0000 0.0000 0.0000 31.4859 0.0000 1.7035
# 5 14.0274 -3.4434 10.9341 0.0000 34.7493 0.0000
# 6 0.0000 0.0000 0.0000 1.7035 0.0000 30.7937
#
#
#
# Elastic Compliance Matrix: (Units=1/GPa)
#
#
# Indices 1 2 3 4 5 6 
#
# 1 0.009471 -0.001925 -0.001553 0.000000 -0.003525 0.000000
# 2 -0.001925 0.027129 0.000942 0.000000 0.003169 0.000000
# 3 -0.001553 0.000942 0.009082 0.000000 -0.002138 0.000000
# 4 0.000000 0.000000 0.000000 0.031856 0.000000 -0.001762
# 5 -0.003525 0.003169 -0.002138 0.000000 0.031187 0.000000
# 6 0.000000 0.000000 0.000000 -0.001762 0.000000 0.032572
#
#
# Mechanical properties :
#
#
# Convention : Reuss Voigt Hill
#
# Bulk Modulus (GPa) = 24.62377 35.49230 30.05803
# Shear Modulus (GPa) = 31.26854 35.79650 33.53252
#
# Velocity S-wave (km/s) = 3.67702 3.93426 3.80781
# Velocity P-wave (km/s) = 5.35487 5.99872 5.68592
#
# Compressibility (1/GPa) = 0.04061116
#
# Stress axis : x y z
#
# Youngs Moduli (GPa) = 105.58801 36.86030 110.10580
#
# Poissons Ratio (x) = 0.07095 0.17097
# Poissons Ratio (y) = 0.20324 -0.10371
# Poissons Ratio (z) = 0.16395 -0.03472
#
# Static dielectric constant tensor:
#      x y z
#    x 2.187200 0.000000 -0.041950 
#    y 0.000000 1.866020 0.000000 
#    z -0.041950 0.000000 1.877360 
# 
# From -- ./inp_files/21876.got.cif
#   From: 2010.05.17/outbox.cif.g08.bks.cpg/sg14_11_cif.got.tgz:21876.got - 2010.06.03 17:49:19.
