data_PCOD9248788
_publ_section_title
;
Structure prediction by ZEFSAII (Michael W. Deem and Ramdas Pophale) SiO2 
 PCOD9248788
Probable space group: P 21/C
;
_chemical_formula_sum "Si O2"
_cell_formula_units_Z 28
_cell_length_a 13.017767
_cell_length_b 10.656076
_cell_length_c 8.764184
_cell_angle_alpha 90.000000
_cell_angle_beta 116.606858
_cell_angle_gamma 90.000000
_cell_volume 1087.005381
_symmetry_space_group_name_H-M "P 21/C"
_symmetry_group_IT_number 14
_symmetry_cell_setting 'monoclinic'
loop_
_space_group_symop_operation_xyz
x,y,z
-x,1/2+y,1/2-z
-x,-y,-z
x,1/2-y,1/2+z
loop_
_atom_site_type_symbol
_atom_site_label
_atom_site_fract_x
_atom_site_fract_y
_atom_site_fract_z
Si Si1 0.704815 0.854914 0.462053
Si Si2 0.931755 0.794472 0.215223
Si Si3 0.368390 0.944886 0.085023
Si Si4 0.849272 0.338291 0.712657
Si Si5 0.570939 0.682775 0.569237
Si Si6 0.000000 0.000000 0.000000
Si Si7 0.000000 0.500000 0.000000
Si Si8 0.244647 0.564301 0.798628
O O1 0.814638 0.771592 0.585569
O O2 0.601139 0.808301 0.501200
O O3 0.665547 0.837705 0.263846
O O4 0.730879 0.996508 0.526288
O O5 0.030897 0.685068 0.301624
O O6 0.932316 0.884718 0.361465
O O7 0.973537 0.886341 0.108301
O O8 0.450322 0.836190 0.073692
O O9 0.350235 0.946864 0.252595
O O10 0.241059 0.922360 0.935074
O O11 0.417396 0.073615 0.049969
O O12 0.788923 0.207909 0.703635
O O13 0.895815 0.404136 0.893067
O O14 0.865403 0.995391 0.848151
#
# Coordination Sequence:
#
# PCOD9248788 Si02
#       8
#     4   4   4   4   4   2   2   4
#     4  12  27  48  76 114 147 206 259 324 398 472
#     4  11  27  43  75 111 152 198 253 312 390 475
#     4  11  26  51  71 109 150 197 268 321 386 468
#     4  11  27  44  74 114 149 204 244 325 386 473
#     4  11  27  49  78 106 148 204 262 328 385 467
#     4  10  22  44  66 106 154 186 236 308 386 454
#     4  12  26  46  76 108 158 198 252 310 394 462
#     4  11  26  45  75 109 155 194 253 322 386 474
#
# _framework density 25.758841
#
# number of rings (size 3 to 8) (size 9 to 14) (size 15 to 20)
#    0.000    0.857    0.000    5.143   16.000    1.714 
#    2.571    0.000    0.000    0.000    0.000    0.000 
#    0.000    0.000    0.000    0.000    0.000    0.000 
#
# Total GULP energy -156084.193260 kJ/mol
# GULP energy per Si atom -5574.435474 kJ/mol
# Density = 2.570021 g / cm^3
# Si number density = 25.758841 Si / 1000 Ang^3
#
#
#
# Elastic Constant Matrix: (Units=GPa)
#
#
# Indices 1 2 3 4 5 6 
#
# 1 127.1502 32.9456 24.9493 0.0000 -3.4656 0.0000
# 2 32.9456 85.0032 0.4351 0.0000 -7.3067 0.0000
# 3 24.9493 0.4351 57.3094 0.0000 0.3507 0.0000
# 4 0.0000 0.0000 0.0000 24.2396 0.0000 3.6388
# 5 -3.4656 -7.3067 0.3507 0.0000 39.8069 0.0000
# 6 0.0000 0.0000 0.0000 3.6388 0.0000 32.5547
#
#
#
# Elastic Compliance Matrix: (Units=1/GPa)
#
#
# Indices 1 2 3 4 5 6 
#
# 1 0.009648 -0.003701 -0.004173 0.000000 0.000197 0.000000
# 2 -0.003701 0.013373 0.001497 0.000000 0.002119 0.000000
# 3 -0.004173 0.001497 0.019256 0.000000 -0.000258 0.000000
# 4 0.000000 0.000000 0.000000 0.041959 0.000000 -0.004690
# 5 0.000197 0.002119 -0.000258 0.000000 0.025530 0.000000
# 6 0.000000 0.000000 0.000000 -0.004690 0.000000 0.031242
#
#
# Mechanical properties :
#
#
# Convention : Reuss Voigt Hill
#
# Bulk Modulus (GPa) = 33.87285 42.90253 38.38769
# Shear Modulus (GPa) = 30.56168 33.39576 31.97872
#
# Velocity S-wave (km/s) = 3.44823 3.60457 3.52727
# Velocity P-wave (km/s) = 5.38816 5.83228 5.61461
#
# Compressibility (1/GPa) = 0.02952217
#
# Stress axis : x y z
#
# Youngs Moduli (GPa) = 103.64916 74.77639 51.93138
#
# Poissons Ratio (x) = 0.27675 0.21672
# Poissons Ratio (y) = 0.38361 -0.07773
# Poissons Ratio (z) = 0.43256 -0.11192
#
# Static dielectric constant tensor:
#      x y z
#    x 0.023920 0.000000 0.410600 
#    y 0.000000 2.608620 0.000000 
#    z 0.410600 0.000000 1.914180 
# 
# From -- ./inp_files/15636.got.cif
#   From: 2010.05.17/outbox.cif.g08.bks.cpg/sg14_8_cif.got.tgz:15636.got - 2010.06.03 17:49:19.
