data_PCOD9248621
_publ_section_title
;
Structure prediction by ZEFSAII (Michael W. Deem and Ramdas Pophale) SiO2 
 PCOD9248621
Probable space group: P 21/C
;
_chemical_formula_sum "Si O2"
_cell_formula_units_Z 28
_cell_length_a 7.112771
_cell_length_b 7.815495
_cell_length_c 18.580267
_cell_angle_alpha 90.000000
_cell_angle_beta 107.753530
_cell_angle_gamma 90.000000
_cell_volume 983.685279
_symmetry_space_group_name_H-M "P 21/C"
_symmetry_group_IT_number 14
_symmetry_cell_setting 'monoclinic'
loop_
_space_group_symop_operation_xyz
x,y,z
-x,1/2+y,1/2-z
-x,-y,-z
x,1/2-y,1/2+z
loop_
_atom_site_type_symbol
_atom_site_label
_atom_site_fract_x
_atom_site_fract_y
_atom_site_fract_z
Si Si1 0.629102 0.163171 0.581374
Si Si2 0.108966 0.589620 0.141167
Si Si3 0.445643 0.246788 0.927544
Si Si4 0.225598 0.240268 0.111888
Si Si5 0.515978 0.224084 0.770777
Si Si6 0.861143 0.424472 0.228036
Si Si7 0.049264 0.073939 0.903694
O O1 0.632212 0.240673 0.502449
O O2 0.424751 0.238740 0.589006
O O3 0.806697 0.209104 0.656449
O O4 0.614168 0.952952 0.579423
O O5 0.115493 0.420258 0.095307
O O6 0.319090 0.626294 0.203010
O O7 0.958541 0.568827 0.189903
O O8 0.053745 0.748482 0.085821
O O9 0.479320 0.186300 0.850061
O O10 0.278959 0.118236 0.938484
O O11 0.316324 0.240310 0.204054
O O12 0.080728 0.082373 0.082046
O O13 0.647169 0.085852 0.741872
O O14 0.004483 0.418917 0.312381
#
# Coordination Sequence:
#
# PCOD9248621 Si02
#       7
#     4   4   4   4   4   4   4
#     4  10  22  43  75 102 162 210 257 312 410 474
#     4  11  23  41  67 106 150 186 252 323 394 447
#     4  11  21  45  72 111 154 213 254 323 394 485
#     4  11  24  44  71 113 146 204 257 327 385 469
#     4  10  23  41  72 108 153 197 268 318 394 475
#     4  10  22  43  67 110 145 199 256 327 386 464
#     4  11  25  41  73 111 153 190 266 325 383 455
#
# _framework density 28.464390000000002
#
# number of rings (size 3 to 8) (size 9 to 14) (size 15 to 20)
#    0.000    1.429    2.857    1.714    8.000    0.571 
#    0.000    4.286    0.000    4.286    0.000    0.000 
#    0.000    0.000    0.000    0.000    0.000    0.000 
#
# Total GULP energy -156467.799474 kJ/mol
# GULP energy per Si atom -5588.135696 kJ/mol
# Density = 2.839960 g / cm^3
# Si number density = 28.464390 Si / 1000 Ang^3
#
#
#
# Elastic Constant Matrix: (Units=GPa)
#
#
# Indices 1 2 3 4 5 6 
#
# 1 103.3720 74.4094 -4.4587 0.0000 -11.2867 0.0000
# 2 74.4094 186.8963 23.6059 0.0000 3.5885 0.0000
# 3 -4.4587 23.6059 87.8151 0.0000 3.1274 0.0000
# 4 0.0000 0.0000 0.0000 18.0303 0.0000 0.3306
# 5 -11.2867 3.5885 3.1274 0.0000 40.3986 0.0000
# 6 0.0000 0.0000 0.0000 0.3306 0.0000 62.2281
#
#
#
# Elastic Compliance Matrix: (Units=1/GPa)
#
#
# Indices 1 2 3 4 5 6 
#
# 1 0.014763 -0.006251 0.002269 0.000000 0.004504 0.000000
# 2 -0.006251 0.008191 -0.002438 0.000000 -0.002285 0.000000
# 3 0.002269 -0.002438 0.012161 0.000000 -0.000091 0.000000
# 4 0.000000 0.000000 0.000000 0.055468 0.000000 -0.000295
# 5 0.004504 -0.002285 -0.000091 0.000000 0.026222 0.000000
# 6 0.000000 0.000000 0.000000 -0.000295 0.000000 0.016071
#
#
# Mechanical properties :
#
#
# Convention : Reuss Voigt Hill
#
# Bulk Modulus (GPa) = 44.88938 62.79962 53.84450
# Shear Modulus (GPa) = 32.64994 43.09985 37.87489
#
# Velocity S-wave (km/s) = 3.39048 3.89545 3.65170
# Velocity P-wave (km/s) = 5.57958 6.50716 6.06114
#
# Compressibility (1/GPa) = 0.02227699
#
# Stress axis : x y z
#
# Youngs Moduli (GPa) = 67.73765 122.08606 82.22772
#
# Poissons Ratio (x) = 0.76312 -0.18661
# Poissons Ratio (y) = 0.42341 0.20046
# Poissons Ratio (z) = -0.15373 0.29762
#
# Static dielectric constant tensor:
#      x y z
#    x 2.243590 0.000000 0.017130 
#    y 0.000000 2.350660 0.000000 
#    z 0.017130 0.000000 2.236360 
# 
# From -- ./inp_files/55236.got.cif
#   From: 2010.05.17/outbox.cif.g08.bks.cpg/sg14_28_cif.got.tgz:55236.got - 2010.06.03 17:49:19.
