data_PCOD9248626
_publ_section_title
;
Structure prediction by ZEFSAII (Michael W. Deem and Ramdas Pophale) SiO2 
 PCOD9248626
Probable space group: P 21/C
;
_chemical_formula_sum "Si O2"
_cell_formula_units_Z 28
_cell_length_a 18.793418
_cell_length_b 9.490348
_cell_length_c 13.772704
_cell_angle_alpha 90.000000
_cell_angle_beta 147.550309
_cell_angle_gamma 90.000000
_cell_volume 1318.027560
_symmetry_space_group_name_H-M "P 21/C"
_symmetry_group_IT_number 14
_symmetry_cell_setting 'monoclinic'
loop_
_space_group_symop_operation_xyz
x,y,z
-x,1/2+y,1/2-z
-x,-y,-z
x,1/2-y,1/2+z
loop_
_atom_site_type_symbol
_atom_site_label
_atom_site_fract_x
_atom_site_fract_y
_atom_site_fract_z
Si Si1 0.408186 0.806668 0.704160
Si Si2 0.930713 0.029108 0.162449
Si Si3 0.879690 0.291869 0.196757
Si Si4 0.062143 0.856483 0.029834
Si Si5 0.381862 0.143334 0.674360
Si Si6 0.809396 0.682261 0.672018
Si Si7 0.586153 0.861504 0.072363
O O1 0.257343 0.766350 0.515252
O O2 0.493376 0.731800 0.719796
O O3 0.410356 0.976986 0.698021
O O4 0.479791 0.769891 0.888626
O O5 0.973905 0.161284 0.277730
O O6 0.837385 0.935770 0.123328
O O7 0.873274 0.093820 0.996299
O O8 0.050950 0.930161 0.266437
O O9 0.855702 0.299771 0.284256
O O10 0.946811 0.743726 0.872166
O O11 0.000000 0.000000 0.000000
O O12 0.263375 0.189905 0.467369
O O13 0.359156 0.184873 0.760359
O O14 0.709824 0.624928 0.640487
O O15 0.500000 0.000000 0.000000
#
# Coordination Sequence:
#
# PCOD9248626 Si02
#       7
#     4   4   4   4   4   4   4
#     4  10  23  42  66  95 131 169 220 275 331 394
#     4  11  24  44  65  98 138 179 225 274 341 397
#     4  11  25  42  68  97 139 175 227 278 337 407
#     4  10  23  42  65 100 133 174 225 273 335 404
#     4  10  22  43  67  93 130 172 222 280 333 386
#     4  11  23  42  69  96 134 179 222 275 339 398
#     4   9  22  41  67  94 126 172 225 271 326 394
#
# _framework density 21.243865
#
# number of rings (size 3 to 8) (size 9 to 14) (size 15 to 20)
#    0.000    1.714    1.429    1.714   10.000    2.857 
#    2.571    2.857    0.000    0.000    0.000    0.000 
#    0.000    0.000    0.000    0.000    0.000    0.000 
#
# Total GULP energy -156176.385141 kJ/mol
# GULP energy per Si atom -5577.728041 kJ/mol
# Density = 2.119551 g / cm^3
# Si number density = 21.243865 Si / 1000 Ang^3
#
#
#
# Elastic Constant Matrix: (Units=GPa)
#
#
# Indices 1 2 3 4 5 6 
#
# 1 148.7297 44.6646 41.2737 0.0000 -17.9347 0.0000
# 2 44.6646 79.4437 11.8231 0.0000 -2.5160 0.0000
# 3 41.2737 11.8231 62.8265 0.0000 0.0254 0.0000
# 4 0.0000 0.0000 0.0000 10.3585 0.0000 1.8637
# 5 -17.9347 -2.5160 0.0254 0.0000 27.0055 0.0000
# 6 0.0000 0.0000 0.0000 1.8637 0.0000 44.6562
#
#
#
# Elastic Compliance Matrix: (Units=1/GPa)
#
#
# Indices 1 2 3 4 5 6 
#
# 1 0.010687 -0.004890 -0.006104 0.000000 0.006648 0.000000
# 2 -0.004890 0.015227 0.000348 0.000000 -0.001829 0.000000
# 3 -0.006104 0.000348 0.019863 0.000000 -0.004040 0.000000
# 4 0.000000 0.000000 0.000000 0.097269 0.000000 -0.004060
# 5 0.006648 -0.001829 -0.004040 0.000000 0.041278 0.000000
# 6 0.000000 0.000000 0.000000 -0.004060 0.000000 0.022563
#
#
# Mechanical properties :
#
#
# Convention : Reuss Voigt Hill
#
# Bulk Modulus (GPa) = 40.84030 54.05808 47.44919
# Shear Modulus (GPa) = 21.15588 29.28660 25.22124
#
# Velocity S-wave (km/s) = 3.15915 3.71697 3.44935
# Velocity P-wave (km/s) = 5.70729 6.62743 6.18450
#
# Compressibility (1/GPa) = 0.02448562
#
# Stress axis : x y z
#
# Youngs Moduli (GPa) = 93.56735 65.67287 50.34527
#
# Poissons Ratio (x) = 0.32113 0.30729
# Poissons Ratio (y) = 0.45752 -0.01750
# Poissons Ratio (z) = 0.57110 -0.02282
#
# Static dielectric constant tensor:
#      x y z
#    x 1.793930 0.000000 -0.008630 
#    y 0.000000 1.820410 0.000000 
#    z -0.008630 0.000000 1.795610 
# 
# From -- ./inp_files/50272.got.cif
#   From: 2010.05.17/outbox.cif.g08.bks.cpg/sg14_26_cif.got.tgz:50272.got - 2010.06.03 17:49:19.
