data_PCOD9248688
_publ_section_title
;
Structure prediction by ZEFSAII (Michael W. Deem and Ramdas Pophale) SiO2 
 PCOD9248688
Probable space group: P 21/C
;
_chemical_formula_sum "Si O2"
_cell_formula_units_Z 22
_cell_length_a 7.997414
_cell_length_b 8.141110
_cell_length_c 15.785284
_cell_angle_alpha 90.000000
_cell_angle_beta 83.816280
_cell_angle_gamma 90.000000
_cell_volume 1021.765718
_symmetry_space_group_name_H-M "P 21/C"
_symmetry_group_IT_number 14
_symmetry_cell_setting 'monoclinic'
loop_
_space_group_symop_operation_xyz
x,y,z
-x,1/2+y,1/2-z
-x,-y,-z
x,1/2-y,1/2+z
loop_
_atom_site_type_symbol
_atom_site_label
_atom_site_fract_x
_atom_site_fract_y
_atom_site_fract_z
Si Si1 0.265368 0.217892 0.037426
Si Si2 0.665728 0.868918 0.145343
Si Si3 0.844688 0.118010 0.682713
Si Si4 0.490978 0.282831 0.688143
Si Si5 0.000000 0.000000 0.500000
Si Si6 0.019838 0.472222 0.652356
O O1 0.374582 0.255625 0.114214
O O2 0.151124 0.059611 0.069336
O O3 0.374188 0.181370 0.948353
O O4 0.142620 0.366668 0.022180
O O5 0.611807 0.740288 0.219618
O O6 0.567570 0.036390 0.172410
O O7 0.864923 0.908837 0.138770
O O8 0.649798 0.161606 0.682323
O O9 0.910884 0.015065 0.599790
O O10 0.940017 0.294381 0.676234
O O11 0.885194 0.036464 0.770220
#
# Coordination Sequence:
#
# PCOD9248688 Si02
#       6
#     4   4   4   4   2   4
#     4  11  24  43  69 100 137 178 233 280 345 411
#     4  11  24  44  69  98 138 180 226 288 342 414
#     4  10  23  43  66  98 136 177 231 281 339 406
#     4  11  25  44  66 102 138 176 228 285 356 398
#     4  10  24  40  66  98 130 180 228 278 332 410
#     4  10  22  43  69  96 130 183 229 276 339 412
#
# _framework density 21.531354
#
# number of rings (size 3 to 8) (size 9 to 14) (size 15 to 20)
#    0.000    1.455    0.000    4.364    7.636    0.727 
#    6.545    0.000    0.000    0.000    0.000    0.000 
#    0.000    0.000    0.000    0.000    0.000    0.000 
#
# Total GULP energy -122591.754809 kJ/mol
# GULP energy per Si atom -5572.352491 kJ/mol
# Density = 2.148235 g / cm^3
# Si number density = 21.531354 Si / 1000 Ang^3
#
#
#
# Elastic Constant Matrix: (Units=GPa)
#
#
# Indices 1 2 3 4 5 6 
#
# 1 65.2394 30.4219 42.9847 0.0000 -3.1760 0.0000
# 2 30.4219 43.8018 26.7694 0.0000 0.9253 0.0000
# 3 42.9847 26.7694 172.0558 0.0000 -22.0997 0.0000
# 4 0.0000 0.0000 0.0000 28.7470 0.0000 8.2224
# 5 -3.1760 0.9253 -22.0997 0.0000 11.7870 0.0000
# 6 0.0000 0.0000 0.0000 8.2224 0.0000 23.6089
#
#
#
# Elastic Compliance Matrix: (Units=1/GPa)
#
#
# Indices 1 2 3 4 5 6 
#
# 1 0.024826 -0.014952 -0.003775 0.000000 0.000785 0.000000
# 2 -0.014952 0.035665 -0.003544 0.000000 -0.013474 0.000000
# 3 -0.003775 -0.003544 0.009499 0.000000 0.017072 0.000000
# 4 0.000000 0.000000 0.000000 0.038635 0.000000 -0.013456
# 5 0.000785 -0.013474 0.017072 0.000000 0.118117 0.000000
# 6 0.000000 0.000000 0.000000 -0.013456 0.000000 0.047043
#
#
# Mechanical properties :
#
#
# Convention : Reuss Voigt Hill
#
# Bulk Modulus (GPa) = 39.29548 53.49436 46.39492
# Shear Modulus (GPa) = 15.29935 24.88996 20.09466
#
# Velocity S-wave (km/s) = 2.66853 3.40367 3.05827
# Velocity P-wave (km/s) = 5.27112 6.35180 5.83653
#
# Compressibility (1/GPa) = 0.02544822
#
# Stress axis : x y z
#
# Youngs Moduli (GPa) = 40.28033 28.03836 105.26965
#
# Poissons Ratio (x) = 0.41923 0.39741
# Poissons Ratio (y) = 0.60227 0.37310
# Poissons Ratio (z) = 0.15206 0.09937
#
# Static dielectric constant tensor:
#      x y z
#    x 1.791100 0.000000 -0.038160 
#    y 0.000000 1.799700 0.000000 
#    z -0.038160 0.000000 1.759230 
# 
# From -- ./inp_files/38817.got.cif
#   From: 2010.05.17/outbox.cif.g08.bks.cpg/sg14_20_cif.got.tgz:38817.got - 2010.06.03 17:49:19.
