data_PCOD9248777
_publ_section_title
;
Structure prediction by ZEFSAII (Michael W. Deem and Ramdas Pophale) SiO2 
 PCOD9248777
Probable space group: P 21/C
;
_chemical_formula_sum "Si O2"
_cell_formula_units_Z 28
_cell_length_a 15.832892
_cell_length_b 8.543637
_cell_length_c 10.578783
_cell_angle_alpha 90.000000
_cell_angle_beta 69.215454
_cell_angle_gamma 90.000000
_cell_volume 1337.869821
_symmetry_space_group_name_H-M "P 21/C"
_symmetry_group_IT_number 14
_symmetry_cell_setting 'monoclinic'
loop_
_space_group_symop_operation_xyz
x,y,z
-x,1/2+y,1/2-z
-x,-y,-z
x,1/2-y,1/2+z
loop_
_atom_site_type_symbol
_atom_site_label
_atom_site_fract_x
_atom_site_fract_y
_atom_site_fract_z
Si Si1 0.895640 0.962520 0.046947
Si Si2 0.760653 0.310777 0.490289
Si Si3 0.481150 0.432282 0.648500
Si Si4 0.237458 0.496035 0.150550
Si Si5 0.297108 0.900692 0.254086
Si Si6 0.610660 0.897086 0.267520
Si Si7 0.779494 0.806296 0.577051
O O1 0.840193 0.989387 0.204933
O O2 0.874230 0.781499 0.032897
O O3 0.841711 0.070870 0.975907
O O4 0.000000 0.000000 0.000000
O O5 0.705485 0.376044 0.396737
O O6 0.720723 0.252401 0.648320
O O7 0.787221 0.144713 0.419142
O O8 0.500000 0.500000 0.500000
O O9 0.392642 0.525642 0.742096
O O10 0.455390 0.247718 0.660620
O O11 0.560650 0.485448 0.699665
O O12 0.340832 0.492879 0.146265
O O13 0.235747 0.349102 0.059438
O O14 0.228548 0.040176 0.330908
O O15 0.698366 0.812010 0.158907
#
# Coordination Sequence:
#
# PCOD9248777 Si02
#       7
#     4   4   4   4   4   4   4
#     4  11  25  41  68 101 129 166 220 274 331 403
#     4  11  23  44  68  96 129 176 223 268 334 396
#     4  11  25  38  62  95 134 174 230 278 326 383
#     4  10  22  44  65  89 134 174 219 268 333 401
#     4  10  24  43  67  96 132 181 222 269 334 396
#     4  10  23  40  60  97 128 176 225 274 329 385
#     4   9  22  44  65  91 131 177 215 267 341 398
#
# _framework density 20.928792999999999
#
# number of rings (size 3 to 8) (size 9 to 14) (size 15 to 20)
#    0.000    1.714    1.429    0.857   14.000    1.143 
#    0.000    4.286    0.000    0.000    0.000    0.000 
#    0.000    0.000    0.000    0.000    0.000    0.000 
#
# Total GULP energy -156097.713437 kJ/mol
# GULP energy per Si atom -5574.918337 kJ/mol
# Density = 2.088116 g / cm^3
# Si number density = 20.928793 Si / 1000 Ang^3
#
#
#
# Elastic Constant Matrix: (Units=GPa)
#
#
# Indices 1 2 3 4 5 6 
#
# 1 67.2028 48.6762 33.9687 0.0000 -1.0815 0.0000
# 2 48.6762 86.8144 32.2190 0.0000 -3.6967 0.0000
# 3 33.9687 32.2190 67.8697 0.0000 14.5463 0.0000
# 4 0.0000 0.0000 0.0000 12.8857 0.0000 13.7260
# 5 -1.0815 -3.6967 14.5463 0.0000 20.2416 0.0000
# 6 0.0000 0.0000 0.0000 13.7260 0.0000 34.4185
#
#
#
# Elastic Compliance Matrix: (Units=1/GPa)
#
#
# Indices 1 2 3 4 5 6 
#
# 1 0.028916 -0.012186 -0.010097 0.000000 0.006576 0.000000
# 2 -0.012186 0.020531 -0.005096 0.000000 0.006761 0.000000
# 3 -0.010097 -0.005096 0.026623 0.000000 -0.020602 0.000000
# 4 0.000000 0.000000 0.000000 0.134920 0.000000 -0.053806
# 5 0.006576 0.006761 -0.020602 0.000000 0.065795 0.000000
# 6 0.000000 0.000000 0.000000 -0.053806 0.000000 0.050512
#
#
# Mechanical properties :
#
#
# Convention : Reuss Voigt Hill
#
# Bulk Modulus (GPa) = 46.92391 50.17942 48.55166
# Shear Modulus (GPa) = 12.84825 20.64402 16.74614
#
# Velocity S-wave (km/s) = 2.48039 3.14410 2.83176
# Velocity P-wave (km/s) = 5.53828 6.09990 5.82586
#
# Compressibility (1/GPa) = 0.02131110
#
# Stress axis : x y z
#
# Youngs Moduli (GPa) = 34.58247 48.70784 37.56214
#
# Poissons Ratio (x) = 0.59355 0.37927
# Poissons Ratio (y) = 0.42142 0.19142
# Poissons Ratio (z) = 0.34918 0.24822
#
# Static dielectric constant tensor:
#      x y z
#    x 1.745770 0.000000 0.032580 
#    y 0.000000 1.808960 0.000000 
#    z 0.032580 0.000000 1.813470 
# 
# From -- ./inp_files/31534.got.cif
#   From: 2010.05.17/outbox.cif.g08.bks.cpg/sg14_16_cif.got.tgz:31534.got - 2010.06.03 17:49:19.
