data_PCOD9248418
_publ_section_title
;
Structure prediction by ZEFSAII (Michael W. Deem and Ramdas Pophale) SiO2 
 PCOD9248418
Probable space group: P 21/C
;
_chemical_formula_sum "Si O2"
_cell_formula_units_Z 24
_cell_length_a 7.292108
_cell_length_b 13.183766
_cell_length_c 11.250941
_cell_angle_alpha 90.000000
_cell_angle_beta 65.968686
_cell_angle_gamma 90.000000
_cell_volume 987.883729
_symmetry_space_group_name_H-M "P 21/C"
_symmetry_group_IT_number 14
_symmetry_cell_setting 'monoclinic'
loop_
_space_group_symop_operation_xyz
x,y,z
-x,1/2+y,1/2-z
-x,-y,-z
x,1/2-y,1/2+z
loop_
_atom_site_type_symbol
_atom_site_label
_atom_site_fract_x
_atom_site_fract_y
_atom_site_fract_z
Si Si1 0.439591 0.734162 0.401905
Si Si2 0.705176 0.911469 0.420581
Si Si3 0.930925 0.236913 0.627759
Si Si4 0.348272 0.600834 0.631655
Si Si5 0.026091 0.449692 0.720236
Si Si6 0.616389 0.565455 0.204446
O O1 0.558873 0.836791 0.388638
O O2 0.201957 0.753842 0.455714
O O3 0.478985 0.659910 0.502523
O O4 0.509063 0.669283 0.269789
O O5 0.610300 0.954577 0.566908
O O6 0.877304 0.834685 0.425934
O O7 0.823870 0.993170 0.310907
O O8 0.778319 0.180571 0.758077
O O9 0.987546 0.347419 0.660305
O O10 0.463278 0.526726 0.692295
O O11 0.179276 0.528189 0.615956
O O12 0.154208 0.427967 0.806981
#
# Coordination Sequence:
#
# PCOD9248418 Si02
#       6
#     4   4   4   4   4   4
#     4  12  24  40  67  99 134 172 215 269 331 385
#     4  11  23  44  69  95 133 173 220 268 322 386
#     4  11  24  41  67  98 131 172 220 269 322 389
#     4   9  23  41  65  93 133 171 219 271 320 390
#     4   9  22  43  68  94 129 176 216 267 325 381
#     4  10  22  42  68  92 131 175 215 273 320 385
#
# _framework density 24.294357000000002
#
# number of rings (size 3 to 8) (size 9 to 14) (size 15 to 20)
#    1.000    0.667    1.667    2.000    2.333    2.000 
#    0.000    4.167    0.000    0.000    0.000    0.000 
#    0.000    0.000    0.000    0.000    0.000    0.000 
#
# Total GULP energy -134291.067486 kJ/mol
# GULP energy per Si atom -5595.461145 kJ/mol
# Density = 2.423906 g / cm^3
# Si number density = 24.294357 Si / 1000 Ang^3
#
#
#
# Elastic Constant Matrix: (Units=GPa)
#
#
# Indices 1 2 3 4 5 6 
#
# 1 82.9143 29.7003 -2.5340 0.0000 10.9404 0.0000
# 2 29.7003 117.7336 13.1458 0.0000 -14.6232 0.0000
# 3 -2.5340 13.1458 52.0458 0.0000 -5.1820 0.0000
# 4 0.0000 0.0000 0.0000 30.0733 0.0000 -13.5657
# 5 10.9404 -14.6232 -5.1820 0.0000 24.0182 0.0000
# 6 0.0000 0.0000 0.0000 -13.5657 0.0000 44.5350
#
#
#
# Elastic Compliance Matrix: (Units=1/GPa)
#
#
# Indices 1 2 3 4 5 6 
#
# 1 0.015259 -0.005197 0.001071 0.000000 -0.009883 0.000000
# 2 -0.005197 0.011127 -0.002201 0.000000 0.008667 0.000000
# 3 0.001071 -0.002201 0.020071 0.000000 0.002503 0.000000
# 4 0.000000 0.000000 0.000000 0.038549 0.000000 0.011742
# 5 -0.009883 0.008667 0.002503 0.000000 0.051954 0.000000
# 6 0.000000 0.000000 0.000000 0.011742 0.000000 0.026031
#
#
# Mechanical properties :
#
#
# Convention : Reuss Voigt Hill
#
# Bulk Modulus (GPa) = 29.58097 37.03532 33.30815
# Shear Modulus (GPa) = 26.75086 33.88407 30.31746
#
# Velocity S-wave (km/s) = 3.32190 3.73866 3.53643
# Velocity P-wave (km/s) = 5.18805 5.82360 5.51499
#
# Compressibility (1/GPa) = 0.03380552
#
# Stress axis : x y z
#
# Youngs Moduli (GPa) = 65.53557 89.87293 49.82317
#
# Poissons Ratio (x) = 0.46702 -0.05338
# Poissons Ratio (y) = 0.34056 0.10964
# Poissons Ratio (z) = -0.07022 0.19777
#
# Static dielectric constant tensor:
#      x y z
#    x 1.975120 0.000000 0.008100 
#    y 0.000000 1.930700 0.000000 
#    z 0.008100 0.000000 1.893990 
# 
# From -- ./inp_files/24058.got.cif
#   From: 2010.05.17/outbox.cif.g08.bks.cpg/sg14_13_cif.got.tgz:24058.got - 2010.06.03 17:49:19.
