data_PCOD9248102
_publ_section_title
;
Structure prediction by ZEFSAII (Michael W. Deem and Ramdas Pophale) SiO2 
 PCOD9248102
Probable space group: P 21/C
;
_chemical_formula_sum "Si O2"
_cell_formula_units_Z 20
_cell_length_a 23.209179
_cell_length_b 4.599427
_cell_length_c 13.876088
_cell_angle_alpha 90.000000
_cell_angle_beta 152.312825
_cell_angle_gamma 90.000000
_cell_volume 688.257172
_symmetry_space_group_name_H-M "P 21/C"
_symmetry_group_IT_number 14
_symmetry_cell_setting 'monoclinic'
loop_
_space_group_symop_operation_xyz
x,y,z
-x,1/2+y,1/2-z
-x,-y,-z
x,1/2-y,1/2+z
loop_
_atom_site_type_symbol
_atom_site_label
_atom_site_fract_x
_atom_site_fract_y
_atom_site_fract_z
Si Si1 0.641592 0.047299 0.750635
Si Si2 0.048850 0.788492 0.261296
Si Si3 0.675876 0.822904 0.603320
Si Si4 0.434312 0.459476 0.246232
Si Si5 0.896172 0.826680 0.288856
O O1 0.714969 0.965214 0.762434
O O2 0.617624 0.858960 0.810804
O O3 0.500000 0.000000 0.500000
O O4 0.647314 0.376463 0.793435
O O5 0.146394 0.549405 0.361219
O O6 0.951472 0.531155 0.152113
O O7 0.051425 0.029763 0.179984
O O8 0.573435 0.571475 0.469822
O O9 0.794706 0.730744 0.719503
O O10 0.606030 0.031686 0.422282
O O11 0.000000 0.000000 0.500000
#
# Coordination Sequence:
#
# PCOD9248102 Si02
#       5
#     4   4   4   4   4
#     4  10  22  41  65 102 147 189 243 295 365 444
#     4   9  21  46  72  95 143 187 241 310 358 444
#     4  11  24  45  73 108 154 196 249 315 365 448
#     4  11  24  42  68 103 145 198 240 296 372 438
#     4  11  24  44  72 110 145 191 250 303 385 448
#
# _framework density 29.058907999999999
#
# number of rings (size 3 to 8) (size 9 to 14) (size 15 to 20)
#    0.000    1.600    0.000    5.400    0.000    9.600 
#   14.400    0.000   17.600    0.000    0.000    0.000 
#    0.000    0.000    0.000    0.000    0.000    0.000 
#
# Total GULP energy -111561.072140 kJ/mol
# GULP energy per Si atom -5578.053607 kJ/mol
# Density = 2.899277 g / cm^3
# Si number density = 29.058908 Si / 1000 Ang^3
#
#
#
# Elastic Constant Matrix: (Units=GPa)
#
#
# Indices 1 2 3 4 5 6 
#
# 1 274.9027 81.2895 54.9835 0.0000 -7.6321 0.0000
# 2 81.2895 151.0436 13.9902 0.0000 -4.9660 0.0000
# 3 54.9835 13.9902 40.3991 0.0000 -12.6652 0.0000
# 4 0.0000 0.0000 0.0000 32.9039 0.0000 -12.6002
# 5 -7.6321 -4.9660 -12.6652 0.0000 59.4827 0.0000
# 6 0.0000 0.0000 0.0000 -12.6002 0.0000 69.4849
#
#
#
# Elastic Compliance Matrix: (Units=1/GPa)
#
#
# Indices 1 2 3 4 5 6 
#
# 1 0.005820 -0.002482 -0.007386 0.000000 -0.001033 0.000000
# 2 -0.002482 0.007899 0.000803 0.000000 0.000512 0.000000
# 3 -0.007386 0.000803 0.036700 0.000000 0.006934 0.000000
# 4 0.000000 0.000000 0.000000 0.032659 0.000000 0.005922
# 5 -0.001033 0.000512 0.006934 0.000000 0.018198 0.000000
# 6 0.000000 0.000000 0.000000 0.005922 0.000000 0.015466
#
#
# Mechanical properties :
#
#
# Convention : Reuss Voigt Hill
#
# Bulk Modulus (GPa) = 30.96862 85.20798 58.08830
# Shear Modulus (GPa) = 34.33246 53.44643 43.88945
#
# Velocity S-wave (km/s) = 3.44099 4.29329 3.89055
# Velocity P-wave (km/s) = 5.14466 7.34593 6.34154
#
# Compressibility (1/GPa) = 0.03229075
#
# Stress axis : x y z
#
# Youngs Moduli (GPa) = 171.81675 126.59966 27.24774
#
# Poissons Ratio (x) = 0.31425 0.20124
# Poissons Ratio (y) = 0.42649 -0.02189
# Poissons Ratio (z) = 1.26896 -0.10171
#
# Static dielectric constant tensor:
#      x y z
#    x 2.293990 0.000000 -0.063170 
#    y 0.000000 2.281330 0.000000 
#    z -0.063170 0.000000 1.820640 
# 
# From -- ./inp_files/33423.got.cif
#   From: 2010.05.17/outbox.cif.g08.bks.cpg/sg14_17_cif.got.tgz:33423.got - 2010.06.03 17:49:19.
