data_PCOD9248497
_publ_section_title
;
Structure prediction by ZEFSAII (Michael W. Deem and Ramdas Pophale) SiO2 
 PCOD9248497
Probable space group: P 21/C
;
_chemical_formula_sum "Si O2"
_cell_formula_units_Z 24
_cell_length_a 7.614692
_cell_length_b 22.666186
_cell_length_c 5.682588
_cell_angle_alpha 90.000000
_cell_angle_beta 66.826435
_cell_angle_gamma 90.000000
_cell_volume 901.658850
_symmetry_space_group_name_H-M "P 21/C"
_symmetry_group_IT_number 14
_symmetry_cell_setting 'monoclinic'
loop_
_space_group_symop_operation_xyz
x,y,z
-x,1/2+y,1/2-z
-x,-y,-z
x,1/2-y,1/2+z
loop_
_atom_site_type_symbol
_atom_site_label
_atom_site_fract_x
_atom_site_fract_y
_atom_site_fract_z
Si Si1 0.091666 0.237228 0.937250
Si Si2 0.249762 0.389735 0.445243
Si Si3 0.310235 0.512892 0.244543
Si Si4 0.654545 0.391272 0.423549
Si Si5 0.520190 0.220433 0.235429
Si Si6 0.027663 0.568511 0.053214
O O1 0.994230 0.252595 0.741640
O O2 0.287834 0.275966 0.847521
O O3 0.155987 0.169173 0.900805
O O4 0.477453 0.381996 0.339640
O O5 0.208942 0.449788 0.326801
O O6 0.165386 0.403331 0.748704
O O7 0.360717 0.543057 0.463821
O O8 0.500000 0.500000 0.000000
O O9 0.174299 0.559969 0.192014
O O10 0.613208 0.343117 0.644196
O O11 0.858860 0.391428 0.191092
O O12 0.571084 0.245160 0.465574
O O13 0.000000 0.500000 0.000000
#
# Coordination Sequence:
#
# PCOD9248497 Si02
#       6
#     4   4   4   4   4   4
#     4  10  22  42  71 104 140 192 246 297 365 437
#     4  12  24  46  73 103 143 192 238 310 365 443
#     4  12  26  42  74 107 141 191 243 298 385 440
#     4  12  25  46  73 102 143 193 241 304 370 440
#     4  10  22  42  72 104 142 189 247 302 361 438
#     4  12  27  47  66 109 148 185 246 303 371 450
#
# _framework density 26.617608000000001
#
# number of rings (size 3 to 8) (size 9 to 14) (size 15 to 20)
#    0.000    0.667    6.667    2.000    7.000    1.333 
#    0.000    1.667    0.000    0.000    0.000    0.000 
#    0.000    0.000    0.000    0.000    0.000    0.000 
#
# Total GULP energy -134500.303524 kJ/mol
# GULP energy per Si atom -5604.179313 kJ/mol
# Density = 2.655703 g / cm^3
# Si number density = 26.617608 Si / 1000 Ang^3
#
#
#
# Elastic Constant Matrix: (Units=GPa)
#
#
# Indices 1 2 3 4 5 6 
#
# 1 72.4061 2.8788 30.6060 0.0000 -17.2476 0.0000
# 2 2.8788 120.0984 24.8793 0.0000 10.6039 0.0000
# 3 30.6060 24.8793 141.3617 0.0000 0.4683 0.0000
# 4 0.0000 0.0000 0.0000 57.2098 0.0000 3.5357
# 5 -17.2476 10.6039 0.4683 0.0000 45.3497 0.0000
# 6 0.0000 0.0000 0.0000 3.5357 0.0000 11.5458
#
#
#
# Elastic Compliance Matrix: (Units=1/GPa)
#
#
# Indices 1 2 3 4 5 6 
#
# 1 0.016914 -0.000227 -0.003644 0.000000 0.006523 0.000000
# 2 -0.000227 0.008831 -0.001498 0.000000 -0.002136 0.000000
# 3 -0.003644 -0.001498 0.008130 0.000000 -0.001119 0.000000
# 4 0.000000 0.000000 0.000000 0.017817 0.000000 -0.005456
# 5 0.006523 -0.002136 -0.001119 0.000000 0.025043 0.000000
# 6 0.000000 0.000000 0.000000 -0.005456 0.000000 0.088282
#
#
# Mechanical properties :
#
#
# Convention : Reuss Voigt Hill
#
# Bulk Modulus (GPa) = 43.21814 50.06603 46.64209
# Shear Modulus (GPa) = 27.25291 41.18787 34.22039
#
# Velocity S-wave (km/s) = 3.20326 3.93796 3.58946
# Velocity P-wave (km/s) = 5.47295 6.28704 5.89407
#
# Compressibility (1/GPa) = 0.02313843
#
# Stress axis : x y z
#
# Youngs Moduli (GPa) = 59.12209 113.23966 122.99628
#
# Poissons Ratio (x) = 0.02566 0.44817
# Poissons Ratio (y) = 0.01340 0.18426
# Poissons Ratio (z) = 0.21543 0.16964
#
# Static dielectric constant tensor:
#      x y z
#    x 2.064640 0.000000 0.068600 
#    y 0.000000 2.064500 0.000000 
#    z 0.068600 0.000000 2.180710 
# 
# From -- ./inp_files/1596.got.cif
#   From: 2010.05.17/outbox.cif.g08.bks.cpg/sg14_1_cif.got.tgz:1596.got - 2010.06.03 17:49:19.
