data_PCOD9248843
_publ_section_title
;
Structure prediction by ZEFSAII (Michael W. Deem and Ramdas Pophale) SiO2 
 PCOD9248843
Probable space group: P 21/C
;
_chemical_formula_sum "Si O2"
_cell_formula_units_Z 28
_cell_length_a 8.860602
_cell_length_b 8.605332
_cell_length_c 21.532773
_cell_angle_alpha 90.000000
_cell_angle_beta 133.736696
_cell_angle_gamma 90.000000
_cell_volume 1186.269615
_symmetry_space_group_name_H-M "P 21/C"
_symmetry_group_IT_number 14
_symmetry_cell_setting 'monoclinic'
loop_
_space_group_symop_operation_xyz
x,y,z
-x,1/2+y,1/2-z
-x,-y,-z
x,1/2-y,1/2+z
loop_
_atom_site_type_symbol
_atom_site_label
_atom_site_fract_x
_atom_site_fract_y
_atom_site_fract_z
Si Si1 0.300137 0.352309 0.579685
Si Si2 0.619798 0.662924 0.085710
Si Si3 0.753712 0.957209 0.356801
Si Si4 0.008734 0.267661 0.902049
Si Si5 0.717513 0.486900 0.300095
Si Si6 0.650003 0.304212 0.103412
Si Si7 0.134063 0.275289 0.230690
O O1 0.238189 0.196443 0.599849
O O2 0.297386 0.485216 0.630121
O O3 0.519154 0.312579 0.609020
O O4 0.129727 0.361692 0.476893
O O5 0.582112 0.484258 0.094769
O O6 0.700609 0.762450 0.166497
O O7 0.817071 0.664613 0.094367
O O8 0.423907 0.722657 0.989401
O O9 0.515350 0.010738 0.290521
O O10 0.805514 0.907346 0.300932
O O11 0.910525 0.096055 0.415285
O O12 0.814684 0.181081 0.814990
O O13 0.855147 0.614458 0.304559
O O14 0.895899 0.295343 0.183769
#
# Coordination Sequence:
#
# PCOD9248843 Si02
#       7
#     4   4   4   4   4   4   4
#     4  10  23  42  65  94 125 168 215 274 319 380
#     4  10  23  40  69 100 125 175 217 274 322 389
#     4  11  23  42  65  95 122 173 218 256 323 390
#     4  11  22  42  65  92 131 169 215 266 322 393
#     4  11  25  42  61  97 132 168 213 265 333 382
#     4  10  22  44  68  96 130 169 228 260 327 399
#     4  11  24  42  68  97 130 170 214 276 320 385
#
# _framework density 23.603404000000001
#
# number of rings (size 3 to 8) (size 9 to 14) (size 15 to 20)
#    0.000    1.429    1.429    3.429    6.000    0.000 
#   12.857    1.429    0.000    0.000    0.000    0.000 
#    0.000    0.000    0.000    0.000    0.000    0.000 
#
# Total GULP energy -156636.758754 kJ/mol
# GULP energy per Si atom -5594.169956 kJ/mol
# Density = 2.354968 g / cm^3
# Si number density = 23.603404 Si / 1000 Ang^3
#
#
#
# Elastic Constant Matrix: (Units=GPa)
#
#
# Indices 1 2 3 4 5 6 
#
# 1 69.7608 7.8907 16.7867 0.0000 -0.1044 0.0000
# 2 7.8907 34.1923 -3.3947 0.0000 5.8445 0.0000
# 3 16.7867 -3.3947 95.1890 0.0000 -10.3534 0.0000
# 4 0.0000 0.0000 0.0000 32.3957 0.0000 5.0593
# 5 -0.1044 5.8445 -10.3534 0.0000 20.1015 0.0000
# 6 0.0000 0.0000 0.0000 5.0593 0.0000 32.3951
#
#
#
# Elastic Compliance Matrix: (Units=1/GPa)
#
#
# Indices 1 2 3 4 5 6 
#
# 1 0.015461 -0.003803 -0.002895 0.000000 -0.000305 0.000000
# 2 -0.003803 0.031713 0.000844 0.000000 -0.008806 0.000000
# 3 -0.002895 0.000844 0.011672 0.000000 0.005751 0.000000
# 4 0.000000 0.000000 0.000000 0.031640 0.000000 -0.004941
# 5 -0.000305 -0.008806 0.005751 0.000000 0.055268 0.000000
# 6 0.000000 0.000000 0.000000 -0.004941 0.000000 0.031641
#
#
# Mechanical properties :
#
#
# Convention : Reuss Voigt Hill
#
# Bulk Modulus (GPa) = 21.21513 26.85640 24.03576
# Shear Modulus (GPa) = 24.41210 28.83575 26.62393
#
# Velocity S-wave (km/s) = 3.21948 3.49904 3.36217
# Velocity P-wave (km/s) = 4.77784 5.26567 5.02768
#
# Compressibility (1/GPa) = 0.04713617
#
# Stress axis : x y z
#
# Youngs Moduli (GPa) = 64.67812 31.53278 85.67763
#
# Poissons Ratio (x) = 0.11993 0.24807
# Poissons Ratio (y) = 0.24599 -0.07231
# Poissons Ratio (z) = 0.18727 -0.02661
#
# Static dielectric constant tensor:
#      x y z
#    x 1.854470 0.000000 -0.027710 
#    y 0.000000 1.860460 0.000000 
#    z -0.027710 0.000000 1.929600 
# 
# From -- ./inp_files/65039.got.cif
#   From: 2010.05.17/outbox.cif.g08.bks.cpg/sg14_33_cif.got.tgz:65039.got - 2010.06.03 17:49:19.
