data_PCOD9248799
_publ_section_title
;
Structure prediction by ZEFSAII (Michael W. Deem and Ramdas Pophale) SiO2 
 PCOD9248799
Probable space group: P 21/C
;
_chemical_formula_sum "Si O2"
_cell_formula_units_Z 20
_cell_length_a 10.724156
_cell_length_b 11.693459
_cell_length_c 12.636830
_cell_angle_alpha 90.000000
_cell_angle_beta 145.059800
_cell_angle_gamma 90.000000
_cell_volume 907.585397
_symmetry_space_group_name_H-M "P 21/C"
_symmetry_group_IT_number 14
_symmetry_cell_setting 'monoclinic'
loop_
_space_group_symop_operation_xyz
x,y,z
-x,1/2+y,1/2-z
-x,-y,-z
x,1/2-y,1/2+z
loop_
_atom_site_type_symbol
_atom_site_label
_atom_site_fract_x
_atom_site_fract_y
_atom_site_fract_z
Si Si1 0.798557 0.993365 0.280767
Si Si2 0.294197 0.257432 0.395970
Si Si3 0.622476 0.104314 0.528662
Si Si4 0.030578 0.953607 0.822280
Si Si5 0.411163 0.086547 0.154819
O O1 0.762687 0.863691 0.217824
O O2 0.586933 0.038775 0.193655
O O3 0.000000 0.000000 0.500000
O O4 0.857892 0.060391 0.214621
O O5 0.533410 0.211880 0.530724
O O6 0.116907 0.156745 0.257059
O O7 0.306830 0.303310 0.524815
O O8 0.531596 0.113738 0.346817
O O9 0.500000 0.000000 0.500000
O O10 0.870429 0.063760 0.701158
O O11 0.221611 0.990996 0.035186
#
# Coordination Sequence:
#
# PCOD9248799 Si02
#       5
#     4   4   4   4   4
#     4  11  23  43  64  94 132 169 218 268 318 396
#     4  10  24  41  66  99 127 175 215 264 339 381
#     4  10  23  43  64  98 130 164 223 264 320 392
#     4  10  22  44  66  98 129 170 223 269 321 397
#     4  11  24  43  67  91 137 170 211 281 318 385
#
# _framework density 22.036494000000001
#
# number of rings (size 3 to 8) (size 9 to 14) (size 15 to 20)
#    0.000    1.600    2.000    2.400    2.800    9.600 
#    7.200    0.000    0.000    0.000    0.000    0.000 
#    0.000    0.000    0.000    0.000    0.000    0.000 
#
# Total GULP energy -111791.379285 kJ/mol
# GULP energy per Si atom -5589.568964 kJ/mol
# Density = 2.198634 g / cm^3
# Si number density = 22.036494 Si / 1000 Ang^3
#
#
#
# Elastic Constant Matrix: (Units=GPa)
#
#
# Indices 1 2 3 4 5 6 
#
# 1 66.0773 19.8511 1.3127 0.0000 14.9012 0.0000
# 2 19.8511 89.7139 11.9459 0.0000 9.3220 0.0000
# 3 1.3127 11.9459 79.4190 0.0000 18.6827 0.0000
# 4 0.0000 0.0000 0.0000 11.9532 0.0000 12.4661
# 5 14.9012 9.3220 18.6827 0.0000 35.5766 0.0000
# 6 0.0000 0.0000 0.0000 12.4661 0.0000 35.0728
#
#
#
# Elastic Compliance Matrix: (Units=1/GPa)
#
#
# Indices 1 2 3 4 5 6 
#
# 1 0.017844 -0.003423 0.002016 0.000000 -0.007636 0.000000
# 2 -0.003423 0.012210 -0.001557 0.000000 -0.000948 0.000000
# 3 0.002016 -0.001557 0.014713 0.000000 -0.008163 0.000000
# 4 0.000000 0.000000 0.000000 0.132937 0.000000 -0.047251
# 5 -0.007636 -0.000948 -0.008163 0.000000 0.035841 0.000000
# 6 0.000000 0.000000 0.000000 -0.047251 0.000000 0.045307
#
#
# Mechanical properties :
#
#
# Convention : Reuss Voigt Hill
#
# Bulk Modulus (GPa) = 25.74786 33.49214 29.62000
# Shear Modulus (GPa) = 18.00332 29.99391 23.99862
#
# Velocity S-wave (km/s) = 2.86138 3.69331 3.30364
# Velocity P-wave (km/s) = 4.75670 5.78091 5.29364
#
# Compressibility (1/GPa) = 0.03883817
#
# Stress axis : x y z
#
# Youngs Moduli (GPa) = 56.04068 81.90100 67.96926
#
# Poissons Ratio (x) = 0.28038 -0.13704
# Poissons Ratio (y) = 0.19185 0.10583
# Poissons Ratio (z) = -0.11299 0.12752
#
# Static dielectric constant tensor:
#      x y z
#    x 1.817490 0.000000 0.033350 
#    y 0.000000 1.815020 0.000000 
#    z 0.033350 0.000000 1.822670 
# 
# From -- ./inp_files/39155.got.cif
#   From: 2010.05.17/outbox.cif.g08.bks.cpg/sg14_20_cif.got.tgz:39155.got - 2010.06.03 17:49:19.
