data_PCOD9248753
_publ_section_title
;
Structure prediction by ZEFSAII (Michael W. Deem and Ramdas Pophale) SiO2 
 PCOD9248753
Probable space group: P 21/C
;
_chemical_formula_sum "Si O2"
_cell_formula_units_Z 24
_cell_length_a 9.740041
_cell_length_b 9.162721
_cell_length_c 13.345463
_cell_angle_alpha 90.000000
_cell_angle_beta 44.595878
_cell_angle_gamma 90.000000
_cell_volume 836.217007
_symmetry_space_group_name_H-M "P 21/C"
_symmetry_group_IT_number 14
_symmetry_cell_setting 'monoclinic'
loop_
_space_group_symop_operation_xyz
x,y,z
-x,1/2+y,1/2-z
-x,-y,-z
x,1/2-y,1/2+z
loop_
_atom_site_type_symbol
_atom_site_label
_atom_site_fract_x
_atom_site_fract_y
_atom_site_fract_z
Si Si1 0.291347 0.441437 0.363334
Si Si2 0.187200 0.067817 0.499533
Si Si3 0.586501 0.574622 0.319713
Si Si4 0.788111 0.699720 0.802322
Si Si5 0.888480 0.202629 0.141121
Si Si6 0.218006 0.741131 0.078614
O O1 0.475213 0.428328 0.342559
O O2 0.315200 0.375720 0.239244
O O3 0.251825 0.614388 0.360637
O O4 0.097273 0.376975 0.514286
O O5 0.316349 0.113715 0.337968
O O6 0.263390 0.140909 0.562741
O O7 0.966345 0.129810 0.595436
O O8 0.206449 0.897438 0.512044
O O9 0.755384 0.625601 0.308330
O O10 0.409393 0.663744 0.463857
O O11 0.017288 0.670495 0.668168
O O12 0.801511 0.185906 0.296862
#
# Coordination Sequence:
#
# PCOD9248753 Si02
#       6
#     4   4   4   4   4   4
#     4  11  22  46  73 100 142 196 238 305 350 439
#     4  11  25  45  72 108 146 184 248 300 360 432
#     4  12  27  42  73 109 143 190 247 293 366 425
#     4  11  25  51  72 109 145 192 245 297 368 436
#     4  10  22  43  75 101 137 195 242 291 365 426
#     4  11  25  46  74 104 145 193 241 300 363 432
#
# _framework density 28.700683999999999
#
# number of rings (size 3 to 8) (size 9 to 14) (size 15 to 20)
#    0.000    1.000    3.333    3.000    4.667    2.000 
#    3.000    3.333    0.000    0.000    0.000    0.000 
#    0.000    0.000    0.000    0.000    0.000    0.000 
#
# Total GULP energy -134355.909077 kJ/mol
# GULP energy per Si atom -5598.162878 kJ/mol
# Density = 2.863536 g / cm^3
# Si number density = 28.700684 Si / 1000 Ang^3
#
#
#
# Elastic Constant Matrix: (Units=GPa)
#
#
# Indices 1 2 3 4 5 6 
#
# 1 65.9580 -9.7085 29.0856 0.0000 18.6111 0.0000
# 2 -9.7085 81.3988 4.0248 0.0000 9.5891 0.0000
# 3 29.0856 4.0248 150.0736 0.0000 24.2855 0.0000
# 4 0.0000 0.0000 0.0000 48.0824 0.0000 4.1149
# 5 18.6111 9.5891 24.2855 0.0000 56.2561 0.0000
# 6 0.0000 0.0000 0.0000 4.1149 0.0000 56.5162
#
#
#
# Elastic Compliance Matrix: (Units=1/GPa)
#
#
# Indices 1 2 3 4 5 6 
#
# 1 0.018331 0.002956 -0.002762 0.000000 -0.005376 0.000000
# 2 0.002956 0.013014 -0.000435 0.000000 -0.003008 0.000000
# 3 -0.002762 -0.000435 0.007580 0.000000 -0.002284 0.000000
# 4 0.000000 0.000000 0.000000 0.020928 0.000000 -0.001524
# 5 -0.005376 -0.003008 -0.002284 0.000000 0.021053 0.000000
# 6 0.000000 0.000000 0.000000 -0.001524 0.000000 0.017805
#
#
# Mechanical properties :
#
#
# Convention : Reuss Voigt Hill
#
# Bulk Modulus (GPa) = 26.01247 38.24823 32.13035
# Shear Modulus (GPa) = 44.63988 50.43953 47.53970
#
# Velocity S-wave (km/s) = 3.94808 4.19672 4.07430
# Velocity P-wave (km/s) = 5.46500 6.06950 5.77516
#
# Compressibility (1/GPa) = 0.03844311
#
# Stress axis : x y z
#
# Youngs Moduli (GPa) = 54.55177 76.84208 131.92538
#
# Poissons Ratio (x) = -0.22717 0.36439
# Poissons Ratio (y) = -0.16127 0.05740
# Poissons Ratio (z) = 0.15068 0.03344
#
# Static dielectric constant tensor:
#      x y z
#    x 2.216010 0.000000 -0.016770 
#    y 0.000000 2.475070 0.000000 
#    z -0.016770 0.000000 2.128150 
# 
# From -- ./inp_files/44278.got.cif
#   From: 2010.05.17/outbox.cif.g08.bks.cpg/sg14_23_cif.got.tgz:44278.got - 2010.06.03 17:49:19.
