data_PCOD9248337
_publ_section_title
;
Structure prediction by ZEFSAII (Michael W. Deem and Ramdas Pophale) SiO2 
 PCOD9248337
Probable space group: P 21/C
;
_chemical_formula_sum "Si O2"
_cell_formula_units_Z 30
_cell_length_a 6.504854
_cell_length_b 15.060606
_cell_length_c 16.590478
_cell_angle_alpha 90.000000
_cell_angle_beta 62.232870
_cell_angle_gamma 90.000000
_cell_volume 1438.161853
_symmetry_space_group_name_H-M "P 21/C"
_symmetry_group_IT_number 14
_symmetry_cell_setting 'monoclinic'
loop_
_space_group_symop_operation_xyz
x,y,z
-x,1/2+y,1/2-z
-x,-y,-z
x,1/2-y,1/2+z
loop_
_atom_site_type_symbol
_atom_site_label
_atom_site_fract_x
_atom_site_fract_y
_atom_site_fract_z
Si Si1 0.000000 0.000000 0.000000
Si Si2 0.517353 0.836341 0.535507
Si Si3 0.130126 0.206413 0.973983
Si Si4 0.283336 0.659270 0.911738
Si Si5 0.973914 0.357987 0.797789
Si Si6 0.266574 0.464070 0.874130
Si Si7 0.723229 0.698331 0.738855
Si Si8 0.776523 0.001161 0.215764
O O1 0.935679 0.894183 0.997718
O O2 0.159845 0.999587 0.888839
O O3 0.666960 0.746917 0.508258
O O4 0.449321 0.861451 0.457703
O O5 0.660120 0.910730 0.558802
O O6 0.276581 0.823151 0.627529
O O7 0.225459 0.214127 0.864961
O O8 0.906954 0.269274 0.027810
O O9 0.180787 0.563866 0.906099
O O10 0.452411 0.697481 0.811580
O O11 0.089000 0.408862 0.852529
O O12 0.137803 0.276662 0.743016
O O13 0.931773 0.429185 0.735863
O O14 0.508173 0.474903 0.780828
O O15 0.812899 0.599232 0.741521
#
# Coordination Sequence:
#
# PCOD9248337 Si02
#       8
#     2   4   4   4   4   4   4   4
#     4  10  24  46  64  92 138 174 236 272 316 404
#     4  11  22  41  67  98 131 166 212 272 339 388
#     4  11  24  45  64  95 132 178 217 278 328 391
#     4  11  24  40  68  98 129 172 220 269 337 397
#     4  11  22  43  69  96 131 175 215 272 342 393
#     4  10  22  42  66 100 134 166 214 278 339 402
#     4  10  22  46  61  93 139 162 226 272 317 407
#     4   9  23  43  65  96 132 176 218 279 330 392
#
# _framework density 20.859960000000001
#
# number of rings (size 3 to 8) (size 9 to 14) (size 15 to 20)
#    0.000    1.600    2.667    0.400    3.733    5.333 
#    7.200    1.333    0.000    0.000    0.000    0.000 
#    0.000    0.000    0.000    0.000    0.000    0.000 
#
# Total GULP energy -167188.975843 kJ/mol
# GULP energy per Si atom -5572.965861 kJ/mol
# Density = 2.081248 g / cm^3
# Si number density = 20.859960 Si / 1000 Ang^3
#
#
#
# Elastic Constant Matrix: (Units=GPa)
#
#
# Indices 1 2 3 4 5 6 
#
# 1 66.3450 41.3202 27.2023 0.0000 -21.0896 0.0000
# 2 41.3202 131.9856 59.6618 0.0000 -28.7910 0.0000
# 3 27.2023 59.6618 98.3446 0.0000 -16.2013 0.0000
# 4 0.0000 0.0000 0.0000 36.3108 0.0000 0.0963
# 5 -21.0896 -28.7910 -16.2013 0.0000 13.8780 0.0000
# 6 0.0000 0.0000 0.0000 0.0963 0.0000 17.2028
#
#
#
# Elastic Compliance Matrix: (Units=1/GPa)
#
#
# Indices 1 2 3 4 5 6 
#
# 1 0.029374 0.001512 -0.001451 0.000000 0.046080 0.000000
# 2 0.001512 0.015773 -0.005222 0.000000 0.028923 0.000000
# 3 -0.001451 -0.005222 0.014349 0.000000 0.003713 0.000000
# 4 0.000000 0.000000 0.000000 0.027540 0.000000 -0.000154
# 5 0.046080 0.028923 0.003713 0.000000 0.206420 0.000000
# 6 0.000000 0.000000 0.000000 -0.000154 0.000000 0.058131
#
#
# Mechanical properties :
#
#
# Convention : Reuss Voigt Hill
#
# Bulk Modulus (GPa) = 20.33596 61.44932 40.89264
# Shear Modulus (GPa) = 13.21694 24.71106 18.96400
#
# Velocity S-wave (km/s) = 2.51988 3.44556 3.01842
# Velocity P-wave (km/s) = 4.27040 6.73433 5.63859
#
# Compressibility (1/GPa) = 0.04917398
#
# Stress axis : x y z
#
# Youngs Moduli (GPa) = 34.04367 63.39837 69.68912
#
# Poissons Ratio (x) = -0.09583 0.10110
# Poissons Ratio (y) = -0.05146 0.36394
# Poissons Ratio (z) = 0.04939 0.33109
#
# Static dielectric constant tensor:
#      x y z
#    x 1.734970 0.000000 0.003500 
#    y 0.000000 1.747470 0.000000 
#    z 0.003500 0.000000 1.760250 
# 
# From -- ./inp_files/53343.got.cif
#   From: 2010.05.17/outbox.cif.g08.bks.cpg/sg14_27_cif.got.tgz:53343.got - 2010.06.03 17:49:19.
