data_PCOD9248091
_publ_section_title
;
Structure prediction by ZEFSAII (Michael W. Deem and Ramdas Pophale) SiO2 
 PCOD9248091
Probable space group: P 21/C
;
_chemical_formula_sum "Si O2"
_cell_formula_units_Z 20
_cell_length_a 10.409283
_cell_length_b 9.366319
_cell_length_c 13.130789
_cell_angle_alpha 90.000000
_cell_angle_beta 36.092361
_cell_angle_gamma 90.000000
_cell_volume 754.156053
_symmetry_space_group_name_H-M "P 21/C"
_symmetry_group_IT_number 14
_symmetry_cell_setting 'monoclinic'
loop_
_space_group_symop_operation_xyz
x,y,z
-x,1/2+y,1/2-z
-x,-y,-z
x,1/2-y,1/2+z
loop_
_atom_site_type_symbol
_atom_site_label
_atom_site_fract_x
_atom_site_fract_y
_atom_site_fract_z
Si Si1 0.417514 0.831494 0.475346
Si Si2 0.879127 0.599102 0.892453
Si Si3 0.728107 0.174980 0.735225
Si Si4 0.313597 0.363346 0.374241
Si Si5 0.113341 0.648160 0.549765
O O1 0.390045 0.782073 0.608705
O O2 0.640152 0.874135 0.276083
O O3 0.337840 0.697396 0.460368
O O4 0.251765 0.959806 0.555797
O O5 0.108331 0.574510 0.805309
O O6 0.941292 0.680461 0.748334
O O7 0.747616 0.707152 0.047449
O O8 0.539829 0.102359 0.789290
O O9 0.877054 0.264040 0.560508
O O10 0.135531 0.480087 0.518434
#
# Coordination Sequence:
#
# PCOD9248091 Si02
#       5
#     4   4   4   4   4
#     4  10  22  41  64  96 130 167 218 263 318 392
#     4  11  24  42  66  98 131 169 222 268 319 396
#     4  10  24  44  70  96 134 176 208 274 336 370
#     4  11  24  42  66  98 131 169 222 268 319 396
#     4  10  22  41  64  96 130 167 218 263 318 392
#
# _framework density 26.519712999999999
#
# number of rings (size 3 to 8) (size 9 to 14) (size 15 to 20)
#    0.000    1.600    0.000    4.800    0.000   14.400 
#    0.000    0.000    0.000    0.000    0.000    0.000 
#    0.000    0.000    0.000    0.000    0.000    0.000 
#
# Total GULP energy -111986.918827 kJ/mol
# GULP energy per Si atom -5599.345941 kJ/mol
# Density = 2.645935 g / cm^3
# Si number density = 26.519713 Si / 1000 Ang^3
#
#
#
# Elastic Constant Matrix: (Units=GPa)
#
#
# Indices 1 2 3 4 5 6 
#
# 1 142.8703 1.7696 16.8915 0.0000 17.6207 0.0000
# 2 1.7696 82.6644 19.0152 0.0000 10.4050 0.0000
# 3 16.8915 19.0152 155.5443 0.0000 47.9651 0.0000
# 4 0.0000 0.0000 0.0000 45.7700 0.0000 -6.0389
# 5 17.6207 10.4050 47.9651 0.0000 47.6812 0.0000
# 6 0.0000 0.0000 0.0000 -6.0389 0.0000 39.1665
#
#
#
# Elastic Compliance Matrix: (Units=1/GPa)
#
#
# Indices 1 2 3 4 5 6 
#
# 1 0.007337 0.000185 0.000042 0.000000 -0.002794 0.000000
# 2 0.000185 0.012550 -0.000998 0.000000 -0.001803 0.000000
# 3 0.000042 -0.000998 0.009400 0.000000 -0.009254 0.000000
# 4 0.000000 0.000000 0.000000 0.022302 0.000000 0.003439
# 5 -0.002794 -0.001803 -0.009254 0.000000 0.031708 0.000000
# 6 0.000000 0.000000 0.000000 0.003439 0.000000 0.026062
#
#
# Mechanical properties :
#
#
# Convention : Reuss Voigt Hill
#
# Bulk Modulus (GPa) = 36.04371 50.71463 43.37917
# Shear Modulus (GPa) = 41.61511 49.41706 45.51609
#
# Velocity S-wave (km/s) = 3.96563 4.32140 4.14733
# Velocity P-wave (km/s) = 5.88125 6.63809 6.27110
#
# Compressibility (1/GPa) = 0.02774409
#
# Stress axis : x y z
#
# Youngs Moduli (GPa) = 136.30141 79.68319 106.38190
#
# Poissons Ratio (x) = -0.01474 -0.00450
# Poissons Ratio (y) = -0.02521 0.10621
# Poissons Ratio (z) = -0.00577 0.07956
#
# Static dielectric constant tensor:
#      x y z
#    x 2.136980 0.000000 -0.060750 
#    y 0.000000 1.980390 0.000000 
#    z -0.060750 0.000000 2.095240 
# 
# From -- ./inp_files/43912.got.cif
#   From: 2010.05.17/outbox.cif.g08.bks.cpg/sg14_22_cif.got.tgz:43912.got - 2010.06.03 17:49:19.
