data_PCOD9248780
_publ_section_title
;
Structure prediction by ZEFSAII (Michael W. Deem and Ramdas Pophale) SiO2 
 PCOD9248780
Probable space group: P 21/C
;
_chemical_formula_sum "Si O2"
_cell_formula_units_Z 32
_cell_length_a 11.947000
_cell_length_b 14.263352
_cell_length_c 26.483797
_cell_angle_alpha 90.000000
_cell_angle_beta 159.066243
_cell_angle_gamma 90.000000
_cell_volume 1612.425143
_symmetry_space_group_name_H-M "P 21/C"
_symmetry_group_IT_number 14
_symmetry_cell_setting 'monoclinic'
loop_
_space_group_symop_operation_xyz
x,y,z
-x,1/2+y,1/2-z
-x,-y,-z
x,1/2-y,1/2+z
loop_
_atom_site_type_symbol
_atom_site_label
_atom_site_fract_x
_atom_site_fract_y
_atom_site_fract_z
Si Si1 0.676008 0.508419 0.391161
Si Si2 0.118976 0.684258 0.939304
Si Si3 0.556188 0.858329 0.132449
Si Si4 0.791607 0.579041 0.886413
Si Si5 0.258176 0.524581 0.355166
Si Si6 0.335511 0.334182 0.537766
Si Si7 0.369499 0.641970 0.802946
Si Si8 0.425501 0.476626 0.909634
O O1 0.657236 0.435537 0.429408
O O2 0.401415 0.475055 0.238554
O O3 0.664101 0.612141 0.408485
O O4 0.000000 0.500000 0.500000
O O5 0.800491 0.689337 0.773306
O O6 0.004059 0.657857 0.947802
O O7 0.325300 0.776815 0.017490
O O8 0.324944 0.597231 0.006105
O O9 0.762700 0.924562 0.182781
O O10 0.557251 0.617757 0.830467
O O11 0.000000 0.500000 0.000000
O O12 0.500000 0.500000 0.500000
O O13 0.413314 0.605623 0.387635
O O14 0.929545 0.559722 0.237526
O O15 0.465403 0.231435 0.602238
O O16 0.994204 0.340668 0.366888
O O17 0.406743 0.561044 0.861013
O O18 0.500000 0.500000 0.000000
#
# Coordination Sequence:
#
# PCOD9248780 Si02
#       8
#     4   4   4   4   4   4   4   4
#     4  10  22  44  65  94 137 184 221 275 331 399
#     4  11  25  43  67 101 135 177 220 281 331 404
#     4  10  25  41  65 100 133 171 229 270 340 394
#     4  11  24  43  70  99 140 181 224 275 338 402
#     4  11  24  46  69  95 133 180 229 282 338 400
#     4  11  27  44  68 103 140 176 231 286 342 408
#     4  12  27  44  70 107 136 182 230 278 349 410
#     4  12  26  47  70  97 138 179 228 284 341 401
#
# _framework density 19.845882
#
# number of rings (size 3 to 8) (size 9 to 14) (size 15 to 20)
#    0.000    1.000    5.000    0.000    7.000    3.000 
#    0.000    0.000    0.000    0.000    0.000    0.000 
#    0.000    0.000    0.000    0.000    0.000    0.000 
#
# Total GULP energy -178591.289583 kJ/mol
# GULP energy per Si atom -5580.977799 kJ/mol
# Density = 1.980071 g / cm^3
# Si number density = 19.845882 Si / 1000 Ang^3
#
#
#
# Elastic Constant Matrix: (Units=GPa)
#
#
# Indices 1 2 3 4 5 6 
#
# 1 86.5249 17.4404 12.8485 0.0000 11.6572 0.0000
# 2 17.4404 84.5282 27.0689 0.0000 1.5695 0.0000
# 3 12.8485 27.0689 77.6013 0.0000 11.8336 0.0000
# 4 0.0000 0.0000 0.0000 33.0808 0.0000 -4.3043
# 5 11.6572 1.5695 11.8336 0.0000 38.5739 0.0000
# 6 0.0000 0.0000 0.0000 -4.3043 0.0000 10.6052
#
#
#
# Elastic Compliance Matrix: (Units=1/GPa)
#
#
# Indices 1 2 3 4 5 6 
#
# 1 0.012601 -0.002293 -0.000755 0.000000 -0.003483 0.000000
# 2 -0.002293 0.013767 -0.004661 0.000000 0.001563 0.000000
# 3 -0.000755 -0.004661 0.015289 0.000000 -0.004272 0.000000
# 4 0.000000 0.000000 0.000000 0.031914 0.000000 0.012953
# 5 -0.003483 0.001563 -0.004272 0.000000 0.028224 0.000000
# 6 0.000000 0.000000 0.000000 0.012953 0.000000 0.099550
#
#
# Mechanical properties :
#
#
# Convention : Reuss Voigt Hill
#
# Bulk Modulus (GPa) = 38.11277 40.37446 39.24361
# Shear Modulus (GPa) = 22.17191 29.20508 25.68850
#
# Velocity S-wave (km/s) = 3.34609 3.84030 3.60168
# Velocity P-wave (km/s) = 5.84589 6.32867 6.09206
#
# Compressibility (1/GPa) = 0.02623793
#
# Stress axis : x y z
#
# Youngs Moduli (GPa) = 79.35848 72.63686 65.40763
#
# Poissons Ratio (x) = 0.16659 0.04940
# Poissons Ratio (y) = 0.18200 0.30485
# Poissons Ratio (z) = 0.05993 0.33855
#
# Static dielectric constant tensor:
#      x y z
#    x 2.017200 0.000000 -0.035780 
#    y 0.000000 1.700820 0.000000 
#    z -0.035780 0.000000 1.683050 
# 
# From -- ./inp_files/77275.got.cif
#   From: 2010.05.17/outbox.cif.g08.bks.cpg/sg14_39_cif.got.tgz:77275.got - 2010.06.03 17:49:19.
