data_PCOD9248671
_publ_section_title
;
Structure prediction by ZEFSAII (Michael W. Deem and Ramdas Pophale) SiO2 
 PCOD9248671
Probable space group: P 21/C
;
_chemical_formula_sum "Si O2"
_cell_formula_units_Z 26
_cell_length_a 17.511855
_cell_length_b 8.377048
_cell_length_c 23.499712
_cell_angle_alpha 90.000000
_cell_angle_beta 19.521946
_cell_angle_gamma 90.000000
_cell_volume 1151.994535
_symmetry_space_group_name_H-M "P 21/C"
_symmetry_group_IT_number 14
_symmetry_cell_setting 'monoclinic'
loop_
_space_group_symop_operation_xyz
x,y,z
-x,1/2+y,1/2-z
-x,-y,-z
x,1/2-y,1/2+z
loop_
_atom_site_type_symbol
_atom_site_label
_atom_site_fract_x
_atom_site_fract_y
_atom_site_fract_z
Si Si1 0.389291 0.332499 0.780917
Si Si2 0.500000 0.500000 0.500000
Si Si3 0.200794 0.707542 0.076134
Si Si4 0.071822 0.651676 0.411790
Si Si5 0.316606 0.859983 0.625171
Si Si6 0.817545 0.541056 0.375084
Si Si7 0.505134 0.700432 0.670894
O O1 0.566625 0.219313 0.621597
O O2 0.438456 0.517629 0.733409
O O3 0.441014 0.297896 0.810325
O O4 0.134606 0.278629 0.943916
O O5 0.429937 0.689240 0.559603
O O6 0.591040 0.485146 0.501488
O O7 0.231923 0.650468 0.119388
O O8 0.996146 0.591815 0.200649
O O9 0.106599 0.887821 0.142833
O O10 0.128042 0.610164 0.306567
O O11 0.299409 0.721880 0.280618
O O12 0.000000 0.500000 0.500000
O O13 0.500000 0.000000 0.500000
O O14 0.734774 0.685504 0.472223
#
# Coordination Sequence:
#
# PCOD9248671 Si02
#       7
#     4   2   4   4   4   4   4
#     4  11  25  46  65 103 141 183 246 288 375 439
#     4  10  22  44  68 104 138 182 236 300 358 424
#     4  10  24  41  67 101 133 182 232 297 351 429
#     4  12  25  45  71 105 144 191 239 300 370 441
#     4  11  24  44  71 103 139 184 241 299 355 433
#     4  10  22  43  68  98 135 179 240 289 366 414
#     4  11  24  46  70  98 143 190 233 304 359 444
#
# _framework density 22.569551000000001
#
# number of rings (size 3 to 8) (size 9 to 14) (size 15 to 20)
#    0.000    1.231    1.538    3.231    2.154    6.154 
#   11.077    0.000    0.000    0.000    0.000    0.000 
#    0.000    0.000    0.000    0.000    0.000    0.000 
#
# Total GULP energy -144824.922956 kJ/mol
# GULP energy per Si atom -5570.189344 kJ/mol
# Density = 2.251818 g / cm^3
# Si number density = 22.569551 Si / 1000 Ang^3
#
#
#
# Elastic Constant Matrix: (Units=GPa)
#
#
# Indices 1 2 3 4 5 6 
#
# 1 84.7483 -1.2696 4.0474 0.0000 14.4259 0.0000
# 2 -1.2696 60.5551 14.7788 0.0000 6.7477 0.0000
# 3 4.0474 14.7788 77.8351 0.0000 8.6655 0.0000
# 4 0.0000 0.0000 0.0000 36.6577 0.0000 -1.3997
# 5 14.4259 6.7477 8.6655 0.0000 30.1989 0.0000
# 6 0.0000 0.0000 0.0000 -1.3997 0.0000 35.4209
#
#
#
# Elastic Compliance Matrix: (Units=1/GPa)
#
#
# Indices 1 2 3 4 5 6 
#
# 1 0.012902 0.001016 -0.000157 0.000000 -0.006345 0.000000
# 2 0.001016 0.017668 -0.003010 0.000000 -0.003569 0.000000
# 3 -0.000157 -0.003010 0.013784 0.000000 -0.003208 0.000000
# 4 0.000000 0.000000 0.000000 0.027321 0.000000 0.001080
# 5 -0.006345 -0.003569 -0.003208 0.000000 0.037863 0.000000
# 6 0.000000 0.000000 0.000000 0.001080 0.000000 0.028275
#
#
# Mechanical properties :
#
#
# Convention : Reuss Voigt Hill
#
# Bulk Modulus (GPa) = 24.96778 28.69463 26.83120
# Shear Modulus (GPa) = 32.16136 34.16096 33.16116
#
# Velocity S-wave (km/s) = 3.77900 3.89470 3.83729
# Velocity P-wave (km/s) = 5.48887 5.74164 5.61668
#
# Compressibility (1/GPa) = 0.04005162
#
# Stress axis : x y z
#
# Youngs Moduli (GPa) = 77.50447 56.60101 72.54527
#
# Poissons Ratio (x) = -0.05751 0.01142
# Poissons Ratio (y) = -0.07874 0.21836
# Poissons Ratio (z) = 0.01220 0.17037
#
# Static dielectric constant tensor:
#      x y z
#    x 1.875730 0.000000 -0.076840 
#    y 0.000000 1.871490 0.000000 
#    z -0.076840 0.000000 1.993870 
# 
# From -- ./inp_files/74244.got.cif
#   From: 2010.05.17/outbox.cif.g08.bks.cpg/sg14_38_cif.got.tgz:74244.got - 2010.06.03 17:49:19.
