data_PCOD9248690
_publ_section_title
;
Structure prediction by ZEFSAII (Michael W. Deem and Ramdas Pophale) SiO2 
 PCOD9248690
Probable space group: P 21/C
;
_chemical_formula_sum "Si O2"
_cell_formula_units_Z 32
_cell_length_a 11.044179
_cell_length_b 15.610680
_cell_length_c 17.154281
_cell_angle_alpha 90.000000
_cell_angle_beta 29.260793
_cell_angle_gamma 90.000000
_cell_volume 1445.593444
_symmetry_space_group_name_H-M "P 21/C"
_symmetry_group_IT_number 14
_symmetry_cell_setting 'monoclinic'
loop_
_space_group_symop_operation_xyz
x,y,z
-x,1/2+y,1/2-z
-x,-y,-z
x,1/2-y,1/2+z
loop_
_atom_site_type_symbol
_atom_site_label
_atom_site_fract_x
_atom_site_fract_y
_atom_site_fract_z
Si Si1 0.594443 0.426382 0.867228
Si Si2 0.164287 0.726566 0.967449
Si Si3 0.044299 0.897799 0.971891
Si Si4 0.447871 0.595808 0.555809
Si Si5 0.369528 0.181858 0.893434
Si Si6 0.749616 0.770505 0.789843
Si Si7 0.909408 0.679991 0.848021
Si Si8 0.607366 0.111533 0.528407
O O1 0.759440 0.385402 0.708221
O O2 0.725986 0.411095 0.877146
O O3 0.322165 0.385127 0.028718
O O4 0.546014 0.524737 0.871384
O O5 0.145598 0.832701 0.982862
O O6 0.363671 0.711678 0.788508
O O7 0.231897 0.651651 0.992868
O O8 0.869901 0.709377 0.138720
O O9 0.782235 0.862140 0.089854
O O10 0.000000 0.000000 0.000000
O O11 0.500000 0.500000 0.500000
O O12 0.571811 0.617038 0.569207
O O13 0.588603 0.654008 0.414083
O O14 0.162816 0.628642 0.719725
O O15 0.191303 0.255774 0.028684
O O16 0.934669 0.737765 0.755214
O O17 0.576194 0.689566 0.880051
#
# Coordination Sequence:
#
# PCOD9248690 Si02
#       8
#     4   4   4   4   4   4   4   4
#     4  10  22  43  71 103 136 187 238 300 356 436
#     4  12  23  42  68 105 142 187 234 297 364 429
#     4  12  26  44  71 105 143 186 242 298 366 431
#     4  11  26  44  68 105 136 188 240 297 361 430
#     4  11  25  44  71  98 143 187 234 293 366 439
#     4  10  23  40  66 100 138 183 234 291 348 428
#     4  10  22  43  69  97 137 184 234 285 356 430
#     4  10  23  40  70 104 135 183 242 292 362 425
#
# _framework density 22.136237999999999
#
# number of rings (size 3 to 8) (size 9 to 14) (size 15 to 20)
#    0.000    1.250    1.250    3.750    8.750    4.000 
#    0.000    0.625    0.000    0.000    0.000    0.000 
#    0.000    0.000    0.000    0.000    0.000    0.000 
#
# Total GULP energy -178188.562177 kJ/mol
# GULP energy per Si atom -5568.392568 kJ/mol
# Density = 2.208586 g / cm^3
# Si number density = 22.136238 Si / 1000 Ang^3
#
#
#
# Elastic Constant Matrix: (Units=GPa)
#
#
# Indices 1 2 3 4 5 6 
#
# 1 41.5259 43.6812 19.7437 0.0000 -1.5989 0.0000
# 2 43.6812 170.0063 49.7897 0.0000 -0.4234 0.0000
# 3 19.7437 49.7897 128.4848 0.0000 15.7827 0.0000
# 4 0.0000 0.0000 0.0000 4.8191 0.0000 8.4909
# 5 -1.5989 -0.4234 15.7827 0.0000 22.3991 0.0000
# 6 0.0000 0.0000 0.0000 8.4909 0.0000 28.0549
#
#
#
# Elastic Compliance Matrix: (Units=1/GPa)
#
#
# Indices 1 2 3 4 5 6 
#
# 1 0.033809 -0.007904 -0.002639 0.000000 0.004124 0.000000
# 2 -0.007904 0.008576 -0.002255 0.000000 0.001187 0.000000
# 3 -0.002639 -0.002255 0.009952 0.000000 -0.007243 0.000000
# 4 0.000000 0.000000 0.000000 0.444588 0.000000 -0.134556
# 5 0.004124 0.001187 -0.007243 0.000000 0.050065 0.000000
# 6 0.000000 0.000000 0.000000 -0.134556 0.000000 0.076368
#
#
# Mechanical properties :
#
#
# Convention : Reuss Voigt Hill
#
# Bulk Modulus (GPa) = 37.39388 62.93849 50.16618
# Shear Modulus (GPa) = 7.60033 26.17475 16.88754
#
# Velocity S-wave (km/s) = 1.85496 3.44239 2.76504
# Velocity P-wave (km/s) = 4.63866 6.65538 5.73634
#
# Compressibility (1/GPa) = 0.02674235
#
# Stress axis : x y z
#
# Youngs Moduli (GPa) = 29.57824 116.60258 100.48234
#
# Poissons Ratio (x) = 0.92158 0.26517
# Poissons Ratio (y) = 0.23377 0.22655
# Poissons Ratio (z) = 0.07806 0.26289
#
# Static dielectric constant tensor:
#      x y z
#    x 1.846190 0.000000 0.027030 
#    y 0.000000 -1.600790 0.000000 
#    z 0.027030 0.000000 1.861950 
# 
# From -- ./inp_files/57975.got.cif
#   From: 2010.05.17/outbox.cif.g08.bks.cpg/sg14_29_cif.got.tgz:57975.got - 2010.06.03 17:49:19.
