data_PCOD9248194
_publ_section_title
;
Structure prediction by ZEFSAII (Michael W. Deem and Ramdas Pophale) SiO2 
 PCOD9248194
Probable space group: P 21/C
;
_chemical_formula_sum "Si O2"
_cell_formula_units_Z 28
_cell_length_a 20.777149
_cell_length_b 7.439483
_cell_length_c 14.187916
_cell_angle_alpha 90.000000
_cell_angle_beta 145.721728
_cell_angle_gamma 90.000000
_cell_volume 1235.150225
_symmetry_space_group_name_H-M "P 21/C"
_symmetry_group_IT_number 14
_symmetry_cell_setting 'monoclinic'
loop_
_space_group_symop_operation_xyz
x,y,z
-x,1/2+y,1/2-z
-x,-y,-z
x,1/2-y,1/2+z
loop_
_atom_site_type_symbol
_atom_site_label
_atom_site_fract_x
_atom_site_fract_y
_atom_site_fract_z
Si Si1 0.791917 0.364435 0.455583
Si Si2 0.036298 0.396560 0.451966
Si Si3 0.365757 0.291082 0.088122
Si Si4 0.825581 0.485605 0.066250
Si Si5 0.158455 0.027936 0.784939
Si Si6 0.460247 0.982911 0.343437
Si Si7 0.901521 0.996992 0.488028
O O1 0.860457 0.496861 0.473163
O O2 0.827162 0.156541 0.477529
O O3 0.813068 0.395831 0.592171
O O4 0.658291 0.380508 0.286133
O O5 0.062493 0.197573 0.518095
O O6 0.000000 0.500000 0.500000
O O7 0.924113 0.424975 0.252254
O O8 0.427312 0.165484 0.242746
O O9 0.453115 0.365749 0.115854
O O10 0.298118 0.464429 0.048164
O O11 0.258793 0.177531 0.916259
O O12 0.869742 0.631252 0.047355
O O13 0.028985 0.083144 0.655982
O O14 0.165594 0.938526 0.689982
O O15 0.500000 0.000000 0.500000
#
# Coordination Sequence:
#
# PCOD9248194 Si02
#       7
#     4   4   4   4   4   4   4
#     4  11  25  45  66 102 139 184 231 295 350 422
#     4  12  25  39  67 102 144 183 228 278 358 436
#     4  11  26  48  76 100 142 186 246 301 360 422
#     4  12  24  41  71 102 141 179 227 287 363 434
#     4  10  22  41  68  97 140 178 225 283 352 424
#     4  11  27  52  75 100 141 187 253 304 358 419
#     4  11  23  40  65 105 142 182 220 276 357 436
#
# _framework density 22.669307
#
# number of rings (size 3 to 8) (size 9 to 14) (size 15 to 20)
#    0.000    0.857    2.857    3.429   12.000    0.000 
#    5.143    1.429    0.000    0.000    0.000    0.000 
#    0.000    0.000    0.000    0.000    0.000    0.000 
#
# Total GULP energy -155873.526150 kJ/mol
# GULP energy per Si atom -5566.911648 kJ/mol
# Density = 2.261771 g / cm^3
# Si number density = 22.669307 Si / 1000 Ang^3
#
#
#
# Elastic Constant Matrix: (Units=GPa)
#
#
# Indices 1 2 3 4 5 6 
#
# 1 200.4963 76.3316 119.0117 0.0000 0.1859 0.0000
# 2 76.3316 137.5337 53.7281 0.0000 8.0701 0.0000
# 3 119.0117 53.7281 161.5991 0.0000 -0.1176 0.0000
# 4 0.0000 0.0000 0.0000 192.3758 0.0000 98.3150
# 5 0.1859 8.0701 -0.1176 0.0000 59.0609 0.0000
# 6 0.0000 0.0000 0.0000 98.3150 0.0000 75.7273
#
#
#
# Elastic Compliance Matrix: (Units=1/GPa)
#
#
# Indices 1 2 3 4 5 6 
#
# 1 0.009855 -0.003053 -0.006243 0.000000 0.000374 0.000000
# 2 -0.003053 0.009380 -0.000871 0.000000 -0.001274 0.000000
# 3 -0.006243 -0.000871 0.011075 0.000000 0.000161 0.000000
# 4 0.000000 0.000000 0.000000 0.015447 0.000000 -0.020055
# 5 0.000374 -0.001274 0.000161 0.000000 0.017105 0.000000
# 6 0.000000 0.000000 0.000000 -0.020055 0.000000 0.039242
#
#
# Mechanical properties :
#
#
# Convention : Reuss Voigt Hill
#
# Bulk Modulus (GPa) = 100.22820 110.86352 105.54586
# Shear Modulus (GPa) = 39.75673 82.13666 60.94669
#
# Velocity S-wave (km/s) = 4.19235 6.02588 5.19071
# Velocity P-wave (km/s) = 8.23064 9.87045 9.08761
#
# Compressibility (1/GPa) = 0.00997723
#
# Stress axis : x y z
#
# Youngs Moduli (GPa) = 101.47092 106.60487 90.28982
#
# Poissons Ratio (x) = 0.32544 0.56364
# Poissons Ratio (y) = 0.30977 0.07868
# Poissons Ratio (z) = 0.63344 0.09290
#
# Static dielectric constant tensor:
#      x y z
#    x 1.931170 0.000000 -0.092630 
#    y 0.000000 2.039760 0.000000 
#    z -0.092630 0.000000 1.871540 
# 
# From -- ./inp_files/50122.got.cif
#   From: 2010.05.17/outbox.cif.g08.bks.cpg/sg14_26_cif.got.tgz:50122.got - 2010.06.03 17:49:19.
