data_PCOD9248370
_publ_section_title
;
Structure prediction by ZEFSAII (Michael W. Deem and Ramdas Pophale) SiO2 
 PCOD9248370
Probable space group: P 21/C
;
_chemical_formula_sum "Si O2"
_cell_formula_units_Z 26
_cell_length_a 11.140028
_cell_length_b 8.401026
_cell_length_c 20.664680
_cell_angle_alpha 90.000000
_cell_angle_beta 33.983438
_cell_angle_gamma 90.000000
_cell_volume 1080.992726
_symmetry_space_group_name_H-M "P 21/C"
_symmetry_group_IT_number 14
_symmetry_cell_setting 'monoclinic'
loop_
_space_group_symop_operation_xyz
x,y,z
-x,1/2+y,1/2-z
-x,-y,-z
x,1/2-y,1/2+z
loop_
_atom_site_type_symbol
_atom_site_label
_atom_site_fract_x
_atom_site_fract_y
_atom_site_fract_z
Si Si1 0.181821 0.231615 0.667395
Si Si2 0.979966 0.463813 0.856290
Si Si3 0.500000 0.500000 0.500000
Si Si4 0.454904 0.838052 0.402606
Si Si5 0.763980 0.471967 0.686708
Si Si6 0.364176 0.658247 0.688479
Si Si7 0.742639 0.029115 0.048705
O O1 0.282554 0.388288 0.590336
O O2 0.382256 0.139781 0.611024
O O3 0.034896 0.306267 0.789961
O O4 0.079839 0.110992 0.663262
O O5 0.197628 0.527560 0.792674
O O6 0.770870 0.427424 0.992386
O O7 0.377995 0.618138 0.606887
O O8 0.393604 0.650755 0.434579
O O9 0.595956 0.888583 0.278171
O O10 0.713956 0.331559 0.758616
O O11 0.738095 0.412583 0.624732
O O12 0.011985 0.520872 0.581505
O O13 0.604502 0.631021 0.608113
#
# Coordination Sequence:
#
# PCOD9248370 Si02
#       7
#     4   4   2   4   4   4   4
#     4  11  25  41  66  99 142 183 227 283 353 422
#     4  11  26  41  69 104 137 187 227 292 349 433
#     4  10  22  42  66  98 140 184 222 290 344 426
#     4  12  24  46  69 102 140 183 238 292 356 421
#     4  11  27  44  77 102 136 196 242 300 356 428
#     4  11  25  46  70 105 144 188 238 298 361 430
#     4  11  25  50  70 103 146 182 246 303 356 422
#
# _framework density 24.051969
#
# number of rings (size 3 to 8) (size 9 to 14) (size 15 to 20)
#    0.000    0.923    3.077    3.231   10.769    1.231 
#    0.000    1.538    0.000    0.000    0.000    0.000 
#    0.000    0.000    0.000    0.000    0.000    0.000 
#
# Total GULP energy -144983.844681 kJ/mol
# GULP energy per Si atom -5576.301719 kJ/mol
# Density = 2.399723 g / cm^3
# Si number density = 24.051969 Si / 1000 Ang^3
#
#
#
# Elastic Constant Matrix: (Units=GPa)
#
#
# Indices 1 2 3 4 5 6 
#
# 1 22.0444 -7.0313 13.0908 0.0000 -8.2867 0.0000
# 2 -7.0313 71.4206 34.1896 0.0000 6.4918 0.0000
# 3 13.0908 34.1896 183.1435 0.0000 -15.2003 0.0000
# 4 0.0000 0.0000 0.0000 32.4224 0.0000 -6.3358
# 5 -8.2867 6.4918 -15.2003 0.0000 29.0852 0.0000
# 6 0.0000 0.0000 0.0000 -6.3358 0.0000 27.2672
#
#
#
# Elastic Compliance Matrix: (Units=1/GPa)
#
#
# Indices 1 2 3 4 5 6 
#
# 1 0.054230 0.006185 -0.004038 0.000000 0.011960 0.000000
# 2 0.006185 0.016858 -0.003925 0.000000 -0.004052 0.000000
# 3 -0.004038 -0.003925 0.006752 0.000000 0.003254 0.000000
# 4 0.000000 0.000000 0.000000 0.032310 0.000000 0.007508
# 5 0.011960 -0.004052 0.003254 0.000000 0.040394 0.000000
# 6 0.000000 0.000000 0.000000 0.007508 0.000000 0.038419
#
#
# Mechanical properties :
#
#
# Convention : Reuss Voigt Hill
#
# Bulk Modulus (GPa) = 13.46229 39.67854 26.57041
# Shear Modulus (GPa) = 23.01175 33.51223 28.26199
#
# Velocity S-wave (km/s) = 3.09650 3.73678 3.43160
# Velocity P-wave (km/s) = 4.28879 5.92881 5.17419
#
# Compressibility (1/GPa) = 0.07428158
#
# Stress axis : x y z
#
# Youngs Moduli (GPa) = 18.44013 59.31928 148.10975
#
# Poissons Ratio (x) = -0.36688 0.59810
# Poissons Ratio (y) = -0.11405 0.58140
# Poissons Ratio (z) = 0.07447 0.23286
#
# Static dielectric constant tensor:
#      x y z
#    x 2.561750 0.000000 0.047900 
#    y 0.000000 1.949600 0.000000 
#    z 0.047900 0.000000 1.950030 
# 
# From -- ./inp_files/73058.got.cif
#   From: 2010.05.17/outbox.cif.g08.bks.cpg/sg14_37_cif.got.tgz:73058.got - 2010.06.03 17:49:19.
