data_PCOD9248741
_publ_section_title
;
Structure prediction by ZEFSAII (Michael W. Deem and Ramdas Pophale) SiO2 
 PCOD9248741
Probable space group: P 21/C
;
_chemical_formula_sum "Si O2"
_cell_formula_units_Z 32
_cell_length_a 17.084677
_cell_length_b 5.198745
_cell_length_c 15.535397
_cell_angle_alpha 90.000000
_cell_angle_beta 73.769988
_cell_angle_gamma 90.000000
_cell_volume 1324.846497
_symmetry_space_group_name_H-M "P 21/C"
_symmetry_group_IT_number 14
_symmetry_cell_setting 'monoclinic'
loop_
_space_group_symop_operation_xyz
x,y,z
-x,1/2+y,1/2-z
-x,-y,-z
x,1/2-y,1/2+z
loop_
_atom_site_type_symbol
_atom_site_label
_atom_site_fract_x
_atom_site_fract_y
_atom_site_fract_z
Si Si1 0.735229 0.991547 0.090262
Si Si2 0.305726 0.851097 0.256684
Si Si3 0.592453 0.902464 0.029162
Si Si4 0.342792 0.570392 0.076446
Si Si5 0.824957 0.134437 0.458884
Si Si6 0.844734 0.887874 0.641840
Si Si7 0.008256 0.699352 0.192442
Si Si8 0.528176 0.922257 0.791578
O O1 0.661066 0.824730 0.079003
O O2 0.793324 0.870474 0.143399
O O3 0.692632 0.233903 0.148329
O O4 0.792643 0.082273 0.995064
O O5 0.330454 0.640368 0.179450
O O6 0.374529 0.067250 0.229320
O O7 0.213098 0.949073 0.276329
O O8 0.512797 0.973966 0.107569
O O9 0.596150 0.661724 0.964016
O O10 0.625146 0.166021 0.977157
O O11 0.252256 0.512953 0.066518
O O12 0.905376 0.145321 0.378116
O O13 0.844065 0.007784 0.545916
O O14 0.934034 0.846311 0.649528
O O15 0.996398 0.489292 0.271193
O O16 0.503174 0.144151 0.729518
#
# Coordination Sequence:
#
# PCOD9248741 Si02
#       8
#     4   4   4   4   4   4   4   4
#     4  10  22  43  72  99 133 184 242 275 336 415
#     4  11  26  42  70 107 134 190 229 296 343 411
#     4  11  23  44  65 102 137 187 223 288 342 414
#     4  11  25  42  69  99 147 176 230 283 358 406
#     4  10  24  44  69 103 135 187 228 286 339 417
#     4  11  24  46  76  97 140 185 242 276 344 419
#     4  12  30  47  71 108 147 178 226 292 352 409
#     4  12  25  42  72 100 140 181 243 290 340 406
#
# _framework density 24.153739000000002
#
# number of rings (size 3 to 8) (size 9 to 14) (size 15 to 20)
#    0.000    1.000    2.500    2.625   10.500    1.500 
#    0.000    0.000    0.000    0.000    0.000    0.000 
#    0.000    0.000    0.000    0.000    0.000    0.000 
#
# Total GULP energy -179152.187914 kJ/mol
# GULP energy per Si atom -5598.505872 kJ/mol
# Density = 2.409876 g / cm^3
# Si number density = 24.153739 Si / 1000 Ang^3
#
#
#
# Elastic Constant Matrix: (Units=GPa)
#
#
# Indices 1 2 3 4 5 6 
#
# 1 117.7416 4.9293 32.6943 0.0000 -8.6826 0.0000
# 2 4.9293 83.9576 14.9315 0.0000 -5.7708 0.0000
# 3 32.6943 14.9315 94.8403 0.0000 -30.9527 0.0000
# 4 0.0000 0.0000 0.0000 29.5213 0.0000 9.3235
# 5 -8.6826 -5.7708 -30.9527 0.0000 44.5447 0.0000
# 6 0.0000 0.0000 0.0000 9.3235 0.0000 20.3184
#
#
#
# Elastic Compliance Matrix: (Units=1/GPa)
#
#
# Indices 1 2 3 4 5 6 
#
# 1 0.009402 0.000019 -0.003421 0.000000 -0.000542 0.000000
# 2 0.000019 0.012257 -0.001833 0.000000 0.000318 0.000000
# 3 -0.003421 -0.001833 0.015153 0.000000 0.009625 0.000000
# 4 0.000000 0.000000 0.000000 0.039615 0.000000 -0.018178
# 5 -0.000542 0.000318 0.009625 0.000000 0.029073 0.000000
# 6 0.000000 0.000000 0.000000 -0.018178 0.000000 0.057558
#
#
# Mechanical properties :
#
#
# Convention : Reuss Voigt Hill
#
# Bulk Modulus (GPa) = 37.95930 44.62775 41.29352
# Shear Modulus (GPa) = 27.42589 35.14251 31.28420
#
# Velocity S-wave (km/s) = 3.37333 3.81852 3.60281
# Velocity P-wave (km/s) = 5.56078 6.16102 5.86858
#
# Compressibility (1/GPa) = 0.02634401
#
# Stress axis : x y z
#
# Youngs Moduli (GPa) = 106.35591 81.58319 65.99208
#
# Poissons Ratio (x) = -0.00156 0.22577
# Poissons Ratio (y) = -0.00204 0.12093
# Poissons Ratio (z) = 0.36387 0.14950
#
# Static dielectric constant tensor:
#      x y z
#    x 1.914780 0.000000 0.051440 
#    y 0.000000 1.978470 0.000000 
#    z 0.051440 0.000000 1.917440 
# 
# From -- ./inp_files/48132.got.cif
#   From: 2010.05.17/outbox.cif.g08.bks.cpg/sg14_25_cif.got.tgz:48132.got - 2010.06.03 17:49:19.
