data_PCOD9248110
_publ_section_title
;
Structure prediction by ZEFSAII (Michael W. Deem and Ramdas Pophale) SiO2 
 PCOD9248110
Probable space group: P 21/C
;
_chemical_formula_sum "Si O2"
_cell_formula_units_Z 32
_cell_length_a 12.510778
_cell_length_b 14.730602
_cell_length_c 17.912209
_cell_angle_alpha 90.000000
_cell_angle_beta 152.215346
_cell_angle_gamma 90.000000
_cell_volume 1538.790050
_symmetry_space_group_name_H-M "P 21/C"
_symmetry_group_IT_number 14
_symmetry_cell_setting 'monoclinic'
loop_
_space_group_symop_operation_xyz
x,y,z
-x,1/2+y,1/2-z
-x,-y,-z
x,1/2-y,1/2+z
loop_
_atom_site_type_symbol
_atom_site_label
_atom_site_fract_x
_atom_site_fract_y
_atom_site_fract_z
Si Si1 0.435494 0.628349 0.729391
Si Si2 0.029188 0.924512 0.369061
Si Si3 0.890333 0.305635 0.222274
Si Si4 0.530819 0.925120 0.718978
Si Si5 0.374187 0.354782 0.872591
Si Si6 0.755807 0.813731 0.305570
Si Si7 0.984701 0.818214 0.034362
Si Si8 0.173379 0.376930 0.907366
O O1 0.460424 0.520642 0.735418
O O2 0.519745 0.674442 0.704948
O O3 0.178429 0.647250 0.597208
O O4 0.615257 0.651574 0.907524
O O5 0.998335 0.867658 0.273631
O O6 0.269652 0.891182 0.555389
O O7 0.831385 0.900442 0.305214
O O8 0.066885 0.030077 0.373455
O O9 0.931806 0.338947 0.331598
O O10 0.994955 0.205025 0.287980
O O11 0.620964 0.311790 0.041745
O O12 0.592969 0.933056 0.669074
O O13 0.731742 0.861942 0.873099
O O14 0.243184 0.271700 0.750737
O O15 0.266798 0.391694 0.881491
O O16 0.939842 0.786338 0.483270
#
# Coordination Sequence:
#
# PCOD9248110 Si02
#       8
#     4   4   4   4   4   4   4   4
#     4  11  23  40  64  98 130 166 214 268 320 381
#     4  10  24  42  68  93 131 170 213 264 326 383
#     4  11  22  42  65  93 129 166 217 269 313 378
#     4   9  23  40  64  95 124 166 215 269 317 373
#     4  10  22  41  65  90 129 172 217 258 320 386
#     4  11  24  42  63  95 132 171 210 261 328 390
#     4  11  23  39  67  93 125 168 216 264 318 377
#     4  11  22  41  66  97 126 172 213 265 327 378
#
# _framework density 20.795558
#
# number of rings (size 3 to 8) (size 9 to 14) (size 15 to 20)
#    0.000    1.500    3.750    0.375    7.000    3.500 
#    2.250    0.625    0.000    0.000    0.000    0.000 
#    0.000    0.000    0.000    0.000    0.000    0.000 
#
# Total GULP energy -178543.069521 kJ/mol
# GULP energy per Si atom -5579.470923 kJ/mol
# Density = 2.074823 g / cm^3
# Si number density = 20.795558 Si / 1000 Ang^3
#
#
#
# Elastic Constant Matrix: (Units=GPa)
#
#
# Indices 1 2 3 4 5 6 
#
# 1 80.3005 8.1766 12.4773 0.0000 2.6322 0.0000
# 2 8.1766 68.2321 20.2912 0.0000 3.6102 0.0000
# 3 12.4773 20.2912 59.6724 0.0000 -5.1033 0.0000
# 4 0.0000 0.0000 0.0000 24.6606 0.0000 2.7355
# 5 2.6322 3.6102 -5.1033 0.0000 17.2138 0.0000
# 6 0.0000 0.0000 0.0000 2.7355 0.0000 36.5926
#
#
#
# Elastic Compliance Matrix: (Units=1/GPa)
#
#
# Indices 1 2 3 4 5 6 
#
# 1 0.013030 -0.000602 -0.002749 0.000000 -0.002681 0.000000
# 2 -0.000602 0.016798 -0.006033 0.000000 -0.005219 0.000000
# 3 -0.002749 -0.006033 0.020037 0.000000 0.007626 0.000000
# 4 0.000000 0.000000 0.000000 0.040890 0.000000 -0.003057
# 5 -0.002681 -0.005219 0.007626 0.000000 0.061858 0.000000
# 6 0.000000 0.000000 0.000000 -0.003057 0.000000 0.027556
#
#
# Mechanical properties :
#
#
# Convention : Reuss Voigt Hill
#
# Bulk Modulus (GPa) = 32.15753 32.23281 32.19517
# Shear Modulus (GPa) = 23.88898 26.84405 25.36652
#
# Velocity S-wave (km/s) = 3.39300 3.59674 3.49636
# Velocity P-wave (km/s) = 5.55402 5.72558 5.64045
#
# Compressibility (1/GPa) = 0.03109692
#
# Stress axis : x y z
#
# Youngs Moduli (GPa) = 76.74860 59.53021 49.90890
#
# Poissons Ratio (x) = 0.03584 0.13720
# Poissons Ratio (y) = 0.04621 0.30108
# Poissons Ratio (z) = 0.21098 0.35912
#
# Static dielectric constant tensor:
#      x y z
#    x 1.763080 0.000000 -0.010790 
#    y 0.000000 1.759240 0.000000 
#    z -0.010790 0.000000 1.753550 
# 
# From -- ./inp_files/57960.got.cif
#   From: 2010.05.17/outbox.cif.g08.bks.cpg/sg14_29_cif.got.tgz:57960.got - 2010.06.03 17:49:19.
