data_PCOD9248514
_publ_section_title
;
Structure prediction by ZEFSAII (Michael W. Deem and Ramdas Pophale) SiO2 
 PCOD9248514
Probable space group: P 21/C
;
_chemical_formula_sum "Si O2"
_cell_formula_units_Z 26
_cell_length_a 6.942957
_cell_length_b 21.092676
_cell_length_c 7.559388
_cell_angle_alpha 90.000000
_cell_angle_beta 119.619130
_cell_angle_gamma 90.000000
_cell_volume 962.381892
_symmetry_space_group_name_H-M "P 21/C"
_symmetry_group_IT_number 14
_symmetry_cell_setting 'monoclinic'
loop_
_space_group_symop_operation_xyz
x,y,z
-x,1/2+y,1/2-z
-x,-y,-z
x,1/2-y,1/2+z
loop_
_atom_site_type_symbol
_atom_site_label
_atom_site_fract_x
_atom_site_fract_y
_atom_site_fract_z
Si Si1 0.537091 0.163558 0.497648
Si Si2 0.500000 0.500000 0.500000
Si Si3 0.889756 0.447049 0.694183
Si Si4 0.951782 0.167234 0.430857
Si Si5 0.227458 0.949568 0.241342
Si Si6 0.206556 0.116989 0.844341
Si Si7 0.313590 0.267406 0.594420
O O1 0.578186 0.091659 0.583447
O O2 0.499747 0.213561 0.640375
O O3 0.748476 0.175835 0.469890
O O4 0.344817 0.185367 0.274464
O O5 0.722349 0.482606 0.747498
O O6 0.605608 0.570150 0.515438
O O7 0.726549 0.462444 0.446272
O O8 0.897059 0.373007 0.732884
O O9 0.114588 0.486170 0.764576
O O10 0.118229 0.118284 0.604972
O O11 0.080055 0.232101 0.479302
O O12 0.014204 0.901986 0.145446
O O13 0.302613 0.186063 0.922844
#
# Coordination Sequence:
#
# PCOD9248514 Si02
#       7
#     4   2   4   4   4   4   4
#     4  11  27  44  72 102 146 191 249 294 373 431
#     4  10  22  42  72 102 138 186 236 294 360 428
#     4  10  22  46  77 104 149 183 242 308 373 433
#     4  11  26  45  72 104 145 195 237 308 360 438
#     4   9  23  45  72 106 138 191 235 303 370 434
#     4  10  23  44  66 102 143 184 244 295 358 432
#     4  12  26  46  68 107 144 197 245 299 359 447
#
# _framework density 27.016300000000001
#
# number of rings (size 3 to 8) (size 9 to 14) (size 15 to 20)
#    0.000    1.538    1.538    0.923    8.615    8.000 
#    2.769    0.769    0.000    0.000    0.000    0.000 
#    0.000    0.000    0.000    0.000    0.000    0.000 
#
# Total GULP energy -144956.518292 kJ/mol
# GULP energy per Si atom -5575.250704 kJ/mol
# Density = 2.695481 g / cm^3
# Si number density = 27.016300 Si / 1000 Ang^3
#
#
#
# Elastic Constant Matrix: (Units=GPa)
#
#
# Indices 1 2 3 4 5 6 
#
# 1 119.0987 42.1858 16.3850 0.0000 11.7282 0.0000
# 2 42.1858 99.4715 10.3273 0.0000 24.0379 0.0000
# 3 16.3850 10.3273 60.9536 0.0000 3.9275 0.0000
# 4 0.0000 0.0000 0.0000 60.7283 0.0000 11.5381
# 5 11.7282 24.0379 3.9275 0.0000 27.3670 0.0000
# 6 0.0000 0.0000 0.0000 11.5381 0.0000 47.9797
#
#
#
# Elastic Compliance Matrix: (Units=1/GPa)
#
#
# Indices 1 2 3 4 5 6 
#
# 1 0.010129 -0.003944 -0.002017 0.000000 -0.000587 0.000000
# 2 -0.003944 0.014427 -0.000683 0.000000 -0.010884 0.000000
# 3 -0.002017 -0.000683 0.017128 0.000000 -0.000994 0.000000
# 4 0.000000 0.000000 0.000000 0.017255 0.000000 -0.004150
# 5 -0.000587 -0.010884 -0.000994 0.000000 0.046494 0.000000
# 6 0.000000 0.000000 0.000000 -0.004150 0.000000 0.021840
#
#
# Mechanical properties :
#
#
# Convention : Reuss Voigt Hill
#
# Bulk Modulus (GPa) = 35.21651 46.36890 40.79271
# Shear Modulus (GPa) = 33.32766 41.25673 37.29219
#
# Velocity S-wave (km/s) = 3.51609 3.91206 3.71935
# Velocity P-wave (km/s) = 5.43576 6.13239 5.79455
#
# Compressibility (1/GPa) = 0.02839577
#
# Stress axis : x y z
#
# Youngs Moduli (GPa) = 98.72868 69.31484 58.38481
#
# Poissons Ratio (x) = 0.27341 0.11774
# Poissons Ratio (y) = 0.38943 0.03986
# Poissons Ratio (z) = 0.19910 0.04733
#
# Static dielectric constant tensor:
#      x y z
#    x 2.553610 0.000000 -0.147600 
#    y 0.000000 2.251860 0.000000 
#    z -0.147600 0.000000 2.346870 
# 
# From -- ./inp_files/10309.got.cif
#   From: 2010.05.17/outbox.cif.g08.bks.cpg/sg14_6_cif.got.tgz:10309.got - 2010.06.03 17:49:19.
