data_PCOD9248434
_publ_section_title
;
Structure prediction by ZEFSAII (Michael W. Deem and Ramdas Pophale) SiO2 
 PCOD9248434
Probable space group: P 21/C
;
_chemical_formula_sum "Si O2"
_cell_formula_units_Z 32
_cell_length_a 18.795646
_cell_length_b 11.728799
_cell_length_c 14.178708
_cell_angle_alpha 90.000000
_cell_angle_beta 154.913496
_cell_angle_gamma 90.000000
_cell_volume 1325.253875
_symmetry_space_group_name_H-M "P 21/C"
_symmetry_group_IT_number 14
_symmetry_cell_setting 'monoclinic'
loop_
_space_group_symop_operation_xyz
x,y,z
-x,1/2+y,1/2-z
-x,-y,-z
x,1/2-y,1/2+z
loop_
_atom_site_type_symbol
_atom_site_label
_atom_site_fract_x
_atom_site_fract_y
_atom_site_fract_z
Si Si1 0.879023 0.675912 0.840978
Si Si2 0.657409 0.030842 0.049772
Si Si3 0.332030 0.904458 0.726200
Si Si4 0.400476 0.930247 0.482065
Si Si5 0.149537 0.581404 0.831959
Si Si6 0.558433 0.812557 0.522723
Si Si7 0.073413 0.630953 0.463226
Si Si8 0.892273 0.163453 0.219849
O O1 0.768142 0.579529 0.656164
O O2 0.736102 0.758416 0.712624
O O3 0.995670 0.754139 0.914531
O O4 0.978765 0.615527 0.046990
O O5 0.708870 0.075729 0.214664
O O6 0.708028 0.125191 0.034491
O O7 0.468333 0.993359 0.847691
O O8 0.171126 0.922137 0.469240
O O9 0.418996 0.779935 0.824521
O O10 0.332648 0.912384 0.504419
O O11 0.537430 0.841528 0.608735
O O12 0.455713 0.061257 0.538346
O O13 0.242069 0.903497 0.222111
O O14 0.072490 0.703272 0.719384
O O15 0.054218 0.474168 0.676416
O O16 0.091938 0.640036 0.372035
#
# Coordination Sequence:
#
# PCOD9248434 Si02
#       8
#     4   4   4   4   4   4   4   4
#     4  11  23  47  68  98 141 181 231 286 346 410
#     4  10  24  46  68  97 135 188 230 288 342 414
#     4  10  23  44  69  99 141 177 237 285 346 414
#     4  11  22  43  68  97 142 177 228 281 353 412
#     4  12  24  41  67 103 136 180 221 292 342 413
#     4  10  22  42  68  97 135 187 219 293 344 405
#     4  12  26  44  68 103 141 177 237 287 349 417
#     4  12  26  40  71 100 132 184 231 284 348 413
#
# _framework density 24.146318000000001
#
# number of rings (size 3 to 8) (size 9 to 14) (size 15 to 20)
#    0.000    1.000    2.500    3.750    3.500    3.000 
#    4.500    0.000    0.000    0.000    0.000    0.000 
#    0.000    0.000    0.000    0.000    0.000    0.000 
#
# Total GULP energy -178924.267832 kJ/mol
# GULP energy per Si atom -5591.383370 kJ/mol
# Density = 2.409136 g / cm^3
# Si number density = 24.146318 Si / 1000 Ang^3
#
#
#
# Elastic Constant Matrix: (Units=GPa)
#
#
# Indices 1 2 3 4 5 6 
#
# 1 130.7871 16.4190 27.1334 0.0000 -8.9919 0.0000
# 2 16.4190 93.4576 29.2408 0.0000 12.5280 0.0000
# 3 27.1334 29.2408 39.0410 0.0000 -0.1642 0.0000
# 4 0.0000 0.0000 0.0000 36.5006 0.0000 15.2654
# 5 -8.9919 12.5280 -0.1642 0.0000 31.3164 0.0000
# 6 0.0000 0.0000 0.0000 15.2654 0.0000 44.5733
#
#
#
# Elastic Compliance Matrix: (Units=1/GPa)
#
#
# Indices 1 2 3 4 5 6 
#
# 1 0.009140 0.000044 -0.006374 0.000000 0.002573 0.000000
# 2 0.000044 0.015050 -0.011328 0.000000 -0.006068 0.000000
# 3 -0.006374 -0.011328 0.038540 0.000000 0.002904 0.000000
# 4 0.000000 0.000000 0.000000 0.031977 0.000000 -0.010951
# 5 0.002573 -0.006068 0.002904 0.000000 0.035114 0.000000
# 6 0.000000 0.000000 0.000000 -0.010951 0.000000 0.026186
#
#
# Mechanical properties :
#
#
# Convention : Reuss Voigt Hill
#
# Bulk Modulus (GPa) = 36.47803 45.43023 40.95413
# Shear Modulus (GPa) = 24.94252 35.17755 30.06004
#
# Velocity S-wave (km/s) = 3.21748 3.82101 3.53216
# Velocity P-wave (km/s) = 5.37985 6.19050 5.79935
#
# Compressibility (1/GPa) = 0.02741376
#
# Stress axis : x y z
#
# Youngs Moduli (GPa) = 109.41113 66.44534 25.94676
#
# Poissons Ratio (x) = -0.00290 0.16538
# Poissons Ratio (y) = -0.00477 0.29392
# Poissons Ratio (z) = 0.69738 0.75268
#
# Static dielectric constant tensor:
#      x y z
#    x 1.942360 0.000000 0.025900 
#    y 0.000000 1.956840 0.000000 
#    z 0.025900 0.000000 1.932100 
# 
# From -- ./inp_files/48919.got.cif
#   From: 2010.05.17/outbox.cif.g08.bks.cpg/sg14_25_cif.got.tgz:48919.got - 2010.06.03 17:49:19.
