data_PCOD9248985
_publ_section_title
;
Structure prediction by ZEFSAII (Michael W. Deem and Ramdas Pophale) SiO2 
 PCOD9248985
Probable space group: P 21/C
;
_chemical_formula_sum "Si O2"
_cell_formula_units_Z 28
_cell_length_a 13.464076
_cell_length_b 6.163388
_cell_length_c 16.448249
_cell_angle_alpha 90.000000
_cell_angle_beta 65.263747
_cell_angle_gamma 90.000000
_cell_volume 1239.704220
_symmetry_space_group_name_H-M "P 21/C"
_symmetry_group_IT_number 14
_symmetry_cell_setting 'monoclinic'
loop_
_space_group_symop_operation_xyz
x,y,z
-x,1/2+y,1/2-z
-x,-y,-z
x,1/2-y,1/2+z
loop_
_atom_site_type_symbol
_atom_site_label
_atom_site_fract_x
_atom_site_fract_y
_atom_site_fract_z
Si Si1 0.475247 0.236793 0.977832
Si Si2 0.467292 0.764639 0.729667
Si Si3 0.903724 0.270687 0.335298
Si Si4 0.758309 0.248330 0.613639
Si Si5 0.105098 0.417047 0.515865
Si Si6 0.305115 0.537343 0.034603
Si Si7 0.034262 0.580559 0.864435
O O1 0.495221 0.263178 0.875602
O O2 0.576438 0.359946 0.986447
O O3 0.346256 0.292471 0.035160
O O4 0.500000 0.000000 0.000000
O O5 0.499641 0.513808 0.749855
O O6 0.338105 0.764464 0.789347
O O7 0.880605 0.475606 0.400052
O O8 0.795306 0.120697 0.376738
O O9 0.941879 0.308165 0.230847
O O10 0.002972 0.160071 0.350708
O O11 0.794999 0.488386 0.570431
O O12 0.721631 0.112482 0.547343
O O13 0.860719 0.127193 0.618109
O O14 0.000000 0.500000 0.500000
O O15 0.070452 0.175107 0.551247
#
# Coordination Sequence:
#
# PCOD9248985 Si02
#       7
#     4   4   4   4   4   4   4
#     4  11  24  45  73 100 139 191 239 303 369 441
#     4  12  26  48  74 109 147 191 247 309 368 442
#     4  11  22  40  65  97 139 177 231 290 347 434
#     4  10  22  45  67  99 138 181 236 298 360 434
#     4   9  21  40  64  93 131 177 227 284 348 419
#     4  10  23  43  66 101 136 180 240 293 370 430
#     4  11  22  41  65  98 137 183 234 287 358 425
#
# _framework density 22.586033
#
# number of rings (size 3 to 8) (size 9 to 14) (size 15 to 20)
#    0.000    1.429    2.857    1.714    2.000    8.571 
#    7.714    0.000    0.000    0.000    0.000    0.000 
#    0.000    0.000    0.000    0.000    0.000    0.000 
#
# Total GULP energy -156019.980717 kJ/mol
# GULP energy per Si atom -5572.142168 kJ/mol
# Density = 2.253463 g / cm^3
# Si number density = 22.586033 Si / 1000 Ang^3
#
#
#
# Elastic Constant Matrix: (Units=GPa)
#
#
# Indices 1 2 3 4 5 6 
#
# 1 94.1309 45.6019 27.5534 0.0000 2.0057 0.0000
# 2 45.6019 58.3868 20.4458 0.0000 1.9759 0.0000
# 3 27.5534 20.4458 79.8645 0.0000 -5.2655 0.0000
# 4 0.0000 0.0000 0.0000 26.3487 0.0000 -6.1468
# 5 2.0057 1.9759 -5.2655 0.0000 49.1208 0.0000
# 6 0.0000 0.0000 0.0000 -6.1468 0.0000 29.8988
#
#
#
# Elastic Compliance Matrix: (Units=1/GPa)
#
#
# Indices 1 2 3 4 5 6 
#
# 1 0.017659 -0.012775 -0.002856 0.000000 -0.000513 0.000000
# 2 -0.012775 0.028136 -0.002856 0.000000 -0.000916 0.000000
# 3 -0.002856 -0.002856 0.014354 0.000000 0.001770 0.000000
# 4 0.000000 0.000000 0.000000 0.039864 0.000000 0.008196
# 5 -0.000513 -0.000916 0.001770 0.000000 0.020606 0.000000
# 6 0.000000 0.000000 0.000000 0.008196 0.000000 0.035131
#
#
# Mechanical properties :
#
#
# Convention : Reuss Voigt Hill
#
# Bulk Modulus (GPa) = 43.14831 46.62049 44.88440
# Shear Modulus (GPa) = 24.94395 30.32575 27.63485
#
# Velocity S-wave (km/s) = 3.32685 3.66823 3.50170
# Velocity P-wave (km/s) = 5.82260 6.21509 6.02204
#
# Compressibility (1/GPa) = 0.02317588
#
# Stress axis : x y z
#
# Youngs Moduli (GPa) = 56.62760 35.54176 69.66536
#
# Poissons Ratio (x) = 0.45405 0.19895
# Poissons Ratio (y) = 0.72342 0.19896
# Poissons Ratio (z) = 0.16172 0.10151
#
# Static dielectric constant tensor:
#      x y z
#    x 1.815600 0.000000 0.006700 
#    y 0.000000 2.507560 0.000000 
#    z 0.006700 0.000000 1.745460 
# 
# From -- ./inp_files/58395.got.cif
#   From: 2010.05.17/outbox.cif.g08.bks.cpg/sg14_30_cif.got.tgz:58395.got - 2010.06.03 17:49:19.
