data_PCOD9248967
_publ_section_title
;
Structure prediction by ZEFSAII (Michael W. Deem and Ramdas Pophale) SiO2 
 PCOD9248967
Probable space group: P 21/C
;
_chemical_formula_sum "Si O2"
_cell_formula_units_Z 20
_cell_length_a 7.420553
_cell_length_b 16.874915
_cell_length_c 7.086480
_cell_angle_alpha 90.000000
_cell_angle_beta 111.166547
_cell_angle_gamma 90.000000
_cell_volume 827.510419
_symmetry_space_group_name_H-M "P 21/C"
_symmetry_group_IT_number 14
_symmetry_cell_setting 'monoclinic'
loop_
_space_group_symop_operation_xyz
x,y,z
-x,1/2+y,1/2-z
-x,-y,-z
x,1/2-y,1/2+z
loop_
_atom_site_type_symbol
_atom_site_label
_atom_site_fract_x
_atom_site_fract_y
_atom_site_fract_z
Si Si1 0.110865 0.274436 0.988737
Si Si2 0.797716 0.150121 0.937059
Si Si3 0.383402 0.163189 0.851235
Si Si4 0.775605 0.500319 0.685437
Si Si5 0.845204 0.095935 0.542319
O O1 0.296064 0.330463 0.109614
O O2 0.941271 0.339926 0.936440
O O3 0.220628 0.219804 0.877808
O O4 0.988248 0.202097 0.042891
O O5 0.602636 0.189651 0.943932
O O6 0.769131 0.138433 0.701010
O O7 0.805898 0.063937 0.035004
O O8 0.361134 0.074069 0.916345
O O9 0.981078 0.541415 0.811297
O O10 0.713035 0.456909 0.856497
#
# Coordination Sequence:
#
# PCOD9248967 Si02
#       5
#     4   4   4   4   4
#     4  11  23  45  62  98 137 170 225 279 328 408
#     4  12  24  44  72  97 133 185 222 278 345 391
#     4  11  26  42  67 102 132 179 228 276 344 396
#     4  10  22  45  66 100 137 171 229 280 329 406
#     4  10  23  42  72  97 133 184 222 272 343 397
#
# _framework density 24.168880999999999
#
# number of rings (size 3 to 8) (size 9 to 14) (size 15 to 20)
#    0.000    1.200    4.000    2.400    2.800    0.800 
#    0.000    0.000    0.000    0.000    0.000    0.000 
#    0.000    0.000    0.000    0.000    0.000    0.000 
#
# Total GULP energy -111359.807072 kJ/mol
# GULP energy per Si atom -5567.990354 kJ/mol
# Density = 2.411387 g / cm^3
# Si number density = 24.168881 Si / 1000 Ang^3
#
#
#
# Elastic Constant Matrix: (Units=GPa)
#
#
# Indices 1 2 3 4 5 6 
#
# 1 131.1253 41.1441 34.9382 0.0000 -0.5340 0.0000
# 2 41.1441 99.5019 34.8396 0.0000 -5.8669 0.0000
# 3 34.9382 34.8396 49.8999 0.0000 -13.3569 0.0000
# 4 0.0000 0.0000 0.0000 28.9497 0.0000 12.9392
# 5 -0.5340 -5.8669 -13.3569 0.0000 22.2231 0.0000
# 6 0.0000 0.0000 0.0000 12.9392 0.0000 18.6405
#
#
#
# Elastic Compliance Matrix: (Units=1/GPa)
#
#
# Indices 1 2 3 4 5 6 
#
# 1 0.010058 -0.002040 -0.006790 0.000000 -0.004378 0.000000
# 2 -0.002040 0.013830 -0.008656 0.000000 -0.001601 0.000000
# 3 -0.006790 -0.008656 0.035969 0.000000 0.019170 0.000000
# 4 0.000000 0.000000 0.000000 0.050080 0.000000 -0.034763
# 5 -0.004378 -0.001601 0.019170 0.000000 0.055992 0.000000
# 6 0.000000 0.000000 0.000000 -0.034763 0.000000 0.077777
#
#
# Mechanical properties :
#
#
# Convention : Reuss Voigt Hill
#
# Bulk Modulus (GPa) = 40.18414 55.81899 48.00157
# Shear Modulus (GPa) = 17.42328 25.26969 21.34648
#
# Velocity S-wave (km/s) = 2.68787 3.23700 2.97513
# Velocity P-wave (km/s) = 5.12790 6.09232 5.63080
#
# Compressibility (1/GPa) = 0.02488544
#
# Stress axis : x y z
#
# Youngs Moduli (GPa) = 99.42770 72.30669 27.80153
#
# Poissons Ratio (x) = 0.14747 0.18877
# Poissons Ratio (y) = 0.20279 0.24066
# Poissons Ratio (z) = 0.67509 0.62591
#
# Static dielectric constant tensor:
#      x y z
#    x 1.899690 0.000000 -0.009360 
#    y 0.000000 1.924420 0.000000 
#    z -0.009360 0.000000 2.428630 
# 
# From -- ./inp_files/8353.got.cif
#   From: 2010.05.17/outbox.cif.g08.bks.cpg/sg14_5_cif.got.tgz:8353.got - 2010.06.03 17:49:19.
