data_PCOD9248096
_publ_section_title
;
Structure prediction by ZEFSAII (Michael W. Deem and Ramdas Pophale) SiO2 
 PCOD9248096
Probable space group: P 21/C
;
_chemical_formula_sum "Si O2"
_cell_formula_units_Z 26
_cell_length_a 12.988636
_cell_length_b 11.836984
_cell_length_c 14.851483
_cell_angle_alpha 90.000000
_cell_angle_beta 26.656590
_cell_angle_gamma 90.000000
_cell_volume 1024.411313
_symmetry_space_group_name_H-M "P 21/C"
_symmetry_group_IT_number 14
_symmetry_cell_setting 'monoclinic'
loop_
_space_group_symop_operation_xyz
x,y,z
-x,1/2+y,1/2-z
-x,-y,-z
x,1/2-y,1/2+z
loop_
_atom_site_type_symbol
_atom_site_label
_atom_site_fract_x
_atom_site_fract_y
_atom_site_fract_z
Si Si1 0.410849 0.227415 0.035922
Si Si2 0.935919 0.273271 0.194181
Si Si3 0.779828 0.284446 0.009677
Si Si4 0.500000 0.500000 0.500000
Si Si5 0.755543 0.520411 0.112853
Si Si6 0.401336 0.906665 0.742787
Si Si7 0.285461 0.150344 0.807060
O O1 0.437573 0.324755 0.941586
O O2 0.671937 0.209457 0.871545
O O3 0.272132 0.277253 0.227098
O O4 0.367262 0.099470 0.041492
O O5 0.928484 0.243597 0.305479
O O6 0.063855 0.386016 0.061851
O O7 0.067717 0.173584 0.039859
O O8 0.836596 0.395912 0.021439
O O9 0.783616 0.177623 0.071984
O O10 0.517316 0.305724 0.177665
O O11 0.671278 0.528901 0.280693
O O12 0.536459 0.546692 0.222535
O O13 0.316257 0.018527 0.759744
#
# Coordination Sequence:
#
# PCOD9248096 Si02
#       7
#     4   4   4   2   4   4   4
#     4  11  24  44  66  99 136 174 229 275 334 415
#     4  11  23  43  65  98 138 172 225 282 333 400
#     4  10  22  41  64  99 133 171 230 278 330 406
#     4  12  22  46  72  92 140 182 220 278 340 400
#     4  11  23  44  70  99 135 180 229 280 340 400
#     4  11  22  44  68  94 135 180 219 281 341 400
#     4  10  22  43  67  91 133 177 217 281 342 393
#
# _framework density 25.380428999999999
#
# number of rings (size 3 to 8) (size 9 to 14) (size 15 to 20)
#    0.000    1.231    4.615    1.385    2.154    1.231 
#    5.538    0.000    0.000    0.000    0.000    0.000 
#    0.000    0.000    0.000    0.000    0.000    0.000 
#
# Total GULP energy -145177.666927 kJ/mol
# GULP energy per Si atom -5583.756420 kJ/mol
# Density = 2.532266 g / cm^3
# Si number density = 25.380429 Si / 1000 Ang^3
#
#
#
# Elastic Constant Matrix: (Units=GPa)
#
#
# Indices 1 2 3 4 5 6 
#
# 1 45.5984 11.9746 34.8430 0.0000 14.5600 0.0000
# 2 11.9746 146.9623 22.7583 0.0000 24.2124 0.0000
# 3 34.8430 22.7583 143.7225 0.0000 24.1297 0.0000
# 4 0.0000 0.0000 0.0000 60.1337 0.0000 -5.3652
# 5 14.5600 24.2124 24.1297 0.0000 54.9553 0.0000
# 6 0.0000 0.0000 0.0000 -5.3652 0.0000 40.4392
#
#
#
# Elastic Compliance Matrix: (Units=1/GPa)
#
#
# Indices 1 2 3 4 5 6 
#
# 1 0.028093 -0.000617 -0.005947 0.000000 -0.004560 0.000000
# 2 -0.000617 0.007411 -0.000543 0.000000 -0.002863 0.000000
# 3 -0.005947 -0.000543 0.008832 0.000000 -0.002063 0.000000
# 4 0.000000 0.000000 0.000000 0.016829 0.000000 0.002233
# 5 -0.004560 -0.002863 -0.002063 0.000000 0.021572 0.000000
# 6 0.000000 0.000000 0.000000 0.002233 0.000000 0.025025
#
#
# Mechanical properties :
#
#
# Convention : Reuss Voigt Hill
#
# Bulk Modulus (GPa) = 33.19963 52.82612 43.01288
# Shear Modulus (GPa) = 37.87404 48.88611 43.38008
#
# Velocity S-wave (km/s) = 3.86716 4.39354 4.13873
# Velocity P-wave (km/s) = 5.74884 6.82616 6.31053
#
# Compressibility (1/GPa) = 0.03012081
#
# Stress axis : x y z
#
# Youngs Moduli (GPa) = 35.59578 134.94304 113.22362
#
# Poissons Ratio (x) = 0.08323 0.67339
# Poissons Ratio (y) = 0.02195 0.06151
# Poissons Ratio (z) = 0.21171 0.07331
#
# Static dielectric constant tensor:
#      x y z
#    x 2.021210 0.000000 -0.112880 
#    y 0.000000 1.797340 0.000000 
#    z -0.112880 0.000000 2.004750 
# 
# From -- ./inp_files/60601.got.cif
#   From: 2010.05.17/outbox.cif.g08.bks.cpg/sg14_31_cif.got.tgz:60601.got - 2010.06.03 17:49:19.
