data_PCOD9248302
_publ_section_title
;
Structure prediction by ZEFSAII (Michael W. Deem and Ramdas Pophale) SiO2 
 PCOD9248302
Probable space group: P 21/C
;
_chemical_formula_sum "Si O2"
_cell_formula_units_Z 20
_cell_length_a 10.134950
_cell_length_b 14.047373
_cell_length_c 9.722669
_cell_angle_alpha 90.000000
_cell_angle_beta 38.696052
_cell_angle_gamma 90.000000
_cell_volume 865.393183
_symmetry_space_group_name_H-M "P 21/C"
_symmetry_group_IT_number 14
_symmetry_cell_setting 'monoclinic'
loop_
_space_group_symop_operation_xyz
x,y,z
-x,1/2+y,1/2-z
-x,-y,-z
x,1/2-y,1/2+z
loop_
_atom_site_type_symbol
_atom_site_label
_atom_site_fract_x
_atom_site_fract_y
_atom_site_fract_z
Si Si1 0.131488 0.263030 0.300391
Si Si2 0.583460 0.322346 0.880666
Si Si3 0.955108 0.395671 0.772777
Si Si4 0.820012 0.366241 0.166280
Si Si5 0.202207 0.925436 0.010425
O O1 0.112952 0.188060 0.190294
O O2 0.037822 0.195696 0.497219
O O3 0.964693 0.345232 0.401281
O O4 0.357308 0.308881 0.132124
O O5 0.759567 0.356069 0.845799
O O6 0.650625 0.216990 0.773650
O O7 0.596543 0.398591 0.745948
O O8 0.088082 0.474322 0.585814
O O9 0.858643 0.429667 0.999342
O O10 0.760748 0.414223 0.356775
#
# Coordination Sequence:
#
# PCOD9248302 Si02
#       5
#     4   4   4   4   4
#     4   9  23  39  65  87 130 172 201 257 321 370
#     4  11  20  42  64  90 128 172 207 256 319 376
#     4  10  22  42  64  92 132 164 209 263 313 376
#     4   9  20  41  62  89 127 167 206 258 308 375
#     4  11  21  41  64  97 127 161 216 265 303 377
#
# _framework density 23.110882
#
# number of rings (size 3 to 8) (size 9 to 14) (size 15 to 20)
#    1.200    0.800    2.000    1.200    0.000    4.000 
#    3.600    1.000    0.000    0.000    0.000    0.000 
#    0.000    0.000    0.000    0.000    0.000    0.000 
#
# Total GULP energy -111538.446457 kJ/mol
# GULP energy per Si atom -5576.922323 kJ/mol
# Density = 2.305828 g / cm^3
# Si number density = 23.110882 Si / 1000 Ang^3
#
#
#
# Elastic Constant Matrix: (Units=GPa)
#
#
# Indices 1 2 3 4 5 6 
#
# 1 57.8756 3.3615 14.9586 0.0000 24.8792 0.0000
# 2 3.3615 46.5928 -18.0784 0.0000 -7.5447 0.0000
# 3 14.9586 -18.0784 57.2523 0.0000 7.3051 0.0000
# 4 0.0000 0.0000 0.0000 -3.8292 0.0000 6.7150
# 5 24.8792 -7.5447 7.3051 0.0000 30.4480 0.0000
# 6 0.0000 0.0000 0.0000 6.7150 0.0000 20.2063
#
#
#
# Elastic Compliance Matrix: (Units=1/GPa)
#
#
# Indices 1 2 3 4 5 6 
#
# 1 0.030875 -0.009398 -0.007756 0.000000 -0.025696 0.000000
# 2 -0.009398 0.027889 0.009697 0.000000 0.012263 0.000000
# 3 -0.007756 0.009697 0.022117 0.000000 0.003434 0.000000
# 4 0.000000 0.000000 0.000000 -0.164996 0.000000 0.054832
# 5 -0.025696 0.012263 0.003434 0.000000 0.056054 0.000000
# 6 0.000000 0.000000 0.000000 0.054832 0.000000 0.031267
#
#
# Mechanical properties :
#
#
# Convention : Reuss Voigt Hill
#
# Bulk Modulus (GPa) = 15.15887 18.02267 16.59077
# Shear Modulus (GPa) = 124.66576 20.13030 72.39803
#
# Velocity S-wave (km/s) = 7.35252 2.95453 5.60307
# Velocity P-wave (km/s) = 8.86864 4.41070 7.00382
#
# Compressibility (1/GPa) = 0.06596799
#
# Stress axis : x y z
#
# Youngs Moduli (GPa) = 32.38890 35.85666 45.21450
#
# Poissons Ratio (x) = 0.33697 0.35067
# Poissons Ratio (y) = 0.30438 -0.43845
# Poissons Ratio (z) = 0.25120 -0.34771
#
# Static dielectric constant tensor:
#      x y z
#    x 1.879390 0.000000 0.057940 
#    y 0.000000 1.864930 0.000000 
#    z 0.057940 0.000000 1.921180 
# 
# From -- ./inp_files/29969.got.cif
#   From: 2010.05.17/outbox.cif.g08.bks.cpg/sg14_15_cif.got.tgz:29969.got - 2010.06.03 17:49:19.
