data_PCOD9248686
_publ_section_title
;
Structure prediction by ZEFSAII (Michael W. Deem and Ramdas Pophale) SiO2 
 PCOD9248686
Probable space group: P 21/C
;
_chemical_formula_sum "Si O2"
_cell_formula_units_Z 24
_cell_length_a 15.657649
_cell_length_b 5.881211
_cell_length_c 15.539172
_cell_angle_alpha 90.000000
_cell_angle_beta 134.480821
_cell_angle_gamma 90.000000
_cell_volume 1020.953713
_symmetry_space_group_name_H-M "P 21/C"
_symmetry_group_IT_number 14
_symmetry_cell_setting 'monoclinic'
loop_
_space_group_symop_operation_xyz
x,y,z
-x,1/2+y,1/2-z
-x,-y,-z
x,1/2-y,1/2+z
loop_
_atom_site_type_symbol
_atom_site_label
_atom_site_fract_x
_atom_site_fract_y
_atom_site_fract_z
Si Si1 0.934919 0.889338 0.214553
Si Si2 0.934601 0.697934 0.905894
Si Si3 0.702036 0.416070 0.477087
Si Si4 0.688857 0.409771 0.135443
Si Si5 0.540977 0.693891 0.462926
Si Si6 0.180248 0.572974 0.604575
O O1 0.893890 0.871821 0.283940
O O2 0.819557 0.929815 0.074868
O O3 0.991915 0.634529 0.237810
O O4 0.828546 0.801295 0.887969
O O5 0.000000 0.500000 0.000000
O O6 0.049216 0.864237 0.976571
O O7 0.701228 0.235928 0.555959
O O8 0.585062 0.569623 0.408352
O O9 0.724260 0.332795 0.395800
O O10 0.574757 0.351795 0.115933
O O11 0.797073 0.365219 0.278553
O O12 0.652517 0.660437 0.077722
O O13 0.500000 0.500000 0.500000
#
# Coordination Sequence:
#
# PCOD9248686 Si02
#       6
#     4   4   4   4   4   4
#     4  12  26  43  70 103 141 194 241 288 357 433
#     4  11  24  40  63  95 145 179 234 291 352 422
#     4  11  23  41  68  98 136 182 232 286 355 422
#     4  10  22  43  69  95 136 178 228 295 351 421
#     4   9  21  44  66  93 128 177 228 285 359 415
#     4  11  24  41  64 105 133 179 238 285 355 420
#
# _framework density 23.507431
#
# number of rings (size 3 to 8) (size 9 to 14) (size 15 to 20)
#    0.000    1.333    1.667    3.000    7.000    2.667 
#    9.000    0.000    0.000    0.000    0.000    0.000 
#    0.000    0.000    0.000    0.000    0.000    0.000 
#
# Total GULP energy -133602.270264 kJ/mol
# GULP energy per Si atom -5566.761261 kJ/mol
# Density = 2.345393 g / cm^3
# Si number density = 23.507431 Si / 1000 Ang^3
#
#
#
# Elastic Constant Matrix: (Units=GPa)
#
#
# Indices 1 2 3 4 5 6 
#
# 1 105.9613 43.6752 8.9013 0.0000 -23.4005 0.0000
# 2 43.6752 88.2556 8.8543 0.0000 -10.0577 0.0000
# 3 8.9013 8.8543 76.5391 0.0000 -20.8755 0.0000
# 4 0.0000 0.0000 0.0000 24.7222 0.0000 5.1769
# 5 -23.4005 -10.0577 -20.8755 0.0000 40.8698 0.0000
# 6 0.0000 0.0000 0.0000 5.1769 0.0000 36.6994
#
#
#
# Elastic Compliance Matrix: (Units=1/GPa)
#
#
# Indices 1 2 3 4 5 6 
#
# 1 0.013251 -0.005898 0.000947 0.000000 0.006619 0.000000
# 2 -0.005898 0.014312 -0.001081 0.000000 -0.000407 0.000000
# 3 0.000947 -0.001081 0.015285 0.000000 0.008083 0.000000
# 4 0.000000 0.000000 0.000000 0.041681 0.000000 -0.005880
# 5 0.006619 -0.000407 0.008083 0.000000 0.032286 0.000000
# 6 0.000000 0.000000 0.000000 -0.005880 0.000000 0.028078
#
#
# Mechanical properties :
#
#
# Convention : Reuss Voigt Hill
#
# Bulk Modulus (GPa) = 32.48593 43.73529 38.11061
# Shear Modulus (GPa) = 29.90129 34.41330 32.15729
#
# Velocity S-wave (km/s) = 3.57037 3.83029 3.70261
# Velocity P-wave (km/s) = 5.55393 6.18116 5.87592
#
# Compressibility (1/GPa) = 0.03078256
#
# Stress axis : x y z
#
# Youngs Moduli (GPa) = 75.46796 69.87373 65.42448
#
# Poissons Ratio (x) = 0.41212 -0.06193
# Poissons Ratio (y) = 0.44511 0.07070
# Poissons Ratio (z) = -0.07143 0.07551
#
# Static dielectric constant tensor:
#      x y z
#    x 2.018100 0.000000 0.100560 
#    y 0.000000 1.604420 0.000000 
#    z 0.100560 0.000000 2.058490 
# 
# From -- ./inp_files/46004.got.cif
#   From: 2010.05.17/outbox.cif.g08.bks.cpg/sg14_24_cif.got.tgz:46004.got - 2010.06.03 17:49:19.
