data_PCOD9248459
_publ_section_title
;
Structure prediction by ZEFSAII (Michael W. Deem and Ramdas Pophale) SiO2 
 PCOD9248459
Probable space group: P 21/C
;
_chemical_formula_sum "Si O2"
_cell_formula_units_Z 24
_cell_length_a 8.270100
_cell_length_b 14.035518
_cell_length_c 9.107716
_cell_angle_alpha 90.000000
_cell_angle_beta 103.507854
_cell_angle_gamma 90.000000
_cell_volume 1027.935596
_symmetry_space_group_name_H-M "P 21/C"
_symmetry_group_IT_number 14
_symmetry_cell_setting 'monoclinic'
loop_
_space_group_symop_operation_xyz
x,y,z
-x,1/2+y,1/2-z
-x,-y,-z
x,1/2-y,1/2+z
loop_
_atom_site_type_symbol
_atom_site_label
_atom_site_fract_x
_atom_site_fract_y
_atom_site_fract_z
Si Si1 0.139858 0.897174 0.346258
Si Si2 0.396029 0.526400 0.119393
Si Si3 0.752688 0.879636 0.194094
Si Si4 0.533617 0.720927 0.253761
Si Si5 0.197338 0.513978 0.546784
Si Si6 0.682588 0.209923 0.036165
O O1 0.218684 0.941463 0.511472
O O2 0.220859 0.951256 0.221100
O O3 0.186206 0.785539 0.375458
O O4 0.942066 0.899716 0.282329
O O5 0.366730 0.443914 0.229756
O O6 0.501300 0.611342 0.212379
O O7 0.500000 0.500000 0.000000
O O8 0.696219 0.772804 0.226211
O O9 0.735732 0.919206 0.023119
O O10 0.487647 0.733144 0.413030
O O11 0.374269 0.768032 0.139508
O O12 0.254533 0.601894 0.454187
O O13 0.000000 0.500000 0.500000
#
# Coordination Sequence:
#
# PCOD9248459 Si02
#       6
#     4   4   4   4   4   4
#     4  10  23  44  68  99 134 178 231 277 349 418
#     4  11  24  45  69  97 137 182 226 282 349 411
#     4  11  23  45  67 103 135 176 232 288 346 412
#     4  11  24  42  66  98 132 180 224 280 337 410
#     4  10  22  42  69  97 132 178 227 283 350 408
#     4  11  21  44  65  90 136 179 224 280 346 407
#
# _framework density 23.347764999999999
#
# number of rings (size 3 to 8) (size 9 to 14) (size 15 to 20)
#    0.000    1.333    3.333    2.500    0.000    2.000 
#   18.000    0.000    0.000    0.000    0.000    0.000 
#    0.000    0.000    0.000    0.000    0.000    0.000 
#
# Total GULP energy -133884.729461 kJ/mol
# GULP energy per Si atom -5578.530394 kJ/mol
# Density = 2.329462 g / cm^3
# Si number density = 23.347765 Si / 1000 Ang^3
#
#
#
# Elastic Constant Matrix: (Units=GPa)
#
#
# Indices 1 2 3 4 5 6 
#
# 1 105.6092 35.3507 27.4689 0.0000 -3.8671 0.0000
# 2 35.3507 34.0191 5.1632 0.0000 9.6591 0.0000
# 3 27.4689 5.1632 87.1444 0.0000 -2.5868 0.0000
# 4 0.0000 0.0000 0.0000 24.6694 0.0000 -1.1833
# 5 -3.8671 9.6591 -2.5868 0.0000 34.4370 0.0000
# 6 0.0000 0.0000 0.0000 -1.1833 0.0000 51.6249
#
#
#
# Elastic Compliance Matrix: (Units=1/GPa)
#
#
# Indices 1 2 3 4 5 6 
#
# 1 0.017253 -0.019309 -0.004085 0.000000 0.007046 0.000000
# 2 -0.019309 0.053961 0.002381 0.000000 -0.017125 0.000000
# 3 -0.004085 0.002381 0.012616 0.000000 -0.000179 0.000000
# 4 0.000000 0.000000 0.000000 0.040581 0.000000 0.000930
# 5 0.007046 -0.017125 -0.000179 0.000000 0.034620 0.000000
# 6 0.000000 0.000000 0.000000 0.000930 0.000000 0.019392
#
#
# Mechanical properties :
#
#
# Convention : Reuss Voigt Hill
#
# Bulk Modulus (GPa) = 23.92110 40.30426 32.11268
# Shear Modulus (GPa) = 21.33269 32.73227 27.03248
#
# Velocity S-wave (km/s) = 3.02601 3.74832 3.40636
# Velocity P-wave (km/s) = 4.74097 6.00277 5.40879
#
# Compressibility (1/GPa) = 0.04180410
#
# Stress axis : x y z
#
# Youngs Moduli (GPa) = 57.96222 18.53203 79.26138
#
# Poissons Ratio (x) = 0.35783 0.32379
# Poissons Ratio (y) = 1.11917 -0.18871
# Poissons Ratio (z) = 0.23678 -0.04412
#
# Static dielectric constant tensor:
#      x y z
#    x 1.910400 0.000000 -0.021060 
#    y 0.000000 1.960720 0.000000 
#    z -0.021060 0.000000 1.895130 
# 
# From -- ./inp_files/8611.got.cif
#   From: 2010.05.17/outbox.cif.g08.bks.cpg/sg14_5_cif.got.tgz:8611.got - 2010.06.03 17:49:19.
