data_PCOD9248208
_publ_section_title
;
Structure prediction by ZEFSAII (Michael W. Deem and Ramdas Pophale) SiO2 
 PCOD9248208
Probable space group: P 21/C
;
_chemical_formula_sum "Si O2"
_cell_formula_units_Z 24
_cell_length_a 8.348227
_cell_length_b 14.911992
_cell_length_c 16.807993
_cell_angle_alpha 90.000000
_cell_angle_beta 31.198777
_cell_angle_gamma 90.000000
_cell_volume 1083.884154
_symmetry_space_group_name_H-M "P 21/C"
_symmetry_group_IT_number 14
_symmetry_cell_setting 'monoclinic'
loop_
_space_group_symop_operation_xyz
x,y,z
-x,1/2+y,1/2-z
-x,-y,-z
x,1/2-y,1/2+z
loop_
_atom_site_type_symbol
_atom_site_label
_atom_site_fract_x
_atom_site_fract_y
_atom_site_fract_z
Si Si1 0.231605 0.873018 0.922701
Si Si2 0.543850 0.946740 0.241911
Si Si3 0.520030 0.230809 0.422586
Si Si4 0.339639 0.905175 0.059472
Si Si5 0.888665 0.205475 0.628088
Si Si6 0.607852 0.917286 0.400636
O O1 0.233453 0.773241 0.887149
O O2 0.427222 0.948469 0.792420
O O3 0.336522 0.876494 0.969023
O O4 0.872656 0.904558 0.074987
O O5 0.281369 0.889348 0.308959
O O6 0.509674 0.931671 0.350969
O O7 0.471957 0.332205 0.471391
O O8 0.816453 0.242223 0.241037
O O9 0.533423 0.168620 0.494134
O O10 0.254218 0.195334 0.477074
O O11 0.981825 0.909082 0.239723
O O12 0.500000 0.000000 0.000000
O O13 0.500000 0.000000 0.500000
#
# Coordination Sequence:
#
# PCOD9248208 Si02
#       6
#     4   4   4   4   4   4
#     4  10  22  41  69  93 132 178 216 272 330 397
#     4  10  22  43  67  98 132 172 223 269 334 391
#     4  12  25  43  68  98 137 175 221 278 332 399
#     4  11  25  43  68  99 133 178 224 270 338 397
#     4  12  23  44  69  98 132 173 226 274 332 395
#     4  11  25  44  68  99 136 173 224 280 327 392
#
# _framework density 22.142586999999999
#
# number of rings (size 3 to 8) (size 9 to 14) (size 15 to 20)
#    0.000    1.000    3.333    3.000    7.000    0.000 
#    3.000    1.667    0.000    0.000    0.000    0.000 
#    0.000    0.000    0.000    0.000    0.000    0.000 
#
# Total GULP energy -134208.939151 kJ/mol
# GULP energy per Si atom -5592.039131 kJ/mol
# Density = 2.209219 g / cm^3
# Si number density = 22.142587 Si / 1000 Ang^3
#
#
#
# Elastic Constant Matrix: (Units=GPa)
#
#
# Indices 1 2 3 4 5 6 
#
# 1 83.2732 17.5528 25.0691 0.0000 8.8499 0.0000
# 2 17.5528 85.9556 14.9945 0.0000 16.0745 0.0000
# 3 25.0691 14.9945 62.3384 0.0000 21.7353 0.0000
# 4 0.0000 0.0000 0.0000 32.3318 0.0000 3.7555
# 5 8.8499 16.0745 21.7353 0.0000 34.5851 0.0000
# 6 0.0000 0.0000 0.0000 3.7555 0.0000 42.7030
#
#
#
# Elastic Compliance Matrix: (Units=1/GPa)
#
#
# Indices 1 2 3 4 5 6 
#
# 1 0.013986 -0.002058 -0.005398 0.000000 0.000770 0.000000
# 2 -0.002058 0.013125 -0.000494 0.000000 -0.005263 0.000000
# 3 -0.005398 -0.000494 0.022756 0.000000 -0.012690 0.000000
# 4 0.000000 0.000000 0.000000 0.031248 0.000000 -0.002748
# 5 0.000770 -0.005263 -0.012690 0.000000 0.039138 0.000000
# 6 0.000000 0.000000 0.000000 -0.002748 0.000000 0.023659
#
#
# Mechanical properties :
#
#
# Convention : Reuss Voigt Hill
#
# Bulk Modulus (GPa) = 29.44177 38.53332 33.98755
# Shear Modulus (GPa) = 29.21681 33.52070 31.36875
#
# Velocity S-wave (km/s) = 3.63641 3.89505 3.76795
# Velocity P-wave (km/s) = 5.56387 6.13748 5.85770
#
# Compressibility (1/GPa) = 0.03396534
#
# Stress axis : x y z
#
# Youngs Moduli (GPa) = 71.50182 76.19252 43.94517
#
# Poissons Ratio (x) = 0.15683 0.23720
# Poissons Ratio (y) = 0.14718 0.02172
# Poissons Ratio (z) = 0.38594 0.03765
#
# Static dielectric constant tensor:
#      x y z
#    x 1.810720 0.000000 0.003310 
#    y 0.000000 1.799600 0.000000 
#    z 0.003310 0.000000 1.842150 
# 
# From -- ./inp_files/55898.got.cif
#   From: 2010.05.17/outbox.cif.g08.bks.cpg/sg14_28_cif.got.tgz:55898.got - 2010.06.03 17:49:19.
