data_PCOD9248490
_publ_section_title
;
Structure prediction by ZEFSAII (Michael W. Deem and Ramdas Pophale) SiO2 
 PCOD9248490
Probable space group: P 21/C
;
_chemical_formula_sum "Si O2"
_cell_formula_units_Z 28
_cell_length_a 16.412649
_cell_length_b 5.654368
_cell_length_c 14.194644
_cell_angle_alpha 90.000000
_cell_angle_beta 111.987697
_cell_angle_gamma 90.000000
_cell_volume 1221.492439
_symmetry_space_group_name_H-M "P 21/C"
_symmetry_group_IT_number 14
_symmetry_cell_setting 'monoclinic'
loop_
_space_group_symop_operation_xyz
x,y,z
-x,1/2+y,1/2-z
-x,-y,-z
x,1/2-y,1/2+z
loop_
_atom_site_type_symbol
_atom_site_label
_atom_site_fract_x
_atom_site_fract_y
_atom_site_fract_z
Si Si1 0.491406 0.433587 0.190849
Si Si2 0.187712 0.120215 0.737489
Si Si3 0.790984 0.280586 0.364386
Si Si4 0.300031 0.435014 0.025299
Si Si5 0.668078 0.563540 0.174452
Si Si6 0.040788 0.303427 0.799486
Si Si7 0.135997 0.175170 0.015468
O O1 0.483537 0.679731 0.249150
O O2 0.398011 0.381830 0.102138
O O3 0.567205 0.509649 0.150214
O O4 0.291394 0.170676 0.797341
O O5 0.135161 0.258747 0.792350
O O6 0.146161 0.207908 0.621305
O O7 0.172778 0.845335 0.714389
O O8 0.719982 0.450039 0.284952
O O9 0.867002 0.401391 0.458478
O O10 0.739800 0.120551 0.417313
O O11 0.306305 0.516064 0.919623
O O12 0.230974 0.219725 0.006980
O O13 0.059755 0.275333 0.918369
O O14 0.008920 0.564904 0.757754
#
# Coordination Sequence:
#
# PCOD9248490 Si02
#       7
#     4   4   4   4   4   4   4
#     4  12  25  46  67 108 158 190 247 300 353 414
#     4  10  24  45  72 103 142 191 237 291 365 436
#     4  10  22  42  70  98 140 194 232 298 354 428
#     4  11  23  42  71 103 143 197 242 298 349 426
#     4  11  23  42  71 103 143 197 242 298 349 426
#     4  12  30  48  74 111 145 181 235 308 362 436
#     4  10  24  45  72 103 142 191 237 291 365 436
#
# _framework density 22.922778999999998
#
# number of rings (size 3 to 8) (size 9 to 14) (size 15 to 20)
#    0.000    1.143    2.857    3.000   10.000    1.143 
#    0.000    1.429    0.000    0.000    0.000    0.000 
#    0.000    0.000    0.000    0.000    0.000    0.000 
#
# Total GULP energy -155952.642893 kJ/mol
# GULP energy per Si atom -5569.737246 kJ/mol
# Density = 2.287061 g / cm^3
# Si number density = 22.922779 Si / 1000 Ang^3
#
#
#
# Elastic Constant Matrix: (Units=GPa)
#
#
# Indices 1 2 3 4 5 6 
#
# 1 48.6547 16.1106 9.6220 0.0000 -4.0479 0.0000
# 2 16.1106 72.8225 22.0280 0.0000 7.3445 0.0000
# 3 9.6220 22.0280 123.8076 0.0000 1.6080 0.0000
# 4 0.0000 0.0000 0.0000 16.1756 0.0000 -1.1701
# 5 -4.0479 7.3445 1.6080 0.0000 40.0393 0.0000
# 6 0.0000 0.0000 0.0000 -1.1701 0.0000 21.2407
#
#
#
# Elastic Compliance Matrix: (Units=1/GPa)
#
#
# Indices 1 2 3 4 5 6 
#
# 1 0.022683 -0.005074 -0.000902 0.000000 0.003260 0.000000
# 2 -0.005074 0.015915 -0.002394 0.000000 -0.003336 0.000000
# 3 -0.000902 -0.002394 0.008573 0.000000 0.000004 0.000000
# 4 0.000000 0.000000 0.000000 0.062069 0.000000 0.003419
# 5 0.003260 -0.003336 0.000004 0.000000 0.025917 0.000000
# 6 0.000000 0.000000 0.000000 0.003419 0.000000 0.047268
#
#
# Mechanical properties :
#
#
# Convention : Reuss Voigt Hill
#
# Bulk Modulus (GPa) = 32.86197 37.86731 35.36464
# Shear Modulus (GPa) = 23.88816 28.65939 26.27378
#
# Velocity S-wave (km/s) = 3.23168 3.53974 3.38921
# Velocity P-wave (km/s) = 5.31903 5.76729 5.54769
#
# Compressibility (1/GPa) = 0.03043031
#
# Stress axis : x y z
#
# Youngs Moduli (GPa) = 44.08626 62.83317 116.64419
#
# Poissons Ratio (x) = 0.31881 0.10526
# Poissons Ratio (y) = 0.22369 0.27924
# Poissons Ratio (z) = 0.03978 0.15042
#
# Static dielectric constant tensor:
#      x y z
#    x 1.903370 0.000000 -0.024170 
#    y 0.000000 2.197750 0.000000 
#    z -0.024170 0.000000 1.845940 
# 
# From -- ./inp_files/47915.got.cif
#   From: 2010.05.17/outbox.cif.g08.bks.cpg/sg14_24_cif.got.tgz:47915.got - 2010.06.03 17:49:19.
