data_PCOD9248863
_publ_section_title
;
Structure prediction by ZEFSAII (Michael W. Deem and Ramdas Pophale) SiO2 
 PCOD9248863
Probable space group: P 21/C
;
_chemical_formula_sum "Si O2"
_cell_formula_units_Z 20
_cell_length_a 16.749018
_cell_length_b 5.422348
_cell_length_c 14.069790
_cell_angle_alpha 90.000000
_cell_angle_beta 33.349137
_cell_angle_gamma 90.000000
_cell_volume 702.459387
_symmetry_space_group_name_H-M "P 21/C"
_symmetry_group_IT_number 14
_symmetry_cell_setting 'monoclinic'
loop_
_space_group_symop_operation_xyz
x,y,z
-x,1/2+y,1/2-z
-x,-y,-z
x,1/2-y,1/2+z
loop_
_atom_site_type_symbol
_atom_site_label
_atom_site_fract_x
_atom_site_fract_y
_atom_site_fract_z
Si Si1 0.186539 0.037225 0.613227
Si Si2 0.646654 0.103736 0.730069
Si Si3 0.044287 0.180613 0.039007
Si Si4 0.481030 0.594722 0.910953
Si Si5 0.211511 0.048631 0.233499
O O1 0.218004 0.973429 0.472799
O O2 0.316357 0.888873 0.535298
O O3 0.230498 0.300592 0.616894
O O4 0.020421 0.961983 0.804676
O O5 0.542987 0.866007 0.828031
O O6 0.690089 0.126225 0.798160
O O7 0.570656 0.361559 0.773680
O O8 0.937885 0.411953 0.139873
O O9 0.194590 0.252447 0.838506
O O10 0.000000 0.000000 0.000000
O O11 0.500000 0.500000 0.000000
#
# Coordination Sequence:
#
# PCOD9248863 Si02
#       5
#     4   4   4   4   4
#     4  11  24  42  69  97 140 173 229 281 335 403
#     4  12  27  43  69 107 134 179 228 280 337 410
#     4   9  21  43  67  93 128 180 223 280 335 401
#     4  12  25  45  70  98 138 180 224 278 345 403
#     4  10  22  44  69  94 136 180 227 273 348 396
#
# _framework density 28.471399000000002
#
# number of rings (size 3 to 8) (size 9 to 14) (size 15 to 20)
#    0.000    1.200    2.000    3.000    8.400    0.000 
#   10.800    0.000    0.000    0.000    0.000    0.000 
#    0.000    0.000    0.000    0.000    0.000    0.000 
#
# Total GULP energy -111355.674498 kJ/mol
# GULP energy per Si atom -5567.783725 kJ/mol
# Density = 2.840660 g / cm^3
# Si number density = 28.471399 Si / 1000 Ang^3
#
#
#
# Elastic Constant Matrix: (Units=GPa)
#
#
# Indices 1 2 3 4 5 6 
#
# 1 103.0328 30.8071 -1.2845 0.0000 10.8289 0.0000
# 2 30.8071 55.8298 4.2330 0.0000 35.2070 0.0000
# 3 -1.2845 4.2330 104.8185 0.0000 33.9529 0.0000
# 4 0.0000 0.0000 0.0000 61.4801 0.0000 -12.7455
# 5 10.8289 35.2070 33.9529 0.0000 40.6769 0.0000
# 6 0.0000 0.0000 0.0000 -12.7455 0.0000 30.4231
#
#
#
# Elastic Compliance Matrix: (Units=1/GPa)
#
#
# Indices 1 2 3 4 5 6 
#
# 1 0.012546 -0.013247 -0.002664 0.000000 0.010349 0.000000
# 2 -0.013247 0.072523 0.022065 0.000000 -0.077661 0.000000
# 3 -0.002664 0.022065 0.019973 0.000000 -0.035061 0.000000
# 4 0.000000 0.000000 0.000000 0.017812 0.000000 0.007462
# 5 0.010349 -0.077661 -0.035061 0.000000 0.118312 0.000000
# 6 0.000000 0.000000 0.000000 0.007462 0.000000 0.035996
#
#
# Mechanical properties :
#
#
# Convention : Reuss Voigt Hill
#
# Bulk Modulus (GPa) = 8.52149 36.79914 22.66031
# Shear Modulus (GPa) = 16.44900 41.84439 29.14669
#
# Velocity S-wave (km/s) = 2.40622 3.83782 3.20303
# Velocity P-wave (km/s) = 3.27405 5.70890 4.65354
#
# Compressibility (1/GPa) = 0.11735043
#
# Stress axis : x y z
#
# Youngs Moduli (GPa) = 79.70899 13.78882 50.06647
#
# Poissons Ratio (x) = 0.18266 0.13336
# Poissons Ratio (y) = 1.05591 -1.10472
# Poissons Ratio (z) = 0.21231 -0.30425
#
# Static dielectric constant tensor:
#      x y z
#    x 2.313060 0.000000 -0.173090 
#    y 0.000000 2.253170 0.000000 
#    z -0.173090 0.000000 2.549470 
# 
# From -- ./inp_files/42437.got.cif
#   From: 2010.05.17/outbox.cif.g08.bks.cpg/sg14_22_cif.got.tgz:42437.got - 2010.06.03 17:49:19.
