data_PCOD9248933
_publ_section_title
;
Structure prediction by ZEFSAII (Michael W. Deem and Ramdas Pophale) SiO2 
 PCOD9248933
Probable space group: P 21/C
;
_chemical_formula_sum "Si O2"
_cell_formula_units_Z 14
_cell_length_a 14.300969
_cell_length_b 5.150657
_cell_length_c 8.535730
_cell_angle_alpha 90.000000
_cell_angle_beta 122.998912
_cell_angle_gamma 90.000000
_cell_volume 527.309410
_symmetry_space_group_name_H-M "P 21/C"
_symmetry_group_IT_number 14
_symmetry_cell_setting 'monoclinic'
loop_
_space_group_symop_operation_xyz
x,y,z
-x,1/2+y,1/2-z
-x,-y,-z
x,1/2-y,1/2+z
loop_
_atom_site_type_symbol
_atom_site_label
_atom_site_fract_x
_atom_site_fract_y
_atom_site_fract_z
Si Si1 0.160679 0.849213 0.428826
Si Si2 0.000000 0.500000 0.500000
Si Si3 0.694804 0.001294 0.166055
Si Si4 0.509326 0.780957 0.360825
O O1 0.076647 0.698020 0.466222
O O2 0.239660 0.640943 0.414024
O O3 0.227585 0.032745 0.611094
O O4 0.092590 0.991379 0.230986
O O5 0.593675 0.187933 0.127989
O O6 0.629865 0.746482 0.051323
O O7 0.511642 0.558192 0.231082
#
# Coordination Sequence:
#
# PCOD9248933 Si02
#       4
#     4   2   4   4
#     4  10  22  50  68 108 144 198 246 326 370 452
#     4  10  24  44  74  92 148 186 264 306 384 432
#     4  10  22  44  73 102 155 192 248 298 392 440
#     4  11  24  47  72 115 152 199 246 305 370 477
#
# _framework density 26.549876000000001
#
# number of rings (size 3 to 8) (size 9 to 14) (size 15 to 20)
#    0.000    1.714    2.857    0.000    0.000    9.143 
#   15.429    0.000    0.000    0.000    0.000    0.000 
#    0.000    0.000    0.000    0.000    0.000    0.000 
#
# Total GULP energy -78070.151218 kJ/mol
# GULP energy per Si atom -5576.439373 kJ/mol
# Density = 2.648945 g / cm^3
# Si number density = 26.549876 Si / 1000 Ang^3
#
#
#
# Elastic Constant Matrix: (Units=GPa)
#
#
# Indices 1 2 3 4 5 6 
#
# 1 80.5312 25.5140 31.6662 0.0000 11.0394 0.0000
# 2 25.5140 60.6604 45.5733 0.0000 -0.9601 0.0000
# 3 31.6662 45.5733 287.7141 0.0000 23.4141 0.0000
# 4 0.0000 0.0000 0.0000 19.6900 0.0000 -21.6840
# 5 11.0394 -0.9601 23.4141 0.0000 35.2157 0.0000
# 6 0.0000 0.0000 0.0000 -21.6840 0.0000 25.2431
#
#
#
# Elastic Compliance Matrix: (Units=1/GPa)
#
#
# Indices 1 2 3 4 5 6 
#
# 1 0.015154 -0.006225 -0.000298 0.000000 -0.004722 0.000000
# 2 -0.006225 0.021501 -0.003095 0.000000 0.004595 0.000000
# 3 -0.000298 -0.003095 0.004227 0.000000 -0.002801 0.000000
# 4 0.000000 0.000000 0.000000 0.940510 0.000000 0.807905
# 5 -0.004722 0.004595 -0.002801 0.000000 0.031865 0.000000
# 6 0.000000 0.000000 0.000000 0.807905 0.000000 0.733611
#
#
# Mechanical properties :
#
#
# Convention : Reuss Voigt Hill
#
# Bulk Modulus (GPa) = 46.19475 70.49028 58.34252
# Shear Modulus (GPa) = 2.81957 37.77323 20.29640
#
# Velocity S-wave (km/s) = 1.03165 3.77600 2.76789
# Velocity P-wave (km/s) = 4.34236 6.75416 5.67780
#
# Compressibility (1/GPa) = 0.02164748
#
# Stress axis : x y z
#
# Youngs Moduli (GPa) = 65.98850 46.50918 236.59963
#
# Poissons Ratio (x) = 0.28952 0.07040
# Poissons Ratio (y) = 0.41079 0.73217
# Poissons Ratio (z) = 0.01963 0.14392
#
# Static dielectric constant tensor:
#      x y z
#    x 2.055100 0.000000 -0.028310 
#    y 0.000000 2.053280 0.000000 
#    z -0.028310 0.000000 2.137880 
# 
# From -- ./inp_files/11395.got.cif
#   From: 2010.05.17/outbox.cif.g08.bks.cpg/sg14_6_cif.got.tgz:11395.got - 2010.06.03 17:49:19.
