data_PCOD9248491
_publ_section_title
;
Structure prediction by ZEFSAII (Michael W. Deem and Ramdas Pophale) SiO2 
 PCOD9248491
Probable space group: P 21/C
;
_chemical_formula_sum "Si O2"
_cell_formula_units_Z 28
_cell_length_a 10.529290
_cell_length_b 12.458406
_cell_length_c 15.684727
_cell_angle_alpha 90.000000
_cell_angle_beta 149.577605
_cell_angle_gamma 90.000000
_cell_volume 1041.854881
_symmetry_space_group_name_H-M "P 21/C"
_symmetry_group_IT_number 14
_symmetry_cell_setting 'monoclinic'
loop_
_space_group_symop_operation_xyz
x,y,z
-x,1/2+y,1/2-z
-x,-y,-z
x,1/2-y,1/2+z
loop_
_atom_site_type_symbol
_atom_site_label
_atom_site_fract_x
_atom_site_fract_y
_atom_site_fract_z
Si Si1 0.589240 0.094537 0.918263
Si Si2 0.722590 0.288726 0.879234
Si Si3 0.035689 0.085794 0.286615
Si Si4 0.327761 0.277411 0.832388
Si Si5 0.250276 0.611686 0.816634
Si Si6 0.846813 0.757339 0.507066
Si Si7 0.459283 0.470099 0.786228
O O1 0.708828 0.199396 0.943116
O O2 0.339405 0.154243 0.808677
O O3 0.592379 0.013387 0.839989
O O4 0.755623 0.058788 0.094601
O O5 0.448769 0.269492 0.673771
O O6 0.717787 0.406801 0.917588
O O7 0.965990 0.268713 0.964663
O O8 0.119306 0.187654 0.278002
O O9 0.100963 0.128565 0.416926
O O10 0.206058 0.988135 0.353486
O O11 0.319634 0.367596 0.751913
O O12 0.576098 0.303805 0.033544
O O13 0.376152 0.563827 0.803146
O O14 0.986751 0.663452 0.639508
#
# Coordination Sequence:
#
# PCOD9248491 Si02
#       7
#     4   4   4   4   4   4   4
#     4  11  23  41  67 103 139 181 232 298 347 417
#     4  11  27  43  71 105 141 185 236 296 354 415
#     4  11  24  40  70  98 134 188 242 284 347 428
#     4  10  23  42  67 103 138 188 241 286 352 428
#     4  11  22  44  75  98 138 195 240 282 359 436
#     4  12  25  47  70 100 146 186 234 293 356 420
#     4  10  22  42  70  99 139 182 244 279 357 418
#
# _framework density 26.875143999999999
#
# number of rings (size 3 to 8) (size 9 to 14) (size 15 to 20)
#    0.000    1.143    2.857    3.429    8.000    2.857 
#    2.571    2.143    0.000    0.000    0.000    0.000 
#    0.000    0.000    0.000    0.000    0.000    0.000 
#
# Total GULP energy -156321.225252 kJ/mol
# GULP energy per Si atom -5582.900902 kJ/mol
# Density = 2.681398 g / cm^3
# Si number density = 26.875144 Si / 1000 Ang^3
#
#
#
# Elastic Constant Matrix: (Units=GPa)
#
#
# Indices 1 2 3 4 5 6 
#
# 1 62.6452 36.9953 21.1310 0.0000 -0.0303 0.0000
# 2 36.9953 99.5762 33.4684 0.0000 -5.0653 0.0000
# 3 21.1310 33.4684 170.5861 0.0000 8.3766 0.0000
# 4 0.0000 0.0000 0.0000 31.4251 0.0000 -4.1734
# 5 -0.0303 -5.0653 8.3766 0.0000 24.2662 0.0000
# 6 0.0000 0.0000 0.0000 -4.1734 0.0000 39.3124
#
#
#
# Elastic Compliance Matrix: (Units=1/GPa)
#
#
# Indices 1 2 3 4 5 6 
#
# 1 0.020681 -0.007387 -0.001056 0.000000 -0.001152 0.000000
# 2 -0.007387 0.013613 -0.001927 0.000000 0.003498 0.000000
# 3 -0.001056 -0.001927 0.006501 0.000000 -0.002648 0.000000
# 4 0.000000 0.000000 0.000000 0.032277 0.000000 0.003426
# 5 -0.001152 0.003498 -0.002648 0.000000 0.042852 0.000000
# 6 0.000000 0.000000 0.000000 0.003426 0.000000 0.025801
#
#
# Mechanical properties :
#
#
# Convention : Reuss Voigt Hill
#
# Bulk Modulus (GPa) = 49.86585 57.33297 53.59941
# Shear Modulus (GPa) = 29.55937 35.08160 32.32049
#
# Velocity S-wave (km/s) = 3.32004 3.61689 3.47164
# Velocity P-wave (km/s) = 5.76990 6.23072 6.00474
#
# Compressibility (1/GPa) = 0.02005380
#
# Stress axis : x y z
#
# Youngs Moduli (GPa) = 48.35327 73.45969 153.81951
#
# Poissons Ratio (x) = 0.54267 0.16242
# Poissons Ratio (y) = 0.35720 0.29648
# Poissons Ratio (z) = 0.05106 0.14159
#
# Static dielectric constant tensor:
#      x y z
#    x 2.162490 0.000000 -0.032120 
#    y 0.000000 2.135190 0.000000 
#    z -0.032120 0.000000 2.301970 
# 
# From -- ./inp_files/57883.got.cif
#   From: 2010.05.17/outbox.cif.g08.bks.cpg/sg14_29_cif.got.tgz:57883.got - 2010.06.03 17:49:19.
