data_PCOD9248449
_publ_section_title
;
Structure prediction by ZEFSAII (Michael W. Deem and Ramdas Pophale) SiO2 
 PCOD9248449
Probable space group: P 21/C
;
_chemical_formula_sum "Si O2"
_cell_formula_units_Z 18
_cell_length_a 17.246428
_cell_length_b 5.297387
_cell_length_c 8.717104
_cell_angle_alpha 90.000000
_cell_angle_beta 121.079270
_cell_angle_gamma 90.000000
_cell_volume 682.082782
_symmetry_space_group_name_H-M "P 21/C"
_symmetry_group_IT_number 14
_symmetry_cell_setting 'monoclinic'
loop_
_space_group_symop_operation_xyz
x,y,z
-x,1/2+y,1/2-z
-x,-y,-z
x,1/2-y,1/2+z
loop_
_atom_site_type_symbol
_atom_site_label
_atom_site_fract_x
_atom_site_fract_y
_atom_site_fract_z
Si Si1 0.500000 0.000000 0.000000
Si Si2 0.107153 0.229961 0.779424
Si Si3 0.629244 0.172667 0.856443
Si Si4 0.250853 0.522109 0.787793
Si Si5 0.090615 0.768380 0.465103
O O1 0.563805 0.180047 0.173309
O O2 0.427798 0.969875 0.072562
O O3 0.198390 0.268571 0.777734
O O4 0.104506 0.472631 0.888504
O O5 0.013830 0.242172 0.587641
O O6 0.101597 0.974177 0.867050
O O7 0.687879 0.998227 0.801404
O O8 0.692098 0.369844 0.012525
O O9 0.169871 0.717325 0.665972
#
# Coordination Sequence:
#
# PCOD9248449 Si02
#       5
#     2   4   4   4   4
#     4  10  24  50  70 108 136 200 234 332 398 472
#     4  10  22  42  69 106 156 203 249 305 367 437
#     4  10  24  48  78 102 154 182 258 314 400 456
#     4  11  21  45  71 108 147 199 246 315 362 470
#     4  10  22  42  69 106 156 203 249 305 367 437
#
# _framework density 26.389759000000002
#
# number of rings (size 3 to 8) (size 9 to 14) (size 15 to 20)
#    0.000    1.778    2.222    0.667    0.000    5.333 
#   12.000    6.667    0.000    0.000    0.000    0.000 
#    0.000    0.000    0.000    0.000    0.000    0.000 
#
# Total GULP energy -100485.332743 kJ/mol
# GULP energy per Si atom -5582.518486 kJ/mol
# Density = 2.632969 g / cm^3
# Si number density = 26.389759 Si / 1000 Ang^3
#
#
#
# Elastic Constant Matrix: (Units=GPa)
#
#
# Indices 1 2 3 4 5 6 
#
# 1 245.8038 53.7277 67.1799 0.0000 -32.3339 0.0000
# 2 53.7277 140.7428 46.7224 0.0000 -12.8843 0.0000
# 3 67.1799 46.7224 70.9498 0.0000 -7.5524 0.0000
# 4 0.0000 0.0000 0.0000 37.1695 0.0000 -16.1180
# 5 -32.3339 -12.8843 -7.5524 0.0000 51.6813 0.0000
# 6 0.0000 0.0000 0.0000 -16.1180 0.0000 2.2975
#
#
#
# Elastic Compliance Matrix: (Units=1/GPa)
#
#
# Indices 1 2 3 4 5 6 
#
# 1 0.005902 -0.000302 -0.005083 0.000000 0.002874 0.000000
# 2 -0.000302 0.009211 -0.005643 0.000000 0.001283 0.000000
# 3 -0.005083 -0.005643 0.022485 0.000000 -0.001301 0.000000
# 4 0.000000 0.000000 0.000000 -0.013175 0.000000 -0.092424
# 5 0.002874 0.001283 -0.001301 0.000000 0.021277 0.000000
# 6 0.000000 0.000000 0.000000 -0.092424 0.000000 -0.213138
#
#
# Mechanical properties :
#
#
# Convention : Reuss Voigt Hill
#
# Bulk Modulus (GPa) = 64.34563 88.08408 76.21485
# Shear Modulus (GPa) = -35.66318 37.55410 0.94546
#
# Velocity S-wave (km/s) = -3.68013 3.77643 0.59921
# Velocity P-wave (km/s) = 2.52546 7.24333 5.42420
#
# Compressibility (1/GPa) = 0.01554107
#
# Stress axis : x y z
#
# Youngs Moduli (GPa) = 169.44321 108.56186 44.47412
#
# Poissons Ratio (x) = 0.03283 0.22606
# Poissons Ratio (y) = 0.05124 0.25097
# Poissons Ratio (z) = 0.86128 0.61262
#
# Static dielectric constant tensor:
#      x y z
#    x 2.074140 0.000000 -0.020620 
#    y 0.000000 2.055760 0.000000 
#    z -0.020620 0.000000 2.090220 
# 
# From -- ./inp_files/17182.got.cif
#   From: 2010.05.17/outbox.cif.g08.bks.cpg/sg14_9_cif.got.tgz:17182.got - 2010.06.03 17:49:19.
