data_PCOD9248246
_publ_section_title
;
Structure prediction by ZEFSAII (Michael W. Deem and Ramdas Pophale) SiO2 
 PCOD9248246
Probable space group: P 21/C
;
_chemical_formula_sum "Si O2"
_cell_formula_units_Z 32
_cell_length_a 13.664894
_cell_length_b 5.257694
_cell_length_c 18.390343
_cell_angle_alpha 90.000000
_cell_angle_beta 89.106854
_cell_angle_gamma 90.000000
_cell_volume 1321.108950
_symmetry_space_group_name_H-M "P 21/C"
_symmetry_group_IT_number 14
_symmetry_cell_setting 'monoclinic'
loop_
_space_group_symop_operation_xyz
x,y,z
-x,1/2+y,1/2-z
-x,-y,-z
x,1/2-y,1/2+z
loop_
_atom_site_type_symbol
_atom_site_label
_atom_site_fract_x
_atom_site_fract_y
_atom_site_fract_z
Si Si1 0.189287 0.926331 0.532632
Si Si2 0.682675 0.568935 0.446257
Si Si3 0.087282 0.683761 0.174514
Si Si4 0.435850 0.113114 0.653440
Si Si5 0.571839 0.716313 0.077916
Si Si6 0.869287 0.813922 0.742314
Si Si7 0.241729 0.572839 0.880162
Si Si8 0.620946 0.404471 0.702022
O O1 0.266387 0.702496 0.551660
O O2 0.102008 0.873343 0.589590
O O3 0.166699 0.891784 0.447062
O O4 0.236033 0.206223 0.544943
O O5 0.622885 0.645623 0.375302
O O6 0.603236 0.599470 0.512379
O O7 0.130900 0.953065 0.200302
O O8 0.974799 0.681878 0.201163
O O9 0.138359 0.451310 0.216452
O O10 0.536433 0.192269 0.692334
O O11 0.471156 0.939732 0.584939
O O12 0.372495 0.971012 0.714063
O O13 0.660980 0.518025 0.079579
O O14 0.580446 0.868302 0.153116
O O15 0.792464 0.875323 0.680068
O O16 0.278337 0.815482 0.835589
#
# Coordination Sequence:
#
# PCOD9248246 Si02
#       8
#     4   4   4   4   4   4   4   4
#     4  11  24  43  65 100 134 170 222 272 322 406
#     4  11  25  41  65  93 130 178 220 271 335 385
#     4  10  23  44  66 102 138 165 222 269 325 410
#     4  11  24  38  61  89 125 176 225 279 333 385
#     4  10  22  42  58  89 130 169 226 280 320 394
#     4  10  23  43  71  99 132 177 211 271 337 393
#     4  10  24  41  67  93 132 175 216 275 336 389
#     4  11  22  40  60  90 127 164 229 277 326 386
#
# _framework density 24.222073999999999
#
# number of rings (size 3 to 8) (size 9 to 14) (size 15 to 20)
#    0.000    1.500    2.500    1.125    5.250    2.000 
#    0.000    0.000    0.000    6.750    0.000    0.000 
#    0.000    0.000    0.000    0.000    0.000    0.000 
#
# Total GULP energy -179076.780419 kJ/mol
# GULP energy per Si atom -5596.149388 kJ/mol
# Density = 2.416694 g / cm^3
# Si number density = 24.222074 Si / 1000 Ang^3
#
#
#
# Elastic Constant Matrix: (Units=GPa)
#
#
# Indices 1 2 3 4 5 6 
#
# 1 17.5989 9.6817 -3.9324 0.0000 -5.1369 0.0000
# 2 9.6817 99.6551 -8.4173 0.0000 -1.7442 0.0000
# 3 -3.9324 -8.4173 88.5282 0.0000 -28.7403 0.0000
# 4 0.0000 0.0000 0.0000 28.5393 0.0000 -1.3730
# 5 -5.1369 -1.7442 -28.7403 0.0000 38.2403 0.0000
# 6 0.0000 0.0000 0.0000 -1.3730 0.0000 25.0189
#
#
#
# Elastic Compliance Matrix: (Units=1/GPa)
#
#
# Indices 1 2 3 4 5 6 
#
# 1 0.065371 -0.005537 0.006807 0.000000 0.013645 0.000000
# 2 -0.005537 0.010656 0.000904 0.000000 0.000422 0.000000
# 3 0.006807 0.000904 0.015866 0.000000 0.012880 0.000000
# 4 0.000000 0.000000 0.000000 0.035132 0.000000 0.001928
# 5 0.013645 0.000422 0.012880 0.000000 0.037683 0.000000
# 6 0.000000 0.000000 0.000000 0.001928 0.000000 0.040076
#
#
# Mechanical properties :
#
#
# Convention : Reuss Voigt Hill
#
# Bulk Modulus (GPa) = 10.39054 22.27180 16.33117
# Shear Modulus (GPa) = 21.50390 32.25639 26.88014
#
# Velocity S-wave (km/s) = 2.98280 3.65320 3.33489
# Velocity P-wave (km/s) = 4.02017 5.19704 4.64602
#
# Compressibility (1/GPa) = 0.09624138
#
# Stress axis : x y z
#
# Youngs Moduli (GPa) = 15.29719 93.84108 63.02983
#
# Poissons Ratio (x) = 0.51962 -0.42905
# Poissons Ratio (y) = 0.08470 -0.05699
# Poissons Ratio (z) = -0.10413 -0.08485
#
# Static dielectric constant tensor:
#      x y z
#    x 1.949760 0.000000 -0.032040 
#    y 0.000000 1.942850 0.000000 
#    z -0.032040 0.000000 1.942690 
# 
# From -- ./inp_files/58612.got.cif
#   From: 2010.05.17/outbox.cif.g08.bks.cpg/sg14_30_cif.got.tgz:58612.got - 2010.06.03 17:49:19.
