data_PCOD9248104
_publ_section_title
;
Structure prediction by ZEFSAII (Michael W. Deem and Ramdas Pophale) SiO2 
 PCOD9248104
Probable space group: P 21/C
;
_chemical_formula_sum "Si O2"
_cell_formula_units_Z 22
_cell_length_a 9.418958
_cell_length_b 6.389147
_cell_length_c 26.481275
_cell_angle_alpha 90.000000
_cell_angle_beta 29.901781
_cell_angle_gamma 90.000000
_cell_volume 794.442719
_symmetry_space_group_name_H-M "P 21/C"
_symmetry_group_IT_number 14
_symmetry_cell_setting 'monoclinic'
loop_
_space_group_symop_operation_xyz
x,y,z
-x,1/2+y,1/2-z
-x,-y,-z
x,1/2-y,1/2+z
loop_
_atom_site_type_symbol
_atom_site_label
_atom_site_fract_x
_atom_site_fract_y
_atom_site_fract_z
Si Si1 0.424184 0.311870 0.134167
Si Si2 0.883877 0.228419 0.870466
Si Si3 0.500000 0.000000 0.500000
Si Si4 0.083365 0.993586 0.034615
Si Si5 0.119254 0.890783 0.352554
Si Si6 0.394026 0.325955 0.848752
O O1 0.389252 0.379649 0.087919
O O2 0.587000 0.497237 0.114476
O O3 0.126818 0.279400 0.254664
O O4 0.614578 0.102438 0.075145
O O5 0.947051 0.080273 0.897068
O O6 0.876099 0.462911 0.902214
O O7 0.565312 0.254400 0.951435
O O8 0.849321 0.852905 0.076220
O O9 0.992863 0.232562 0.070882
O O10 0.302238 0.782854 0.252725
O O11 0.328951 0.049803 0.316682
#
# Coordination Sequence:
#
# PCOD9248104 Si02
#       6
#     4   4   2   4   4   4
#     4  11  23  45  69  99 140 187 233 289 350 408
#     4  10  23  46  69  98 134 183 230 286 350 405
#     4  10  26  50  70  96 138 180 250 300 328 406
#     4  10  22  41  65 104 140 173 228 276 348 434
#     4  11  20  39  68 100 140 176 222 281 343 430
#     4  11  20  37  67 103 143 181 217 276 353 423
#
# _framework density 27.692367999999998
#
# number of rings (size 3 to 8) (size 9 to 14) (size 15 to 20)
#    0.000    1.455    3.636    1.636    0.000    2.182 
#   13.091    1.818    0.000    0.000    0.000    0.000 
#    0.000    0.000    0.000    0.000    0.000    0.000 
#
# Total GULP energy -123035.760063 kJ/mol
# GULP energy per Si atom -5592.534548 kJ/mol
# Density = 2.762934 g / cm^3
# Si number density = 27.692368 Si / 1000 Ang^3
#
#
#
# Elastic Constant Matrix: (Units=GPa)
#
#
# Indices 1 2 3 4 5 6 
#
# 1 72.0695 16.7324 42.4913 0.0000 -2.4783 0.0000
# 2 16.7324 107.0603 37.9982 0.0000 -3.2260 0.0000
# 3 42.4913 37.9982 203.0935 0.0000 9.5625 0.0000
# 4 0.0000 0.0000 0.0000 70.1514 0.0000 -4.4414
# 5 -2.4783 -3.2260 9.5625 0.0000 34.7847 0.0000
# 6 0.0000 0.0000 0.0000 -4.4414 0.0000 55.6585
#
#
#
# Elastic Compliance Matrix: (Units=1/GPa)
#
#
# Indices 1 2 3 4 5 6 
#
# 1 0.016147 -0.001323 -0.003221 0.000000 0.001913 0.000000
# 2 -0.001323 0.010187 -0.001691 0.000000 0.001315 0.000000
# 3 -0.003221 -0.001691 0.006010 0.000000 -0.002039 0.000000
# 4 0.000000 0.000000 0.000000 0.014327 0.000000 0.001143
# 5 0.001913 0.001315 -0.002039 0.000000 0.029567 0.000000
# 6 0.000000 0.000000 0.000000 0.001143 0.000000 0.018058
#
#
# Mechanical properties :
#
#
# Convention : Reuss Voigt Hill
#
# Bulk Modulus (GPa) = 50.31491 64.07412 57.19452
# Shear Modulus (GPa) = 44.09493 51.11902 47.60698
#
# Velocity S-wave (km/s) = 3.99471 4.30113 4.15075
# Velocity P-wave (km/s) = 6.28376 6.91768 6.60832
#
# Compressibility (1/GPa) = 0.01987483
#
# Stress axis : x y z
#
# Youngs Moduli (GPa) = 61.92927 98.16290 166.38581
#
# Poissons Ratio (x) = 0.12985 0.53592
# Poissons Ratio (y) = 0.08192 0.28139
# Poissons Ratio (z) = 0.19947 0.16601
#
# Static dielectric constant tensor:
#      x y z
#    x 2.147880 0.000000 0.013960 
#    y 0.000000 2.278640 0.000000 
#    z 0.013960 0.000000 2.152320 
# 
# From -- ./inp_files/42652.got.cif
#   From: 2010.05.17/outbox.cif.g08.bks.cpg/sg14_22_cif.got.tgz:42652.got - 2010.06.03 17:49:19.
