data_PCOD9248217
_publ_section_title
;
Structure prediction by ZEFSAII (Michael W. Deem and Ramdas Pophale) SiO2 
 PCOD9248217
Probable space group: P 21/C
;
_chemical_formula_sum "Si O2"
_cell_formula_units_Z 20
_cell_length_a 5.046973
_cell_length_b 10.983832
_cell_length_c 18.478971
_cell_angle_alpha 90.000000
_cell_angle_beta 128.806617
_cell_angle_gamma 90.000000
_cell_volume 798.266950
_symmetry_space_group_name_H-M "P 21/C"
_symmetry_group_IT_number 14
_symmetry_cell_setting 'monoclinic'
loop_
_space_group_symop_operation_xyz
x,y,z
-x,1/2+y,1/2-z
-x,-y,-z
x,1/2-y,1/2+z
loop_
_atom_site_type_symbol
_atom_site_label
_atom_site_fract_x
_atom_site_fract_y
_atom_site_fract_z
Si Si1 0.329914 0.709271 0.999128
Si Si2 0.106434 0.535285 0.438602
Si Si3 0.878431 0.061318 0.662995
Si Si4 0.357251 0.898301 0.650799
Si Si5 0.948241 0.314558 0.321329
O O1 0.180020 0.646295 0.045373
O O2 0.690168 0.764334 0.087086
O O3 0.092873 0.819564 0.930640
O O4 0.371050 0.619735 0.938958
O O5 0.500000 0.500000 0.500000
O O6 0.902948 0.446435 0.351164
O O7 0.000000 0.500000 0.500000
O O8 0.965498 0.160028 0.739109
O O9 0.705232 0.951461 0.677826
O O10 0.174646 0.005535 0.664099
O O11 0.331060 0.781624 0.699073
#
# Coordination Sequence:
#
# PCOD9248217 Si02
#       5
#     4   4   4   4   4
#     4  11  25  49  77 109 147 196 245 307 371 445
#     4  10  22  41  70 100 137 187 237 290 361 425
#     4  12  30  44  77 111 147 198 247 305 374 436
#     4  12  26  48  73 106 150 189 251 302 372 444
#     4  11  27  50  72 110 150 195 248 306 366 441
#
# _framework density 25.054276999999999
#
# number of rings (size 3 to 8) (size 9 to 14) (size 15 to 20)
#    0.000    0.800    4.000    1.200    8.400    0.000 
#    3.600    0.000    0.000    0.000    0.000    0.000 
#    0.000    0.000    0.000    0.000    0.000    0.000 
#
# Total GULP energy -111894.072016 kJ/mol
# GULP energy per Si atom -5594.703601 kJ/mol
# Density = 2.499725 g / cm^3
# Si number density = 25.054277 Si / 1000 Ang^3
#
#
#
# Elastic Constant Matrix: (Units=GPa)
#
#
# Indices 1 2 3 4 5 6 
#
# 1 101.0675 6.8587 31.9943 0.0000 -23.1079 0.0000
# 2 6.8587 86.2551 59.9783 0.0000 0.8368 0.0000
# 3 31.9943 59.9783 170.4015 0.0000 -26.0128 0.0000
# 4 0.0000 0.0000 0.0000 51.8752 0.0000 -27.1769
# 5 -23.1079 0.8368 -26.0128 0.0000 38.0270 0.0000
# 6 0.0000 0.0000 0.0000 -27.1769 0.0000 39.5036
#
#
#
# Elastic Compliance Matrix: (Units=1/GPa)
#
#
# Indices 1 2 3 4 5 6 
#
# 1 0.011724 -0.000178 -0.001173 0.000000 0.006326 0.000000
# 2 -0.000178 0.016077 -0.006360 0.000000 -0.004813 0.000000
# 3 -0.001173 -0.006360 0.009201 0.000000 0.005721 0.000000
# 4 0.000000 0.000000 0.000000 0.030140 0.000000 0.020735
# 5 0.006326 -0.004813 0.005721 0.000000 0.034161 0.000000
# 6 0.000000 0.000000 0.000000 0.020735 0.000000 0.039579
#
#
# Mechanical properties :
#
#
# Convention : Reuss Voigt Hill
#
# Bulk Modulus (GPa) = 46.33980 61.70963 54.02472
# Shear Modulus (GPa) = 30.58177 43.14070 36.86124
#
# Velocity S-wave (km/s) = 3.49753 4.15407 3.83986
# Velocity P-wave (km/s) = 5.90307 6.90596 6.42411
#
# Compressibility (1/GPa) = 0.02157972
#
# Stress axis : x y z
#
# Youngs Moduli (GPa) = 85.29420 62.20129 108.68773
#
# Poissons Ratio (x) = 0.01107 0.12749
# Poissons Ratio (y) = 0.01518 0.69125
# Poissons Ratio (z) = 0.10005 0.39560
#
# Static dielectric constant tensor:
#      x y z
#    x 1.982730 0.000000 0.069250 
#    y 0.000000 2.075590 0.000000 
#    z 0.069250 0.000000 1.948940 
# 
# From -- ./inp_files/37048.got.cif
#   From: 2010.05.17/outbox.cif.g08.bks.cpg/sg14_19_cif.got.tgz:37048.got - 2010.06.03 17:49:19.
