data_PCOD9248908
_publ_section_title
;
Structure prediction by ZEFSAII (Michael W. Deem and Ramdas Pophale) SiO2 
 PCOD9248908
Probable space group: P 21/C
;
_chemical_formula_sum "Si O2"
_cell_formula_units_Z 22
_cell_length_a 14.510979
_cell_length_b 5.022985
_cell_length_c 17.829465
_cell_angle_alpha 90.000000
_cell_angle_beta 139.282467
_cell_angle_gamma 90.000000
_cell_volume 847.743569
_symmetry_space_group_name_H-M "P 21/C"
_symmetry_group_IT_number 14
_symmetry_cell_setting 'monoclinic'
loop_
_space_group_symop_operation_xyz
x,y,z
-x,1/2+y,1/2-z
-x,-y,-z
x,1/2-y,1/2+z
loop_
_atom_site_type_symbol
_atom_site_label
_atom_site_fract_x
_atom_site_fract_y
_atom_site_fract_z
Si Si1 0.268884 0.951596 0.876293
Si Si2 0.094114 0.693664 0.638918
Si Si3 0.708920 0.397250 0.857491
Si Si4 0.500000 0.500000 0.000000
Si Si5 0.649958 0.694854 0.201063
Si Si6 0.774474 0.895734 0.981564
O O1 0.144455 0.867587 0.742206
O O2 0.356736 0.193548 0.890108
O O3 0.222487 0.033441 0.929635
O O4 0.370826 0.703779 0.942897
O O5 0.143487 0.858354 0.596874
O O6 0.197061 0.436532 0.697326
O O7 0.935135 0.604325 0.550199
O O8 0.623872 0.570846 0.742976
O O9 0.724393 0.598846 0.935011
O O10 0.682668 0.105858 0.875591
O O11 0.541187 0.461376 0.119609
#
# Coordination Sequence:
#
# PCOD9248908 Si02
#       6
#     4   4   4   2   4   4
#     4  10  25  41  70 101 137 188 246 302 352 430
#     4  10  23  41  68 100 142 192 230 287 365 446
#     4  11  24  43  64 102 144 190 224 285 369 443
#     4  10  22  48  70  94 132 186 248 290 356 422
#     4  10  22  44  71  95 133 189 239 286 359 438
#     4  12  26  39  69 104 148 177 236 295 364 421
#
# _framework density 25.951246000000001
#
# number of rings (size 3 to 8) (size 9 to 14) (size 15 to 20)
#    0.000    1.455    1.818    1.636   12.727    0.000 
#    0.000    1.818    0.000    0.000    0.000    0.000 
#    0.000    0.000    0.000    0.000    0.000    0.000 
#
# Total GULP energy -122683.804031 kJ/mol
# GULP energy per Si atom -5576.536547 kJ/mol
# Density = 2.589218 g / cm^3
# Si number density = 25.951246 Si / 1000 Ang^3
#
#
#
# Elastic Constant Matrix: (Units=GPa)
#
#
# Indices 1 2 3 4 5 6 
#
# 1 131.6203 40.8626 44.0917 0.0000 -21.5635 0.0000
# 2 40.8626 120.4610 14.8563 0.0000 -12.3117 0.0000
# 3 44.0917 14.8563 68.6668 0.0000 -16.9274 0.0000
# 4 0.0000 0.0000 0.0000 51.6317 0.0000 -15.8593
# 5 -21.5635 -12.3117 -16.9274 0.0000 45.5973 0.0000
# 6 0.0000 0.0000 0.0000 -15.8593 0.0000 21.3002
#
#
#
# Elastic Compliance Matrix: (Units=1/GPa)
#
#
# Indices 1 2 3 4 5 6 
#
# 1 0.010728 -0.002703 -0.005760 0.000000 0.002205 0.000000
# 2 -0.002703 0.009344 0.000023 0.000000 0.001253 0.000000
# 3 -0.005760 0.000023 0.019358 0.000000 0.004469 0.000000
# 4 0.000000 0.000000 0.000000 0.025111 0.000000 0.018697
# 5 0.002205 0.001253 0.004469 0.000000 0.024971 0.000000
# 6 0.000000 0.000000 0.000000 0.018697 0.000000 0.060869
#
#
# Mechanical properties :
#
#
# Convention : Reuss Voigt Hill
#
# Bulk Modulus (GPa) = 44.34691 57.81881 51.08286
# Shear Modulus (GPa) = 28.60792 38.43501 33.52146
#
# Velocity S-wave (km/s) = 3.32380 3.85261 3.59793
# Velocity P-wave (km/s) = 5.64410 6.48986 6.08170
#
# Compressibility (1/GPa) = 0.02254948
#
# Stress axis : x y z
#
# Youngs Moduli (GPa) = 93.21718 107.02449 51.65766
#
# Poissons Ratio (x) = 0.28932 0.29754
# Poissons Ratio (y) = 0.25199 -0.00120
# Poissons Ratio (z) = 0.53692 -0.00248
#
# Static dielectric constant tensor:
#      x y z
#    x 1.815490 0.000000 -0.494710 
#    y 0.000000 0.873030 0.000000 
#    z -0.494710 0.000000 1.160830 
# 
# From -- ./inp_files/58376.got.cif
#   From: 2010.05.17/outbox.cif.g08.bks.cpg/sg14_30_cif.got.tgz:58376.got - 2010.06.03 17:49:19.
