data_PCOD9248032
_publ_section_title
;
Structure prediction by ZEFSAII (Michael W. Deem and Ramdas Pophale) SiO2 
 PCOD9248032
Probable space group: P 21/C
;
_chemical_formula_sum "Si O2"
_cell_formula_units_Z 32
_cell_length_a 7.801946
_cell_length_b 22.251635
_cell_length_c 11.331950
_cell_angle_alpha 90.000000
_cell_angle_beta 138.320247
_cell_angle_gamma 90.000000
_cell_volume 1308.185296
_symmetry_space_group_name_H-M "P 21/C"
_symmetry_group_IT_number 14
_symmetry_cell_setting 'monoclinic'
loop_
_space_group_symop_operation_xyz
x,y,z
-x,1/2+y,1/2-z
-x,-y,-z
x,1/2-y,1/2+z
loop_
_atom_site_type_symbol
_atom_site_label
_atom_site_fract_x
_atom_site_fract_y
_atom_site_fract_z
Si Si1 0.770934 0.790035 0.376643
Si Si2 0.043059 0.582802 0.406011
Si Si3 0.518687 0.603744 0.282757
Si Si4 0.772465 0.607526 0.039567
Si Si5 0.772478 0.283783 0.464878
Si Si6 0.570232 0.971972 0.221708
Si Si7 0.311250 0.665712 0.948411
Si Si8 0.235490 0.126146 0.853548
O O1 0.893714 0.837884 0.528324
O O2 0.741134 0.822746 0.234328
O O3 0.959852 0.734969 0.458710
O O4 0.472339 0.776216 0.247621
O O5 0.792558 0.587378 0.360297
O O6 0.188574 0.647209 0.481823
O O7 0.261823 0.535821 0.552109
O O8 0.944086 0.573825 0.222567
O O9 0.371482 0.541814 0.235797
O O10 0.587908 0.634114 0.442116
O O11 0.359078 0.641305 0.105804
O O12 0.655943 0.562689 0.883744
O O13 0.555160 0.642810 0.002249
O O14 0.729987 0.236713 0.550704
O O15 0.697207 0.936483 0.177217
O O16 0.063322 0.633152 0.765780
#
# Coordination Sequence:
#
# PCOD9248032 Si02
#       8
#     4   4   4   4   4   4   4   4
#     4  10  22  42  66  95 134 171 226 274 337 397
#     4  11  23  42  64  96 129 170 227 265 340 401
#     4  11  24  42  67  96 129 177 220 276 334 395
#     4  10  22  42  65  97 130 174 216 276 331 401
#     4  11  22  46  63  98 135 175 226 279 332 409
#     4  11  23  42  66  96 134 170 223 277 332 395
#     4  10  24  42  62  96 134 168 227 269 335 398
#     4  10  22  41  62  93 128 172 215 271 330 397
#
# _framework density 24.461368
#
# number of rings (size 3 to 8) (size 9 to 14) (size 15 to 20)
#    0.000    1.500    2.500    3.000    0.000    7.500 
#   11.250    0.000    0.000    0.000    0.000    0.000 
#    0.000    0.000    0.000    0.000    0.000    0.000 
#
# Total GULP energy -179204.196070 kJ/mol
# GULP energy per Si atom -5600.131127 kJ/mol
# Density = 2.440569 g / cm^3
# Si number density = 24.461368 Si / 1000 Ang^3
#
#
#
# Elastic Constant Matrix: (Units=GPa)
#
#
# Indices 1 2 3 4 5 6 
#
# 1 64.3313 14.0966 9.5200 0.0000 -0.5351 0.0000
# 2 14.0966 53.3572 18.7163 0.0000 -20.2552 0.0000
# 3 9.5200 18.7163 92.7817 0.0000 -14.3139 0.0000
# 4 0.0000 0.0000 0.0000 17.7595 0.0000 1.6708
# 5 -0.5351 -20.2552 -14.3139 0.0000 30.6154 0.0000
# 6 0.0000 0.0000 0.0000 1.6708 0.0000 15.0640
#
#
#
# Elastic Compliance Matrix: (Units=1/GPa)
#
#
# Indices 1 2 3 4 5 6 
#
# 1 0.016905 -0.005531 -0.001226 0.000000 -0.003937 0.000000
# 2 -0.005531 0.027475 -0.002355 0.000000 0.016979 0.000000
# 3 -0.001226 -0.002355 0.012001 0.000000 0.004031 0.000000
# 4 0.000000 0.000000 0.000000 0.056902 0.000000 -0.006311
# 5 -0.003937 0.016979 0.004031 0.000000 0.045713 0.000000
# 6 0.000000 0.000000 0.000000 -0.006311 0.000000 0.067083
#
#
# Mechanical properties :
#
#
# Convention : Reuss Voigt Hill
#
# Bulk Modulus (GPa) = 26.20809 32.79290 29.50050
# Shear Modulus (GPa) = 19.45363 23.89693 21.67528
#
# Velocity S-wave (km/s) = 2.82313 3.12897 2.97998
# Velocity P-wave (km/s) = 4.62213 5.14675 4.89148
#
# Compressibility (1/GPa) = 0.03815615
#
# Stress axis : x y z
#
# Youngs Moduli (GPa) = 59.15358 36.39734 83.32750
#
# Poissons Ratio (x) = 0.20130 0.10218
# Poissons Ratio (y) = 0.32715 0.19626
# Poissons Ratio (z) = 0.07254 0.08573
#
# Static dielectric constant tensor:
#      x y z
#    x 2.023280 0.000000 0.046970 
#    y 0.000000 1.894010 0.000000 
#    z 0.046970 0.000000 1.927950 
# 
# From -- ./inp_files/27036.got.cif
#   From: 2010.05.17/outbox.cif.g08.bks.cpg/sg14_14_cif.got.tgz:27036.got - 2010.06.03 17:49:19.
