data_PCOD9248680
_publ_section_title
;
Structure prediction by ZEFSAII (Michael W. Deem and Ramdas Pophale) SiO2 
 PCOD9248680
Probable space group: P 21/C
;
_chemical_formula_sum "Si O2"
_cell_formula_units_Z 20
_cell_length_a 9.754714
_cell_length_b 9.305489
_cell_length_c 10.050900
_cell_angle_alpha 90.000000
_cell_angle_beta 101.952461
_cell_angle_gamma 90.000000
_cell_volume 892.564322
_symmetry_space_group_name_H-M "P 21/C"
_symmetry_group_IT_number 14
_symmetry_cell_setting 'monoclinic'
loop_
_space_group_symop_operation_xyz
x,y,z
-x,1/2+y,1/2-z
-x,-y,-z
x,1/2-y,1/2+z
loop_
_atom_site_type_symbol
_atom_site_label
_atom_site_fract_x
_atom_site_fract_y
_atom_site_fract_z
Si Si1 0.457510 0.839260 0.527948
Si Si2 0.702283 0.335128 0.725380
Si Si3 0.281495 0.373293 0.441202
Si Si4 0.901413 0.919717 0.874754
Si Si5 0.984468 0.311405 0.262731
O O1 0.388180 0.835755 0.659453
O O2 0.354117 0.777762 0.394442
O O3 0.592139 0.734992 0.550813
O O4 0.500000 0.000000 0.500000
O O5 0.699158 0.487312 0.647523
O O6 0.859767 0.287420 0.792701
O O7 0.251789 0.414454 0.589981
O O8 0.133287 0.305544 0.367958
O O9 0.968960 0.764993 0.863700
O O10 0.922797 0.026975 0.754286
O O11 0.000000 0.000000 0.000000
#
# Coordination Sequence:
#
# PCOD9248680 Si02
#       5
#     4   4   4   4   4
#     4  12  30  47  75 106 145 194 247 292 364 436
#     4  12  26  50  71 109 146 191 240 301 363 430
#     4  11  26  48  71 102 150 190 230 307 363 426
#     4  10  22  43  69 104 143 183 238 293 369 409
#     4  11  23  43  76 104 138 187 242 296 359 431
#
# _framework density 22.407347999999999
#
# number of rings (size 3 to 8) (size 9 to 14) (size 15 to 20)
#    0.000    0.800    4.000    3.000   11.200    0.000 
#    0.000    6.000    0.000    0.000    0.000    0.000 
#    0.000    0.000    0.000    0.000    0.000    0.000 
#
# Total GULP energy -111724.029360 kJ/mol
# GULP energy per Si atom -5586.201468 kJ/mol
# Density = 2.235635 g / cm^3
# Si number density = 22.407348 Si / 1000 Ang^3
#
#
#
# Elastic Constant Matrix: (Units=GPa)
#
#
# Indices 1 2 3 4 5 6 
#
# 1 129.9967 52.7482 55.2019 0.0000 -30.4911 0.0000
# 2 52.7482 134.0344 62.3213 0.0000 -17.4175 0.0000
# 3 55.2019 62.3213 110.1003 0.0000 -37.3741 0.0000
# 4 0.0000 0.0000 0.0000 38.5679 0.0000 -8.9305
# 5 -30.4911 -17.4175 -37.3741 0.0000 54.8367 0.0000
# 6 0.0000 0.0000 0.0000 -8.9305 0.0000 46.9096
#
#
#
# Elastic Compliance Matrix: (Units=1/GPa)
#
#
# Indices 1 2 3 4 5 6 
#
# 1 0.010652 -0.002440 -0.002878 0.000000 0.003186 0.000000
# 2 -0.002440 0.010719 -0.005398 0.000000 -0.001631 0.000000
# 3 -0.002878 -0.005398 0.016205 0.000000 0.007730 0.000000
# 4 0.000000 0.000000 0.000000 0.027124 0.000000 0.005164
# 5 0.003186 -0.001631 0.007730 0.000000 0.024758 0.000000
# 6 0.000000 0.000000 0.000000 0.005164 0.000000 0.022301
#
#
# Mechanical properties :
#
#
# Convention : Reuss Voigt Hill
#
# Bulk Modulus (GPa) = 61.93975 79.40825 70.67400
# Shear Modulus (GPa) = 36.08281 41.65352 38.86816
#
# Velocity S-wave (km/s) = 4.01722 4.31620 4.16939
# Velocity P-wave (km/s) = 7.01570 7.76884 7.40185
#
# Compressibility (1/GPa) = 0.01614472
#
# Stress axis : x y z
#
# Youngs Moduli (GPa) = 93.87926 93.29518 61.71045
#
# Poissons Ratio (x) = 0.22762 0.17760
# Poissons Ratio (y) = 0.22904 0.33308
# Poissons Ratio (z) = 0.27019 0.50356
#
# Static dielectric constant tensor:
#      x y z
#    x 1.829570 0.000000 -0.033550 
#    y 0.000000 1.773370 0.000000 
#    z -0.033550 0.000000 2.053560 
# 
# From -- ./inp_files/23073.got.cif
#   From: 2010.05.17/outbox.cif.g08.bks.cpg/sg14_12_cif.got.tgz:23073.got - 2010.06.03 17:49:19.
