data_PCOD9248330
_publ_section_title
;
Structure prediction by ZEFSAII (Michael W. Deem and Ramdas Pophale) SiO2 
 PCOD9248330
Probable space group: P 21/C
;
_chemical_formula_sum "Si O2"
_cell_formula_units_Z 16
_cell_length_a 5.199445
_cell_length_b 10.899352
_cell_length_c 12.102548
_cell_angle_alpha 90.000000
_cell_angle_beta 93.962228
_cell_angle_gamma 90.000000
_cell_volume 684.219105
_symmetry_space_group_name_H-M "P 21/C"
_symmetry_group_IT_number 14
_symmetry_cell_setting 'monoclinic'
loop_
_space_group_symop_operation_xyz
x,y,z
-x,1/2+y,1/2-z
-x,-y,-z
x,1/2-y,1/2+z
loop_
_atom_site_type_symbol
_atom_site_label
_atom_site_fract_x
_atom_site_fract_y
_atom_site_fract_z
Si Si1 0.138062 0.826982 0.092537
Si Si2 0.263221 0.400565 0.575988
Si Si3 0.226606 0.656953 0.285249
Si Si4 0.258850 0.561230 0.051815
O O1 0.167170 0.784306 0.219691
O O2 0.240640 0.707371 0.031259
O O3 0.285630 0.952112 0.070969
O O4 0.844653 0.848146 0.042940
O O5 0.510702 0.342869 0.639189
O O6 0.018688 0.378801 0.649854
O O7 0.265252 0.559552 0.185632
O O8 0.500000 0.500000 0.000000
O O9 0.000000 0.500000 0.000000
#
# Coordination Sequence:
#
# PCOD9248330 Si02
#       4
#     4   4   4   4
#     4   9  26  43  69 102 136 179 232 275 351 401
#     4  11  23  46  68  97 142 181 222 291 332 412
#     4  10  25  40  68 102 131 184 225 275 342 405
#     4  10  22  42  65  96 133 169 226 278 332 397
#
# _framework density 23.384319999999999
#
# number of rings (size 3 to 8) (size 9 to 14) (size 15 to 20)
#    1.500    0.500    0.000    1.500    0.000   18.000 
#    0.000    0.000    0.000    0.000    0.000    0.000 
#    0.000    0.000    0.000    0.000    0.000    0.000 
#
# Total GULP energy -89454.734068 kJ/mol
# GULP energy per Si atom -5590.920879 kJ/mol
# Density = 2.333110 g / cm^3
# Si number density = 23.384320 Si / 1000 Ang^3
#
#
#
# Elastic Constant Matrix: (Units=GPa)
#
#
# Indices 1 2 3 4 5 6 
#
# 1 189.9185 52.0850 74.3701 0.0000 29.2091 0.0000
# 2 52.0850 140.8705 39.0193 0.0000 18.6976 0.0000
# 3 74.3701 39.0193 119.3021 0.0000 39.7709 0.0000
# 4 0.0000 0.0000 0.0000 55.2728 0.0000 4.7531
# 5 29.2091 18.6976 39.7709 0.0000 49.5063 0.0000
# 6 0.0000 0.0000 0.0000 4.7531 0.0000 33.2967
#
#
#
# Elastic Compliance Matrix: (Units=1/GPa)
#
#
# Indices 1 2 3 4 5 6 
#
# 1 0.007285 -0.001550 -0.003820 0.000000 -0.000644 0.000000
# 2 -0.001550 0.008191 -0.001347 0.000000 -0.001097 0.000000
# 3 -0.003820 -0.001347 0.014044 0.000000 -0.008520 0.000000
# 4 0.000000 0.000000 0.000000 0.018317 0.000000 -0.002615
# 5 -0.000644 -0.001097 -0.008520 0.000000 0.027838 0.000000
# 6 0.000000 0.000000 0.000000 -0.002615 0.000000 0.030406
#
#
# Mechanical properties :
#
#
# Convention : Reuss Voigt Hill
#
# Bulk Modulus (GPa) = 62.16439 86.78221 74.47330
# Shear Modulus (GPa) = 40.03941 46.58961 43.31451
#
# Velocity S-wave (km/s) = 4.14240 4.46841 4.30849
# Velocity P-wave (km/s) = 7.03710 7.98837 7.52778
#
# Compressibility (1/GPa) = 0.01608638
#
# Stress axis : x y z
#
# Youngs Moduli (GPa) = 137.26039 122.09262 71.20510
#
# Poissons Ratio (x) = 0.18926 0.27199
# Poissons Ratio (y) = 0.21277 0.09590
# Poissons Ratio (z) = 0.52430 0.16444
#
# Static dielectric constant tensor:
#      x y z
#    x 1.868120 0.000000 -0.042980 
#    y 0.000000 1.879580 0.000000 
#    z -0.042980 0.000000 1.957810 
# 
# From -- ./inp_files/20477.got.cif
#   From: 2010.05.17/outbox.cif.g08.bks.cpg/sg14_11_cif.got.tgz:20477.got - 2010.06.03 17:49:19.
