data_PCOD9248917
_publ_section_title
;
Structure prediction by ZEFSAII (Michael W. Deem and Ramdas Pophale) SiO2 
 PCOD9248917
Probable space group: P 21/C
;
_chemical_formula_sum "Si O2"
_cell_formula_units_Z 32
_cell_length_a 15.961115
_cell_length_b 10.941928
_cell_length_c 9.026718
_cell_angle_alpha 90.000000
_cell_angle_beta 114.297931
_cell_angle_gamma 90.000000
_cell_volume 1436.827464
_symmetry_space_group_name_H-M "P 21/C"
_symmetry_group_IT_number 14
_symmetry_cell_setting 'monoclinic'
loop_
_space_group_symop_operation_xyz
x,y,z
-x,1/2+y,1/2-z
-x,-y,-z
x,1/2-y,1/2+z
loop_
_atom_site_type_symbol
_atom_site_label
_atom_site_fract_x
_atom_site_fract_y
_atom_site_fract_z
Si Si1 0.964725 0.608695 0.259862
Si Si2 0.759417 0.369128 0.212204
Si Si3 0.596164 0.009814 0.987222
Si Si4 0.027916 0.655411 0.631583
Si Si5 0.659598 0.241905 0.400630
Si Si6 0.244455 0.130684 0.392877
Si Si7 0.668790 0.811137 0.237195
Si Si8 0.520285 0.603944 0.140329
O O1 0.970831 0.645850 0.438053
O O2 0.015325 0.714894 0.204143
O O3 0.859153 0.611091 0.129448
O O4 0.995607 0.465326 0.285336
O O5 0.690018 0.296569 0.266964
O O6 0.728105 0.508255 0.173089
O O7 0.864877 0.360912 0.335751
O O8 0.748951 0.316404 0.039966
O O9 0.581183 0.950338 0.816410
O O10 0.628367 0.144636 0.977536
O O11 0.663095 0.935328 0.141466
O O12 0.500000 0.000000 0.000000
O O13 0.575759 0.147167 0.354685
O O14 0.248836 0.236144 0.275029
O O15 0.312282 0.162549 0.577467
O O16 0.577951 0.726692 0.138548
O O17 0.500000 0.500000 0.000000
#
# Coordination Sequence:
#
# PCOD9248917 Si02
#       8
#     4   4   4   4   4   4   4   4
#     4  10  22  44  72 101 140 178 231 285 355 427
#     4  11  26  43  70 100 139 177 229 288 345 415
#     4  12  26  42  63  96 128 178 229 275 331 400
#     4  10  22  45  71 104 137 180 226 289 355 427
#     4  12  25  44  66  98 134 181 227 281 344 404
#     4  11  25  45  69 100 139 181 227 288 343 414
#     4  12  25  45  65  99 137 178 233 281 342 404
#     4  12  27  45  70  94 134 183 226 283 338 396
#
# _framework density 22.271288999999999
#
# number of rings (size 3 to 8) (size 9 to 14) (size 15 to 20)
#    0.000    0.750    2.500    4.500    7.000    0.500 
#    2.250    0.625    0.000    0.000    0.000    0.000 
#    0.000    0.000    0.000    0.000    0.000    0.000 
#
# Total GULP energy -178827.719727 kJ/mol
# GULP energy per Si atom -5588.366241 kJ/mol
# Density = 2.222060 g / cm^3
# Si number density = 22.271289 Si / 1000 Ang^3
#
#
#
# Elastic Constant Matrix: (Units=GPa)
#
#
# Indices 1 2 3 4 5 6 
#
# 1 54.7562 34.6780 29.9827 0.0000 -3.2699 0.0000
# 2 34.6780 101.9117 38.8647 0.0000 -7.6577 0.0000
# 3 29.9827 38.8647 98.3072 0.0000 -1.1556 0.0000
# 4 0.0000 0.0000 0.0000 41.8020 0.0000 -5.8757
# 5 -3.2699 -7.6577 -1.1556 0.0000 30.3989 0.0000
# 6 0.0000 0.0000 0.0000 -5.8757 0.0000 31.8205
#
#
#
# Elastic Compliance Matrix: (Units=1/GPa)
#
#
# Indices 1 2 3 4 5 6 
#
# 1 0.025280 -0.006595 -0.005093 0.000000 0.000864 0.000000
# 2 -0.006595 0.013507 -0.003298 0.000000 0.002568 0.000000
# 3 -0.005093 -0.003298 0.013019 0.000000 -0.000884 0.000000
# 4 0.000000 0.000000 0.000000 0.024560 0.000000 0.004535
# 5 0.000864 0.002568 -0.000884 0.000000 0.033602 0.000000
# 6 0.000000 0.000000 0.000000 0.004535 0.000000 0.032264
#
#
# Mechanical properties :
#
#
# Convention : Reuss Voigt Hill
#
# Bulk Modulus (GPa) = 45.80017 51.33622 48.56819
# Shear Modulus (GPa) = 27.85800 30.90091 29.37945
#
# Velocity S-wave (km/s) = 3.54057 3.72893 3.63597
# Velocity P-wave (km/s) = 6.10930 6.45293 6.28346
#
# Compressibility (1/GPa) = 0.02183398
#
# Stress axis : x y z
#
# Youngs Moduli (GPa) = 39.55749 74.03379 76.81084
#
# Poissons Ratio (x) = 0.48825 0.39117
# Poissons Ratio (y) = 0.26088 0.25335
# Poissons Ratio (z) = 0.20145 0.24419
#
# Static dielectric constant tensor:
#      x y z
#    x 1.856580 0.000000 0.002930 
#    y 0.000000 1.839690 0.000000 
#    z 0.002930 0.000000 1.853390 
# 
# From -- ./inp_files/15835.got.cif
#   From: 2010.05.17/outbox.cif.g08.bks.cpg/sg14_8_cif.got.tgz:15835.got - 2010.06.03 17:49:19.
