data_PCOD9248294
_publ_section_title
;
Structure prediction by ZEFSAII (Michael W. Deem and Ramdas Pophale) SiO2 
 PCOD9248294
Probable space group: P 21/C
;
_chemical_formula_sum "Si O2"
_cell_formula_units_Z 24
_cell_length_a 18.550174
_cell_length_b 9.100989
_cell_length_c 9.713808
_cell_angle_alpha 90.000000
_cell_angle_beta 145.813960
_cell_angle_gamma 90.000000
_cell_volume 921.448552
_symmetry_space_group_name_H-M "P 21/C"
_symmetry_group_IT_number 14
_symmetry_cell_setting 'monoclinic'
loop_
_space_group_symop_operation_xyz
x,y,z
-x,1/2+y,1/2-z
-x,-y,-z
x,1/2-y,1/2+z
loop_
_atom_site_type_symbol
_atom_site_label
_atom_site_fract_x
_atom_site_fract_y
_atom_site_fract_z
Si Si1 0.385076 0.589456 0.107360
Si Si2 0.968911 0.204248 0.578685
Si Si3 0.398517 0.676793 0.828409
Si Si4 0.144808 0.923653 0.875403
Si Si5 0.633360 0.670246 0.593267
Si Si6 0.782740 0.663364 0.114551
O O1 0.413027 0.680927 0.013983
O O2 0.273630 0.477117 0.897929
O O3 0.334025 0.682506 0.155239
O O4 0.527859 0.545607 0.387064
O O5 0.067540 0.317605 0.663151
O O6 0.899184 0.296157 0.587093
O O7 0.882688 0.131879 0.323518
O O8 0.061373 0.069913 0.773503
O O9 0.297119 0.551985 0.631717
O O10 0.536427 0.691366 0.972752
O O11 0.725931 0.703491 0.613888
O O12 0.715852 0.649936 0.859806
#
# Coordination Sequence:
#
# PCOD9248294 Si02
#       6
#     4   4   4   4   4   4
#     4  10  23  41  68  99 137 179 225 276 348 401
#     4  11  28  46  72 103 135 186 227 297 334 407
#     4  10  22  44  67 101 129 186 220 281 341 412
#     4  11  26  49  71 100 140 178 240 281 345 403
#     4  10  22  42  64 103 141 174 218 285 342 413
#     4  12  24  43  68 104 138 179 229 281 344 414
#
# _framework density 26.045945
#
# number of rings (size 3 to 8) (size 9 to 14) (size 15 to 20)
#    1.000    0.333    1.667    2.500    7.000    2.667 
#    3.000    0.000    0.000    0.000    0.000    0.000 
#    0.000    0.000    0.000    0.000    0.000    0.000 
#
# Total GULP energy -134170.254695 kJ/mol
# GULP energy per Si atom -5590.427279 kJ/mol
# Density = 2.598666 g / cm^3
# Si number density = 26.045945 Si / 1000 Ang^3
#
#
#
# Elastic Constant Matrix: (Units=GPa)
#
#
# Indices 1 2 3 4 5 6 
#
# 1 76.5011 15.0406 -8.3500 0.0000 -11.0023 0.0000
# 2 15.0406 62.5362 3.5231 0.0000 -13.1778 0.0000
# 3 -8.3500 3.5231 76.2261 0.0000 -9.3188 0.0000
# 4 0.0000 0.0000 0.0000 36.2305 0.0000 1.2195
# 5 -11.0023 -13.1778 -9.3188 0.0000 44.5116 0.0000
# 6 0.0000 0.0000 0.0000 1.2195 0.0000 31.9398
#
#
#
# Elastic Compliance Matrix: (Units=1/GPa)
#
#
# Indices 1 2 3 4 5 6 
#
# 1 0.014318 -0.002905 0.002084 0.000000 0.003115 0.000000
# 2 -0.002905 0.017646 -0.000598 0.000000 0.004381 0.000000
# 3 0.002084 -0.000598 0.013768 0.000000 0.003220 0.000000
# 4 0.000000 0.000000 0.000000 0.027637 0.000000 -0.001055
# 5 0.003115 0.004381 0.003220 0.000000 0.025207 0.000000
# 6 0.000000 0.000000 0.000000 -0.001055 0.000000 0.031349
#
#
# Mechanical properties :
#
#
# Convention : Reuss Voigt Hill
#
# Bulk Modulus (GPa) = 23.31296 26.18786 24.75041
# Shear Modulus (GPa) = 33.99913 36.20636 35.10275
#
# Velocity S-wave (km/s) = 3.61689 3.73244 3.67512
# Velocity P-wave (km/s) = 5.13932 5.35268 5.24708
#
# Compressibility (1/GPa) = 0.04289460
#
# Stress axis : x y z
#
# Youngs Moduli (GPa) = 69.84095 56.66938 72.62975
#
# Poissons Ratio (x) = 0.16460 -0.15133
# Poissons Ratio (y) = 0.20286 0.04345
# Poissons Ratio (z) = -0.14552 0.03390
#
# Static dielectric constant tensor:
#      x y z
#    x 1.979440 0.000000 0.048510 
#    y 0.000000 2.198570 0.000000 
#    z 0.048510 0.000000 2.011910 
# 
# From -- ./inp_files/18899.got.cif
#   From: 2010.05.17/outbox.cif.g08.bks.cpg/sg14_10_cif.got.tgz:18899.got - 2010.06.03 17:49:19.
