data_PCOD9248305
_publ_section_title
;
Structure prediction by ZEFSAII (Michael W. Deem and Ramdas Pophale) SiO2 
 PCOD9248305
Probable space group: P 21/C
;
_chemical_formula_sum "Si O2"
_cell_formula_units_Z 26
_cell_length_a 10.432882
_cell_length_b 7.610933
_cell_length_c 18.984014
_cell_angle_alpha 90.000000
_cell_angle_beta 140.007885
_cell_angle_gamma 90.000000
_cell_volume 968.782976
_symmetry_space_group_name_H-M "P 21/C"
_symmetry_group_IT_number 14
_symmetry_cell_setting 'monoclinic'
loop_
_space_group_symop_operation_xyz
x,y,z
-x,1/2+y,1/2-z
-x,-y,-z
x,1/2-y,1/2+z
loop_
_atom_site_type_symbol
_atom_site_label
_atom_site_fract_x
_atom_site_fract_y
_atom_site_fract_z
Si Si1 0.023493 0.173155 0.276198
Si Si2 0.421832 0.162806 0.889016
Si Si3 0.692142 0.792487 0.812724
Si Si4 0.586655 0.685477 0.414326
Si Si5 0.000000 0.500000 0.000000
Si Si6 0.018372 0.547014 0.639576
Si Si7 0.728753 0.448126 0.017512
O O1 0.221588 0.289284 0.345136
O O2 0.898152 0.288821 0.278964
O O3 0.106670 0.009388 0.356706
O O4 0.967360 0.101779 0.176097
O O5 0.397779 0.223860 0.797800
O O6 0.598157 0.287913 0.988430
O O7 0.465647 0.957577 0.907046
O O8 0.537961 0.828332 0.810956
O O9 0.830934 0.640311 0.902605
O O10 0.823813 0.963126 0.847191
O O11 0.819378 0.619047 0.518718
O O12 0.586623 0.883247 0.442504
O O13 0.844422 0.417777 0.993861
#
# Coordination Sequence:
#
# PCOD9248305 Si02
#       7
#     4   4   4   4   2   4   4
#     4  10  24  42  64  97 132 179 228 274 341 404
#     4  11  24  42  67  98 140 175 222 281 348 404
#     4  10  23  42  66 103 128 179 224 282 343 397
#     4  10  23  42  65  96 132 170 226 277 342 404
#     4  10  22  42  72  96 136 172 232 272 340 402
#     4  10  22  42  64  95 129 172 232 270 331 408
#     4  10  23  43  67  99 133 177 220 283 336 405
#
# _framework density 26.837796999999998
#
# number of rings (size 3 to 8) (size 9 to 14) (size 15 to 20)
#    0.000    1.846    0.000    1.846   10.769    4.923 
#    5.538    0.000    0.000    0.000    0.000    0.000 
#    0.000    0.000    0.000    0.000    0.000    0.000 
#
# Total GULP energy -145306.357011 kJ/mol
# GULP energy per Si atom -5588.706039 kJ/mol
# Density = 2.677671 g / cm^3
# Si number density = 26.837797 Si / 1000 Ang^3
#
#
#
# Elastic Constant Matrix: (Units=GPa)
#
#
# Indices 1 2 3 4 5 6 
#
# 1 111.0420 29.5240 13.1717 0.0000 -19.2792 0.0000
# 2 29.5240 109.6340 18.7892 0.0000 13.1235 0.0000
# 3 13.1717 18.7892 51.0703 0.0000 -12.0017 0.0000
# 4 0.0000 0.0000 0.0000 41.3839 0.0000 2.0179
# 5 -19.2792 13.1235 -12.0017 0.0000 37.8812 0.0000
# 6 0.0000 0.0000 0.0000 2.0179 0.0000 46.4320
#
#
#
# Elastic Compliance Matrix: (Units=1/GPa)
#
#
# Indices 1 2 3 4 5 6 
#
# 1 0.011269 -0.003931 0.000224 0.000000 0.007168 0.000000
# 2 -0.003931 0.012016 -0.005246 0.000000 -0.007825 0.000000
# 3 0.000224 -0.005246 0.023669 0.000000 0.009431 0.000000
# 4 0.000000 0.000000 0.000000 0.024215 0.000000 -0.001052
# 5 0.007168 -0.007825 0.009431 0.000000 0.035745 0.000000
# 6 0.000000 0.000000 0.000000 -0.001052 0.000000 0.021583
#
#
# Mechanical properties :
#
#
# Convention : Reuss Voigt Hill
#
# Bulk Modulus (GPa) = 34.42501 43.85734 39.14118
# Shear Modulus (GPa) = 32.03397 39.15685 35.59541
#
# Velocity S-wave (km/s) = 3.45862 3.82385 3.64581
# Velocity P-wave (km/s) = 5.36696 5.98940 5.68671
#
# Compressibility (1/GPa) = 0.02904865
#
# Stress axis : x y z
#
# Youngs Moduli (GPa) = 88.74118 83.22496 42.24918
#
# Poissons Ratio (x) = 0.32717 -0.00948
# Poissons Ratio (y) = 0.34885 0.22163
# Poissons Ratio (z) = -0.01992 0.43658
#
# Static dielectric constant tensor:
#      x y z
#    x 1.961090 0.000000 -0.021220 
#    y 0.000000 2.111890 0.000000 
#    z -0.021220 0.000000 2.134030 
# 
# From -- ./inp_files/62268.got.cif
#   From: 2010.05.17/outbox.cif.g08.bks.cpg/sg14_32_cif.got.tgz:62268.got - 2010.06.03 17:49:19.
