data_PCOD9248730
_publ_section_title
;
Structure prediction by ZEFSAII (Michael W. Deem and Ramdas Pophale) SiO2 
 PCOD9248730
Probable space group: P 21/C
;
_chemical_formula_sum "Si O2"
_cell_formula_units_Z 28
_cell_length_a 7.568472
_cell_length_b 23.681750
_cell_length_c 7.719687
_cell_angle_alpha 90.000000
_cell_angle_beta 135.872956
_cell_angle_gamma 90.000000
_cell_volume 963.358533
_symmetry_space_group_name_H-M "P 21/C"
_symmetry_group_IT_number 14
_symmetry_cell_setting 'monoclinic'
loop_
_space_group_symop_operation_xyz
x,y,z
-x,1/2+y,1/2-z
-x,-y,-z
x,1/2-y,1/2+z
loop_
_atom_site_type_symbol
_atom_site_label
_atom_site_fract_x
_atom_site_fract_y
_atom_site_fract_z
Si Si1 0.331282 0.847536 0.079905
Si Si2 0.698761 0.752437 0.357420
Si Si3 0.956402 0.664651 0.807057
Si Si4 0.936826 0.049002 0.098648
Si Si5 0.603967 0.511820 0.874708
Si Si6 0.454084 0.407662 0.581925
Si Si7 0.527965 0.649909 0.068684
O O1 0.416997 0.782329 0.169090
O O2 0.506694 0.871780 0.360945
O O3 0.075468 0.882440 0.936184
O O4 0.392808 0.862067 0.924473
O O5 0.811591 0.706830 0.570422
O O6 0.893756 0.802185 0.441424
O O7 0.663630 0.709635 0.169795
O O8 0.818217 0.602949 0.704412
O O9 0.240744 0.659290 0.939905
O O10 0.122852 0.036610 0.387058
O O11 0.631858 0.039292 0.898519
O O12 0.000000 0.000000 0.000000
O O13 0.631877 0.458702 0.764835
O O14 0.500000 0.500000 0.000000
O O15 0.370879 0.392718 0.719233
#
# Coordination Sequence:
#
# PCOD9248730 Si02
#       7
#     4   4   4   4   4   4   4
#     4  11  24  46  70 101 142 187 242 298 364 437
#     4  10  22  44  60 102 136 177 242 289 355 437
#     4  10  23  39  67  97 135 185 230 292 359 434
#     4  10  23  44  72 106 142 191 242 300 369 437
#     4  10  22  43  72 101 147 185 239 300 366 434
#     4  10  25  44  67 107 139 182 242 292 359 439
#     4  11  23  44  70  94 146 185 230 299 361 429
#
# _framework density 29.064983000000002
#
# number of rings (size 3 to 8) (size 9 to 14) (size 15 to 20)
#    0.000    1.714    1.429    1.714    8.000    1.143 
#    7.714    0.000    0.000    0.000    0.000    0.000 
#    0.000    0.000    0.000    0.000    0.000    0.000 
#
# Total GULP energy -155878.624246 kJ/mol
# GULP energy per Si atom -5567.093723 kJ/mol
# Density = 2.899883 g / cm^3
# Si number density = 29.064983 Si / 1000 Ang^3
#
#
#
# Elastic Constant Matrix: (Units=GPa)
#
#
# Indices 1 2 3 4 5 6 
#
# 1 108.9723 16.8820 34.3971 0.0000 3.5318 0.0000
# 2 16.8820 68.4196 51.5704 0.0000 8.3025 0.0000
# 3 34.3971 51.5704 121.0915 0.0000 -5.5116 0.0000
# 4 0.0000 0.0000 0.0000 35.5312 0.0000 -3.2705
# 5 3.5318 8.3025 -5.5116 0.0000 59.4056 0.0000
# 6 0.0000 0.0000 0.0000 -3.2705 0.0000 39.8408
#
#
#
# Elastic Compliance Matrix: (Units=1/GPa)
#
#
# Indices 1 2 3 4 5 6 
#
# 1 0.010129 -0.000299 -0.002787 0.000000 -0.000819 0.000000
# 2 -0.000299 0.022461 -0.009664 0.000000 -0.004018 0.000000
# 3 -0.002787 -0.009664 0.013291 0.000000 0.002749 0.000000
# 4 0.000000 0.000000 0.000000 0.028359 0.000000 0.002328
# 5 -0.000819 -0.004018 0.002749 0.000000 0.017699 0.000000
# 6 0.000000 0.000000 0.000000 0.002328 0.000000 0.025291
#
#
# Mechanical properties :
#
#
# Convention : Reuss Voigt Hill
#
# Bulk Modulus (GPa) = 49.06524 56.02025 52.54274
# Shear Modulus (GPa) = 33.43982 39.99778 36.71880
#
# Velocity S-wave (km/s) = 3.39561 3.71367 3.55820
# Velocity P-wave (km/s) = 5.68255 6.14040 5.91591
#
# Compressibility (1/GPa) = 0.02038103
#
# Stress axis : x y z
#
# Youngs Moduli (GPa) = 98.72345 44.52199 75.24129
#
# Poissons Ratio (x) = 0.01332 0.20971
# Poissons Ratio (y) = 0.02953 0.72709
# Poissons Ratio (z) = 0.27516 0.43024
#
# Static dielectric constant tensor:
#      x y z
#    x 2.313090 0.000000 -0.020470 
#    y 0.000000 3.233350 0.000000 
#    z -0.020470 0.000000 2.307970 
# 
# From -- ./inp_files/11119.got.cif
#   From: 2010.05.17/outbox.cif.g08.bks.cpg/sg14_6_cif.got.tgz:11119.got - 2010.06.03 17:49:19.
