data_PCOD9248635
_publ_section_title
;
Structure prediction by ZEFSAII (Michael W. Deem and Ramdas Pophale) SiO2 
 PCOD9248635
Probable space group: P 21/C
;
_chemical_formula_sum "Si O2"
_cell_formula_units_Z 28
_cell_length_a 6.036781
_cell_length_b 14.435850
_cell_length_c 18.487951
_cell_angle_alpha 90.000000
_cell_angle_beta 51.889758
_cell_angle_gamma 90.000000
_cell_volume 1267.694347
_symmetry_space_group_name_H-M "P 21/C"
_symmetry_group_IT_number 14
_symmetry_cell_setting 'monoclinic'
loop_
_space_group_symop_operation_xyz
x,y,z
-x,1/2+y,1/2-z
-x,-y,-z
x,1/2-y,1/2+z
loop_
_atom_site_type_symbol
_atom_site_label
_atom_site_fract_x
_atom_site_fract_y
_atom_site_fract_z
Si Si1 0.006775 0.215368 0.869748
Si Si2 0.181843 0.178994 0.671984
Si Si3 0.164423 0.516252 0.543508
Si Si4 0.374580 0.371056 0.870330
Si Si5 0.078360 0.498231 0.826426
Si Si6 0.568596 0.374222 0.976154
Si Si7 0.015085 0.382869 0.698425
O O1 0.905134 0.122505 0.927082
O O2 0.736737 0.281826 0.919084
O O3 0.145251 0.187585 0.765246
O O4 0.217751 0.281570 0.870985
O O5 0.464453 0.138808 0.578611
O O6 0.155456 0.284954 0.651649
O O7 0.950341 0.104915 0.689948
O O8 0.500000 0.500000 0.500000
O O9 0.000000 0.500000 0.500000
O O10 0.011764 0.449463 0.631152
O O11 0.322714 0.379668 0.966144
O O12 0.701170 0.360738 0.786927
O O13 0.285125 0.464380 0.846864
O O14 0.778950 0.458300 0.916125
O O15 0.148264 0.438196 0.739899
#
# Coordination Sequence:
#
# PCOD9248635 Si02
#       7
#     4   4   4   4   4   4   4
#     4  11  24  45  71 102 143 191 243 305 371 449
#     4  12  22  43  71  94 137 187 236 300 374 436
#     4  12  30  48  77 110 155 198 249 316 379 452
#     4  10  22  43  67  96 143 180 240 310 355 449
#     4  10  22  44  65  96 140 179 236 302 363 440
#     4  10  23  44  66 101 141 176 247 297 371 439
#     4  11  24  43  67 106 138 188 245 300 369 446
#
# _framework density 22.087340999999999
#
# number of rings (size 3 to 8) (size 9 to 14) (size 15 to 20)
#    0.000    1.143    5.714    1.286    6.000    2.857 
#    2.571    0.000    0.000    0.000    0.000    0.000 
#    0.000    0.000    0.000    0.000    0.000    0.000 
#
# Total GULP energy -156203.036482 kJ/mol
# GULP energy per Si atom -5578.679874 kJ/mol
# Density = 2.203707 g / cm^3
# Si number density = 22.087341 Si / 1000 Ang^3
#
#
#
# Elastic Constant Matrix: (Units=GPa)
#
#
# Indices 1 2 3 4 5 6 
#
# 1 73.3213 21.2274 38.3584 0.0000 25.5632 0.0000
# 2 21.2274 140.1786 37.9292 0.0000 19.5542 0.0000
# 3 38.3584 37.9292 102.5432 0.0000 20.5917 0.0000
# 4 0.0000 0.0000 0.0000 24.7929 0.0000 -1.1184
# 5 25.5632 19.5542 20.5917 0.0000 23.5371 0.0000
# 6 0.0000 0.0000 0.0000 -1.1184 0.0000 3.2097
#
#
#
# Elastic Compliance Matrix: (Units=1/GPa)
#
#
# Indices 1 2 3 4 5 6 
#
# 1 0.023585 0.000784 -0.004656 0.000000 -0.022194 0.000000
# 2 0.000784 0.008443 -0.002228 0.000000 -0.005917 0.000000
# 3 -0.004656 -0.002228 0.013260 0.000000 -0.004693 0.000000
# 4 0.000000 0.000000 0.000000 0.040978 0.000000 0.014278
# 5 -0.022194 -0.005917 -0.004693 0.000000 0.075612 0.000000
# 6 0.000000 0.000000 0.000000 0.014278 0.000000 0.316528
#
#
# Mechanical properties :
#
#
# Convention : Reuss Voigt Hill
#
# Bulk Modulus (GPa) = 30.22179 56.78589 43.50384
# Shear Modulus (GPa) = 9.96740 24.87648 17.42194
#
# Velocity S-wave (km/s) = 2.12662 3.35965 2.81156
# Velocity P-wave (km/s) = 4.44326 6.38867 5.50262
#
# Compressibility (1/GPa) = 0.03308871
#
# Stress axis : x y z
#
# Youngs Moduli (GPa) = 42.39984 118.43741 75.41364
#
# Poissons Ratio (x) = -0.09287 0.35111
# Poissons Ratio (y) = -0.03325 0.16804
# Poissons Ratio (z) = 0.19741 0.26390
#
# Static dielectric constant tensor:
#      x y z
#    x 1.914040 0.000000 0.016820 
#    y 0.000000 1.846950 0.000000 
#    z 0.016820 0.000000 1.872560 
# 
# From -- ./inp_files/53391.got.cif
#   From: 2010.05.17/outbox.cif.g08.bks.cpg/sg14_27_cif.got.tgz:53391.got - 2010.06.03 17:49:19.
