data_PCOD9248986
_publ_section_title
;
Structure prediction by ZEFSAII (Michael W. Deem and Ramdas Pophale) SiO2 
 PCOD9248986
Probable space group: P 21/C
;
_chemical_formula_sum "Si O2"
_cell_formula_units_Z 32
_cell_length_a 8.722279
_cell_length_b 21.945125
_cell_length_c 15.373487
_cell_angle_alpha 90.000000
_cell_angle_beta 30.245605
_cell_angle_gamma 90.000000
_cell_volume 1482.241674
_symmetry_space_group_name_H-M "P 21/C"
_symmetry_group_IT_number 14
_symmetry_cell_setting 'monoclinic'
loop_
_space_group_symop_operation_xyz
x,y,z
-x,1/2+y,1/2-z
-x,-y,-z
x,1/2-y,1/2+z
loop_
_atom_site_type_symbol
_atom_site_label
_atom_site_fract_x
_atom_site_fract_y
_atom_site_fract_z
Si Si1 0.841101 0.980628 0.307421
Si Si2 0.658343 0.835653 0.004960
Si Si3 0.151170 0.017510 0.334851
Si Si4 0.147619 0.755048 0.332897
Si Si5 0.338613 0.358067 0.693103
Si Si6 0.305014 0.251960 0.313976
Si Si7 0.036023 0.383789 0.393751
Si Si8 0.213917 0.043865 0.972069
O O1 0.025007 0.985487 0.308592
O O2 0.500000 0.000000 0.500000
O O3 0.853402 0.915291 0.250977
O O4 0.990324 0.025622 0.161203
O O5 0.368643 0.791435 0.160829
O O6 0.622516 0.892335 0.085179
O O7 0.662036 0.863300 0.908825
O O8 0.979311 0.802240 0.870356
O O9 0.122907 0.090084 0.336829
O O10 0.508380 0.002859 0.166712
O O11 0.000000 0.000000 0.500000
O O12 0.352233 0.747891 0.319382
O O13 0.854357 0.782321 0.525098
O O14 0.243378 0.289904 0.762599
O O15 0.682718 0.367324 0.556858
O O16 0.207767 0.321440 0.339784
O O17 0.069152 0.436845 0.450778
#
# Coordination Sequence:
#
# PCOD9248986 Si02
#       8
#     4   4   4   4   4   4   4   4
#     4  12  27  48  73 111 144 192 257 308 371 448
#     4  11  24  44  71 102 144 196 237 302 360 438
#     4  12  28  49  75 109 146 199 253 312 376 451
#     4  10  22  45  68 100 141 187 243 290 360 446
#     4  12  26  46  71 104 152 186 245 304 376 435
#     4  11  23  45  69 104 140 188 242 294 370 441
#     4  12  25  47  75 107 148 194 239 315 373 447
#     4  12  23  49  76 101 149 192 240 303 380 437
#
# _framework density 21.588922
#
# number of rings (size 3 to 8) (size 9 to 14) (size 15 to 20)
#    0.000    0.500    6.250    2.250    5.250    1.000 
#    2.250    0.000    0.000    0.000    0.000    0.000 
#    0.000    0.000    0.000    0.000    0.000    0.000 
#
# Total GULP energy -178356.369185 kJ/mol
# GULP energy per Si atom -5573.636537 kJ/mol
# Density = 2.153978 g / cm^3
# Si number density = 21.588922 Si / 1000 Ang^3
#
#
#
# Elastic Constant Matrix: (Units=GPa)
#
#
# Indices 1 2 3 4 5 6 
#
# 1 115.3950 20.4872 15.2371 0.0000 12.1925 0.0000
# 2 20.4872 100.8696 27.8319 0.0000 2.3562 0.0000
# 3 15.2371 27.8319 91.2885 0.0000 8.3200 0.0000
# 4 0.0000 0.0000 0.0000 33.9013 0.0000 11.6471
# 5 12.1925 2.3562 8.3200 0.0000 36.0523 0.0000
# 6 0.0000 0.0000 0.0000 11.6471 0.0000 36.5341
#
#
#
# Elastic Compliance Matrix: (Units=1/GPa)
#
#
# Indices 1 2 3 4 5 6 
#
# 1 0.009362 -0.001611 -0.000810 0.000000 -0.002874 0.000000
# 2 -0.001611 0.011102 -0.003166 0.000000 0.000550 0.000000
# 3 -0.000810 -0.003166 0.012269 0.000000 -0.002351 0.000000
# 4 0.000000 0.000000 0.000000 0.033126 0.000000 -0.010560
# 5 -0.002874 0.000550 -0.002351 0.000000 0.029216 0.000000
# 6 0.000000 0.000000 0.000000 -0.010560 0.000000 0.030738
#
#
# Mechanical properties :
#
#
# Convention : Reuss Voigt Hill
#
# Bulk Modulus (GPa) = 46.38221 48.29619 47.33920
# Shear Modulus (GPa) = 34.68061 37.56399 36.12230
#
# Velocity S-wave (km/s) = 4.01235 4.17582 4.09490
# Velocity P-wave (km/s) = 6.55715 6.75791 6.65828
#
# Compressibility (1/GPa) = 0.02155999
#
# Stress axis : x y z
#
# Youngs Moduli (GPa) = 106.80910 90.07639 81.50718
#
# Poissons Ratio (x) = 0.14512 0.06599
# Poissons Ratio (y) = 0.17208 0.25804
# Poissons Ratio (z) = 0.08647 0.28517
#
# Static dielectric constant tensor:
#      x y z
#    x 1.832170 0.000000 -0.008150 
#    y 0.000000 1.843890 0.000000 
#    z -0.008150 0.000000 1.755950 
# 
# From -- ./inp_files/42213.got.cif
#   From: 2010.05.17/outbox.cif.g08.bks.cpg/sg14_22_cif.got.tgz:42213.got - 2010.06.03 17:49:19.
