data_PCOD9248098
_publ_section_title
;
Structure prediction by ZEFSAII (Michael W. Deem and Ramdas Pophale) SiO2 
 PCOD9248098
Probable space group: P 21/C
;
_chemical_formula_sum "Si O2"
_cell_formula_units_Z 28
_cell_length_a 5.233786
_cell_length_b 13.659125
_cell_length_c 18.384058
_cell_angle_alpha 90.000000
_cell_angle_beta 102.675033
_cell_angle_gamma 90.000000
_cell_volume 1282.228660
_symmetry_space_group_name_H-M "P 21/C"
_symmetry_group_IT_number 14
_symmetry_cell_setting 'monoclinic'
loop_
_space_group_symop_operation_xyz
x,y,z
-x,1/2+y,1/2-z
-x,-y,-z
x,1/2-y,1/2+z
loop_
_atom_site_type_symbol
_atom_site_label
_atom_site_fract_x
_atom_site_fract_y
_atom_site_fract_z
Si Si1 0.009360 0.208916 0.453029
Si Si2 0.469728 0.140767 0.375983
Si Si3 0.117840 0.326558 0.595305
Si Si4 0.292474 0.214370 0.747875
Si Si5 0.375688 0.943784 0.882045
Si Si6 0.548789 0.490700 0.248664
Si Si7 0.014314 0.112754 0.853358
O O1 0.754283 0.141533 0.429994
O O2 0.943565 0.316038 0.414301
O O3 0.246066 0.165129 0.420352
O O4 0.090141 0.235460 0.539320
O O5 0.471815 0.227431 0.315949
O O6 0.405169 0.046164 0.323299
O O7 0.211842 0.284808 0.678436
O O8 0.340401 0.401376 0.579971
O O9 0.840377 0.377802 0.592203
O O10 0.056013 0.179397 0.784694
O O11 0.420129 0.114645 0.727740
O O12 0.368755 0.945267 0.792635
O O13 0.283484 0.055578 0.890310
O O14 0.803866 0.466919 0.313797
#
# Coordination Sequence:
#
# PCOD9248098 Si02
#       7
#     4   4   4   4   4   4   4
#     4  11  26  43  63  95 139 173 208 264 337 385
#     4  11  23  43  67  90 131 172 217 269 317 387
#     4  12  25  43  64  98 135 176 209 264 329 394
#     4  10  23  38  70  94 128 168 224 265 318 382
#     4  11  23  39  66  96 128 164 218 269 326 376
#     4  11  22  41  69 100 122 167 229 274 314 373
#     4  10  22  41  65 100 125 167 221 276 321 381
#
# _framework density 21.836978999999999
#
# number of rings (size 3 to 8) (size 9 to 14) (size 15 to 20)
#    0.000    1.143    4.286    0.857   10.000    1.143 
#    0.000    1.429    0.000    0.000    0.000    0.000 
#    0.000    0.000    0.000    0.000    0.000    0.000 
#
# Total GULP energy -156365.914890 kJ/mol
# GULP energy per Si atom -5584.496960 kJ/mol
# Density = 2.178728 g / cm^3
# Si number density = 21.836979 Si / 1000 Ang^3
#
#
#
# Elastic Constant Matrix: (Units=GPa)
#
#
# Indices 1 2 3 4 5 6 
#
# 1 103.5464 9.7215 9.5925 0.0000 3.2964 0.0000
# 2 9.7215 32.7190 -19.5370 0.0000 -7.9158 0.0000
# 3 9.5925 -19.5370 35.6342 0.0000 -3.3270 0.0000
# 4 0.0000 0.0000 0.0000 19.2104 0.0000 -3.8321
# 5 3.2964 -7.9158 -3.3270 0.0000 19.2188 0.0000
# 6 0.0000 0.0000 0.0000 -3.8321 0.0000 18.4920
#
#
#
# Elastic Compliance Matrix: (Units=1/GPa)
#
#
# Indices 1 2 3 4 5 6 
#
# 1 0.012086 -0.012192 -0.010774 0.000000 -0.008960 0.000000
# 2 -0.012192 0.071156 0.045969 0.000000 0.039357 0.000000
# 3 -0.010774 0.045969 0.059062 0.000000 0.031006 0.000000
# 4 0.000000 0.000000 0.000000 0.054300 0.000000 0.011253
# 5 -0.008960 0.039357 0.031006 0.000000 0.075147 0.000000
# 6 0.000000 0.000000 0.000000 0.011253 0.000000 0.056409
#
#
# Mechanical properties :
#
#
# Convention : Reuss Voigt Hill
#
# Bulk Modulus (GPa) = 5.31043 19.05041 12.18042
# Shear Modulus (GPa) = 14.49598 22.85908 18.67753
#
# Velocity S-wave (km/s) = 2.57928 3.23895 2.92775
# Velocity P-wave (km/s) = 3.36264 4.76766 4.12541
#
# Compressibility (1/GPa) = 0.18830883
#
# Stress axis : x y z
#
# Youngs Moduli (GPa) = 82.74365 14.05359 16.93148
#
# Poissons Ratio (x) = 0.17134 0.18243
# Poissons Ratio (y) = 1.00881 -0.77833
# Poissons Ratio (z) = 0.89151 -0.64603
#
# Static dielectric constant tensor:
#      x y z
#    x 1.862860 0.000000 0.017240 
#    y 0.000000 1.829750 0.000000 
#    z 0.017240 0.000000 1.767850 
# 
# From -- ./inp_files/53330.got.cif
#   From: 2010.05.17/outbox.cif.g08.bks.cpg/sg14_27_cif.got.tgz:53330.got - 2010.06.03 17:49:19.
