data_PCOD9248842
_publ_section_title
;
Structure prediction by ZEFSAII (Michael W. Deem and Ramdas Pophale) SiO2 
 PCOD9248842
Probable space group: P 21/C
;
_chemical_formula_sum "Si O2"
_cell_formula_units_Z 32
_cell_length_a 11.004138
_cell_length_b 15.736885
_cell_length_c 8.453467
_cell_angle_alpha 90.000000
_cell_angle_beta 85.459636
_cell_angle_gamma 90.000000
_cell_volume 1459.300128
_symmetry_space_group_name_H-M "P 21/C"
_symmetry_group_IT_number 14
_symmetry_cell_setting 'monoclinic'
loop_
_space_group_symop_operation_xyz
x,y,z
-x,1/2+y,1/2-z
-x,-y,-z
x,1/2-y,1/2+z
loop_
_atom_site_type_symbol
_atom_site_label
_atom_site_fract_x
_atom_site_fract_y
_atom_site_fract_z
Si Si1 0.418179 0.760007 0.568982
Si Si2 0.821250 0.744101 0.691560
Si Si3 0.586803 0.069659 0.566879
Si Si4 0.337954 0.168430 0.044606
Si Si5 0.064896 0.371536 0.071623
Si Si6 0.150044 0.935217 0.613639
Si Si7 0.630241 0.018139 0.914060
Si Si8 0.273035 0.843355 0.865615
O O1 0.467248 0.838531 0.462155
O O2 0.528307 0.692050 0.539510
O O3 0.377885 0.803662 0.738225
O O4 0.291248 0.724694 0.506177
O O5 0.763368 0.676294 0.579611
O O6 0.863643 0.825258 0.582506
O O7 0.708390 0.768685 0.815456
O O8 0.922501 0.697357 0.788826
O O9 0.712668 0.062378 0.461101
O O10 0.616738 0.062231 0.747502
O O11 0.500000 0.000000 0.500000
O O12 0.322304 0.075904 0.119541
O O13 0.933822 0.391658 0.010429
O O14 0.110918 0.464841 0.127307
O O15 0.159972 0.873591 0.767768
O O16 0.698021 0.070911 0.041142
O O17 0.500000 0.000000 0.000000
#
# Coordination Sequence:
#
# PCOD9248842 Si02
#       8
#     4   4   4   4   4   4   4   4
#     4  11  23  39  59  92 132 175 216 262 337 404
#     4  10  23  39  66  96 124 168 226 284 329 386
#     4  11  26  41  67  96 136 179 216 271 334 405
#     4  11  23  37  64  91 131 168 215 277 326 397
#     4  10  22  44  68  96 126 174 229 279 339 392
#     4  10  23  44  69  93 133 178 224 277 336 404
#     4  12  23  38  59  93 134 174 217 262 329 398
#     4  11  23  41  61  92 130 173 220 269 329 401
#
# _framework density 21.928321
#
# number of rings (size 3 to 8) (size 9 to 14) (size 15 to 20)
#    0.000    1.250    1.250    4.500    7.000    2.000 
#    0.000    2.500    0.000    9.000    0.000    0.000 
#    0.000    0.000    0.000    0.000    0.000    0.000 
#
# Total GULP energy -178305.603297 kJ/mol
# GULP energy per Si atom -5572.050103 kJ/mol
# Density = 2.187841 g / cm^3
# Si number density = 21.928321 Si / 1000 Ang^3
#
#
#
# Elastic Constant Matrix: (Units=GPa)
#
#
# Indices 1 2 3 4 5 6 
#
# 1 55.2410 16.0183 5.3730 0.0000 17.3447 0.0000
# 2 16.0183 102.7678 10.7357 0.0000 16.4306 0.0000
# 3 5.3730 10.7357 70.0849 0.0000 26.4857 0.0000
# 4 0.0000 0.0000 0.0000 36.7540 0.0000 16.8196
# 5 17.3447 16.4306 26.4857 0.0000 20.5030 0.0000
# 6 0.0000 0.0000 0.0000 16.8196 0.0000 35.2064
#
#
#
# Elastic Compliance Matrix: (Units=1/GPa)
#
#
# Indices 1 2 3 4 5 6 
#
# 1 0.030878 0.001021 0.014961 0.000000 -0.046266 0.000000
# 2 0.001021 0.011590 0.003874 0.000000 -0.015156 0.000000
# 3 0.014961 0.003874 0.036115 0.000000 -0.062413 0.000000
# 4 0.000000 0.000000 0.000000 0.034821 0.000000 -0.016635
# 5 -0.046266 -0.015156 -0.062413 0.000000 0.180684 0.000000
# 6 0.000000 0.000000 0.000000 -0.016635 0.000000 0.036351
#
#
# Mechanical properties :
#
#
# Convention : Reuss Voigt Hill
#
# Bulk Modulus (GPa) = 8.45348 32.48308 20.46828
# Shear Modulus (GPa) = 15.14426 31.55713 23.35069
#
# Velocity S-wave (km/s) = 2.63083 3.79767 3.26677
# Velocity P-wave (km/s) = 3.61825 5.83739 4.85628
#
# Compressibility (1/GPa) = 0.11829449
#
# Stress axis : x y z
#
# Youngs Moduli (GPa) = 32.38564 86.28122 27.68962
#
# Poissons Ratio (x) = -0.08812 -0.41425
# Poissons Ratio (y) = -0.03307 -0.10727
# Poissons Ratio (z) = -0.48451 -0.33426
#
# Static dielectric constant tensor:
#      x y z
#    x 1.827750 0.000000 0.010740 
#    y 0.000000 1.927100 0.000000 
#    z 0.010740 0.000000 1.852370 
# 
# From -- ./inp_files/13332.got.cif
#   From: 2010.05.17/outbox.cif.g08.bks.cpg/sg14_7_cif.got.tgz:13332.got - 2010.06.03 17:49:19.
