data_PCOD9248190
_publ_section_title
;
Structure prediction by ZEFSAII (Michael W. Deem and Ramdas Pophale) SiO2 
 PCOD9248190
Probable space group: P 21/C
;
_chemical_formula_sum "Si O2"
_cell_formula_units_Z 32
_cell_length_a 12.450738
_cell_length_b 10.886967
_cell_length_c 23.564822
_cell_angle_alpha 90.000000
_cell_angle_beta 23.331327
_cell_angle_gamma 90.000000
_cell_volume 1265.067108
_symmetry_space_group_name_H-M "P 21/C"
_symmetry_group_IT_number 14
_symmetry_cell_setting 'monoclinic'
loop_
_space_group_symop_operation_xyz
x,y,z
-x,1/2+y,1/2-z
-x,-y,-z
x,1/2-y,1/2+z
loop_
_atom_site_type_symbol
_atom_site_label
_atom_site_fract_x
_atom_site_fract_y
_atom_site_fract_z
Si Si1 0.862957 0.317687 0.564669
Si Si2 0.154145 0.024813 0.014856
Si Si3 0.702481 0.405086 0.987478
Si Si4 0.975728 0.589868 0.064692
Si Si5 0.692071 0.357871 0.243446
Si Si6 0.717594 0.433162 0.433300
Si Si7 0.916653 0.665678 0.846699
Si Si8 0.251415 0.269359 0.673158
O O1 0.760647 0.404668 0.563786
O O2 0.703564 0.215119 0.678646
O O3 0.937621 0.412286 0.578639
O O4 0.088687 0.227392 0.425395
O O5 0.383521 0.129078 0.909805
O O6 0.097928 0.989005 0.106644
O O7 0.749899 0.397808 0.031916
O O8 0.746286 0.546103 0.947133
O O9 0.966321 0.325406 0.835216
O O10 0.406803 0.358172 0.113151
O O11 0.789131 0.500384 0.192854
O O12 0.000000 0.500000 0.000000
O O13 0.887127 0.300775 0.196652
O O14 0.500000 0.500000 0.500000
O O15 0.906540 0.372206 0.294316
O O16 0.501310 0.352437 0.573150
O O17 0.751078 0.771088 0.894893
#
# Coordination Sequence:
#
# PCOD9248190 Si02
#       8
#     4   4   4   4   4   4   4   4
#     4  10  24  42  66  97 135 173 232 284 334 422
#     4  11  24  43  66 101 136 177 230 284 352 416
#     4  11  23  42  67 102 138 181 234 287 345 425
#     4   9  20  42  65  95 129 177 229 280 349 403
#     4  10  22  41  68  95 133 181 226 285 348 409
#     4  12  22  42  67  97 137 184 224 279 350 418
#     4  11  24  41  67 101 137 182 233 285 349 417
#     4  12  24  41  69  98 136 182 227 281 353 413
#
# _framework density 25.295103000000001
#
# number of rings (size 3 to 8) (size 9 to 14) (size 15 to 20)
#    0.000    1.250    3.750    1.875    3.500    0.000 
#    2.250    0.000    2.750    0.000    0.000    0.000 
#    0.000    0.000    0.000    0.000    0.000    0.000 
#
# Total GULP energy -178173.828647 kJ/mol
# GULP energy per Si atom -5567.932145 kJ/mol
# Density = 2.523753 g / cm^3
# Si number density = 25.295103 Si / 1000 Ang^3
#
#
#
# Elastic Constant Matrix: (Units=GPa)
#
#
# Indices 1 2 3 4 5 6 
#
# 1 172.8444 53.9117 20.3124 0.0000 10.0451 0.0000
# 2 53.9117 84.7729 23.2155 0.0000 -1.1678 0.0000
# 3 20.3124 23.2155 60.9174 0.0000 -7.2588 0.0000
# 4 0.0000 0.0000 0.0000 23.2088 0.0000 2.3004
# 5 10.0451 -1.1678 -7.2588 0.0000 32.7101 0.0000
# 6 0.0000 0.0000 0.0000 2.3004 0.0000 49.9129
#
#
#
# Elastic Compliance Matrix: (Units=1/GPa)
#
#
# Indices 1 2 3 4 5 6 
#
# 1 0.007471 -0.004487 -0.001103 0.000000 -0.002699 0.000000
# 2 -0.004487 0.015879 -0.004441 0.000000 0.000959 0.000000
# 3 -0.001103 -0.004441 0.019000 0.000000 0.004397 0.000000
# 4 0.000000 0.000000 0.000000 0.043285 0.000000 -0.001995
# 5 -0.002699 0.000959 0.004397 0.000000 0.032410 0.000000
# 6 0.000000 0.000000 0.000000 -0.001995 0.000000 0.020127
#
#
# Mechanical properties :
#
#
# Convention : Reuss Voigt Hill
#
# Bulk Modulus (GPa) = 44.86597 57.04598 50.95598
# Shear Modulus (GPa) = 30.18164 35.90605 33.04384
#
# Velocity S-wave (km/s) = 3.45799 3.77169 3.61824
# Velocity P-wave (km/s) = 5.80682 6.44738 6.13546
#
# Compressibility (1/GPa) = 0.02228861
#
# Stress axis : x y z
#
# Youngs Moduli (GPa) = 133.84228 62.97644 52.63187
#
# Poissons Ratio (x) = 0.28255 0.05806
# Poissons Ratio (y) = 0.60050 0.23374
# Poissons Ratio (z) = 0.14764 0.27969
#
# Static dielectric constant tensor:
#      x y z
#    x 1.994750 0.000000 0.042000 
#    y 0.000000 2.354350 0.000000 
#    z 0.042000 0.000000 2.004100 
# 
# From -- ./inp_files/73285.got.cif
#   From: 2010.05.17/outbox.cif.g08.bks.cpg/sg14_37_cif.got.tgz:73285.got - 2010.06.03 17:49:19.
