data_PCOD9248161
_publ_section_title
;
Structure prediction by ZEFSAII (Michael W. Deem and Ramdas Pophale) SiO2 
 PCOD9248161
Probable space group: P 21/C
;
_chemical_formula_sum "Si O2"
_cell_formula_units_Z 24
_cell_length_a 5.076603
_cell_length_b 14.074319
_cell_length_c 15.017005
_cell_angle_alpha 90.000000
_cell_angle_beta 81.058081
_cell_angle_gamma 90.000000
_cell_volume 1059.920628
_symmetry_space_group_name_H-M "P 21/C"
_symmetry_group_IT_number 14
_symmetry_cell_setting 'monoclinic'
loop_
_space_group_symop_operation_xyz
x,y,z
-x,1/2+y,1/2-z
-x,-y,-z
x,1/2-y,1/2+z
loop_
_atom_site_type_symbol
_atom_site_label
_atom_site_fract_x
_atom_site_fract_y
_atom_site_fract_z
Si Si1 0.278342 0.498927 0.935122
Si Si2 0.492898 0.942165 0.135599
Si Si3 0.913422 0.568031 0.225659
Si Si4 0.137731 0.284439 0.627382
Si Si5 0.673857 0.903210 0.307233
Si Si6 0.694114 0.373358 0.537713
O O1 0.235948 0.418730 0.860810
O O2 0.385642 0.585600 0.868518
O O3 0.500000 0.500000 0.000000
O O4 0.000000 0.500000 0.000000
O O5 0.637082 0.882199 0.204733
O O6 0.275215 0.004413 0.200430
O O7 0.689640 0.019369 0.078973
O O8 0.352629 0.884421 0.064704
O O9 0.969343 0.661601 0.279055
O O10 0.175507 0.504471 0.195679
O O11 0.161888 0.174589 0.648543
O O12 0.435442 0.321266 0.591475
O O13 0.952175 0.317195 0.556180
#
# Coordination Sequence:
#
# PCOD9248161 Si02
#       6
#     4   4   4   4   4   4
#     4  11  23  43  69  92 126 181 234 281 336 412
#     4   9  21  39  70  96 132 178 227 285 353 411
#     4  10  22  43  67  97 135 177 223 279 353 405
#     4  11  25  41  64  99 142 175 226 286 340 417
#     4  11  23  43  68 100 138 181 227 285 353 413
#     4  10  22  41  66  99 132 176 229 285 345 414
#
# _framework density 22.643207
#
# number of rings (size 3 to 8) (size 9 to 14) (size 15 to 20)
#    0.000    1.667    3.333    0.000    7.000    2.000 
#    3.000    1.667    0.000    0.000    0.000    0.000 
#    0.000    0.000    0.000    0.000    0.000    0.000 
#
# Total GULP energy -134047.434863 kJ/mol
# GULP energy per Si atom -5585.309786 kJ/mol
# Density = 2.259167 g / cm^3
# Si number density = 22.643207 Si / 1000 Ang^3
#
#
#
# Elastic Constant Matrix: (Units=GPa)
#
#
# Indices 1 2 3 4 5 6 
#
# 1 89.3743 27.3766 14.3961 0.0000 12.8157 0.0000
# 2 27.3766 48.4153 14.1406 0.0000 -2.0871 0.0000
# 3 14.3961 14.1406 124.6651 0.0000 26.1642 0.0000
# 4 0.0000 0.0000 0.0000 11.1960 0.0000 6.3670
# 5 12.8157 -2.0871 26.1642 0.0000 45.1197 0.0000
# 6 0.0000 0.0000 0.0000 6.3670 0.0000 24.3196
#
#
#
# Elastic Compliance Matrix: (Units=1/GPa)
#
#
# Indices 1 2 3 4 5 6 
#
# 1 0.014387 -0.008412 0.000264 0.000000 -0.004629 0.000000
# 2 -0.008412 0.026579 -0.003191 0.000000 0.005469 0.000000
# 3 0.000264 -0.003191 0.009564 0.000000 -0.005768 0.000000
# 4 0.000000 0.000000 0.000000 0.104942 0.000000 -0.027474
# 5 -0.004629 0.005469 -0.005768 0.000000 0.027076 0.000000
# 6 0.000000 0.000000 0.000000 -0.027474 0.000000 0.048312
#
#
# Mechanical properties :
#
#
# Convention : Reuss Voigt Hill
#
# Bulk Modulus (GPa) = 35.90453 41.58680 38.74567
# Shear Modulus (GPa) = 19.02439 29.89648 24.46043
#
# Velocity S-wave (km/s) = 2.90173 3.63757 3.29029
# Velocity P-wave (km/s) = 5.20748 6.00405 5.61989
#
# Compressibility (1/GPa) = 0.02785164
#
# Stress axis : x y z
#
# Youngs Moduli (GPa) = 69.50863 37.62377 104.56276
#
# Poissons Ratio (x) = 0.31648 -0.02763
# Poissons Ratio (y) = 0.58469 0.33369
# Poissons Ratio (z) = -0.01837 0.12007
#
# Static dielectric constant tensor:
#      x y z
#    x 1.891610 0.000000 0.016280 
#    y 0.000000 1.858220 0.000000 
#    z 0.016280 0.000000 1.871190 
# 
# From -- ./inp_files/37297.got.cif
#   From: 2010.05.17/outbox.cif.g08.bks.cpg/sg14_19_cif.got.tgz:37297.got - 2010.06.03 17:49:19.
