data_PCOD9248642
_publ_section_title
;
Structure prediction by ZEFSAII (Michael W. Deem and Ramdas Pophale) SiO2 
 PCOD9248642
Probable space group: P 21/C
;
_chemical_formula_sum "Si O2"
_cell_formula_units_Z 32
_cell_length_a 9.699695
_cell_length_b 21.166603
_cell_length_c 9.547646
_cell_angle_alpha 90.000000
_cell_angle_beta 43.265141
_cell_angle_gamma 90.000000
_cell_volume 1343.488930
_symmetry_space_group_name_H-M "P 21/C"
_symmetry_group_IT_number 14
_symmetry_cell_setting 'monoclinic'
loop_
_space_group_symop_operation_xyz
x,y,z
-x,1/2+y,1/2-z
-x,-y,-z
x,1/2-y,1/2+z
loop_
_atom_site_type_symbol
_atom_site_label
_atom_site_fract_x
_atom_site_fract_y
_atom_site_fract_z
Si Si1 0.841305 0.715400 0.991669
Si Si2 0.020903 0.471032 0.333431
Si Si3 0.505275 0.108073 0.987847
Si Si4 0.110866 0.725288 0.046015
Si Si5 0.797895 0.507506 0.234500
Si Si6 0.740221 0.141431 0.076562
Si Si7 0.376012 0.102615 0.514544
Si Si8 0.542462 0.672992 0.764013
O O1 0.730923 0.658224 0.995579
O O2 0.980976 0.694247 0.018258
O O3 0.974295 0.752237 0.776861
O O4 0.675340 0.763683 0.175806
O O5 0.872851 0.507456 0.339268
O O6 0.936784 0.399697 0.404090
O O7 0.000000 0.500000 0.500000
O O8 0.245752 0.461389 0.108445
O O9 0.627924 0.148101 0.010432
O O10 0.329570 0.070091 0.196693
O O11 0.654133 0.052944 0.822504
O O12 0.426384 0.146695 0.915367
O O13 0.202996 0.789884 0.911608
O O14 0.303818 0.686016 0.951765
O O15 0.000000 0.500000 0.000000
O O16 0.597347 0.101426 0.284180
O O17 0.391982 0.125544 0.662964
#
# Coordination Sequence:
#
# PCOD9248642 Si02
#       8
#     4   4   4   4   4   4   4   4
#     4  12  25  42  63  96 134 177 224 274 331 405
#     4  11  24  43  70  97 134 174 226 283 336 403
#     4  10  24  41  67  98 135 172 228 277 331 399
#     4  12  25  41  67  94 137 179 224 270 338 400
#     4  10  22  43  67  99 131 175 223 279 339 393
#     4  11  23  43  67  95 134 176 221 278 335 397
#     4  12  25  43  66  98 135 177 224 278 343 396
#     4  12  26  42  66  99 135 180 224 277 333 406
#
# _framework density 23.818580000000001
#
# number of rings (size 3 to 8) (size 9 to 14) (size 15 to 20)
#    0.000    0.750    3.750    3.000    5.250    2.500 
#    0.000    0.000    0.000    0.000    0.000    0.000 
#    0.000    0.000    0.000    0.000    0.000    0.000 
#
# Total GULP energy -179317.680911 kJ/mol
# GULP energy per Si atom -5603.677528 kJ/mol
# Density = 2.376437 g / cm^3
# Si number density = 23.818580 Si / 1000 Ang^3
#
#
#
# Elastic Constant Matrix: (Units=GPa)
#
#
# Indices 1 2 3 4 5 6 
#
# 1 105.6183 13.4702 1.3783 0.0000 3.4290 0.0000
# 2 13.4702 20.5273 2.4857 0.0000 3.2223 0.0000
# 3 1.3783 2.4857 79.0017 0.0000 -23.6777 0.0000
# 4 0.0000 0.0000 0.0000 27.3347 0.0000 7.0345
# 5 3.4290 3.2223 -23.6777 0.0000 35.6994 0.0000
# 6 0.0000 0.0000 0.0000 7.0345 0.0000 18.0053
#
#
#
# Elastic Compliance Matrix: (Units=1/GPa)
#
#
# Indices 1 2 3 4 5 6 
#
# 1 0.010339 -0.006699 -0.000107 0.000000 -0.000460 0.000000
# 2 -0.006699 0.054595 -0.003601 0.000000 -0.006672 0.000000
# 3 -0.000107 -0.003601 0.016068 0.000000 0.010992 0.000000
# 4 0.000000 0.000000 0.000000 0.040673 0.000000 -0.015891
# 5 -0.000460 -0.006672 0.010992 0.000000 0.035949 0.000000
# 6 0.000000 0.000000 0.000000 -0.015891 0.000000 0.061748
#
#
# Mechanical properties :
#
#
# Convention : Reuss Voigt Hill
#
# Bulk Modulus (GPa) = 16.61492 26.64619 21.63056
# Shear Modulus (GPa) = 19.21248 28.72875 23.97061
#
# Velocity S-wave (km/s) = 2.84318 3.47673 3.17580
# Velocity P-wave (km/s) = 4.21533 5.22765 4.74854
#
# Compressibility (1/GPa) = 0.06018685
#
# Stress axis : x y z
#
# Youngs Moduli (GPa) = 96.72324 18.31669 62.23716
#
# Poissons Ratio (x) = 0.12271 0.00668
# Poissons Ratio (y) = 0.64797 0.22410
# Poissons Ratio (z) = 0.01038 0.06595
#
# Static dielectric constant tensor:
#      x y z
#    x 1.867470 0.000000 -0.019950 
#    y 0.000000 1.868280 0.000000 
#    z -0.019950 0.000000 1.918250 
# 
# From -- ./inp_files/11056.got.cif
#   From: 2010.05.17/outbox.cif.g08.bks.cpg/sg14_6_cif.got.tgz:11056.got - 2010.06.03 17:49:19.
