data_PCOD9248786
_publ_section_title
;
Structure prediction by ZEFSAII (Michael W. Deem and Ramdas Pophale) SiO2 
 PCOD9248786
Probable space group: P 21/C
;
_chemical_formula_sum "Si O2"
_cell_formula_units_Z 24
_cell_length_a 20.017368
_cell_length_b 4.885807
_cell_length_c 13.897196
_cell_angle_alpha 90.000000
_cell_angle_beta 136.519538
_cell_angle_gamma 90.000000
_cell_volume 935.247495
_symmetry_space_group_name_H-M "P 21/C"
_symmetry_group_IT_number 14
_symmetry_cell_setting 'monoclinic'
loop_
_space_group_symop_operation_xyz
x,y,z
-x,1/2+y,1/2-z
-x,-y,-z
x,1/2-y,1/2+z
loop_
_atom_site_type_symbol
_atom_site_label
_atom_site_fract_x
_atom_site_fract_y
_atom_site_fract_z
Si Si1 0.304853 0.379543 0.173675
Si Si2 0.505774 0.900693 0.689407
Si Si3 0.910130 0.799898 0.005201
Si Si4 0.033879 0.310479 0.157418
Si Si5 0.236564 0.122200 0.400068
Si Si6 0.321741 0.840763 0.888647
O O1 0.392760 0.167640 0.255207
O O2 0.327992 0.584553 0.283857
O O3 0.201641 0.246384 0.090051
O O4 0.288367 0.496100 0.049311
O O5 0.500130 0.709317 0.779191
O O6 0.419222 0.802017 0.529637
O O7 0.991026 0.603443 0.138264
O O8 0.925543 0.715077 0.909524
O O9 0.943973 0.103913 0.063495
O O10 0.129009 0.220730 0.314080
O O11 0.294485 0.382300 0.418047
O O12 0.237525 0.878428 0.323916
#
# Coordination Sequence:
#
# PCOD9248786 Si02
#       6
#     4   4   4   4   4   4
#     4  12  27  46  79 107 142 199 244 292 372 443
#     4  12  25  50  73 106 146 188 239 308 365 430
#     4  10  23  40  72 102 140 190 239 284 364 420
#     4  10  22  44  66 104 146 185 230 306 344 419
#     4  12  26  46  75 105 151 186 247 300 356 435
#     4  12  26  48  72 110 144 190 240 306 364 429
#
# _framework density 25.661657999999999
#
# number of rings (size 3 to 8) (size 9 to 14) (size 15 to 20)
#    0.000    0.667    5.000    1.500    4.667    6.667 
#    0.000    3.333    0.000    0.000    0.000    0.000 
#    0.000    0.000    0.000    0.000    0.000    0.000 
#
# Total GULP energy -134641.942610 kJ/mol
# GULP energy per Si atom -5610.080942 kJ/mol
# Density = 2.560325 g / cm^3
# Si number density = 25.661658 Si / 1000 Ang^3
#
#
#
# Elastic Constant Matrix: (Units=GPa)
#
#
# Indices 1 2 3 4 5 6 
#
# 1 100.2546 25.5289 41.1472 0.0000 11.7488 0.0000
# 2 25.5289 71.8752 -4.6979 0.0000 -4.6106 0.0000
# 3 41.1472 -4.6979 123.3317 0.0000 3.4200 0.0000
# 4 0.0000 0.0000 0.0000 31.0520 0.0000 5.5223
# 5 11.7488 -4.6106 3.4200 0.0000 48.8644 0.0000
# 6 0.0000 0.0000 0.0000 5.5223 0.0000 29.3966
#
#
#
# Elastic Compliance Matrix: (Units=1/GPa)
#
#
# Indices 1 2 3 4 5 6 
#
# 1 0.013668 -0.005382 -0.004669 0.000000 -0.003467 0.000000
# 2 -0.005382 0.016148 0.002337 0.000000 0.002654 0.000000
# 3 -0.004669 0.002337 0.009737 0.000000 0.000662 0.000000
# 4 0.000000 0.000000 0.000000 0.033317 0.000000 -0.006259
# 5 -0.003467 0.002654 0.000662 0.000000 0.021503 0.000000
# 6 0.000000 0.000000 0.000000 -0.006259 0.000000 0.035193
#
#
# Mechanical properties :
#
#
# Convention : Reuss Voigt Hill
#
# Bulk Modulus (GPa) = 41.45203 46.60199 44.02701
# Shear Modulus (GPa) = 32.67254 37.42816 35.05035
#
# Velocity S-wave (km/s) = 3.57207 3.82321 3.69977
# Velocity P-wave (km/s) = 5.76205 6.13912 5.95357
#
# Compressibility (1/GPa) = 0.02412427
#
# Stress axis : x y z
#
# Youngs Moduli (GPa) = 73.16561 61.92858 102.70582
#
# Poissons Ratio (x) = 0.33330 0.47951
# Poissons Ratio (y) = 0.39378 -0.24003
# Poissons Ratio (z) = 0.34160 -0.14473
#
# Static dielectric constant tensor:
#      x y z
#    x 2.010650 0.000000 -0.055040 
#    y 0.000000 1.943420 0.000000 
#    z -0.055040 0.000000 2.076990 
# 
# From -- ./inp_files/49738.got.cif
#   From: 2010.05.17/outbox.cif.g08.bks.cpg/sg14_25_cif.got.tgz:49738.got - 2010.06.03 17:49:19.
