data_PCOD9248893
_publ_section_title
;
Structure prediction by ZEFSAII (Michael W. Deem and Ramdas Pophale) SiO2 
 PCOD9248893
Probable space group: P 21/C
;
_chemical_formula_sum "Si O2"
_cell_formula_units_Z 26
_cell_length_a 19.115304
_cell_length_b 11.184639
_cell_length_c 20.327300
_cell_angle_alpha 90.000000
_cell_angle_beta 165.612504
_cell_angle_gamma 90.000000
_cell_volume 1079.870548
_symmetry_space_group_name_H-M "P 21/C"
_symmetry_group_IT_number 14
_symmetry_cell_setting 'monoclinic'
loop_
_space_group_symop_operation_xyz
x,y,z
-x,1/2+y,1/2-z
-x,-y,-z
x,1/2-y,1/2+z
loop_
_atom_site_type_symbol
_atom_site_label
_atom_site_fract_x
_atom_site_fract_y
_atom_site_fract_z
Si Si1 0.804712 0.117974 0.152160
Si Si2 0.555769 0.835648 0.299706
Si Si3 0.603196 0.178656 0.556526
Si Si4 0.138124 0.139818 0.836575
Si Si5 0.636018 0.471056 0.965423
Si Si6 0.000000 0.500000 0.500000
Si Si7 0.897386 0.666514 0.297656
O O1 0.718005 0.195586 0.136073
O O2 0.138975 0.129915 0.450855
O O3 0.732584 0.978371 0.079545
O O4 0.655261 0.177506 0.952698
O O5 0.634994 0.720181 0.416383
O O6 0.458384 0.954839 0.250280
O O7 0.482767 0.110069 0.381167
O O8 0.359519 0.196951 0.387027
O O9 0.823814 0.082758 0.785615
O O10 0.012229 0.219841 0.662370
O O11 0.891479 0.096614 0.661167
O O12 0.784956 0.577096 0.140451
O O13 0.907402 0.402845 0.473593
#
# Coordination Sequence:
#
# PCOD9248893 Si02
#       7
#     4   4   4   4   4   2   4
#     4  11  25  41  71 100 143 183 235 288 362 417
#     4  10  23  43  66 105 136 186 229 295 348 424
#     4  11  23  43  66 102 135 184 238 289 348 418
#     4  10  22  45  65 102 144 176 235 290 365 413
#     4   9  19  42  67  96 134 175 234 288 342 417
#     4  10  22  44  70  96 136 184 230 290 330 430
#     4  10  23  43  67 101 133 182 234 288 350 419
#
# _framework density 24.076958999999999
#
# number of rings (size 3 to 8) (size 9 to 14) (size 15 to 20)
#    0.000    1.846    1.538    1.846    4.308    0.615 
#   41.538    0.769    0.000    0.000    0.000    0.000 
#    0.000    0.000    0.000    0.000    0.000    0.000 
#
# Total GULP energy -144919.357209 kJ/mol
# GULP energy per Si atom -5573.821431 kJ/mol
# Density = 2.402216 g / cm^3
# Si number density = 24.076959 Si / 1000 Ang^3
#
#
#
# Elastic Constant Matrix: (Units=GPa)
#
#
# Indices 1 2 3 4 5 6 
#
# 1 150.4798 46.5811 29.7390 0.0000 -6.0356 0.0000
# 2 46.5811 119.5750 -14.2623 0.0000 -18.2244 0.0000
# 3 29.7390 -14.2623 35.0978 0.0000 0.2484 0.0000
# 4 0.0000 0.0000 0.0000 25.5101 0.0000 -5.4341
# 5 -6.0356 -18.2244 0.2484 0.0000 21.2460 0.0000
# 6 0.0000 0.0000 0.0000 -5.4341 0.0000 59.4839
#
#
#
# Elastic Compliance Matrix: (Units=1/GPa)
#
#
# Indices 1 2 3 4 5 6 
#
# 1 0.010581 -0.005740 -0.011285 0.000000 -0.001786 0.000000
# 2 -0.005740 0.013285 0.010194 0.000000 0.009646 0.000000
# 3 -0.011285 0.010194 0.042161 0.000000 0.005045 0.000000
# 4 0.000000 0.000000 0.000000 0.039978 0.000000 0.003652
# 5 -0.001786 0.009646 0.005045 0.000000 0.054775 0.000000
# 6 0.000000 0.000000 0.000000 0.003652 0.000000 0.017145
#
#
# Mechanical properties :
#
#
# Convention : Reuss Voigt Hill
#
# Bulk Modulus (GPa) = 19.09714 47.69647 33.39681
# Shear Modulus (GPa) = 23.91855 37.45434 30.68644
#
# Velocity S-wave (km/s) = 3.15528 3.94840 3.57391
# Velocity P-wave (km/s) = 4.60687 6.37491 5.56160
#
# Compressibility (1/GPa) = 0.05236386
#
# Stress axis : x y z
#
# Youngs Moduli (GPa) = 94.50954 75.27246 23.71869
#
# Poissons Ratio (x) = 0.43207 0.26767
# Poissons Ratio (y) = 0.54250 -0.24179
# Poissons Ratio (z) = 1.06657 -0.76733
#
# Static dielectric constant tensor:
#      x y z
#    x 1.895190 0.000000 -0.055990 
#    y 0.000000 1.982290 0.000000 
#    z -0.055990 0.000000 1.889560 
# 
# From -- ./inp_files/60637.got.cif
#   From: 2010.05.17/outbox.cif.g08.bks.cpg/sg14_31_cif.got.tgz:60637.got - 2010.06.03 17:49:19.
