data_PCOD9248751
_publ_section_title
;
Structure prediction by ZEFSAII (Michael W. Deem and Ramdas Pophale) SiO2 
 PCOD9248751
Probable space group: P 21/C
;
_chemical_formula_sum "Si O2"
_cell_formula_units_Z 12
_cell_length_a 8.362000
_cell_length_b 4.891890
_cell_length_c 11.617072
_cell_angle_alpha 90.000000
_cell_angle_beta 78.054793
_cell_angle_gamma 90.000000
_cell_volume 464.917607
_symmetry_space_group_name_H-M "P 21/C"
_symmetry_group_IT_number 14
_symmetry_cell_setting 'monoclinic'
loop_
_space_group_symop_operation_xyz
x,y,z
-x,1/2+y,1/2-z
-x,-y,-z
x,1/2-y,1/2+z
loop_
_atom_site_type_symbol
_atom_site_label
_atom_site_fract_x
_atom_site_fract_y
_atom_site_fract_z
Si Si1 0.138413 0.975361 0.880303
Si Si2 0.325587 0.646892 0.029741
Si Si3 0.178824 0.154892 0.183185
O O1 0.017363 0.872494 0.798609
O O2 0.216100 0.237582 0.806269
O O3 0.273190 0.784513 0.917285
O O4 0.000000 0.000000 0.000000
O O5 0.215899 0.394160 0.085811
O O6 0.287646 0.895032 0.125977
O O7 0.500000 0.500000 0.000000
#
# Coordination Sequence:
#
# PCOD9248751 Si02
#       3
#     4   4   4
#     4  10  22  43  74 109 146 193 251 314 368 443
#     4  11  25  46  72 107 151 200 249 310 382 454
#     4  11  23  43  72 108 146 197 256 308 373 447
#
# _framework density 25.811024
#
# number of rings (size 3 to 8) (size 9 to 14) (size 15 to 20)
#    0.000    1.333    0.000    6.000    0.000    8.000 
#    0.000   13.333    0.000    0.000    0.000    0.000 
#    0.000    0.000    0.000    0.000    0.000    0.000 
#
# Total GULP energy -66994.331697 kJ/mol
# GULP energy per Si atom -5582.860975 kJ/mol
# Density = 2.575228 g / cm^3
# Si number density = 25.811024 Si / 1000 Ang^3
#
#
#
# Elastic Constant Matrix: (Units=GPa)
#
#
# Indices 1 2 3 4 5 6 
#
# 1 154.6942 92.9666 63.3050 0.0000 -4.9603 0.0000
# 2 92.9666 212.5958 95.5865 0.0000 7.7931 0.0000
# 3 63.3050 95.5865 127.2160 0.0000 3.6344 0.0000
# 4 0.0000 0.0000 0.0000 83.5194 0.0000 3.1827
# 5 -4.9603 7.7931 3.6344 0.0000 17.5887 0.0000
# 6 0.0000 0.0000 0.0000 3.1827 0.0000 56.3056
#
#
#
# Elastic Compliance Matrix: (Units=1/GPa)
#
#
# Indices 1 2 3 4 5 6 
#
# 1 0.009572 -0.003254 -0.002451 0.000000 0.004648 0.000000
# 2 -0.003254 0.008285 -0.004501 0.000000 -0.003658 0.000000
# 3 -0.002451 -0.004501 0.012499 0.000000 -0.001280 0.000000
# 4 0.000000 0.000000 0.000000 0.011999 0.000000 -0.000678
# 5 0.004648 -0.003658 -0.001280 0.000000 0.060051 0.000000
# 6 0.000000 0.000000 0.000000 -0.000678 0.000000 0.017799
#
#
# Mechanical properties :
#
#
# Convention : Reuss Voigt Hill
#
# Bulk Modulus (GPa) = 100.57063 110.91357 105.74210
# Shear Modulus (GPa) = 34.73902 47.65926 41.19914
#
# Velocity S-wave (km/s) = 3.67263 4.30172 3.99956
# Velocity P-wave (km/s) = 7.55202 8.23029 7.89844
#
# Compressibility (1/GPa) = 0.00994326
#
# Stress axis : x y z
#
# Youngs Moduli (GPa) = 104.47089 120.70584 80.00834
#
# Poissons Ratio (x) = 0.39280 0.19609
# Poissons Ratio (y) = 0.33997 0.36011
# Poissons Ratio (z) = 0.25605 0.54329
#
# Static dielectric constant tensor:
#      x y z
#    x 2.004640 0.000000 0.052970 
#    y 0.000000 2.312170 0.000000 
#    z 0.052970 0.000000 2.161660 
# 
# From -- ./inp_files/38306.got.cif
#   From: 2010.05.17/outbox.cif.g08.bks.cpg/sg14_20_cif.got.tgz:38306.got - 2010.06.03 17:49:19.
