data_PCOD9248785
_publ_section_title
;
Structure prediction by ZEFSAII (Michael W. Deem and Ramdas Pophale) SiO2 
 PCOD9248785
Probable space group: P 21/C
;
_chemical_formula_sum "Si O2"
_cell_formula_units_Z 32
_cell_length_a 11.844568
_cell_length_b 5.068158
_cell_length_c 23.634381
_cell_angle_alpha 90.000000
_cell_angle_beta 116.073896
_cell_angle_gamma 90.000000
_cell_volume 1274.383540
_symmetry_space_group_name_H-M "P 21/C"
_symmetry_group_IT_number 14
_symmetry_cell_setting 'monoclinic'
loop_
_space_group_symop_operation_xyz
x,y,z
-x,1/2+y,1/2-z
-x,-y,-z
x,1/2-y,1/2+z
loop_
_atom_site_type_symbol
_atom_site_label
_atom_site_fract_x
_atom_site_fract_y
_atom_site_fract_z
Si Si1 0.371974 0.301210 0.790878
Si Si2 0.389381 0.956980 0.177276
Si Si3 0.752437 0.951795 0.628867
Si Si4 0.952394 0.146923 0.751575
Si Si5 0.777778 0.033447 0.061991
Si Si6 0.202027 0.122163 0.052664
Si Si7 0.001477 0.722993 0.061730
Si Si8 0.192174 0.572905 0.184362
O O1 0.485081 0.103077 0.829181
O O2 0.423434 0.453746 0.747754
O O3 0.338045 0.477957 0.836957
O O4 0.251479 0.146063 0.738432
O O5 0.301598 0.162638 0.124073
O O6 0.299701 0.707428 0.170382
O O7 0.888481 0.943047 0.690029
O O8 0.758646 0.181475 0.584206
O O9 0.719226 0.681947 0.590741
O O10 0.864311 0.206233 0.785510
O O11 0.946487 0.418232 0.714176
O O12 0.920048 0.923827 0.083271
O O13 0.728530 0.999810 0.986857
O O14 0.104631 0.904320 0.054314
O O15 0.110764 0.351652 0.007027
O O16 0.073681 0.513822 0.117156
#
# Coordination Sequence:
#
# PCOD9248785 Si02
#       8
#     4   4   4   4   4   4   4   4
#     4  12  25  42  68 102 133 190 238 310 362 425
#     4  11  23  45  67  97 134 180 250 302 359 413
#     4  12  24  41  66  95 149 182 234 288 358 437
#     4  12  24  38  61 101 142 187 220 275 357 437
#     4  10  22  44  66 100 139 188 228 291 356 435
#     4   8  19  43  69  98 134 181 240 295 353 418
#     4   8  17  41  67  97 135 181 231 292 351 427
#     4  11  21  40  64  96 137 174 234 288 360 422
#
# _framework density 25.110178999999999
#
# number of rings (size 3 to 8) (size 9 to 14) (size 15 to 20)
#    0.750    0.750    2.500    3.750    0.000    0.000 
#    9.000    3.125    0.000    0.000    0.000    0.000 
#    0.000    0.000    0.000    0.000    0.000    0.000 
#
# Total GULP energy -178539.226997 kJ/mol
# GULP energy per Si atom -5579.350844 kJ/mol
# Density = 2.505303 g / cm^3
# Si number density = 25.110179 Si / 1000 Ang^3
#
#
#
# Elastic Constant Matrix: (Units=GPa)
#
#
# Indices 1 2 3 4 5 6 
#
# 1 91.5713 30.8547 38.8110 0.0000 -11.2047 0.0000
# 2 30.8547 101.1692 4.0967 0.0000 5.4958 0.0000
# 3 38.8110 4.0967 100.6020 0.0000 -11.3474 0.0000
# 4 0.0000 0.0000 0.0000 24.8116 0.0000 -5.8669
# 5 -11.2047 5.4958 -11.3474 0.0000 27.7732 0.0000
# 6 0.0000 0.0000 0.0000 -5.8669 0.0000 28.7394
#
#
#
# Elastic Compliance Matrix: (Units=1/GPa)
#
#
# Indices 1 2 3 4 5 6 
#
# 1 0.015310 -0.004733 -0.005149 0.000000 0.005010 0.000000
# 2 -0.004733 0.011497 0.000929 0.000000 -0.003805 0.000000
# 3 -0.005149 0.000929 0.012196 0.000000 0.002722 0.000000
# 4 0.000000 0.000000 0.000000 0.042348 0.000000 0.008645
# 5 0.005010 -0.003805 0.002722 0.000000 0.039892 0.000000
# 6 0.000000 0.000000 0.000000 0.008645 0.000000 0.036560
#
#
# Mechanical properties :
#
#
# Convention : Reuss Voigt Hill
#
# Bulk Modulus (GPa) = 47.40085 48.98526 48.19306
# Shear Modulus (GPa) = 27.36097 30.90353 29.13225
#
# Velocity S-wave (km/s) = 3.30455 3.51196 3.40983
# Velocity P-wave (km/s) = 5.78603 5.99964 5.89380
#
# Compressibility (1/GPa) = 0.02109667
#
# Stress axis : x y z
#
# Youngs Moduli (GPa) = 65.31483 86.97897 81.99617
#
# Poissons Ratio (x) = 0.41168 0.42218
# Poissons Ratio (y) = 0.30914 -0.07614
# Poissons Ratio (z) = 0.33629 -0.08077
#
# Static dielectric constant tensor:
#      x y z
#    x 2.246820 0.000000 0.220850 
#    y 0.000000 1.906040 0.000000 
#    z 0.220850 0.000000 2.267770 
# 
# From -- ./inp_files/72782.got.cif
#   From: 2010.05.17/outbox.cif.g08.bks.cpg/sg14_37_cif.got.tgz:72782.got - 2010.06.03 17:49:19.
