data_PCOD9248932
_publ_section_title
;
Structure prediction by ZEFSAII (Michael W. Deem and Ramdas Pophale) SiO2 
 PCOD9248932
Probable space group: P 21/C
;
_chemical_formula_sum "Si O2"
_cell_formula_units_Z 16
_cell_length_a 5.686090
_cell_length_b 9.406882
_cell_length_c 14.653323
_cell_angle_alpha 90.000000
_cell_angle_beta 58.819806
_cell_angle_gamma 90.000000
_cell_volume 670.559830
_symmetry_space_group_name_H-M "P 21/C"
_symmetry_group_IT_number 14
_symmetry_cell_setting 'monoclinic'
loop_
_space_group_symop_operation_xyz
x,y,z
-x,1/2+y,1/2-z
-x,-y,-z
x,1/2-y,1/2+z
loop_
_atom_site_type_symbol
_atom_site_label
_atom_site_fract_x
_atom_site_fract_y
_atom_site_fract_z
Si Si1 0.533287 0.768399 0.216997
Si Si2 0.647369 0.134899 0.426980
Si Si3 0.910508 0.410946 0.430320
Si Si4 0.220091 0.472551 0.729567
O O1 0.542050 0.701139 0.114036
O O2 0.553212 0.639880 0.282756
O O3 0.280131 0.876367 0.266067
O O4 0.805310 0.861472 0.174495
O O5 0.740655 0.263634 0.474560
O O6 0.500000 0.000000 0.500000
O O7 0.926088 0.083781 0.320860
O O8 0.764430 0.503982 0.381542
O O9 0.000000 0.500000 0.500000
#
# Coordination Sequence:
#
# PCOD9248932 Si02
#       4
#     4   4   4   4
#     4  10  22  46  64 102 138 176 230 280 340 408
#     4  10  23  46  68 105 136 181 232 284 351 413
#     4  10  23  46  68 105 136 181 232 284 351 413
#     4  10  22  44  72  98 138 180 228 278 344 412
#
# _framework density 23.860657
#
# number of rings (size 3 to 8) (size 9 to 14) (size 15 to 20)
#    0.000    2.000    0.000    1.500    0.000    8.000 
#   58.500    0.000    0.000    0.000    0.000    0.000 
#    0.000    0.000    0.000    0.000    0.000    0.000 
#
# Total GULP energy -89530.132278 kJ/mol
# GULP energy per Si atom -5595.633267 kJ/mol
# Density = 2.380635 g / cm^3
# Si number density = 23.860657 Si / 1000 Ang^3
#
#
#
# Elastic Constant Matrix: (Units=GPa)
#
#
# Indices 1 2 3 4 5 6 
#
# 1 88.5445 64.9534 34.4363 0.0000 37.5296 0.0000
# 2 64.9534 175.9959 74.5082 0.0000 39.8687 0.0000
# 3 34.4363 74.5082 71.1931 0.0000 15.6862 0.0000
# 4 0.0000 0.0000 0.0000 52.6575 0.0000 1.1957
# 5 37.5296 39.8687 15.6862 0.0000 42.5171 0.0000
# 6 0.0000 0.0000 0.0000 1.1957 0.0000 70.8844
#
#
#
# Elastic Compliance Matrix: (Units=1/GPa)
#
#
# Indices 1 2 3 4 5 6 
#
# 1 0.021048 -0.002742 -0.004119 0.000000 -0.014488 0.000000
# 2 -0.002742 0.012271 -0.010356 0.000000 -0.005265 0.000000
# 3 -0.004119 -0.010356 0.026054 0.000000 0.003734 0.000000
# 4 0.000000 0.000000 0.000000 0.018998 0.000000 -0.000320
# 5 -0.014488 -0.005265 0.003734 0.000000 0.039868 0.000000
# 6 0.000000 0.000000 0.000000 -0.000320 0.000000 0.014113
#
#
# Mechanical properties :
#
#
# Convention : Reuss Voigt Hill
#
# Bulk Modulus (GPa) = 40.09788 75.94770 58.02279
# Shear Modulus (GPa) = 28.55545 44.00084 36.27814
#
# Velocity S-wave (km/s) = 3.46317 4.29893 3.90348
# Velocity P-wave (km/s) = 5.73000 7.51930 6.68479
#
# Compressibility (1/GPa) = 0.02493897
#
# Stress axis : x y z
#
# Youngs Moduli (GPa) = 47.51053 81.49351 38.38218
#
# Poissons Ratio (x) = 0.22349 0.15809
# Poissons Ratio (y) = 0.13029 0.39747
# Poissons Ratio (z) = 0.19568 0.84392
#
# Static dielectric constant tensor:
#      x y z
#    x 1.879570 0.000000 0.004090 
#    y 0.000000 1.921930 0.000000 
#    z 0.004090 0.000000 1.882650 
# 
# From -- ./inp_files/20166.got.cif
#   From: 2010.05.17/outbox.cif.g08.bks.cpg/sg14_11_cif.got.tgz:20166.got - 2010.06.03 17:49:19.
