data_PCOD9248056
_publ_section_title
;
Structure prediction by ZEFSAII (Michael W. Deem and Ramdas Pophale) SiO2 
 PCOD9248056
Probable space group: P 21/C
;
_chemical_formula_sum "Si O2"
_cell_formula_units_Z 30
_cell_length_a 19.307489
_cell_length_b 4.943390
_cell_length_c 14.792702
_cell_angle_alpha 90.000000
_cell_angle_beta 61.442600
_cell_angle_gamma 90.000000
_cell_volume 1240.109888
_symmetry_space_group_name_H-M "P 21/C"
_symmetry_group_IT_number 14
_symmetry_cell_setting 'monoclinic'
loop_
_space_group_symop_operation_xyz
x,y,z
-x,1/2+y,1/2-z
-x,-y,-z
x,1/2-y,1/2+z
loop_
_atom_site_type_symbol
_atom_site_label
_atom_site_fract_x
_atom_site_fract_y
_atom_site_fract_z
Si Si1 0.408216 0.287805 0.117764
Si Si2 0.131213 0.397559 0.844896
Si Si3 0.731319 0.914463 0.159400
Si Si4 0.997218 0.512262 0.641582
Si Si5 0.000000 0.500000 0.000000
Si Si6 0.134697 0.738343 0.667376
Si Si7 0.723171 0.414469 0.045261
Si Si8 0.416049 0.701810 0.487646
O O1 0.342379 0.320609 0.234393
O O2 0.417133 0.582484 0.068415
O O3 0.387700 0.078958 0.049662
O O4 0.493055 0.184534 0.100714
O O5 0.191126 0.165906 0.832592
O O6 0.157036 0.564184 0.742304
O O7 0.039912 0.276791 0.886002
O O8 0.101024 0.560564 0.949665
O O9 0.728464 0.723886 0.072826
O O10 0.731096 0.223672 0.128887
O O11 0.002277 0.261591 0.573353
O O12 0.079876 0.560950 0.636571
O O13 0.928307 0.458980 0.757651
O O14 0.209849 0.851908 0.570133
O O15 0.641083 0.321548 0.051942
#
# Coordination Sequence:
#
# PCOD9248056 Si02
#       8
#     4   4   4   4   2   4   4   4
#     4  10  22  43  75  98 138 172 229 265 339 400
#     4  10  24  41  63  91 126 172 220 274 334 398
#     4  12  27  44  64 103 136 182 216 284 336 397
#     4  10  22  41  63  93 123 169 225 279 341 395
#     4   8  20  38  58  90 120 160 206 280 330 394
#     4  12  24  42  69  92 127 181 229 283 333 415
#     4  12  29  42  68  99 142 174 228 275 337 398
#     4  10  22  44  71 105 129 182 218 277 325 410
#
# _framework density 24.191406000000001
#
# number of rings (size 3 to 8) (size 9 to 14) (size 15 to 20)
#    0.800    0.533    1.333    3.200    5.600    2.667 
#    0.000    0.000    0.000    0.000    0.000    0.000 
#    0.000    0.000    0.000    0.000    0.000    0.000 
#
# Total GULP energy -167796.620280 kJ/mol
# GULP energy per Si atom -5593.220676 kJ/mol
# Density = 2.413635 g / cm^3
# Si number density = 24.191406 Si / 1000 Ang^3
#
#
#
# Elastic Constant Matrix: (Units=GPa)
#
#
# Indices 1 2 3 4 5 6 
#
# 1 68.1144 -2.6653 3.4135 0.0000 -8.9549 0.0000
# 2 -2.6653 92.2446 15.2830 0.0000 1.6733 0.0000
# 3 3.4135 15.2830 110.2066 0.0000 -24.1757 0.0000
# 4 0.0000 0.0000 0.0000 40.6761 0.0000 7.4723
# 5 -8.9549 1.6733 -24.1757 0.0000 20.5473 0.0000
# 6 0.0000 0.0000 0.0000 7.4723 0.0000 32.3277
#
#
#
# Elastic Compliance Matrix: (Units=1/GPa)
#
#
# Indices 1 2 3 4 5 6 
#
# 1 0.015726 0.000077 0.001354 0.000000 0.008440 0.000000
# 2 0.000077 0.011304 -0.002378 0.000000 -0.003685 0.000000
# 3 0.001354 -0.002378 0.012850 0.000000 0.015903 0.000000
# 4 0.000000 0.000000 0.000000 0.025675 0.000000 -0.005935
# 5 0.008440 -0.003685 0.015903 0.000000 0.071358 0.000000
# 6 0.000000 0.000000 0.000000 -0.005935 0.000000 0.032305
#
#
# Mechanical properties :
#
#
# Convention : Reuss Voigt Hill
#
# Bulk Modulus (GPa) = 26.32624 33.62533 29.97579
# Shear Modulus (GPa) = 27.20717 35.67921 31.44319
#
# Velocity S-wave (km/s) = 3.35724 3.84457 3.60914
# Velocity P-wave (km/s) = 5.09256 5.79979 5.45764
#
# Compressibility (1/GPa) = 0.03798491
#
# Stress axis : x y z
#
# Youngs Moduli (GPa) = 63.58910 88.46523 77.81839
#
# Poissons Ratio (x) = -0.00681 -0.10535
# Poissons Ratio (y) = -0.00490 0.18508
# Poissons Ratio (z) = -0.08608 0.21041
#
# Static dielectric constant tensor:
#      x y z
#    x 2.018820 0.000000 0.006200 
#    y 0.000000 1.993460 0.000000 
#    z 0.006200 0.000000 1.920130 
# 
# From -- ./inp_files/48116.got.cif
#   From: 2010.05.17/outbox.cif.g08.bks.cpg/sg14_25_cif.got.tgz:48116.got - 2010.06.03 17:49:19.
