data_PCOD9248457
_publ_section_title
;
Structure prediction by ZEFSAII (Michael W. Deem and Ramdas Pophale) SiO2 
 PCOD9248457
Probable space group: P 21/C
;
_chemical_formula_sum "Si O2"
_cell_formula_units_Z 20
_cell_length_a 12.386474
_cell_length_b 9.193253
_cell_length_c 17.829291
_cell_angle_alpha 90.000000
_cell_angle_beta 157.953713
_cell_angle_gamma 90.000000
_cell_volume 762.068082
_symmetry_space_group_name_H-M "P 21/C"
_symmetry_group_IT_number 14
_symmetry_cell_setting 'monoclinic'
loop_
_space_group_symop_operation_xyz
x,y,z
-x,1/2+y,1/2-z
-x,-y,-z
x,1/2-y,1/2+z
loop_
_atom_site_type_symbol
_atom_site_label
_atom_site_fract_x
_atom_site_fract_y
_atom_site_fract_z
Si Si1 0.827846 0.583463 0.593637
Si Si2 0.848421 0.219252 0.454902
Si Si3 0.233431 0.090855 0.448681
Si Si4 0.307390 0.098614 0.166661
Si Si5 0.758519 0.478271 0.749796
O O1 0.725624 0.745278 0.552345
O O2 0.803874 0.564502 0.488848
O O3 0.576743 0.490265 0.471498
O O4 0.126771 0.522969 0.817600
O O5 0.039274 0.346033 0.542430
O O6 0.780785 0.104541 0.344328
O O7 0.547555 0.227952 0.305990
O O8 0.074353 0.130151 0.650020
O O9 0.498699 0.022620 0.665937
O O10 0.962348 0.118663 0.329420
#
# Coordination Sequence:
#
# PCOD9248457 Si02
#       5
#     4   4   4   4   4
#     4  11  24  40  67  96 131 175 224 274 328 398
#     4   9  18  38  70  97 123 181 219 270 332 396
#     4  11  24  42  66  98 131 177 222 275 336 392
#     4  10  22  42  69  96 137 171 225 273 332 394
#     4   9  19  40  66  89 131 182 224 255 337 410
#
# _framework density 26.244374000000001
#
# number of rings (size 3 to 8) (size 9 to 14) (size 15 to 20)
#    0.000    2.000    2.000    1.800    2.800    0.000 
#    0.000    7.000    0.000    0.000    0.000    0.000 
#    0.000    0.000    0.000    0.000    0.000    0.000 
#
# Total GULP energy -111740.435433 kJ/mol
# GULP energy per Si atom -5587.021772 kJ/mol
# Density = 2.618464 g / cm^3
# Si number density = 26.244374 Si / 1000 Ang^3
#
#
#
# Elastic Constant Matrix: (Units=GPa)
#
#
# Indices 1 2 3 4 5 6 
#
# 1 75.2382 30.1974 40.4058 0.0000 12.4527 0.0000
# 2 30.1974 94.9858 69.4407 0.0000 -18.8005 0.0000
# 3 40.4058 69.4407 175.3669 0.0000 -2.7318 0.0000
# 4 0.0000 0.0000 0.0000 17.4136 0.0000 10.4985
# 5 12.4527 -18.8005 -2.7318 0.0000 43.2183 0.0000
# 6 0.0000 0.0000 0.0000 10.4985 0.0000 35.5177
#
#
#
# Elastic Compliance Matrix: (Units=1/GPa)
#
#
# Indices 1 2 3 4 5 6 
#
# 1 0.017983 -0.005843 -0.001952 0.000000 -0.007847 0.000000
# 2 -0.005843 0.018505 -0.005835 0.000000 0.009365 0.000000
# 3 -0.001952 -0.005835 0.008440 0.000000 -0.001443 0.000000
# 4 0.000000 0.000000 0.000000 0.069879 0.000000 -0.020655
# 5 -0.007847 0.009365 -0.001443 0.000000 0.029382 0.000000
# 6 0.000000 0.000000 0.000000 -0.020655 0.000000 0.034260
#
#
# Mechanical properties :
#
#
# Convention : Reuss Voigt Hill
#
# Bulk Modulus (GPa) = 56.60087 69.51986 63.06036
# Shear Modulus (GPa) = 23.62940 32.93305 28.28123
#
# Velocity S-wave (km/s) = 3.00386 3.54625 3.28626
# Velocity P-wave (km/s) = 5.80039 6.58139 6.20320
#
# Compressibility (1/GPa) = 0.01766757
#
# Stress axis : x y z
#
# Youngs Moduli (GPa) = 55.60683 54.03900 118.48017
#
# Poissons Ratio (x) = 0.31577 0.23126
# Poissons Ratio (y) = 0.32493 0.69137
# Poissons Ratio (z) = 0.10854 0.31534
#
# Static dielectric constant tensor:
#      x y z
#    x 2.054800 0.000000 -0.027500 
#    y 0.000000 2.365300 0.000000 
#    z -0.027500 0.000000 2.177380 
# 
# From -- ./inp_files/23074.got.cif
#   From: 2010.05.17/outbox.cif.g08.bks.cpg/sg14_12_cif.got.tgz:23074.got - 2010.06.03 17:49:19.
