data_PCOD9248125
_publ_section_title
;
Structure prediction by ZEFSAII (Michael W. Deem and Ramdas Pophale) SiO2 
 PCOD9248125
Probable space group: P 21/C
;
_chemical_formula_sum "Si O2"
_cell_formula_units_Z 28
_cell_length_a 9.592087
_cell_length_b 18.212702
_cell_length_c 8.979922
_cell_angle_alpha 90.000000
_cell_angle_beta 128.523368
_cell_angle_gamma 90.000000
_cell_volume 1227.336002
_symmetry_space_group_name_H-M "P 21/C"
_symmetry_group_IT_number 14
_symmetry_cell_setting 'monoclinic'
loop_
_space_group_symop_operation_xyz
x,y,z
-x,1/2+y,1/2-z
-x,-y,-z
x,1/2-y,1/2+z
loop_
_atom_site_type_symbol
_atom_site_label
_atom_site_fract_x
_atom_site_fract_y
_atom_site_fract_z
Si Si1 0.616856 0.545603 0.431338
Si Si2 0.704701 0.152388 0.800984
Si Si3 0.298330 0.489076 0.809836
Si Si4 0.410691 0.103910 0.797520
Si Si5 0.868246 0.228271 0.200756
Si Si6 0.975931 0.663310 0.899916
Si Si7 0.999464 0.486766 0.175183
O O1 0.682866 0.568394 0.312805
O O2 0.539025 0.606547 0.491322
O O3 0.469612 0.481476 0.312576
O O4 0.799291 0.512143 0.626458
O O5 0.758301 0.068523 0.797403
O O6 0.502844 0.146140 0.724542
O O7 0.741717 0.209079 0.692077
O O8 0.792396 0.180256 0.014511
O O9 0.147329 0.469219 0.828866
O O10 0.500000 0.500000 0.000000
O O11 0.212427 0.132407 0.674869
O O12 0.923520 0.182929 0.382078
O O13 0.027184 0.270929 0.220656
O O14 0.065141 0.597522 0.867523
O O15 0.000000 0.500000 0.000000
#
# Coordination Sequence:
#
# PCOD9248125 Si02
#       7
#     4   4   4   4   4   4   4
#     4   9  21  41  61  92 135 167 207 263 331 391
#     4  10  22  42  65  94 129 171 222 268 336 384
#     4  11  24  40  64  98 136 171 221 273 335 402
#     4   9  20  38  65  90 130 162 212 260 319 383
#     4  10  22  43  68  89 127 173 222 275 318 397
#     4  10  22  41  65  96 124 169 223 268 327 389
#     4  11  24  39  68  97 127 172 219 269 341 391
#
# _framework density 22.813638999999998
#
# number of rings (size 3 to 8) (size 9 to 14) (size 15 to 20)
#    0.000    2.000    1.429    0.429   14.000    1.143 
#    0.000    0.000    0.000    0.000    0.000    0.000 
#    0.000    0.000    0.000    0.000    0.000    0.000 
#
# Total GULP energy -155872.501104 kJ/mol
# GULP energy per Si atom -5566.875039 kJ/mol
# Density = 2.276171 g / cm^3
# Si number density = 22.813639 Si / 1000 Ang^3
#
#
#
# Elastic Constant Matrix: (Units=GPa)
#
#
# Indices 1 2 3 4 5 6 
#
# 1 163.6718 8.0676 25.6770 0.0000 -21.8787 0.0000
# 2 8.0676 47.5602 5.2262 0.0000 -2.5165 0.0000
# 3 25.6770 5.2262 58.4790 0.0000 -14.8909 0.0000
# 4 0.0000 0.0000 0.0000 25.0251 0.0000 -7.8444
# 5 -21.8787 -2.5165 -14.8909 0.0000 31.6269 0.0000
# 6 0.0000 0.0000 0.0000 -7.8444 0.0000 23.6827
#
#
#
# Elastic Compliance Matrix: (Units=1/GPa)
#
#
# Indices 1 2 3 4 5 6 
#
# 1 0.006974 -0.000759 -0.002024 0.000000 0.003811 0.000000
# 2 -0.000759 0.021340 -0.001449 0.000000 0.000491 0.000000
# 3 -0.002024 -0.001449 0.020148 0.000000 0.007971 0.000000
# 4 0.000000 0.000000 0.000000 0.044590 0.000000 0.014769
# 5 0.003811 0.000491 0.007971 0.000000 0.038047 0.000000
# 6 0.000000 0.000000 0.000000 0.014769 0.000000 0.047117
#
#
# Mechanical properties :
#
#
# Convention : Reuss Voigt Hill
#
# Bulk Modulus (GPa) = 25.00093 38.62807 31.81450
# Shear Modulus (GPa) = 24.99847 31.44962 28.22405
#
# Velocity S-wave (km/s) = 3.31383 3.71690 3.52114
# Velocity P-wave (km/s) = 5.06207 5.94889 5.52330
#
# Compressibility (1/GPa) = 0.03999851
#
# Stress axis : x y z
#
# Youngs Moduli (GPa) = 143.38605 46.86059 49.63271
#
# Poissons Ratio (x) = 0.03557 0.10045
# Poissons Ratio (y) = 0.10882 0.07191
# Poissons Ratio (z) = 0.29020 0.06790
#
# Static dielectric constant tensor:
#      x y z
#    x 1.941930 0.000000 -0.032320 
#    y 0.000000 2.034640 0.000000 
#    z -0.032320 0.000000 1.910700 
# 
# From -- ./inp_files/10434.got.cif
#   From: 2010.05.17/outbox.cif.g08.bks.cpg/sg14_6_cif.got.tgz:10434.got - 2010.06.03 17:49:19.
