data_PCOD9248567
_publ_section_title
;
Structure prediction by ZEFSAII (Michael W. Deem and Ramdas Pophale) SiO2 
 PCOD9248567
Probable space group: P 21/C
;
_chemical_formula_sum "Si O2"
_cell_formula_units_Z 24
_cell_length_a 21.521838
_cell_length_b 5.941532
_cell_length_c 14.283077
_cell_angle_alpha 90.000000
_cell_angle_beta 140.902837
_cell_angle_gamma 90.000000
_cell_volume 1151.805865
_symmetry_space_group_name_H-M "P 21/C"
_symmetry_group_IT_number 14
_symmetry_cell_setting 'monoclinic'
loop_
_space_group_symop_operation_xyz
x,y,z
-x,1/2+y,1/2-z
-x,-y,-z
x,1/2-y,1/2+z
loop_
_atom_site_type_symbol
_atom_site_label
_atom_site_fract_x
_atom_site_fract_y
_atom_site_fract_z
Si Si1 0.095545 0.368156 0.645103
Si Si2 0.246873 0.739647 0.589702
Si Si3 0.249049 0.103910 0.726525
Si Si4 0.611388 0.988681 0.598001
Si Si5 0.262616 0.779184 0.393501
Si Si6 0.016599 0.766256 0.315856
O O1 0.151288 0.252002 0.623833
O O2 0.177932 0.531668 0.785657
O O3 0.000000 0.500000 0.500000
O O4 0.054273 0.205529 0.677338
O O5 0.316290 0.591646 0.737519
O O6 0.268483 0.702010 0.506655
O O7 0.130671 0.715354 0.472955
O O8 0.264761 0.995672 0.644034
O O9 0.346634 0.239898 0.866498
O O10 0.234386 0.914819 0.787978
O O11 0.636976 0.120209 0.532509
O O12 0.500000 0.000000 0.500000
O O13 0.985225 0.517666 0.235005
#
# Coordination Sequence:
#
# PCOD9248567 Si02
#       6
#     4   4   4   4   4   4
#     4  11  23  37  62  95 137 186 233 280 352 412
#     4  11  24  42  68  99 137 186 237 289 360 420
#     4  10  23  42  68  89 143 175 226 298 348 426
#     4  10  24  46  67 101 132 176 237 297 367 425
#     4  10  22  43  63  98 134 179 228 288 354 425
#     4  12  26  41  67 102 144 188 244 287 347 431
#
# _framework density 20.836843999999999
#
# number of rings (size 3 to 8) (size 9 to 14) (size 15 to 20)
#    0.000    1.333    1.667    4.000    4.667    6.667 
#    6.000    0.000    0.000    0.000    0.000    0.000 
#    0.000    0.000    0.000    0.000    0.000    0.000 
#
# Total GULP energy -133895.001969 kJ/mol
# GULP energy per Si atom -5578.958415 kJ/mol
# Density = 2.078942 g / cm^3
# Si number density = 20.836844 Si / 1000 Ang^3
#
#
#
# Elastic Constant Matrix: (Units=GPa)
#
#
# Indices 1 2 3 4 5 6 
#
# 1 95.9118 2.3109 29.0203 0.0000 22.1779 0.0000
# 2 2.3109 47.5374 11.8671 0.0000 5.8714 0.0000
# 3 29.0203 11.8671 61.2318 0.0000 13.5276 0.0000
# 4 0.0000 0.0000 0.0000 13.9611 0.0000 -6.9895
# 5 22.1779 5.8714 13.5276 0.0000 44.8533 0.0000
# 6 0.0000 0.0000 0.0000 -6.9895 0.0000 28.4711
#
#
#
# Elastic Compliance Matrix: (Units=1/GPa)
#
#
# Indices 1 2 3 4 5 6 
#
# 1 0.013199 0.001331 -0.005393 0.000000 -0.005074 0.000000
# 2 0.001331 0.022364 -0.004471 0.000000 -0.002237 0.000000
# 3 -0.005393 -0.004471 0.020394 0.000000 -0.002899 0.000000
# 4 0.000000 0.000000 0.000000 0.081665 0.000000 0.020048
# 5 -0.005074 -0.002237 -0.002899 0.000000 0.025971 0.000000
# 6 0.000000 0.000000 0.000000 0.020048 0.000000 0.040045
#
#
# Mechanical properties :
#
#
# Convention : Reuss Voigt Hill
#
# Bulk Modulus (GPa) = 25.71182 32.34196 29.02689
# Shear Modulus (GPa) = 21.39799 28.22261 24.81030
#
# Velocity S-wave (km/s) = 3.20805 3.68429 3.45439
# Velocity P-wave (km/s) = 5.10769 5.80119 5.46545
#
# Compressibility (1/GPa) = 0.03889261
#
# Stress axis : x y z
#
# Youngs Moduli (GPa) = 75.76236 44.71514 49.03363
#
# Poissons Ratio (x) = -0.05953 0.26442
# Poissons Ratio (y) = -0.10086 0.21923
# Poissons Ratio (z) = 0.40856 0.19992
#
# Static dielectric constant tensor:
#      x y z
#    x 1.739750 0.000000 -0.041040 
#    y 0.000000 1.853160 0.000000 
#    z -0.041040 0.000000 1.728750 
# 
# From -- ./inp_files/45942.got.cif
#   From: 2010.05.17/outbox.cif.g08.bks.cpg/sg14_23_cif.got.tgz:45942.got - 2010.06.03 17:49:19.
