data_PCOD9248314
_publ_section_title
;
Structure prediction by ZEFSAII (Michael W. Deem and Ramdas Pophale) SiO2 
 PCOD9248314
Probable space group: P 21/C
;
_chemical_formula_sum "Si O2"
_cell_formula_units_Z 26
_cell_length_a 16.903202
_cell_length_b 8.346840
_cell_length_c 23.087771
_cell_angle_alpha 90.000000
_cell_angle_beta 157.222034
_cell_angle_gamma 90.000000
_cell_volume 1261.144136
_symmetry_space_group_name_H-M "P 21/C"
_symmetry_group_IT_number 14
_symmetry_cell_setting 'monoclinic'
loop_
_space_group_symop_operation_xyz
x,y,z
-x,1/2+y,1/2-z
-x,-y,-z
x,1/2-y,1/2+z
loop_
_atom_site_type_symbol
_atom_site_label
_atom_site_fract_x
_atom_site_fract_y
_atom_site_fract_z
Si Si1 0.525026 0.059586 0.183683
Si Si2 0.858959 0.854366 0.886583
Si Si3 0.000000 0.000000 0.500000
Si Si4 0.753930 0.782447 0.099916
Si Si5 0.206847 0.917072 0.419558
Si Si6 0.454566 0.782308 0.684551
Si Si7 0.565074 0.652669 0.082116
O O1 0.540802 0.192608 0.244281
O O2 0.753036 0.015357 0.318432
O O3 0.429963 0.901570 0.149560
O O4 0.384541 0.118614 0.037387
O O5 0.987143 0.691572 0.975344
O O6 0.672153 0.837239 0.805687
O O7 0.750090 0.881654 0.751129
O O8 0.000000 0.000000 0.000000
O O9 0.773337 0.600986 0.087667
O O10 0.643913 0.777843 0.088146
O O11 0.978875 0.855575 0.257362
O O12 0.282650 0.889367 0.536551
O O13 0.367711 0.814565 0.488993
O O14 0.500000 0.500000 0.000000
#
# Coordination Sequence:
#
# PCOD9248314 Si02
#       7
#     4   4   2   4   4   4   4
#     4  11  24  44  66  98 133 177 227 289 340 416
#     4  10  23  42  71  98 135 183 224 290 343 416
#     4  10  26  42  64 104 136 170 244 278 348 418
#     4  11  23  42  68  95 138 182 219 289 344 419
#     4  10  22  42  64  99 131 176 230 273 347 419
#     4  10  23  42  65  97 129 171 231 278 340 406
#     4   9  22  42  66  98 134 182 230 275 354 428
#
# _framework density 20.616199999999999
#
# number of rings (size 3 to 8) (size 9 to 14) (size 15 to 20)
#    0.000    1.846    0.000    1.846   10.769    2.462 
#    5.538    7.692    0.000    0.000    0.000    0.000 
#    0.000    0.000    0.000    0.000    0.000    0.000 
#
# Total GULP energy -144777.949368 kJ/mol
# GULP energy per Si atom -5568.382668 kJ/mol
# Density = 2.056928 g / cm^3
# Si number density = 20.616200 Si / 1000 Ang^3
#
#
#
# Elastic Constant Matrix: (Units=GPa)
#
#
# Indices 1 2 3 4 5 6 
#
# 1 61.7314 11.2300 32.3031 0.0000 -15.8884 0.0000
# 2 11.2300 101.2837 35.6103 0.0000 -2.9202 0.0000
# 3 32.3031 35.6103 112.4509 0.0000 -8.0358 0.0000
# 4 0.0000 0.0000 0.0000 40.2712 0.0000 0.6527
# 5 -15.8884 -2.9202 -8.0358 0.0000 23.7983 0.0000
# 6 0.0000 0.0000 0.0000 0.6527 0.0000 22.5930
#
#
#
# Elastic Compliance Matrix: (Units=1/GPa)
#
#
# Indices 1 2 3 4 5 6 
#
# 1 0.022470 -0.000195 -0.005454 0.000000 0.013136 0.000000
# 2 -0.000195 0.011113 -0.003458 0.000000 0.000066 0.000000
# 3 -0.005454 -0.003458 0.011543 0.000000 -0.000168 0.000000
# 4 0.000000 0.000000 0.000000 0.024843 0.000000 -0.000718
# 5 0.013136 0.000066 -0.000168 0.000000 0.050741 0.000000
# 6 0.000000 0.000000 0.000000 -0.000718 0.000000 0.044282
#
#
# Mechanical properties :
#
#
# Convention : Reuss Voigt Hill
#
# Bulk Modulus (GPa) = 37.16115 48.19476 42.67795
# Shear Modulus (GPa) = 26.01769 30.42066 28.21918
#
# Velocity S-wave (km/s) = 3.55632 3.84548 3.70373
# Velocity P-wave (km/s) = 5.90996 6.56848 6.24790
#
# Compressibility (1/GPa) = 0.02690982
#
# Stress axis : x y z
#
# Youngs Moduli (GPa) = 44.50436 89.98710 86.63442
#
# Poissons Ratio (x) = 0.01754 0.47253
# Poissons Ratio (y) = 0.00868 0.29962
# Poissons Ratio (z) = 0.24274 0.31121
#
# Static dielectric constant tensor:
#      x y z
#    x 1.722480 0.000000 0.024950 
#    y 0.000000 2.513000 0.000000 
#    z 0.024950 0.000000 1.678740 
# 
# From -- ./inp_files/74236.got.cif
#   From: 2010.05.17/outbox.cif.g08.bks.cpg/sg14_38_cif.got.tgz:74236.got - 2010.06.03 17:49:19.
