data_PCOD9248528
_publ_section_title
;
Structure prediction by ZEFSAII (Michael W. Deem and Ramdas Pophale) SiO2 
 PCOD9248528
Probable space group: P 21/C
;
_chemical_formula_sum "Si O2"
_cell_formula_units_Z 24
_cell_length_a 5.453473
_cell_length_b 21.555583
_cell_length_c 9.312286
_cell_angle_alpha 90.000000
_cell_angle_beta 76.039224
_cell_angle_gamma 90.000000
_cell_volume 1062.349420
_symmetry_space_group_name_H-M "P 21/C"
_symmetry_group_IT_number 14
_symmetry_cell_setting 'monoclinic'
loop_
_space_group_symop_operation_xyz
x,y,z
-x,1/2+y,1/2-z
-x,-y,-z
x,1/2-y,1/2+z
loop_
_atom_site_type_symbol
_atom_site_label
_atom_site_fract_x
_atom_site_fract_y
_atom_site_fract_z
Si Si1 0.578600 0.134373 0.394149
Si Si2 0.335011 0.517315 0.306624
Si Si3 0.401691 0.615762 0.772258
Si Si4 0.900153 0.069871 0.908687
Si Si5 0.885593 0.701252 0.200892
Si Si6 0.797041 0.682930 0.534253
O O1 0.596822 0.065499 0.325492
O O2 0.573408 0.132692 0.566982
O O3 0.328555 0.165486 0.361904
O O4 0.843608 0.167992 0.320084
O O5 0.485910 0.453588 0.266871
O O6 0.342851 0.552500 0.459584
O O7 0.046142 0.492761 0.346738
O O8 0.131852 0.606516 0.736352
O O9 0.540509 0.665602 0.652592
O O10 0.054372 0.117781 0.985168
O O11 0.772299 0.707293 0.376683
O O12 0.930693 0.765344 0.111774
#
# Coordination Sequence:
#
# PCOD9248528 Si02
#       6
#     4   4   4   4   4   4
#     4  12  28  46  73 110 146 188 238 301 358 427
#     4  10  22  43  68 109 139 195 234 297 356 426
#     4  11  25  42  74 103 149 184 244 293 365 424
#     4  10  22  42  73 102 143 191 240 295 357 427
#     4  12  29  48  75 102 145 190 243 294 359 426
#     4  11  26  47  71 103 139 191 242 297 356 428
#
# _framework density 22.591439000000001
#
# number of rings (size 3 to 8) (size 9 to 14) (size 15 to 20)
#    0.000    1.000    1.667    3.000   11.667    0.667 
#    0.000    0.000    0.000    0.000    0.000    0.000 
#    0.000    0.000    0.000    0.000    0.000    0.000 
#
# Total GULP energy -134044.408829 kJ/mol
# GULP energy per Si atom -5585.183701 kJ/mol
# Density = 2.254002 g / cm^3
# Si number density = 22.591439 Si / 1000 Ang^3
#
#
#
# Elastic Constant Matrix: (Units=GPa)
#
#
# Indices 1 2 3 4 5 6 
#
# 1 46.9616 4.3777 -3.9702 0.0000 4.6617 0.0000
# 2 4.3777 61.3628 11.9240 0.0000 4.4584 0.0000
# 3 -3.9702 11.9240 129.1968 0.0000 15.0491 0.0000
# 4 0.0000 0.0000 0.0000 25.8593 0.0000 7.9172
# 5 4.6617 4.4584 15.0491 0.0000 27.7995 0.0000
# 6 0.0000 0.0000 0.0000 7.9172 0.0000 28.1915
#
#
#
# Elastic Compliance Matrix: (Units=1/GPa)
#
#
# Indices 1 2 3 4 5 6 
#
# 1 0.021956 -0.001518 0.001297 0.000000 -0.004141 0.000000
# 2 -0.001518 0.016799 -0.001401 0.000000 -0.001681 0.000000
# 3 0.001297 -0.001401 0.008441 0.000000 -0.004562 0.000000
# 4 0.000000 0.000000 0.000000 0.042309 0.000000 -0.011882
# 5 -0.004141 -0.001681 -0.004562 0.000000 0.039406 0.000000
# 6 0.000000 0.000000 0.000000 -0.011882 0.000000 0.038809
#
#
# Mechanical properties :
#
#
# Convention : Reuss Voigt Hill
#
# Bulk Modulus (GPa) = 22.75181 29.13158 25.94169
# Shear Modulus (GPa) = 26.93775 31.38270 29.16023
#
# Velocity S-wave (km/s) = 3.45684 3.73116 3.59662
# Velocity P-wave (km/s) = 5.10156 5.61115 5.36241
#
# Compressibility (1/GPa) = 0.04395255
#
# Stress axis : x y z
#
# Youngs Moduli (GPa) = 45.54538 59.52654 118.47328
#
# Poissons Ratio (x) = 0.09034 -0.15367
# Poissons Ratio (y) = 0.06912 0.16601
# Poissons Ratio (z) = -0.05908 0.08341
#
# Static dielectric constant tensor:
#      x y z
#    x 1.966490 0.000000 0.020280 
#    y 0.000000 1.858410 0.000000 
#    z 0.020280 0.000000 1.838000 
# 
# From -- ./inp_files/6243.got.cif
#   From: 2010.05.17/outbox.cif.g08.bks.cpg/sg14_4_cif.got.tgz:6243.got - 2010.06.03 17:49:19.
