data_PCOD9248142
_publ_section_title
;
Structure prediction by ZEFSAII (Michael W. Deem and Ramdas Pophale) SiO2 
 PCOD9248142
Probable space group: P 21/C
;
_chemical_formula_sum "Si O2"
_cell_formula_units_Z 32
_cell_length_a 14.322150
_cell_length_b 9.405273
_cell_length_c 10.896977
_cell_angle_alpha 90.000000
_cell_angle_beta 86.846174
_cell_angle_gamma 90.000000
_cell_volume 1465.640267
_symmetry_space_group_name_H-M "P 21/C"
_symmetry_group_IT_number 14
_symmetry_cell_setting 'monoclinic'
loop_
_space_group_symop_operation_xyz
x,y,z
-x,1/2+y,1/2-z
-x,-y,-z
x,1/2-y,1/2+z
loop_
_atom_site_type_symbol
_atom_site_label
_atom_site_fract_x
_atom_site_fract_y
_atom_site_fract_z
Si Si1 0.086046 0.113812 0.000736
Si Si2 0.039426 0.175169 0.282777
Si Si3 0.884587 0.128134 0.701317
Si Si4 0.288374 0.720461 0.909050
Si Si5 0.744375 0.460827 0.417384
Si Si6 0.407677 0.161433 0.000033
Si Si7 0.441461 0.905178 0.825412
Si Si8 0.578125 0.953888 0.590500
O O1 0.080072 0.226955 0.890169
O O2 0.081588 0.181218 0.139501
O O3 0.182322 0.025848 0.989726
O O4 0.000000 0.000000 0.000000
O O5 0.938413 0.244903 0.265174
O O6 0.048292 0.009078 0.321792
O O7 0.822271 0.190799 0.596854
O O8 0.803569 0.067458 0.793802
O O9 0.344201 0.823465 0.809185
O O10 0.346213 0.576248 0.900076
O O11 0.296942 0.814218 0.030760
O O12 0.663483 0.575275 0.409628
O O13 0.371937 0.313104 0.962756
O O14 0.421854 0.061710 0.880410
O O15 0.504123 0.173590 0.067200
O O16 0.515061 0.913985 0.711737
O O17 0.500000 0.000000 0.500000
#
# Coordination Sequence:
#
# PCOD9248142 Si02
#       8
#     4   4   4   4   4   4   4   4
#     4  11  22  47  69 102 141 179 233 283 355 412
#     4  11  24  45  74  99 138 187 222 291 346 422
#     4  11  25  44  69  98 132 177 228 276 342 412
#     4  11  24  41  65  98 129 173 224 278 335 401
#     4  10  23  44  65  90 136 178 219 278 340 409
#     4  10  22  41  66  89 128 179 216 269 338 397
#     4  10  22  43  64  88 131 178 215 267 342 396
#     4  12  24  39  63 100 131 167 231 278 319 393
#
# _framework density 21.833459999999999
#
# number of rings (size 3 to 8) (size 9 to 14) (size 15 to 20)
#    0.000    1.250    3.750    2.250    3.500    0.500 
#    0.000    0.000    0.000    0.000    0.000    0.000 
#    0.000    0.000    0.000    0.000    0.000    0.000 
#
# Total GULP energy -178544.219989 kJ/mol
# GULP energy per Si atom -5579.506875 kJ/mol
# Density = 2.178377 g / cm^3
# Si number density = 21.833460 Si / 1000 Ang^3
#
#
#
# Elastic Constant Matrix: (Units=GPa)
#
#
# Indices 1 2 3 4 5 6 
#
# 1 68.5413 30.5359 4.5281 0.0000 17.4678 0.0000
# 2 30.5359 116.2834 36.4702 0.0000 5.1903 0.0000
# 3 4.5281 36.4702 73.1318 0.0000 4.4396 0.0000
# 4 0.0000 0.0000 0.0000 4.1739 0.0000 11.9161
# 5 17.4678 5.1903 4.4396 0.0000 27.6057 0.0000
# 6 0.0000 0.0000 0.0000 11.9161 0.0000 11.1306
#
#
#
# Elastic Compliance Matrix: (Units=1/GPa)
#
#
# Indices 1 2 3 4 5 6 
#
# 1 0.019874 -0.005368 0.002170 0.000000 -0.011915 0.000000
# 2 -0.005368 0.011678 -0.005619 0.000000 0.002104 0.000000
# 3 0.002170 -0.005619 0.016522 0.000000 -0.002974 0.000000
# 4 0.000000 0.000000 0.000000 -0.116508 0.000000 0.124730
# 5 -0.011915 0.002104 -0.002974 0.000000 0.043847 0.000000
# 6 0.000000 0.000000 0.000000 0.124730 0.000000 -0.043690
#
#
# Mechanical properties :
#
#
# Convention : Reuss Voigt Hill
#
# Bulk Modulus (GPa) = 32.85119 44.55832 38.70475
# Shear Modulus (GPa) = -123.46690 21.01019 -51.22836
#
# Velocity S-wave (km/s) = -7.52809 3.10545 -4.84914
# Velocity P-wave (km/s) = 7.77714 5.77157 3.68598
#
# Compressibility (1/GPa) = 0.03044030
#
# Stress axis : x y z
#
# Youngs Moduli (GPa) = 50.31600 85.63450 60.52458
#
# Poissons Ratio (x) = 0.45965 -0.13131
# Poissons Ratio (y) = 0.27008 0.34008
# Poissons Ratio (z) = -0.10916 0.48117
#
# Static dielectric constant tensor:
#      x y z
#    x 1.829760 0.000000 0.012120 
#    y 0.000000 1.817750 0.000000 
#    z 0.012120 0.000000 1.827190 
# 
# From -- ./inp_files/31826.got.cif
#   From: 2010.05.17/outbox.cif.g08.bks.cpg/sg14_16_cif.got.tgz:31826.got - 2010.06.03 17:49:19.
