data_PCOD9248783
_publ_section_title
;
Structure prediction by ZEFSAII (Michael W. Deem and Ramdas Pophale) SiO2 
 PCOD9248783
Probable space group: P 21/C
;
_chemical_formula_sum "Si O2"
_cell_formula_units_Z 28
_cell_length_a 12.507090
_cell_length_b 7.685299
_cell_length_c 21.001875
_cell_angle_alpha 90.000000
_cell_angle_beta 144.111017
_cell_angle_gamma 90.000000
_cell_volume 1183.404501
_symmetry_space_group_name_H-M "P 21/C"
_symmetry_group_IT_number 14
_symmetry_cell_setting 'monoclinic'
loop_
_space_group_symop_operation_xyz
x,y,z
-x,1/2+y,1/2-z
-x,-y,-z
x,1/2-y,1/2+z
loop_
_atom_site_type_symbol
_atom_site_label
_atom_site_fract_x
_atom_site_fract_y
_atom_site_fract_z
Si Si1 0.213698 0.460544 0.859263
Si Si2 0.586653 0.402603 0.352402
Si Si3 0.026471 0.220947 0.682367
Si Si4 0.040818 0.698722 0.498159
Si Si5 0.498737 0.150559 0.588499
Si Si6 0.306155 0.193317 0.618184
Si Si7 0.410856 0.027278 0.888230
O O1 0.046283 0.386247 0.738347
O O2 0.361187 0.523859 0.878592
O O3 0.138843 0.606974 0.870438
O O4 0.324597 0.328340 0.957774
O O5 0.741726 0.283354 0.395292
O O6 0.647992 0.602427 0.371268
O O7 0.397002 0.365271 0.227159
O O8 0.556161 0.376178 0.412537
O O9 0.216985 0.119924 0.787705
O O10 0.009875 0.272403 0.600553
O O11 0.000000 0.500000 0.500000
O O12 0.911757 0.816441 0.480330
O O13 0.411082 0.094068 0.612689
O O14 0.603506 0.331911 0.646378
O O15 0.500000 0.000000 0.000000
#
# Coordination Sequence:
#
# PCOD9248783 Si02
#       7
#     4   4   4   4   4   4   4
#     4  11  26  42  68 102 136 185 236 296 364 433
#     4  10  23  41  69  96 139 180 230 291 352 425
#     4  12  25  43  71 103 143 182 241 300 359 434
#     4  10  24  43  67 103 136 185 235 288 362 435
#     4  10  24  45  67  98 139 183 234 296 361 431
#     4  10  22  44  66 100 132 182 233 289 356 420
#     4  11  22  43  70  99 140 187 239 296 363 426
#
# _framework density 23.660549
#
# number of rings (size 3 to 8) (size 9 to 14) (size 15 to 20)
#    0.000    1.429    2.857    0.857    8.000    2.286 
#    5.143    1.429    0.000    0.000    0.000    0.000 
#    0.000    0.000    0.000    0.000    0.000    0.000 
#
# Total GULP energy -156491.114854 kJ/mol
# GULP energy per Si atom -5588.968388 kJ/mol
# Density = 2.360670 g / cm^3
# Si number density = 23.660549 Si / 1000 Ang^3
#
#
#
# Elastic Constant Matrix: (Units=GPa)
#
#
# Indices 1 2 3 4 5 6 
#
# 1 149.3091 34.8309 19.8482 0.0000 -5.8460 0.0000
# 2 34.8309 40.5363 18.9878 0.0000 -1.6165 0.0000
# 3 19.8482 18.9878 40.6987 0.0000 -3.5850 0.0000
# 4 0.0000 0.0000 0.0000 36.8561 0.0000 2.6530
# 5 -5.8460 -1.6165 -3.5850 0.0000 38.6315 0.0000
# 6 0.0000 0.0000 0.0000 2.6530 0.0000 22.8255
#
#
#
# Elastic Compliance Matrix: (Units=1/GPa)
#
#
# Indices 1 2 3 4 5 6 
#
# 1 0.008436 -0.006811 -0.000856 0.000000 0.000912 0.000000
# 2 -0.006811 0.037068 -0.014041 0.000000 -0.000783 0.000000
# 3 -0.000856 -0.014041 0.031735 0.000000 0.002228 0.000000
# 4 0.000000 0.000000 0.000000 0.027361 0.000000 -0.003180
# 5 0.000912 -0.000783 0.002228 0.000000 0.026198 0.000000
# 6 0.000000 0.000000 0.000000 -0.003180 0.000000 0.044180
#
#
# Mechanical properties :
#
#
# Convention : Reuss Voigt Hill
#
# Bulk Modulus (GPa) = 29.56616 41.98645 35.77631
# Shear Modulus (GPa) = 21.77050 30.12110 25.94580
#
# Velocity S-wave (km/s) = 3.03664 3.57186 3.31507
# Velocity P-wave (km/s) = 4.98176 5.89871 5.45952
#
# Compressibility (1/GPa) = 0.03382245
#
# Stress axis : x y z
#
# Youngs Moduli (GPa) = 118.54018 26.97777 31.51077
#
# Poissons Ratio (x) = 0.18375 0.02697
# Poissons Ratio (y) = 0.80741 0.44244
# Poissons Ratio (z) = 0.10147 0.37879
#
# Static dielectric constant tensor:
#      x y z
#    x 1.930070 0.000000 -0.008220 
#    y 0.000000 2.117050 0.000000 
#    z -0.008220 0.000000 1.866990 
# 
# From -- ./inp_files/67092.got.cif
#   From: 2010.05.17/outbox.cif.g08.bks.cpg/sg14_34_cif.got.tgz:67092.got - 2010.06.03 17:49:19.
