data_PCOD9248488
_publ_section_title
;
Structure prediction by ZEFSAII (Michael W. Deem and Ramdas Pophale) SiO2 
 PCOD9248488
Probable space group: P 21/C
;
_chemical_formula_sum "Si O2"
_cell_formula_units_Z 32
_cell_length_a 31.415604
_cell_length_b 4.997528
_cell_length_c 18.314706
_cell_angle_alpha 90.000000
_cell_angle_beta 156.465437
_cell_angle_gamma 90.000000
_cell_volume 1148.159719
_symmetry_space_group_name_H-M "P 21/C"
_symmetry_group_IT_number 14
_symmetry_cell_setting 'monoclinic'
loop_
_space_group_symop_operation_xyz
x,y,z
-x,1/2+y,1/2-z
-x,-y,-z
x,1/2-y,1/2+z
loop_
_atom_site_type_symbol
_atom_site_label
_atom_site_fract_x
_atom_site_fract_y
_atom_site_fract_z
Si Si1 0.308734 0.481906 0.236404
Si Si2 0.016077 0.605240 0.930693
Si Si3 0.434921 0.878720 0.535381
Si Si4 0.865514 0.796023 0.796004
Si Si5 0.164019 0.880596 0.948805
Si Si6 0.386451 0.807303 0.242945
Si Si7 0.150133 0.295008 0.565378
Si Si8 0.631843 0.549729 0.912477
O O1 0.351416 0.696782 0.361932
O O2 0.386484 0.533805 0.290826
O O3 0.271529 0.247466 0.230599
O O4 0.197579 0.578289 0.021913
O O5 0.948790 0.851081 0.861310
O O6 0.914577 0.431648 0.740944
O O7 0.093924 0.500233 0.117803
O O8 0.096257 0.496493 0.992828
O O9 0.531273 0.698251 0.719748
O O10 0.497288 0.068598 0.576947
O O11 0.389064 0.015436 0.535274
O O12 0.862887 0.927513 0.874610
O O13 0.745896 0.814387 0.581218
O O14 0.285818 0.972895 0.117447
O O15 0.112225 0.026480 0.937930
O O16 0.360889 0.729141 0.119599
#
# Coordination Sequence:
#
# PCOD9248488 Si02
#       8
#     4   4   4   4   4   4   4   4
#     4  10  26  41  66 101 133 181 230 290 349 417
#     4   9  21  41  70 100 138 183 219 290 342 409
#     4  12  25  45  69  98 142 181 238 293 354 423
#     4   9  22  42  69 100 138 180 226 289 346 415
#     4  10  23  41  68  99 142 177 233 286 339 428
#     4  10  26  44  64 104 136 183 236 287 354 418
#     4  10  22  42  70  98 139 184 233 280 352 411
#     4  12  25  43  73 102 137 188 235 290 354 420
#
# _framework density 27.870684000000001
#
# number of rings (size 3 to 8) (size 9 to 14) (size 15 to 20)
#    1.500    0.250    1.250    1.875    7.000    2.500 
#    0.000    1.875    0.000    0.000    0.000    0.000 
#    0.000    0.000    0.000    0.000    0.000    0.000 
#
# Total GULP energy -178217.274404 kJ/mol
# GULP energy per Si atom -5569.289825 kJ/mol
# Density = 2.780725 g / cm^3
# Si number density = 27.870684 Si / 1000 Ang^3
#
#
#
# Elastic Constant Matrix: (Units=GPa)
#
#
# Indices 1 2 3 4 5 6 
#
# 1 169.2338 42.3207 32.8973 0.0000 4.3532 0.0000
# 2 42.3207 42.7123 6.9222 0.0000 -3.8596 0.0000
# 3 32.8973 6.9222 104.4786 0.0000 -7.0504 0.0000
# 4 0.0000 0.0000 0.0000 33.2653 0.0000 5.5959
# 5 4.3532 -3.8596 -7.0504 0.0000 52.7123 0.0000
# 6 0.0000 0.0000 0.0000 5.5959 0.0000 59.1620
#
#
#
# Elastic Compliance Matrix: (Units=1/GPa)
#
#
# Indices 1 2 3 4 5 6 
#
# 1 0.008411 -0.008118 -0.002217 0.000000 -0.001586 0.000000
# 2 -0.008118 0.031625 0.000668 0.000000 0.003075 0.000000
# 3 -0.002217 0.000668 0.010334 0.000000 0.001614 0.000000
# 4 0.000000 0.000000 0.000000 0.030547 0.000000 -0.002889
# 5 -0.001586 0.003075 0.001614 0.000000 0.019543 0.000000
# 6 0.000000 0.000000 0.000000 -0.002889 0.000000 0.017176
#
#
# Mechanical properties :
#
#
# Convention : Reuss Voigt Hill
#
# Bulk Modulus (GPa) = 32.22013 53.41166 42.81590
# Shear Modulus (GPa) = 33.94069 44.64691 39.29380
#
# Velocity S-wave (km/s) = 3.49347 4.00675 3.75889
# Velocity P-wave (km/s) = 5.27808 6.37269 5.85104
#
# Compressibility (1/GPa) = 0.03103650
#
# Stress axis : x y z
#
# Youngs Moduli (GPa) = 118.89458 31.62037 96.76586
#
# Poissons Ratio (x) = 0.25668 0.21458
# Poissons Ratio (y) = 0.96514 -0.06466
# Poissons Ratio (z) = 0.26365 -0.02113
#
# Static dielectric constant tensor:
#      x y z
#    x 2.262770 0.000000 -0.013010 
#    y 0.000000 2.369490 0.000000 
#    z -0.013010 0.000000 2.105050 
# 
# From -- ./inp_files/62513.got.cif
#   From: 2010.05.17/outbox.cif.g08.bks.cpg/sg14_32_cif.got.tgz:62513.got - 2010.06.03 17:49:19.
