data_PCOD9248957
_publ_section_title
;
Structure prediction by ZEFSAII (Michael W. Deem and Ramdas Pophale) SiO2 
 PCOD9248957
Probable space group: P 21/C
;
_chemical_formula_sum "Si O2"
_cell_formula_units_Z 32
_cell_length_a 22.492461
_cell_length_b 13.316097
_cell_length_c 11.118232
_cell_angle_alpha 90.000000
_cell_angle_beta 150.272751
_cell_angle_gamma 90.000000
_cell_volume 1651.273454
_symmetry_space_group_name_H-M "P 21/C"
_symmetry_group_IT_number 14
_symmetry_cell_setting 'monoclinic'
loop_
_space_group_symop_operation_xyz
x,y,z
-x,1/2+y,1/2-z
-x,-y,-z
x,1/2-y,1/2+z
loop_
_atom_site_type_symbol
_atom_site_label
_atom_site_fract_x
_atom_site_fract_y
_atom_site_fract_z
Si Si1 0.588497 0.188343 0.443592
Si Si2 0.910428 0.958317 0.499895
Si Si3 0.299695 0.601538 0.404517
Si Si4 0.361978 0.967704 0.271432
Si Si5 0.203750 0.274101 0.074439
Si Si6 0.657735 0.700570 0.938639
Si Si7 0.474551 0.994745 0.815421
Si Si8 0.869758 0.917257 0.149808
O O1 0.672221 0.284530 0.577813
O O2 0.643624 0.106903 0.628460
O O3 0.463691 0.233143 0.274602
O O4 0.560568 0.119075 0.279043
O O5 0.860365 0.877790 0.504450
O O6 0.893085 0.914878 0.333894
O O7 0.826800 0.057055 0.356876
O O8 0.046311 0.994468 0.752457
O O9 0.315647 0.591221 0.574409
O O10 0.402575 0.527113 0.534303
O O11 0.500000 0.000000 0.500000
O O12 0.269985 0.059301 0.119584
O O13 0.273179 0.238598 0.319058
O O14 0.278524 0.286624 0.080125
O O15 0.107770 0.188030 0.873889
O O16 0.619421 0.583114 0.884068
O O17 0.500000 0.000000 0.000000
#
# Coordination Sequence:
#
# PCOD9248957 Si02
#       8
#     4   4   4   4   4   4   4   4
#     4  11  23  35  59  88 129 166 206 261 324 378
#     4  10  22  45  64  91 129 167 218 263 310 382
#     4  10  23  37  58  87 122 168 205 257 314 374
#     4  11  21  39  60  90 123 157 212 261 305 385
#     4  12  22  42  68  96 122 174 217 264 315 392
#     4  11  24  36  64  95 130 170 219 257 326 387
#     4  11  22  36  55  89 133 163 205 268 323 371
#     4  10  23  41  69  91 122 172 216 259 316 383
#
# _framework density 19.378983000000002
#
# number of rings (size 3 to 8) (size 9 to 14) (size 15 to 20)
#    0.000    1.250    2.500    3.750    8.750    1.000 
#    0.000    0.625    0.000    0.000    0.000    0.000 
#    0.000    0.000    0.000    0.000    0.000    0.000 
#
# Total GULP energy -178599.151306 kJ/mol
# GULP energy per Si atom -5581.223478 kJ/mol
# Density = 1.933488 g / cm^3
# Si number density = 19.378983 Si / 1000 Ang^3
#
#
#
# Elastic Constant Matrix: (Units=GPa)
#
#
# Indices 1 2 3 4 5 6 
#
# 1 91.7081 25.4916 27.2747 0.0000 -11.3919 0.0000
# 2 25.4916 94.3221 31.6485 0.0000 1.5357 0.0000
# 3 27.2747 31.6485 59.6472 0.0000 8.1192 0.0000
# 4 0.0000 0.0000 0.0000 14.2828 0.0000 3.1204
# 5 -11.3919 1.5357 8.1192 0.0000 22.0847 0.0000
# 6 0.0000 0.0000 0.0000 3.1204 0.0000 29.3012
#
#
#
# Elastic Compliance Matrix: (Units=1/GPa)
#
#
# Indices 1 2 3 4 5 6 
#
# 1 0.014857 -0.001737 -0.007297 0.000000 0.010467 0.000000
# 2 -0.001737 0.013163 -0.006256 0.000000 0.000488 0.000000
# 3 -0.007297 -0.006256 0.025132 0.000000 -0.012568 0.000000
# 4 0.000000 0.000000 0.000000 0.071682 0.000000 -0.007634
# 5 0.010467 0.000488 -0.012568 0.000000 0.055266 0.000000
# 6 0.000000 0.000000 0.000000 -0.007634 0.000000 0.034941
#
#
# Mechanical properties :
#
#
# Convention : Reuss Voigt Hill
#
# Bulk Modulus (GPa) = 44.30331 46.05630 45.17981
# Shear Modulus (GPa) = 19.75143 23.88458 21.81800
#
# Velocity S-wave (km/s) = 3.19598 3.51451 3.35902
# Velocity P-wave (km/s) = 6.04403 6.34718 6.19746
#
# Compressibility (1/GPa) = 0.02257168
#
# Stress axis : x y z
#
# Youngs Moduli (GPa) = 67.30626 75.97207 39.78980
#
# Poissons Ratio (x) = 0.13200 0.29034
# Poissons Ratio (y) = 0.11694 0.24893
# Poissons Ratio (z) = 0.49112 0.47529
#
# Static dielectric constant tensor:
#      x y z
#    x 1.686990 0.000000 0.009260 
#    y 0.000000 1.797730 0.000000 
#    z 0.009260 0.000000 1.716870 
# 
# From -- ./inp_files/35928.got.cif
#   From: 2010.05.17/outbox.cif.g08.bks.cpg/sg14_18_cif.got.tgz:35928.got - 2010.06.03 17:49:19.
