data_PCOD9248855
_publ_section_title
;
Structure prediction by ZEFSAII (Michael W. Deem and Ramdas Pophale) SiO2 
 PCOD9248855
Probable space group: P 21/C
;
_chemical_formula_sum "Si O2"
_cell_formula_units_Z 32
_cell_length_a 18.580325
_cell_length_b 14.029505
_cell_length_c 11.896281
_cell_angle_alpha 90.000000
_cell_angle_beta 153.348755
_cell_angle_gamma 90.000000
_cell_volume 1390.996668
_symmetry_space_group_name_H-M "P 21/C"
_symmetry_group_IT_number 14
_symmetry_cell_setting 'monoclinic'
loop_
_space_group_symop_operation_xyz
x,y,z
-x,1/2+y,1/2-z
-x,-y,-z
x,1/2-y,1/2+z
loop_
_atom_site_type_symbol
_atom_site_label
_atom_site_fract_x
_atom_site_fract_y
_atom_site_fract_z
Si Si1 0.796730 0.223603 0.295480
Si Si2 0.616196 0.091873 0.466971
Si Si3 0.255151 0.387011 0.521948
Si Si4 0.414800 0.902735 0.837046
Si Si5 0.036200 0.392428 0.009020
Si Si6 0.269764 0.310432 0.154368
Si Si7 0.875185 0.963929 0.953614
Si Si8 0.913031 0.862593 0.796119
O O1 0.723162 0.145636 0.278414
O O2 0.872203 0.165736 0.296594
O O3 0.948135 0.288348 0.548608
O O4 0.666848 0.301858 0.077378
O O5 0.429935 0.077078 0.233980
O O6 0.641370 0.085111 0.368702
O O7 0.724150 0.016960 0.685280
O O8 0.263111 0.301160 0.621776
O O9 0.154001 0.460128 0.454591
O O10 0.162455 0.357905 0.280841
O O11 0.565271 0.831473 0.053677
O O12 0.500000 0.000000 0.000000
O O13 0.127900 0.364898 0.023141
O O14 0.000000 0.500000 0.000000
O O15 0.251033 0.347221 0.999482
O O16 0.903612 0.868916 0.918220
O O17 0.025412 0.032528 0.147479
#
# Coordination Sequence:
#
# PCOD9248855 Si02
#       8
#     4   4   4   4   4   4   4   4
#     4  11  25  44  70 104 138 184 234 294 353 419
#     4  11  25  47  68 106 142 185 242 283 364 430
#     4  12  24  44  70 104 142 186 235 290 354 432
#     4  12  26  47  69 101 144 191 236 295 358 431
#     4  12  26  45  71 106 141 185 238 300 357 422
#     4  12  24  44  69  99 143 181 232 285 356 420
#     4  10  23  43  74  99 141 178 235 290 351 422
#     4  10  22  44  69 104 132 184 230 289 350 421
#
# _framework density 23.005089000000002
#
# number of rings (size 3 to 8) (size 9 to 14) (size 15 to 20)
#    0.000    0.750    3.750    3.375    1.750    3.000 
#    2.250    0.000    0.000    0.000    0.000    0.000 
#    0.000    0.000    0.000    0.000    0.000    0.000 
#
# Total GULP energy -178710.515232 kJ/mol
# GULP energy per Si atom -5584.703601 kJ/mol
# Density = 2.295273 g / cm^3
# Si number density = 23.005089 Si / 1000 Ang^3
#
#
#
# Elastic Constant Matrix: (Units=GPa)
#
#
# Indices 1 2 3 4 5 6 
#
# 1 95.3984 12.8499 6.0907 0.0000 5.9109 0.0000
# 2 12.8499 54.1060 -14.3184 0.0000 4.0549 0.0000
# 3 6.0907 -14.3184 43.1786 0.0000 -0.5180 0.0000
# 4 0.0000 0.0000 0.0000 39.3081 0.0000 5.7876
# 5 5.9109 4.0549 -0.5180 0.0000 41.4318 0.0000
# 6 0.0000 0.0000 0.0000 5.7876 0.0000 31.5707
#
#
#
# Elastic Compliance Matrix: (Units=1/GPa)
#
#
# Indices 1 2 3 4 5 6 
#
# 1 0.011174 -0.003263 -0.002674 0.000000 -0.001308 0.000000
# 2 -0.003263 0.021364 0.007526 0.000000 -0.001531 0.000000
# 3 -0.002674 0.007526 0.026032 0.000000 -0.000030 0.000000
# 4 0.000000 0.000000 0.000000 0.026146 0.000000 -0.004793
# 5 -0.001308 -0.001531 -0.000030 0.000000 0.024472 0.000000
# 6 0.000000 0.000000 0.000000 -0.004793 0.000000 0.032554
#
#
# Mechanical properties :
#
#
# Convention : Reuss Voigt Hill
#
# Bulk Modulus (GPa) = 16.19489 22.43637 19.31563
# Shear Modulus (GPa) = 31.41776 34.99951 33.20863
#
# Velocity S-wave (km/s) = 3.69953 3.90472 3.80351
# Velocity P-wave (km/s) = 5.03028 5.48663 5.26340
#
# Compressibility (1/GPa) = 0.06174788
#
# Stress axis : x y z
#
# Youngs Moduli (GPa) = 89.49597 46.80830 38.41389
#
# Poissons Ratio (x) = 0.15275 0.10272
# Poissons Ratio (y) = 0.29205 -0.28912
# Poissons Ratio (z) = 0.23931 -0.35230
#
# Static dielectric constant tensor:
#      x y z
#    x 1.911190 0.000000 0.013840 
#    y 0.000000 1.969450 0.000000 
#    z 0.013840 0.000000 1.810420 
# 
# From -- ./inp_files/34186.got.cif
#   From: 2010.05.17/outbox.cif.g08.bks.cpg/sg14_18_cif.got.tgz:34186.got - 2010.06.03 17:49:19.
