data_PCOD9248974
_publ_section_title
;
Structure prediction by ZEFSAII (Michael W. Deem and Ramdas Pophale) SiO2 
 PCOD9248974
Probable space group: P 21/C
;
_chemical_formula_sum "Si O2"
_cell_formula_units_Z 26
_cell_length_a 21.927422
_cell_length_b 5.064103
_cell_length_c 8.657601
_cell_angle_alpha 90.000000
_cell_angle_beta 90.340463
_cell_angle_gamma 90.000000
_cell_volume 961.346622
_symmetry_space_group_name_H-M "P 21/C"
_symmetry_group_IT_number 14
_symmetry_cell_setting 'monoclinic'
loop_
_space_group_symop_operation_xyz
x,y,z
-x,1/2+y,1/2-z
-x,-y,-z
x,1/2-y,1/2+z
loop_
_atom_site_type_symbol
_atom_site_label
_atom_site_fract_x
_atom_site_fract_y
_atom_site_fract_z
Si Si1 0.039848 0.046164 0.237709
Si Si2 0.768180 0.886370 0.479807
Si Si3 0.415013 0.368820 0.708888
Si Si4 0.222154 0.751051 0.788514
Si Si5 0.880281 0.924117 0.045824
Si Si6 0.500000 0.000000 0.500000
Si Si7 0.336778 0.034449 0.948317
O O1 0.083940 0.202625 0.355829
O O2 0.074530 0.964627 0.082221
O O3 0.990763 0.278837 0.199801
O O4 0.827111 0.717130 0.447863
O O5 0.703926 0.751246 0.462642
O O6 0.774771 0.949275 0.662096
O O7 0.773668 0.153451 0.384618
O O8 0.452744 0.202099 0.584022
O O9 0.457434 0.506673 0.836616
O O10 0.379085 0.569751 0.590381
O O11 0.374152 0.173644 0.812625
O O12 0.158576 0.871585 0.851599
O O13 0.285016 0.857735 0.867418
#
# Coordination Sequence:
#
# PCOD9248974 Si02
#       7
#     4   4   4   4   4   2   4
#     4  12  28  47  72 104 143 197 260 310 379 451
#     4  11  25  42  70 107 136 184 238 288 388 441
#     4  10  22  47  67 100 142 183 242 299 360 435
#     4  11  25  42  70 104 139 182 238 289 384 447
#     4  11  26  45  70  98 148 187 233 317 359 449
#     4  10  24  44  72  98 138 192 236 292 358 434
#     4  10  22  45  67 100 144 178 227 312 356 439
#
# _framework density 27.045397000000001
#
# number of rings (size 3 to 8) (size 9 to 14) (size 15 to 20)
#    0.000    1.231    3.077    0.923    8.615    2.462 
#   11.077    0.000    0.000    0.000    0.000    0.000 
#    0.000    0.000    0.000    0.000    0.000    0.000 
#
# Total GULP energy -145083.051144 kJ/mol
# GULP energy per Si atom -5580.117352 kJ/mol
# Density = 2.698384 g / cm^3
# Si number density = 27.045397 Si / 1000 Ang^3
#
#
#
# Elastic Constant Matrix: (Units=GPa)
#
#
# Indices 1 2 3 4 5 6 
#
# 1 100.1364 24.1478 47.4607 0.0000 5.0720 0.0000
# 2 24.1478 40.2535 8.1132 0.0000 2.4990 0.0000
# 3 47.4607 8.1132 136.0102 0.0000 27.3608 0.0000
# 4 0.0000 0.0000 0.0000 40.0502 0.0000 5.4231
# 5 5.0720 2.4990 27.3608 0.0000 53.6812 0.0000
# 6 0.0000 0.0000 0.0000 5.4231 0.0000 15.5506
#
#
#
# Elastic Compliance Matrix: (Units=1/GPa)
#
#
# Indices 1 2 3 4 5 6 
#
# 1 0.013958 -0.007513 -0.004711 0.000000 0.001432 0.000000
# 2 -0.007513 0.029199 0.001126 0.000000 -0.001223 0.000000
# 3 -0.004711 0.001126 0.009861 0.000000 -0.004633 0.000000
# 4 0.000000 0.000000 0.000000 0.026206 0.000000 -0.009139
# 5 0.001432 -0.001223 -0.004633 0.000000 0.020912 0.000000
# 6 0.000000 0.000000 0.000000 -0.009139 0.000000 0.067493
#
#
# Mechanical properties :
#
#
# Convention : Reuss Voigt Hill
#
# Bulk Modulus (GPa) = 32.44355 48.42706 40.43530
# Shear Modulus (GPa) = 24.98772 34.96830 29.97801
#
# Velocity S-wave (km/s) = 3.04290 3.59966 3.33293
# Velocity P-wave (km/s) = 4.93636 5.93477 5.45844
#
# Compressibility (1/GPa) = 0.03082276
#
# Stress axis : x y z
#
# Youngs Moduli (GPa) = 71.64232 34.24828 101.40872
#
# Poissons Ratio (x) = 0.25730 0.47770
# Poissons Ratio (y) = 0.53824 -0.11418
# Poissons Ratio (z) = 0.33748 -0.03856
#
# Static dielectric constant tensor:
#      x y z
#    x 2.126360 0.000000 0.046990 
#    y 0.000000 2.119200 0.000000 
#    z 0.046990 0.000000 2.058590 
# 
# From -- ./inp_files/19267.got.cif
#   From: 2010.05.17/outbox.cif.g08.bks.cpg/sg14_10_cif.got.tgz:19267.got - 2010.06.03 17:49:19.
