data_PCOD9248201
_publ_section_title
;
Structure prediction by ZEFSAII (Michael W. Deem and Ramdas Pophale) SiO2 
 PCOD9248201
Probable space group: P 21/C
;
_chemical_formula_sum "Si O2"
_cell_formula_units_Z 28
_cell_length_a 8.504040
_cell_length_b 18.619611
_cell_length_c 9.681242
_cell_angle_alpha 90.000000
_cell_angle_beta 50.318992
_cell_angle_gamma 90.000000
_cell_volume 1179.772802
_symmetry_space_group_name_H-M "P 21/C"
_symmetry_group_IT_number 14
_symmetry_cell_setting 'monoclinic'
loop_
_space_group_symop_operation_xyz
x,y,z
-x,1/2+y,1/2-z
-x,-y,-z
x,1/2-y,1/2+z
loop_
_atom_site_type_symbol
_atom_site_label
_atom_site_fract_x
_atom_site_fract_y
_atom_site_fract_z
Si Si1 0.415710 0.471095 0.194052
Si Si2 0.520116 0.715025 0.354816
Si Si3 0.920228 0.690165 0.992908
Si Si4 0.735647 0.202854 0.279337
Si Si5 0.404197 0.936250 0.966106
Si Si6 0.821791 0.091492 0.445394
Si Si7 0.931764 0.565613 0.790762
O O1 0.406523 0.533719 0.309671
O O2 0.593694 0.415828 0.137162
O O3 0.194996 0.439863 0.280242
O O4 0.500000 0.500000 0.000000
O O5 0.359924 0.705309 0.319000
O O6 0.430999 0.767537 0.518765
O O7 0.535401 0.635309 0.409710
O O8 0.738269 0.732916 0.167968
O O9 0.837521 0.629970 0.933630
O O10 0.072556 0.743625 0.830622
O O11 0.045492 0.643715 0.034799
O O12 0.804228 0.127107 0.304101
O O13 0.170833 0.920446 0.137729
O O14 0.500000 0.000000 0.000000
O O15 0.909665 0.011131 0.380875
#
# Coordination Sequence:
#
# PCOD9248201 Si02
#       7
#     4   4   4   4   4   4   4
#     4  10  22  41  69 102 142 189 230 303 371 429
#     4  12  27  48  73 103 149 190 246 304 368 446
#     4  12  25  47  75 104 146 197 245 305 372 436
#     4  12  27  49  70 106 148 196 246 297 374 459
#     4  12  24  44  73 112 143 188 257 310 373 446
#     4  11  23  46  70 108 142 188 243 304 368 437
#     4  11  22  43  74 107 147 188 249 308 372 429
#
# _framework density 23.733381000000001
#
# number of rings (size 3 to 8) (size 9 to 14) (size 15 to 20)
#    0.000    0.571    2.857    6.857    2.000    0.000 
#    5.143    0.000    0.000    0.000    0.000    0.000 
#    0.000    0.000    0.000    0.000    0.000    0.000 
#
# Total GULP energy -156893.167378 kJ/mol
# GULP energy per Si atom -5603.327406 kJ/mol
# Density = 2.367936 g / cm^3
# Si number density = 23.733381 Si / 1000 Ang^3
#
#
#
# Elastic Constant Matrix: (Units=GPa)
#
#
# Indices 1 2 3 4 5 6 
#
# 1 44.0104 -3.8768 2.2838 0.0000 -6.9620 0.0000
# 2 -3.8768 80.5058 26.2239 0.0000 -0.3768 0.0000
# 3 2.2838 26.2239 96.1345 0.0000 -14.7095 0.0000
# 4 0.0000 0.0000 0.0000 32.6988 0.0000 -4.4389
# 5 -6.9620 -0.3768 -14.7095 0.0000 43.2103 0.0000
# 6 0.0000 0.0000 0.0000 -4.4389 0.0000 28.0677
#
#
#
# Elastic Compliance Matrix: (Units=1/GPa)
#
#
# Indices 1 2 3 4 5 6 
#
# 1 0.023431 0.001255 -0.000337 0.000000 0.003671 0.000000
# 2 0.001255 0.013760 -0.003939 0.000000 -0.001019 0.000000
# 3 -0.000337 -0.003939 0.012101 0.000000 0.004031 0.000000
# 4 0.000000 0.000000 0.000000 0.031253 0.000000 0.004943
# 5 0.003671 -0.001019 0.004031 0.000000 0.025097 0.000000
# 6 0.000000 0.000000 0.000000 0.004943 0.000000 0.036410
#
#
# Mechanical properties :
#
#
# Convention : Reuss Voigt Hill
#
# Bulk Modulus (GPa) = 23.12137 29.99028 26.55582
# Shear Modulus (GPa) = 30.76696 33.86337 32.31517
#
# Velocity S-wave (km/s) = 3.60440 3.78143 3.69398
# Velocity P-wave (km/s) = 5.20438 5.63288 5.42287
#
# Compressibility (1/GPa) = 0.04325003
#
# Stress axis : x y z
#
# Youngs Moduli (GPa) = 42.67898 72.67263 82.63479
#
# Poissons Ratio (x) = -0.09123 0.02788
# Poissons Ratio (y) = -0.05358 0.32552
# Poissons Ratio (z) = 0.01440 0.28628
#
# Static dielectric constant tensor:
#      x y z
#    x 1.958440 0.000000 -0.008500 
#    y 0.000000 1.886980 0.000000 
#    z -0.008500 0.000000 1.889770 
# 
# From -- ./inp_files/10392.got.cif
#   From: 2010.05.17/outbox.cif.g08.bks.cpg/sg14_6_cif.got.tgz:10392.got - 2010.06.03 17:49:19.
