data_PCOD9248875
_publ_section_title
;
Structure prediction by ZEFSAII (Michael W. Deem and Ramdas Pophale) SiO2 
 PCOD9248875
Probable space group: P 21/C
;
_chemical_formula_sum "Si O2"
_cell_formula_units_Z 24
_cell_length_a 13.956329
_cell_length_b 7.451347
_cell_length_c 18.282442
_cell_angle_alpha 90.000000
_cell_angle_beta 149.318026
_cell_angle_gamma 90.000000
_cell_volume 970.157502
_symmetry_space_group_name_H-M "P 21/C"
_symmetry_group_IT_number 14
_symmetry_cell_setting 'monoclinic'
loop_
_space_group_symop_operation_xyz
x,y,z
-x,1/2+y,1/2-z
-x,-y,-z
x,1/2-y,1/2+z
loop_
_atom_site_type_symbol
_atom_site_label
_atom_site_fract_x
_atom_site_fract_y
_atom_site_fract_z
Si Si1 0.673681 0.270122 0.128311
Si Si2 0.075292 0.118509 0.354354
Si Si3 0.686339 0.429687 0.358271
Si Si4 0.016726 0.267381 0.652865
Si Si5 0.621291 0.650015 0.177421
Si Si6 0.544027 0.652003 0.383294
O O1 0.885323 0.202978 0.262314
O O2 0.662749 0.461525 0.162008
O O3 0.538333 0.147103 0.089696
O O4 0.578136 0.293297 0.986460
O O5 0.047312 0.124490 0.248368
O O6 0.261839 0.234731 0.490450
O O7 0.085493 0.917851 0.392564
O O8 0.898381 0.386965 0.519132
O O9 0.649177 0.597423 0.279957
O O10 0.582567 0.469363 0.366318
O O11 0.604687 0.260711 0.262465
O O12 0.214309 0.223275 0.744421
#
# Coordination Sequence:
#
# PCOD9248875 Si02
#       6
#     4   4   4   4   4   4
#     4  10  23  43  74  99 137 186 236 288 350 424
#     4  12  26  44  72 102 140 187 242 293 345 427
#     4  11  25  42  71 102 148 184 229 296 359 412
#     4  12  25  44  70 105 139 186 238 291 355 418
#     4  10  22  44  70 101 139 183 234 289 359 416
#     4  11  24  47  68 107 140 185 234 288 357 422
#
# _framework density 24.738251999999999
#
# number of rings (size 3 to 8) (size 9 to 14) (size 15 to 20)
#    0.000    1.000    1.667    4.500    7.000    3.333 
#    0.000    5.000    0.000    0.000    0.000    0.000 
#    0.000    0.000    0.000    0.000    0.000    0.000 
#
# Total GULP energy -134491.238728 kJ/mol
# GULP energy per Si atom -5603.801614 kJ/mol
# Density = 2.468195 g / cm^3
# Si number density = 24.738252 Si / 1000 Ang^3
#
#
#
# Elastic Constant Matrix: (Units=GPa)
#
#
# Indices 1 2 3 4 5 6 
#
# 1 75.9700 7.7655 2.7410 0.0000 -8.1079 0.0000
# 2 7.7655 58.2830 -0.8259 0.0000 -20.1562 0.0000
# 3 2.7410 -0.8259 113.0395 0.0000 -22.9927 0.0000
# 4 0.0000 0.0000 0.0000 21.9962 0.0000 -8.3533
# 5 -8.1079 -20.1562 -22.9927 0.0000 38.8291 0.0000
# 6 0.0000 0.0000 0.0000 -8.3533 0.0000 36.9357
#
#
#
# Elastic Compliance Matrix: (Units=1/GPa)
#
#
# Indices 1 2 3 4 5 6 
#
# 1 0.013514 -0.000963 0.000156 0.000000 0.002414 0.000000
# 2 -0.000963 0.021722 0.002768 0.000000 0.012714 0.000000
# 3 0.000156 0.002768 0.010416 0.000000 0.007638 0.000000
# 4 0.000000 0.000000 0.000000 0.049734 0.000000 0.011248
# 5 0.002414 0.012714 0.007638 0.000000 0.037381 0.000000
# 6 0.000000 0.000000 0.000000 0.011248 0.000000 0.029618
#
#
# Mechanical properties :
#
#
# Convention : Reuss Voigt Hill
#
# Bulk Modulus (GPa) = 20.17169 29.62819 24.89994
# Shear Modulus (GPa) = 28.57357 35.39300 31.98328
#
# Velocity S-wave (km/s) = 3.40227 3.78656 3.59955
# Velocity P-wave (km/s) = 4.85857 5.57854 5.23095
#
# Compressibility (1/GPa) = 0.04957444
#
# Stress axis : x y z
#
# Youngs Moduli (GPa) = 73.99967 46.03596 96.00203
#
# Poissons Ratio (x) = 0.04435 -0.01501
# Poissons Ratio (y) = 0.07129 -0.26575
# Poissons Ratio (z) = -0.01157 -0.12743
#
# Static dielectric constant tensor:
#      x y z
#    x 1.989040 0.000000 0.019720 
#    y 0.000000 2.019810 0.000000 
#    z 0.019720 0.000000 1.885040 
# 
# From -- ./inp_files/59156.got.cif
#   From: 2010.05.17/outbox.cif.g08.bks.cpg/sg14_30_cif.got.tgz:59156.got - 2010.06.03 17:49:19.
