data_PCOD9248428
_publ_section_title
;
Structure prediction by ZEFSAII (Michael W. Deem and Ramdas Pophale) SiO2 
 PCOD9248428
Probable space group: P 21/C
;
_chemical_formula_sum "Si O2"
_cell_formula_units_Z 32
_cell_length_a 16.469169
_cell_length_b 8.118188
_cell_length_c 9.083082
_cell_angle_alpha 90.000000
_cell_angle_beta 76.185185
_cell_angle_gamma 90.000000
_cell_volume 1179.276684
_symmetry_space_group_name_H-M "P 21/C"
_symmetry_group_IT_number 14
_symmetry_cell_setting 'monoclinic'
loop_
_space_group_symop_operation_xyz
x,y,z
-x,1/2+y,1/2-z
-x,-y,-z
x,1/2-y,1/2+z
loop_
_atom_site_type_symbol
_atom_site_label
_atom_site_fract_x
_atom_site_fract_y
_atom_site_fract_z
Si Si1 0.122767 0.530203 0.231853
Si Si2 0.548040 0.245561 0.509607
Si Si3 0.721772 0.916653 0.642362
Si Si4 0.732824 0.244824 0.450494
Si Si5 0.463141 0.080628 0.284830
Si Si6 0.898550 0.933748 0.713539
Si Si7 0.020707 0.235952 0.653826
Si Si8 0.203772 0.404116 0.475707
O O1 0.184404 0.679822 0.164523
O O2 0.093605 0.415322 0.107002
O O3 0.178970 0.422357 0.316945
O O4 0.042008 0.605406 0.345339
O O5 0.643147 0.251739 0.409299
O O6 0.486903 0.211996 0.401037
O O7 0.527735 0.398211 0.623973
O O8 0.536753 0.089262 0.624584
O O9 0.628907 0.887768 0.741375
O O10 0.802874 0.926725 0.709981
O O11 0.741274 0.759142 0.530046
O O12 0.719720 0.095290 0.569582
O O13 0.752388 0.424714 0.503965
O O14 0.961180 0.779102 0.671048
O O15 0.885490 0.888074 0.897752
O O16 0.945025 0.099921 0.667060
#
# Coordination Sequence:
#
# PCOD9248428 Si02
#       8
#     4   4   4   4   4   4   4   4
#     4  11  23  46  65 104 141 185 239 296 355 422
#     4  10  25  46  73 109 147 188 239 298 361 433
#     4  11  26  46  72 104 145 187 237 294 361 425
#     4  11  26  46  72 104 145 189 238 291 361 426
#     4  10  25  46  73 108 146 187 240 299 360 432
#     4  11  23  46  64 106 137 184 243 288 359 432
#     4  10  22  42  68  95 142 180 237 299 349 420
#     4  12  26  43  74 103 137 192 233 294 355 429
#
# _framework density 27.135275
#
# number of rings (size 3 to 8) (size 9 to 14) (size 15 to 20)
#    0.000    1.250    2.500    1.500    5.250    4.500 
#    4.500    2.500    0.000    0.000    0.000    0.000 
#    0.000    0.000    0.000    0.000    0.000    0.000 
#
# Total GULP energy -178550.376925 kJ/mol
# GULP energy per Si atom -5579.699279 kJ/mol
# Density = 2.707351 g / cm^3
# Si number density = 27.135275 Si / 1000 Ang^3
#
#
#
# Elastic Constant Matrix: (Units=GPa)
#
#
# Indices 1 2 3 4 5 6 
#
# 1 178.3503 40.4708 32.4897 0.0000 5.8369 0.0000
# 2 40.4708 176.0383 18.3404 0.0000 5.5142 0.0000
# 3 32.4897 18.3404 42.9179 0.0000 -2.2906 0.0000
# 4 0.0000 0.0000 0.0000 44.1370 0.0000 6.5037
# 5 5.8369 5.5142 -2.2906 0.0000 38.0628 0.0000
# 6 0.0000 0.0000 0.0000 6.5037 0.0000 17.9811
#
#
#
# Elastic Compliance Matrix: (Units=1/GPa)
#
#
# Indices 1 2 3 4 5 6 
#
# 1 0.006738 -0.001020 -0.004727 0.000000 -0.001170 0.000000
# 2 -0.001020 0.006139 -0.001897 0.000000 -0.000847 0.000000
# 3 -0.004727 -0.001897 0.027832 0.000000 0.002675 0.000000
# 4 0.000000 0.000000 0.000000 0.023932 0.000000 -0.008656
# 5 -0.001170 -0.000847 0.002675 0.000000 0.026735 0.000000
# 6 0.000000 0.000000 0.000000 -0.008656 0.000000 0.058745
#
#
# Mechanical properties :
#
#
# Convention : Reuss Voigt Hill
#
# Bulk Modulus (GPa) = 39.33658 64.43426 51.88542
# Shear Modulus (GPa) = 28.75491 40.43655 34.59573
#
# Velocity S-wave (km/s) = 3.25882 3.86448 3.57450
# Velocity P-wave (km/s) = 5.35610 6.61131 6.01653
#
# Compressibility (1/GPa) = 0.02542163
#
# Stress axis : x y z
#
# Youngs Moduli (GPa) = 148.41603 162.88819 35.92956
#
# Poissons Ratio (x) = 0.16612 0.16985
# Poissons Ratio (y) = 0.15136 0.06815
# Poissons Ratio (z) = 0.70160 0.30894
#
# Static dielectric constant tensor:
#      x y z
#    x 2.168100 0.000000 0.023750 
#    y 0.000000 2.196560 0.000000 
#    z 0.023750 0.000000 2.382060 
# 
# From -- ./inp_files/31579.got.cif
#   From: 2010.05.17/outbox.cif.g08.bks.cpg/sg14_16_cif.got.tgz:31579.got - 2010.06.03 17:49:19.
