data_PCOD9248962
_publ_section_title
;
Structure prediction by ZEFSAII (Michael W. Deem and Ramdas Pophale) SiO2 
 PCOD9248962
Probable space group: P 21/C
;
_chemical_formula_sum "Si O2"
_cell_formula_units_Z 20
_cell_length_a 7.528806
_cell_length_b 17.156474
_cell_length_c 7.280123
_cell_angle_alpha 90.000000
_cell_angle_beta 85.950707
_cell_angle_gamma 90.000000
_cell_volume 938.009768
_symmetry_space_group_name_H-M "P 21/C"
_symmetry_group_IT_number 14
_symmetry_cell_setting 'monoclinic'
loop_
_space_group_symop_operation_xyz
x,y,z
-x,1/2+y,1/2-z
-x,-y,-z
x,1/2-y,1/2+z
loop_
_atom_site_type_symbol
_atom_site_label
_atom_site_fract_x
_atom_site_fract_y
_atom_site_fract_z
Si Si1 0.938722 0.861280 0.362760
Si Si2 0.499294 0.617671 0.363825
Si Si3 0.668280 0.530961 0.692780
Si Si4 0.130605 0.183544 0.234156
Si Si5 0.135484 0.604748 0.510484
O O1 0.961128 0.850578 0.577156
O O2 0.774174 0.918931 0.332076
O O3 0.898992 0.774822 0.289973
O O4 0.103863 0.891965 0.229938
O O5 0.461480 0.540513 0.242703
O O6 0.658307 0.668176 0.273953
O O7 0.305776 0.653848 0.421789
O O8 0.564195 0.585125 0.557040
O O9 0.812372 0.480764 0.564515
O O10 0.039824 0.138659 0.071915
#
# Coordination Sequence:
#
# PCOD9248962 Si02
#       5
#     4   4   4   4   4
#     4  12  23  42  67  92 130 171 209 270 314 370
#     4   9  21  43  66  92 128 167 205 264 315 379
#     4   9  20  42  70  92 128 168 206 267 315 368
#     4  12  24  43  63  93 133 167 213 261 320 375
#     4  10  22  45  65  95 125 169 212 256 321 375
#
# _framework density 21.321739999999998
#
# number of rings (size 3 to 8) (size 9 to 14) (size 15 to 20)
#    1.200    0.400    4.000    0.600    0.000    1.600 
#   10.800    0.000    0.000    0.000    0.000    0.000 
#    0.000    0.000    0.000    0.000    0.000    0.000 
#
# Total GULP energy -111467.386125 kJ/mol
# GULP energy per Si atom -5573.369306 kJ/mol
# Density = 2.127321 g / cm^3
# Si number density = 21.321740 Si / 1000 Ang^3
#
#
#
# Elastic Constant Matrix: (Units=GPa)
#
#
# Indices 1 2 3 4 5 6 
#
# 1 60.7076 2.8007 -0.9892 0.0000 -16.3431 0.0000
# 2 2.8007 38.2393 -14.5474 0.0000 -7.9277 0.0000
# 3 -0.9892 -14.5474 65.4611 0.0000 -5.8879 0.0000
# 4 0.0000 0.0000 0.0000 22.0280 0.0000 -8.7215
# 5 -16.3431 -7.9277 -5.8879 0.0000 14.0144 0.0000
# 6 0.0000 0.0000 0.0000 -8.7215 0.0000 -2.3256
#
#
#
# Elastic Compliance Matrix: (Units=1/GPa)
#
#
# Indices 1 2 3 4 5 6 
#
# 1 0.026284 0.007949 0.005534 0.000000 0.037473 0.000000
# 2 0.007949 0.037271 0.011570 0.000000 0.035215 0.000000
# 3 0.005534 0.011570 0.019850 0.000000 0.021339 0.000000
# 4 0.000000 0.000000 0.000000 0.018270 0.000000 -0.068515
# 5 0.037473 0.035215 0.021339 0.000000 0.143941 0.000000
# 6 0.000000 0.000000 0.000000 -0.068515 0.000000 -0.173050
#
#
# Mechanical properties :
#
#
# Convention : Reuss Voigt Hill
#
# Bulk Modulus (GPa) = 7.48987 15.43736 11.46361
# Shear Modulus (GPa) = 74.66745 18.55297 46.61021
#
# Velocity S-wave (km/s) = 5.92414 2.95302 4.68058
# Velocity P-wave (km/s) = 7.09326 4.34546 5.88206
#
# Compressibility (1/GPa) = 0.13351372
#
# Stress axis : x y z
#
# Youngs Moduli (GPa) = 38.04582 26.83031 50.37661
#
# Poissons Ratio (x) = -0.21328 -0.27880
# Poissons Ratio (y) = -0.30244 -0.58287
# Poissons Ratio (z) = -0.21056 -0.31044
#
# Static dielectric constant tensor:
#      x y z
#    x 1.809950 0.000000 -0.042270 
#    y 0.000000 1.790340 0.000000 
#    z -0.042270 0.000000 1.766920 
# 
# From -- ./inp_files/9009.got.cif
#   From: 2010.05.17/outbox.cif.g08.bks.cpg/sg14_5_cif.got.tgz:9009.got - 2010.06.03 17:49:19.
