data_PCOD9248627
_publ_section_title
;
Structure prediction by ZEFSAII (Michael W. Deem and Ramdas Pophale) SiO2 
 PCOD9248627
Probable space group: P 21/C
;
_chemical_formula_sum "Si O2"
_cell_formula_units_Z 28
_cell_length_a 16.624104
_cell_length_b 11.466867
_cell_length_c 8.860085
_cell_angle_alpha 90.000000
_cell_angle_beta 39.395922
_cell_angle_gamma 90.000000
_cell_volume 1071.945371
_symmetry_space_group_name_H-M "P 21/C"
_symmetry_group_IT_number 14
_symmetry_cell_setting 'monoclinic'
loop_
_space_group_symop_operation_xyz
x,y,z
-x,1/2+y,1/2-z
-x,-y,-z
x,1/2-y,1/2+z
loop_
_atom_site_type_symbol
_atom_site_label
_atom_site_fract_x
_atom_site_fract_y
_atom_site_fract_z
Si Si1 0.000000 0.500000 0.500000
Si Si2 0.000000 0.000000 0.500000
Si Si3 0.199009 0.910097 0.566649
Si Si4 0.623370 0.398945 0.688381
Si Si5 0.502246 0.404596 0.330602
Si Si6 0.160204 0.716418 0.809024
Si Si7 0.808981 0.583648 0.528336
Si Si8 0.419744 0.259344 0.177593
O O1 0.103332 0.483028 0.195953
O O2 0.098303 0.426277 0.466202
O O3 0.062800 0.871699 0.377932
O O4 0.885607 0.936683 0.763751
O O5 0.346818 0.924133 0.379729
O O6 0.128979 0.851224 0.817445
O O7 0.177946 0.825892 0.454049
O O8 0.565170 0.489354 0.654719
O O9 0.709053 0.309654 0.468481
O O10 0.710494 0.475458 0.672829
O O11 0.520826 0.339042 0.941397
O O12 0.455653 0.293592 0.295743
O O13 0.448198 0.368937 0.572747
O O14 0.721593 0.697851 0.650119
#
# Coordination Sequence:
#
# PCOD9248627 Si02
#       8
#     2   2   4   4   4   4   4   4
#     4  12  24  44  66 104 136 174 240 290 344 420
#     4  10  22  48  64  92 138 188 224 276 350 416
#     4  12  25  42  69 105 132 186 230 296 344 433
#     4  10  22  43  72  93 137 187 224 293 351 419
#     4  11  23  42  70  98 141 178 235 289 357 414
#     4  11  25  43  68  97 138 180 234 275 357 420
#     4  10  22  43  67  93 137 179 227 284 350 413
#     4  11  22  44  66 104 132 183 236 291 350 419
#
# _framework density 26.120732
#
# number of rings (size 3 to 8) (size 9 to 14) (size 15 to 20)
#    0.000    1.143    2.857    4.286    4.000    0.571 
#   10.286    0.000    0.000    0.000    0.000    0.000 
#    0.000    0.000    0.000    0.000    0.000    0.000 
#
# Total GULP energy -155890.625413 kJ/mol
# GULP energy per Si atom -5567.522336 kJ/mol
# Density = 2.606128 g / cm^3
# Si number density = 26.120732 Si / 1000 Ang^3
#
#
#
# Elastic Constant Matrix: (Units=GPa)
#
#
# Indices 1 2 3 4 5 6 
#
# 1 145.2997 11.6447 28.0112 0.0000 -22.0750 0.0000
# 2 11.6447 44.0028 25.6075 0.0000 -1.4637 0.0000
# 3 28.0112 25.6075 133.0092 0.0000 -12.0789 0.0000
# 4 0.0000 0.0000 0.0000 49.1128 0.0000 9.9657
# 5 -22.0750 -1.4637 -12.0789 0.0000 46.4663 0.0000
# 6 0.0000 0.0000 0.0000 9.9657 0.0000 42.8581
#
#
#
# Elastic Compliance Matrix: (Units=1/GPa)
#
#
# Indices 1 2 3 4 5 6 
#
# 1 0.007700 -0.001306 -0.001067 0.000000 0.003340 0.000000
# 2 -0.001306 0.025825 -0.004793 0.000000 -0.001053 0.000000
# 3 -0.001067 -0.004793 0.008814 0.000000 0.001633 0.000000
# 4 0.000000 0.000000 0.000000 0.021370 0.000000 -0.004969
# 5 0.003340 -0.001053 0.001633 0.000000 0.023499 0.000000
# 6 0.000000 0.000000 0.000000 -0.004969 0.000000 0.024488
#
#
# Mechanical properties :
#
#
# Convention : Reuss Voigt Hill
#
# Bulk Modulus (GPa) = 35.70293 50.31537 43.00915
# Shear Modulus (GPa) = 36.93767 44.82399 40.88083
#
# Velocity S-wave (km/s) = 3.76455 4.14699 3.96039
# Velocity P-wave (km/s) = 5.70910 6.49881 6.11671
#
# Compressibility (1/GPa) = 0.02800891
#
# Stress axis : x y z
#
# Youngs Moduli (GPa) = 129.86953 38.72148 113.45590
#
# Poissons Ratio (x) = 0.05056 0.12105
# Poissons Ratio (y) = 0.16957 0.54375
# Poissons Ratio (z) = 0.13856 0.18558
#
# Static dielectric constant tensor:
#      x y z
#    x 1.970680 0.000000 0.233760 
#    y 0.000000 1.703810 0.000000 
#    z 0.233760 0.000000 1.881330 
# 
# From -- ./inp_files/13220.got.cif
#   From: 2010.05.17/outbox.cif.g08.bks.cpg/sg14_7_cif.got.tgz:13220.got - 2010.06.03 17:49:19.
