data_PCOD9248819
_publ_section_title
;
Structure prediction by ZEFSAII (Michael W. Deem and Ramdas Pophale) SiO2 
 PCOD9248819
Probable space group: P 21/C
;
_chemical_formula_sum "Si O2"
_cell_formula_units_Z 32
_cell_length_a 8.096445
_cell_length_b 14.083269
_cell_length_c 12.916730
_cell_angle_alpha 90.000000
_cell_angle_beta 64.504770
_cell_angle_gamma 90.000000
_cell_volume 1329.400747
_symmetry_space_group_name_H-M "P 21/C"
_symmetry_group_IT_number 14
_symmetry_cell_setting 'monoclinic'
loop_
_space_group_symop_operation_xyz
x,y,z
-x,1/2+y,1/2-z
-x,-y,-z
x,1/2-y,1/2+z
loop_
_atom_site_type_symbol
_atom_site_label
_atom_site_fract_x
_atom_site_fract_y
_atom_site_fract_z
Si Si1 0.505243 0.933741 0.599524
Si Si2 0.087283 0.597612 0.830508
Si Si3 0.837626 0.041273 0.108020
Si Si4 0.006100 0.260669 0.323469
Si Si5 0.108527 0.562329 0.181776
Si Si6 0.394223 0.248523 0.811519
Si Si7 0.254996 0.742759 0.419138
Si Si8 0.468927 0.954176 0.194561
O O1 0.305767 0.888750 0.633897
O O2 0.615096 0.841688 0.612454
O O3 0.500000 0.000000 0.500000
O O4 0.519497 0.009082 0.689308
O O5 0.173339 0.656632 0.901952
O O6 0.253662 0.539483 0.730251
O O7 0.013857 0.676848 0.772728
O O8 0.932981 0.518387 0.891989
O O9 0.880025 0.006523 0.212777
O O10 0.835562 0.154696 0.116904
O O11 0.643792 0.012963 0.107448
O O12 0.000000 0.000000 0.000000
O O13 0.192380 0.283267 0.333686
O O14 0.027102 0.149326 0.291398
O O15 0.827765 0.273229 0.444704
O O16 0.531771 0.263759 0.674765
O O17 0.484817 0.155767 0.837929
#
# Coordination Sequence:
#
# PCOD9248819 Si02
#       8
#     4   4   4   4   4   4   4   4
#     4  11  24  43  72 106 142 190 239 303 373 433
#     4  11  24  45  66 107 144 184 247 305 358 447
#     4  11  21  45  69  98 139 196 237 298 366 428
#     4  12  25  45  71 105 142 192 239 305 371 434
#     4  11  23  41  67 100 143 177 236 296 350 439
#     4  11  23  46  68 103 148 186 241 304 358 445
#     4  11  24  45  69  98 151 191 239 304 371 435
#     4  10  22  44  67  96 143 188 234 302 356 440
#
# _framework density 24.070997999999999
#
# number of rings (size 3 to 8) (size 9 to 14) (size 15 to 20)
#    0.000    1.000    3.750    4.500    5.250    0.500 
#    2.250    1.250    0.000    0.000    0.000    0.000 
#    0.000    0.000    0.000    0.000    0.000    0.000 
#
# Total GULP energy -178264.303857 kJ/mol
# GULP energy per Si atom -5570.759496 kJ/mol
# Density = 2.401621 g / cm^3
# Si number density = 24.070998 Si / 1000 Ang^3
#
#
#
# Elastic Constant Matrix: (Units=GPa)
#
#
# Indices 1 2 3 4 5 6 
#
# 1 65.3836 9.2863 -1.2095 0.0000 -7.0716 0.0000
# 2 9.2863 110.5938 4.1824 0.0000 5.2563 0.0000
# 3 -1.2095 4.1824 27.6057 0.0000 -6.6277 0.0000
# 4 0.0000 0.0000 0.0000 29.9892 0.0000 2.3000
# 5 -7.0716 5.2563 -6.6277 0.0000 16.1646 0.0000
# 6 0.0000 0.0000 0.0000 2.3000 0.0000 51.5750
#
#
#
# Elastic Compliance Matrix: (Units=1/GPa)
#
#
# Indices 1 2 3 4 5 6 
#
# 1 0.016632 -0.001959 0.003245 0.000000 0.009243 0.000000
# 2 -0.001959 0.009553 -0.002756 0.000000 -0.005093 0.000000
# 3 0.003245 -0.002756 0.041417 0.000000 0.019297 0.000000
# 4 0.000000 0.000000 0.000000 0.033460 0.000000 -0.001492
# 5 0.009243 -0.005093 0.019297 0.000000 0.075475 0.000000
# 6 0.000000 0.000000 0.000000 -0.001492 0.000000 0.019456
#
#
# Mechanical properties :
#
#
# Convention : Reuss Voigt Hill
#
# Bulk Modulus (GPa) = 15.46492 25.34459 20.40475
# Shear Modulus (GPa) = 22.67708 32.30070 27.48889
#
# Velocity S-wave (km/s) = 3.07268 3.66716 3.38300
# Velocity P-wave (km/s) = 4.36201 5.33692 4.87390
#
# Compressibility (1/GPa) = 0.06466248
#
# Stress axis : x y z
#
# Youngs Moduli (GPa) = 60.12407 104.68086 24.14467
#
# Poissons Ratio (x) = 0.20503 -0.07834
# Poissons Ratio (y) = 0.11776 0.06654
# Poissons Ratio (z) = -0.19508 0.28849
#
# Static dielectric constant tensor:
#      x y z
#    x 1.739250 0.000000 -0.176940 
#    y 0.000000 1.930910 0.000000 
#    z -0.176940 0.000000 2.058560 
# 
# From -- ./inp_files/41197.got.cif
#   From: 2010.05.17/outbox.cif.g08.bks.cpg/sg14_21_cif.got.tgz:41197.got - 2010.06.03 17:49:19.
