data_PCOD9248782
_publ_section_title
;
Structure prediction by ZEFSAII (Michael W. Deem and Ramdas Pophale) SiO2 
 PCOD9248782
Probable space group: P 21/C
;
_chemical_formula_sum "Si O2"
_cell_formula_units_Z 24
_cell_length_a 15.113375
_cell_length_b 11.147843
_cell_length_c 11.092186
_cell_angle_alpha 90.000000
_cell_angle_beta 151.216511
_cell_angle_gamma 90.000000
_cell_volume 899.843024
_symmetry_space_group_name_H-M "P 21/C"
_symmetry_group_IT_number 14
_symmetry_cell_setting 'monoclinic'
loop_
_space_group_symop_operation_xyz
x,y,z
-x,1/2+y,1/2-z
-x,-y,-z
x,1/2-y,1/2+z
loop_
_atom_site_type_symbol
_atom_site_label
_atom_site_fract_x
_atom_site_fract_y
_atom_site_fract_z
Si Si1 0.575698 0.073991 0.718656
Si Si2 0.754703 0.435463 0.065131
Si Si3 0.508283 0.346835 0.569201
Si Si4 0.255998 0.835084 0.853282
Si Si5 0.871988 0.813499 0.286302
Si Si6 0.151076 0.121113 0.021121
O O1 0.542307 0.204970 0.626020
O O2 0.385845 0.029694 0.549047
O O3 0.734160 0.101365 0.007424
O O4 0.669523 0.962629 0.762922
O O5 0.671905 0.407425 0.836788
O O6 0.739766 0.308564 0.118372
O O7 0.969549 0.462155 0.313557
O O8 0.553386 0.367669 0.485009
O O9 0.313727 0.380869 0.393627
O O10 0.071916 0.863962 0.559668
O O11 0.859603 0.705389 0.372770
O O12 0.858074 0.808545 0.121348
#
# Coordination Sequence:
#
# PCOD9248782 Si02
#       6
#     4   4   4   4   4   4
#     4  11  25  44  72 106 136 184 243 292 350 428
#     4  10  22  44  65  99 142 181 227 292 357 409
#     4  11  23  43  70  97 141 181 235 291 353 413
#     4  10  24  43  69  99 143 183 230 297 353 416
#     4  11  24  44  74  97 144 188 230 292 359 410
#     4  11  24  46  70 104 141 191 238 288 354 422
#
# _framework density 26.671317999999999
#
# number of rings (size 3 to 8) (size 9 to 14) (size 15 to 20)
#    0.000    1.333    3.333    1.000    2.333    6.667 
#    0.000    3.333    0.000    0.000    0.000    0.000 
#    0.000    0.000    0.000    0.000    0.000    0.000 
#
# Total GULP energy -134203.165898 kJ/mol
# GULP energy per Si atom -5591.798579 kJ/mol
# Density = 2.661061 g / cm^3
# Si number density = 26.671318 Si / 1000 Ang^3
#
#
#
# Elastic Constant Matrix: (Units=GPa)
#
#
# Indices 1 2 3 4 5 6 
#
# 1 153.3118 58.0250 53.2069 0.0000 10.2834 0.0000
# 2 58.0250 115.1637 30.7083 0.0000 -11.2686 0.0000
# 3 53.2069 30.7083 115.3249 0.0000 14.7580 0.0000
# 4 0.0000 0.0000 0.0000 33.8043 0.0000 -5.8295
# 5 10.2834 -11.2686 14.7580 0.0000 52.8585 0.0000
# 6 0.0000 0.0000 0.0000 -5.8295 0.0000 42.2768
#
#
#
# Elastic Compliance Matrix: (Units=1/GPa)
#
#
# Indices 1 2 3 4 5 6 
#
# 1 0.009186 -0.004025 -0.002933 0.000000 -0.001826 0.000000
# 2 -0.004025 0.011524 -0.001686 0.000000 0.003711 0.000000
# 3 -0.002933 -0.001686 0.010833 0.000000 -0.002814 0.000000
# 4 0.000000 0.000000 0.000000 0.030303 0.000000 0.004178
# 5 -0.001826 0.003711 -0.002814 0.000000 0.020850 0.000000
# 6 0.000000 0.000000 0.000000 0.004178 0.000000 0.024230
#
#
# Mechanical properties :
#
#
# Convention : Reuss Voigt Hill
#
# Bulk Modulus (GPa) = 70.14985 74.18675 72.16830
# Shear Modulus (GPa) = 38.76956 41.91193 40.34075
#
# Velocity S-wave (km/s) = 3.81675 3.96842 3.89332
# Velocity P-wave (km/s) = 6.76625 6.99095 6.87952
#
# Compressibility (1/GPa) = 0.01425520
#
# Stress axis : x y z
#
# Youngs Moduli (GPa) = 108.85599 86.77420 92.30790
#
# Poissons Ratio (x) = 0.34929 0.27071
# Poissons Ratio (y) = 0.43818 0.15566
# Poissons Ratio (z) = 0.31925 0.14633
#
# Static dielectric constant tensor:
#      x y z
#    x 2.126020 0.000000 -0.043110 
#    y 0.000000 2.109010 0.000000 
#    z -0.043110 0.000000 2.046900 
# 
# From -- ./inp_files/32658.got.cif
#   From: 2010.05.17/outbox.cif.g08.bks.cpg/sg14_17_cif.got.tgz:32658.got - 2010.06.03 17:49:19.
