data_PCOD9248503
_publ_section_title
;
Structure prediction by ZEFSAII (Michael W. Deem and Ramdas Pophale) SiO2 
 PCOD9248503
Probable space group: P 21/C
;
_chemical_formula_sum "Si O2"
_cell_formula_units_Z 20
_cell_length_a 5.162856
_cell_length_b 10.956056
_cell_length_c 13.656644
_cell_angle_alpha 90.000000
_cell_angle_beta 90.153089
_cell_angle_gamma 90.000000
_cell_volume 772.479021
_symmetry_space_group_name_H-M "P 21/C"
_symmetry_group_IT_number 14
_symmetry_cell_setting 'monoclinic'
loop_
_space_group_symop_operation_xyz
x,y,z
-x,1/2+y,1/2-z
-x,-y,-z
x,1/2-y,1/2+z
loop_
_atom_site_type_symbol
_atom_site_label
_atom_site_fract_x
_atom_site_fract_y
_atom_site_fract_z
Si Si1 0.564425 0.192362 0.449238
Si Si2 0.750777 0.627023 0.781780
Si Si3 0.244524 0.523604 0.883243
Si Si4 0.907192 0.121623 0.895751
Si Si5 0.773029 0.645088 0.414024
O O1 0.729093 0.098075 0.515022
O O2 0.733250 0.261964 0.369415
O O3 0.453189 0.294773 0.522159
O O4 0.330365 0.113867 0.405244
O O5 0.965489 0.544481 0.837620
O O6 0.836606 0.616284 0.669930
O O7 0.469723 0.581406 0.814701
O O8 0.800433 0.763245 0.823532
O O9 0.752330 0.995407 0.884629
O O10 0.990020 0.141852 0.008557
#
# Coordination Sequence:
#
# PCOD9248503 Si02
#       5
#     4   4   4   4   4
#     4  10  22  42  71  92 136 180 226 286 342 401
#     4  11  25  45  67 105 137 183 229 286 335 415
#     4  10  24  43  70  99 135 174 235 281 338 407
#     4  11  24  42  69  98 138 189 219 292 342 409
#     4  10  24  44  66 100 140 176 236 274 353 409
#
# _framework density 25.89067
#
# number of rings (size 3 to 8) (size 9 to 14) (size 15 to 20)
#    0.000    1.600    2.000    0.600    8.400    2.400 
#    3.600    0.000    0.000    0.000    0.000    0.000 
#    0.000    0.000    0.000    0.000    0.000    0.000 
#
# Total GULP energy -112143.644837 kJ/mol
# GULP energy per Si atom -5607.182242 kJ/mol
# Density = 2.583174 g / cm^3
# Si number density = 25.890670 Si / 1000 Ang^3
#
#
#
# Elastic Constant Matrix: (Units=GPa)
#
#
# Indices 1 2 3 4 5 6 
#
# 1 69.5349 40.3418 17.6999 0.0000 -3.9211 0.0000
# 2 40.3418 120.4252 62.8539 0.0000 -28.0348 0.0000
# 3 17.6999 62.8539 85.1795 0.0000 -1.0350 0.0000
# 4 0.0000 0.0000 0.0000 16.0674 0.0000 -18.9833
# 5 -3.9211 -28.0348 -1.0350 0.0000 39.8276 0.0000
# 6 0.0000 0.0000 0.0000 -18.9833 0.0000 31.3551
#
#
#
# Elastic Compliance Matrix: (Units=1/GPa)
#
#
# Indices 1 2 3 4 5 6 
#
# 1 0.018364 -0.008207 0.002192 0.000000 -0.003912 0.000000
# 2 -0.008207 0.021729 -0.014157 0.000000 0.014119 0.000000
# 3 0.002192 -0.014157 0.021619 0.000000 -0.009188 0.000000
# 4 0.000000 0.000000 0.000000 0.218608 0.000000 0.132352
# 5 -0.003912 0.014119 -0.009188 0.000000 0.034423 0.000000
# 6 0.000000 0.000000 0.000000 0.132352 0.000000 0.112022
#
#
# Mechanical properties :
#
#
# Convention : Reuss Voigt Hill
#
# Bulk Modulus (GPa) = 46.79619 57.43676 52.11647
# Shear Modulus (GPa) = 10.54336 27.73295 19.13816
#
# Velocity S-wave (km/s) = 2.02017 3.27640 2.72176
# Velocity P-wave (km/s) = 4.85337 6.04530 5.48183
#
# Compressibility (1/GPa) = 0.02136926
#
# Stress axis : x y z
#
# Youngs Moduli (GPa) = 54.45479 46.02132 46.25521
#
# Poissons Ratio (x) = 0.37768 -0.10140
# Poissons Ratio (y) = 0.44689 0.65483
# Poissons Ratio (z) = -0.11938 0.65152
#
# Static dielectric constant tensor:
#      x y z
#    x 2.036230 0.000000 0.039860 
#    y 0.000000 2.014920 0.000000 
#    z 0.039860 0.000000 2.058190 
# 
# From -- ./inp_files/36810.got.cif
#   From: 2010.05.17/outbox.cif.g08.bks.cpg/sg14_19_cif.got.tgz:36810.got - 2010.06.03 17:49:19.
