data_PCOD9248057
_publ_section_title
;
Structure prediction by ZEFSAII (Michael W. Deem and Ramdas Pophale) SiO2 
 PCOD9248057
Probable space group: P 21/C
;
_chemical_formula_sum "Si O2"
_cell_formula_units_Z 32
_cell_length_a 10.647096
_cell_length_b 11.084374
_cell_length_c 12.112093
_cell_angle_alpha 90.000000
_cell_angle_beta 80.662737
_cell_angle_gamma 90.000000
_cell_volume 1410.486234
_symmetry_space_group_name_H-M "P 21/C"
_symmetry_group_IT_number 14
_symmetry_cell_setting 'monoclinic'
loop_
_space_group_symop_operation_xyz
x,y,z
-x,1/2+y,1/2-z
-x,-y,-z
x,1/2-y,1/2+z
loop_
_atom_site_type_symbol
_atom_site_label
_atom_site_fract_x
_atom_site_fract_y
_atom_site_fract_z
Si Si1 0.581413 0.113319 0.753372
Si Si2 0.357855 0.203946 0.650103
Si Si3 0.053759 0.863955 0.266493
Si Si4 0.779383 0.219115 0.114316
Si Si5 0.234567 0.077867 0.275312
Si Si6 0.435266 0.628605 0.494471
Si Si7 0.980616 0.638610 0.539026
Si Si8 0.154289 0.144857 0.526974
O O1 0.439854 0.140764 0.733571
O O2 0.680837 0.172615 0.652202
O O3 0.621551 0.974383 0.743101
O O4 0.604668 0.162462 0.874141
O O5 0.253684 0.295528 0.714179
O O6 0.459150 0.278805 0.563560
O O7 0.279445 0.118972 0.580266
O O8 0.130866 0.741187 0.289509
O O9 0.967862 0.853179 0.171484
O O10 0.965814 0.895617 0.383660
O O11 0.150425 0.974588 0.229103
O O12 0.679305 0.122192 0.078985
O O13 0.889552 0.211984 0.007322
O O14 0.174593 0.090869 0.404044
O O15 0.500000 0.500000 0.500000
O O16 0.000000 0.500000 0.500000
O O17 0.869805 0.711689 0.493066
#
# Coordination Sequence:
#
# PCOD9248057 Si02
#       8
#     4   4   4   4   4   4   4   4
#     4  10  22  41  63  93 126 167 212 267 325 390
#     4  11  23  40  63  94 126 167 213 267 322 383
#     4  10  22  42  64  90 127 166 215 262 319 391
#     4   9  21  39  62  92 123 165 208 262 322 377
#     4  11  21  41  65  85 127 168 212 266 324 386
#     4  11  21  38  67  92 122 165 217 264 320 380
#     4  11  23  40  66  95 128 167 222 268 319 383
#     4  11  24  40  62  95 129 169 208 266 329 386
#
# _framework density 22.687211999999999
#
# number of rings (size 3 to 8) (size 9 to 14) (size 15 to 20)
#    0.000    1.500    1.250    4.125    1.750    1.500 
#    0.000    5.000    0.000    0.000    0.000    0.000 
#    0.000    0.000    0.000    0.000    0.000    0.000 
#
# Total GULP energy -178291.161725 kJ/mol
# GULP energy per Si atom -5571.598804 kJ/mol
# Density = 2.263557 g / cm^3
# Si number density = 22.687212 Si / 1000 Ang^3
#
#
#
# Elastic Constant Matrix: (Units=GPa)
#
#
# Indices 1 2 3 4 5 6 
#
# 1 83.9568 15.2884 38.4748 0.0000 6.8305 0.0000
# 2 15.2884 37.8124 24.9004 0.0000 6.3999 0.0000
# 3 38.4748 24.9004 102.7369 0.0000 0.2154 0.0000
# 4 0.0000 0.0000 0.0000 27.6911 0.0000 -0.6657
# 5 6.8305 6.3999 0.2154 0.0000 40.6810 0.0000
# 6 0.0000 0.0000 0.0000 -0.6657 0.0000 29.4503
#
#
#
# Elastic Compliance Matrix: (Units=1/GPa)
#
#
# Indices 1 2 3 4 5 6 
#
# 1 0.014783 -0.002358 -0.004960 0.000000 -0.002085 0.000000
# 2 -0.002358 0.032858 -0.007071 0.000000 -0.004736 0.000000
# 3 -0.004960 -0.007071 0.013301 0.000000 0.001875 0.000000
# 4 0.000000 0.000000 0.000000 0.036132 0.000000 0.000817
# 5 -0.002085 -0.004736 0.001875 0.000000 0.025667 0.000000
# 6 0.000000 0.000000 0.000000 0.000817 0.000000 0.033974
#
#
# Mechanical properties :
#
#
# Convention : Reuss Voigt Hill
#
# Bulk Modulus (GPa) = 31.09083 42.42593 36.75838
# Shear Modulus (GPa) = 25.48241 29.28732 27.38486
#
# Velocity S-wave (km/s) = 3.35506 3.59683 3.47805
# Velocity P-wave (km/s) = 5.36120 5.99921 5.68916
#
# Compressibility (1/GPa) = 0.03216382
#
# Stress axis : x y z
#
# Youngs Moduli (GPa) = 67.64498 30.43443 75.18161
#
# Poissons Ratio (x) = 0.07175 0.37293
# Poissons Ratio (y) = 0.15948 0.53160
# Poissons Ratio (z) = 0.33555 0.21520
#
# Static dielectric constant tensor:
#      x y z
#    x 1.879480 0.000000 0.019740 
#    y 0.000000 1.863730 0.000000 
#    z 0.019740 0.000000 1.866220 
# 
# From -- ./inp_files/29069.got.cif
#   From: 2010.05.17/outbox.cif.g08.bks.cpg/sg14_15_cif.got.tgz:29069.got - 2010.06.03 17:49:19.
