data_PCOD9248616
_publ_section_title
;
Structure prediction by ZEFSAII (Michael W. Deem and Ramdas Pophale) SiO2 
 PCOD9248616
Probable space group: P 21/C
;
_chemical_formula_sum "Si O2"
_cell_formula_units_Z 20
_cell_length_a 22.003076
_cell_length_b 5.117675
_cell_length_c 13.452451
_cell_angle_alpha 90.000000
_cell_angle_beta 146.968645
_cell_angle_gamma 90.000000
_cell_volume 825.718548
_symmetry_space_group_name_H-M "P 21/C"
_symmetry_group_IT_number 14
_symmetry_cell_setting 'monoclinic'
loop_
_space_group_symop_operation_xyz
x,y,z
-x,1/2+y,1/2-z
-x,-y,-z
x,1/2-y,1/2+z
loop_
_atom_site_type_symbol
_atom_site_label
_atom_site_fract_x
_atom_site_fract_y
_atom_site_fract_z
Si Si1 0.489026 0.169419 0.164977
Si Si2 0.298226 0.850258 0.159937
Si Si3 0.830554 0.651483 0.040571
Si Si4 0.944363 0.748605 0.375241
Si Si5 0.745257 0.815375 0.727246
O O1 0.488230 0.401144 0.246019
O O2 0.584005 0.245009 0.215426
O O3 0.370740 0.170042 0.947094
O O4 0.284304 0.909651 0.259111
O O5 0.208192 0.643724 0.997022
O O6 0.268318 0.135237 0.075879
O O7 0.940103 0.735991 0.249967
O O8 0.832050 0.684630 0.923514
O O9 0.813967 0.696003 0.221141
O O10 0.000000 0.500000 0.500000
O O11 0.000000 0.000000 0.500000
#
# Coordination Sequence:
#
# PCOD9248616 Si02
#       5
#     4   4   4   4   4
#     4  12  25  40  70 104 140 179 221 271 343 412
#     4  10  22  43  67 100 138 173 222 267 343 407
#     4  10  24  44  71  96 139 172 228 279 342 405
#     4  12  27  45  70  99 134 177 234 290 346 397
#     4  10  27  43  72  96 142 176 231 277 340 408
#
# _framework density 24.221329999999998
#
# number of rings (size 3 to 8) (size 9 to 14) (size 15 to 20)
#    1.200    0.000    0.000    5.400    5.600    2.400 
#    0.000    0.000    0.000    0.000    0.000    0.000 
#    0.000    0.000    0.000    0.000    0.000    0.000 
#
# Total GULP energy -111641.110895 kJ/mol
# GULP energy per Si atom -5582.055545 kJ/mol
# Density = 2.416620 g / cm^3
# Si number density = 24.221330 Si / 1000 Ang^3
#
#
#
# Elastic Constant Matrix: (Units=GPa)
#
#
# Indices 1 2 3 4 5 6 
#
# 1 53.9389 22.2067 9.6622 0.0000 9.9002 0.0000
# 2 22.2067 129.2320 29.6750 0.0000 -9.4489 0.0000
# 3 9.6622 29.6750 91.7056 0.0000 -26.0693 0.0000
# 4 0.0000 0.0000 0.0000 40.2289 0.0000 -4.5358
# 5 9.9002 -9.4489 -26.0693 0.0000 38.8682 0.0000
# 6 0.0000 0.0000 0.0000 -4.5358 0.0000 20.7448
#
#
#
# Elastic Compliance Matrix: (Units=1/GPa)
#
#
# Indices 1 2 3 4 5 6 
#
# 1 0.022391 -0.003648 -0.003771 0.000000 -0.009119 0.000000
# 2 -0.003648 0.008956 -0.002015 0.000000 0.001755 0.000000
# 3 -0.003771 -0.002015 0.014935 0.000000 0.010488 0.000000
# 4 0.000000 0.000000 0.000000 0.025486 0.000000 0.005573
# 5 -0.009119 0.001755 0.010488 0.000000 0.035512 0.000000
# 6 0.000000 0.000000 0.000000 0.005573 0.000000 0.049423
#
#
# Mechanical properties :
#
#
# Convention : Reuss Voigt Hill
#
# Bulk Modulus (GPa) = 36.47793 44.21826 40.34809
# Shear Modulus (GPa) = 27.06964 34.19057 30.63010
#
# Velocity S-wave (km/s) = 3.34667 3.76119 3.55997
# Velocity P-wave (km/s) = 5.47965 6.09570 5.79587
#
# Compressibility (1/GPa) = 0.02741384
#
# Stress axis : x y z
#
# Youngs Moduli (GPa) = 44.66109 111.65816 66.95644
#
# Poissons Ratio (x) = 0.40738 0.25249
# Poissons Ratio (y) = 0.16294 0.13490
# Poissons Ratio (z) = 0.16841 0.22496
#
# Static dielectric constant tensor:
#      x y z
#    x 2.002560 0.000000 -0.045400 
#    y 0.000000 1.877030 0.000000 
#    z -0.045400 0.000000 1.925960 
# 
# From -- ./inp_files/51015.got.cif
#   From: 2010.05.17/outbox.cif.g08.bks.cpg/sg14_26_cif.got.tgz:51015.got - 2010.06.03 17:49:19.
