data_PCOD9248301
_publ_section_title
;
Structure prediction by ZEFSAII (Michael W. Deem and Ramdas Pophale) SiO2 
 PCOD9248301
Probable space group: P 21/C
;
_chemical_formula_sum "Si O2"
_cell_formula_units_Z 28
_cell_length_a 9.430820
_cell_length_b 11.530194
_cell_length_c 15.656318
_cell_angle_alpha 90.000000
_cell_angle_beta 50.663124
_cell_angle_gamma 90.000000
_cell_volume 1316.734048
_symmetry_space_group_name_H-M "P 21/C"
_symmetry_group_IT_number 14
_symmetry_cell_setting 'monoclinic'
loop_
_space_group_symop_operation_xyz
x,y,z
-x,1/2+y,1/2-z
-x,-y,-z
x,1/2-y,1/2+z
loop_
_atom_site_type_symbol
_atom_site_label
_atom_site_fract_x
_atom_site_fract_y
_atom_site_fract_z
Si Si1 0.689735 0.839594 0.792068
Si Si2 0.246994 0.424846 0.264009
Si Si3 0.448239 0.656969 0.551574
Si Si4 0.185074 0.138564 0.975432
Si Si5 0.096261 0.009181 0.178183
Si Si6 0.845965 0.601544 0.053901
Si Si7 0.501301 0.087466 0.422971
O O1 0.670847 0.703029 0.782697
O O2 0.875281 0.885480 0.767230
O O3 0.718364 0.897014 0.688234
O O4 0.537517 0.866396 0.923412
O O5 0.188618 0.425730 0.384479
O O6 0.380881 0.530749 0.196573
O O7 0.088217 0.436701 0.253616
O O8 0.606091 0.642132 0.564646
O O9 0.268427 0.577590 0.626642
O O10 0.412878 0.792824 0.577174
O O11 0.094914 0.263770 0.985437
O O12 0.090573 0.070775 0.088083
O O13 0.706845 0.590111 0.028943
O O14 0.000000 0.500000 0.000000
O O15 0.500000 0.000000 0.500000
#
# Coordination Sequence:
#
# PCOD9248301 Si02
#       7
#     4   4   4   4   4   4   4
#     4  10  22  42  64  92 129 168 212 270 322 389
#     4  11  24  40  64  94 131 163 216 272 329 387
#     4  10  22  43  67  91 129 173 217 267 335 392
#     4   9  21  44  61  95 131 165 215 277 318 397
#     4  11  24  38  71  90 130 169 222 265 330 398
#     4  10  24  42  67  94 135 172 219 268 329 397
#     4  11  24  42  65  94 132 168 218 276 326 395
#
# _framework density 21.264734000000001
#
# number of rings (size 3 to 8) (size 9 to 14) (size 15 to 20)
#    0.000    1.714    1.429    2.143    8.000    1.143 
#    0.000    0.000    0.000    0.000    0.000    0.000 
#    0.000    0.000    0.000    0.000    0.000    0.000 
#
# Total GULP energy -155911.145017 kJ/mol
# GULP energy per Si atom -5568.255179 kJ/mol
# Density = 2.121633 g / cm^3
# Si number density = 21.264734 Si / 1000 Ang^3
#
#
#
# Elastic Constant Matrix: (Units=GPa)
#
#
# Indices 1 2 3 4 5 6 
#
# 1 46.9274 23.5698 20.5169 0.0000 5.4068 0.0000
# 2 23.5698 110.4314 24.9960 0.0000 4.4325 0.0000
# 3 20.5169 24.9960 43.8727 0.0000 21.3959 0.0000
# 4 0.0000 0.0000 0.0000 23.0864 0.0000 7.6510
# 5 5.4068 4.4325 21.3959 0.0000 30.9650 0.0000
# 6 0.0000 0.0000 0.0000 7.6510 0.0000 38.1266
#
#
#
# Elastic Compliance Matrix: (Units=1/GPa)
#
#
# Indices 1 2 3 4 5 6 
#
# 1 0.028409 -0.003090 -0.014059 0.000000 0.005196 0.000000
# 2 -0.003090 0.011059 -0.006556 0.000000 0.003487 0.000000
# 3 -0.014059 -0.006556 0.047431 0.000000 -0.029380 0.000000
# 4 0.000000 0.000000 0.000000 0.046402 0.000000 -0.009312
# 5 0.005196 0.003487 -0.029380 0.000000 0.051189 0.000000
# 6 0.000000 0.000000 0.000000 -0.009312 0.000000 0.028097
#
#
# Mechanical properties :
#
#
# Convention : Reuss Voigt Hill
#
# Bulk Modulus (GPa) = 25.32316 37.71076 31.51696
# Shear Modulus (GPa) = 18.30424 27.24551 22.77487
#
# Velocity S-wave (km/s) = 2.93709 3.58334 3.27619
# Velocity P-wave (km/s) = 4.84111 5.90702 5.40043
#
# Compressibility (1/GPa) = 0.03948954
#
# Stress axis : x y z
#
# Youngs Moduli (GPa) = 35.19950 90.42512 21.08306
#
# Poissons Ratio (x) = 0.27940 0.29641
# Poissons Ratio (y) = 0.10876 0.13822
# Poissons Ratio (z) = 0.49488 0.59283
#
# Static dielectric constant tensor:
#      x y z
#    x 1.792280 0.000000 -0.035390 
#    y 0.000000 1.778600 0.000000 
#    z -0.035390 0.000000 1.746900 
# 
# From -- ./inp_files/40226.got.cif
#   From: 2010.05.17/outbox.cif.g08.bks.cpg/sg14_21_cif.got.tgz:40226.got - 2010.06.03 17:49:19.
