data_PCOD9248360
_publ_section_title
;
Structure prediction by ZEFSAII (Michael W. Deem and Ramdas Pophale) SiO2 
 PCOD9248360
Probable space group: P 21/C
;
_chemical_formula_sum "Si O2"
_cell_formula_units_Z 28
_cell_length_a 5.489554
_cell_length_b 21.144523
_cell_length_c 13.318064
_cell_angle_alpha 90.000000
_cell_angle_beta 55.459160
_cell_angle_gamma 90.000000
_cell_volume 1273.376551
_symmetry_space_group_name_H-M "P 21/C"
_symmetry_group_IT_number 14
_symmetry_cell_setting 'monoclinic'
loop_
_space_group_symop_operation_xyz
x,y,z
-x,1/2+y,1/2-z
-x,-y,-z
x,1/2-y,1/2+z
loop_
_atom_site_type_symbol
_atom_site_label
_atom_site_fract_x
_atom_site_fract_y
_atom_site_fract_z
Si Si1 0.163247 0.886440 0.845658
Si Si2 0.447596 0.436511 0.574644
Si Si3 0.244248 0.070295 0.623486
Si Si4 0.142841 0.948119 0.538267
Si Si5 0.709886 0.650165 0.092570
Si Si6 0.176650 0.205991 0.918145
Si Si7 0.778726 0.346611 0.345658
O O1 0.371483 0.933836 0.863153
O O2 0.388230 0.851989 0.717823
O O3 0.900036 0.921769 0.849349
O O4 0.002712 0.837013 0.959397
O O5 0.500000 0.500000 0.500000
O O6 0.597244 0.380838 0.475562
O O7 0.573746 0.077409 0.589188
O O8 0.278590 0.110329 0.512665
O O9 0.975268 0.100460 0.744949
O O10 0.219570 0.994704 0.612368
O O11 0.933450 0.889818 0.610072
O O12 0.000000 0.000000 0.500000
O O13 0.818740 0.720972 0.051950
O O14 0.521372 0.183945 0.837764
O O15 0.011688 0.198422 0.849411
#
# Coordination Sequence:
#
# PCOD9248360 Si02
#       7
#     4   4   4   4   4   4   4
#     4  10  24  42  63  96 132 166 225 264 323 401
#     4  10  22  42  66  95 127 174 213 269 327 382
#     4  10  23  41  67  97 133 173 219 276 340 393
#     4   9  22  41  60 100 129 170 219 266 335 398
#     4  11  25  40  69  94 134 174 219 279 335 389
#     4  10  25  45  63  97 128 178 221 269 327 393
#     4  10  24  43  67  93 133 171 224 266 326 400
#
# _framework density 21.988783000000002
#
# number of rings (size 3 to 8) (size 9 to 14) (size 15 to 20)
#    0.000    2.000    0.000    0.429   12.000    2.286 
#    2.571    0.000    0.000    0.000    0.000    0.000 
#    0.000    0.000    0.000    0.000    0.000    0.000 
#
# Total GULP energy -156188.483978 kJ/mol
# GULP energy per Si atom -5578.160142 kJ/mol
# Density = 2.193874 g / cm^3
# Si number density = 21.988783 Si / 1000 Ang^3
#
#
#
# Elastic Constant Matrix: (Units=GPa)
#
#
# Indices 1 2 3 4 5 6 
#
# 1 140.8165 38.3715 38.0557 0.0000 -29.5267 0.0000
# 2 38.3715 79.9331 -12.3758 0.0000 -19.2803 0.0000
# 3 38.0557 -12.3758 62.5311 0.0000 -22.3416 0.0000
# 4 0.0000 0.0000 0.0000 27.9252 0.0000 -5.6412
# 5 -29.5267 -19.2803 -22.3416 0.0000 33.4012 0.0000
# 6 0.0000 0.0000 0.0000 -5.6412 0.0000 26.3615
#
#
#
# Elastic Compliance Matrix: (Units=1/GPa)
#
#
# Indices 1 2 3 4 5 6 
#
# 1 0.011078 -0.006211 -0.007560 0.000000 0.001151 0.000000
# 2 -0.006211 0.021538 0.013828 0.000000 0.016191 0.000000
# 3 -0.007560 0.013828 0.031266 0.000000 0.022212 0.000000
# 4 0.000000 0.000000 0.000000 0.037428 0.000000 0.008009
# 5 0.001151 0.016191 0.022212 0.000000 0.055160 0.000000
# 6 0.000000 0.000000 0.000000 0.008009 0.000000 0.039648
#
#
# Mechanical properties :
#
#
# Convention : Reuss Voigt Hill
#
# Bulk Modulus (GPa) = 15.62610 45.70928 30.66769
# Shear Modulus (GPa) = 23.00574 32.15287 27.57930
#
# Velocity S-wave (km/s) = 3.23809 3.82807 3.54537
# Velocity P-wave (km/s) = 4.59370 6.35386 5.54408
#
# Compressibility (1/GPa) = 0.06399551
#
# Stress axis : x y z
#
# Youngs Moduli (GPa) = 90.26590 46.42898 31.98400
#
# Poissons Ratio (x) = 0.28837 0.24180
# Poissons Ratio (y) = 0.56063 -0.44226
# Poissons Ratio (z) = 0.68241 -0.64200
#
# Static dielectric constant tensor:
#      x y z
#    x 1.942050 0.000000 0.010910 
#    y 0.000000 1.772880 0.000000 
#    z 0.010910 0.000000 1.810300 
# 
# From -- ./inp_files/38054.got.cif
#   From: 2010.05.17/outbox.cif.g08.bks.cpg/sg14_20_cif.got.tgz:38054.got - 2010.06.03 17:49:19.
