data_PCOD9248966
_publ_section_title
;
Structure prediction by ZEFSAII (Michael W. Deem and Ramdas Pophale) SiO2 
 PCOD9248966
Probable space group: P 21/C
;
_chemical_formula_sum "Si O2"
_cell_formula_units_Z 28
_cell_length_a 9.109080
_cell_length_b 19.802140
_cell_length_c 9.062820
_cell_angle_alpha 90.000000
_cell_angle_beta 126.206081
_cell_angle_gamma 90.000000
_cell_volume 1319.071795
_symmetry_space_group_name_H-M "P 21/C"
_symmetry_group_IT_number 14
_symmetry_cell_setting 'monoclinic'
loop_
_space_group_symop_operation_xyz
x,y,z
-x,1/2+y,1/2-z
-x,-y,-z
x,1/2-y,1/2+z
loop_
_atom_site_type_symbol
_atom_site_label
_atom_site_fract_x
_atom_site_fract_y
_atom_site_fract_z
Si Si1 0.028794 0.179553 0.562079
Si Si2 0.592709 0.319065 0.789366
Si Si3 0.578447 0.322753 0.129282
Si Si4 0.164429 0.452240 0.640456
Si Si5 0.271944 0.427461 0.038175
Si Si6 0.483515 0.532973 0.331272
Si Si7 0.017847 0.179865 0.901451
O O1 0.131293 0.118458 0.544516
O O2 0.068509 0.180824 0.759472
O O3 0.073899 0.249966 0.509622
O O4 0.811403 0.175505 0.416258
O O5 0.535082 0.249478 0.678130
O O6 0.528553 0.386296 0.669037
O O7 0.539912 0.320732 0.930780
O O8 0.454312 0.381725 0.124120
O O9 0.797452 0.331281 0.280220
O O10 0.342891 0.480637 0.667777
O O11 0.117341 0.379541 0.545703
O O12 0.000000 0.500000 0.500000
O O13 0.196144 0.445649 0.832725
O O14 0.317364 0.496373 0.150411
O O15 0.500000 0.500000 0.500000
#
# Coordination Sequence:
#
# PCOD9248966 Si02
#       7
#     4   4   4   4   4   4   4
#     4  10  23  41  72  98 135 174 227 284 336 408
#     4  10  24  44  70  98 137 178 226 279 345 407
#     4  10  23  44  71  99 135 180 229 287 336 411
#     4  12  27  44  70  99 140 181 230 285 346 414
#     4  12  26  44  71 101 138 182 231 289 347 411
#     4  12  28  46  67 103 139 184 230 283 353 422
#     4  10  22  45  66 100 133 179 228 279 345 405
#
# _framework density 21.227048
#
# number of rings (size 3 to 8) (size 9 to 14) (size 15 to 20)
#    0.000    1.143    1.429    3.000   10.000    2.857 
#    0.000    0.000    0.000    0.000    0.000    0.000 
#    0.000    0.000    0.000    0.000    0.000    0.000 
#
# Total GULP energy -156762.915621 kJ/mol
# GULP energy per Si atom -5598.675558 kJ/mol
# Density = 2.117873 g / cm^3
# Si number density = 21.227048 Si / 1000 Ang^3
#
#
#
# Elastic Constant Matrix: (Units=GPa)
#
#
# Indices 1 2 3 4 5 6 
#
# 1 47.5311 -4.5982 5.5170 0.0000 -13.3654 0.0000
# 2 -4.5982 76.1600 27.5330 0.0000 0.0211 0.0000
# 3 5.5170 27.5330 108.8262 0.0000 -21.2843 0.0000
# 4 0.0000 0.0000 0.0000 49.5863 0.0000 0.8037
# 5 -13.3654 0.0211 -21.2843 0.0000 29.8054 0.0000
# 6 0.0000 0.0000 0.0000 0.8037 0.0000 31.0528
#
#
#
# Elastic Compliance Matrix: (Units=1/GPa)
#
#
# Indices 1 2 3 4 5 6 
#
# 1 0.024275 0.001214 0.000687 0.000000 0.011375 0.000000
# 2 0.001214 0.014755 -0.004289 0.000000 -0.002529 0.000000
# 3 0.000687 -0.004289 0.011972 0.000000 0.008861 0.000000
# 4 0.000000 0.000000 0.000000 0.020175 0.000000 -0.000522
# 5 0.011375 -0.002529 0.008861 0.000000 0.044981 0.000000
# 6 0.000000 0.000000 0.000000 -0.000522 0.000000 0.032217
#
#
# Mechanical properties :
#
#
# Convention : Reuss Voigt Hill
#
# Bulk Modulus (GPa) = 21.63273 32.15787 26.89530
# Shear Modulus (GPa) = 29.66297 35.69326 32.67812
#
# Velocity S-wave (km/s) = 3.74226 4.10506 3.92785
# Velocity P-wave (km/s) = 5.37456 6.13604 5.76788
#
# Compressibility (1/GPa) = 0.04622625
#
# Stress axis : x y z
#
# Youngs Moduli (GPa) = 41.19423 67.77434 83.52662
#
# Poissons Ratio (x) = -0.08229 -0.05738
# Poissons Ratio (y) = -0.05002 0.35826
# Poissons Ratio (z) = -0.02830 0.29069
#
# Static dielectric constant tensor:
#      x y z
#    x 1.624880 0.000000 -0.050520 
#    y 0.000000 1.773700 0.000000 
#    z -0.050520 0.000000 1.673360 
# 
# From -- ./inp_files/10428.got.cif
#   From: 2010.05.17/outbox.cif.g08.bks.cpg/sg14_6_cif.got.tgz:10428.got - 2010.06.03 17:49:19.
