data_PCOD9248866
_publ_section_title
;
Structure prediction by ZEFSAII (Michael W. Deem and Ramdas Pophale) SiO2 
 PCOD9248866
Probable space group: P 21/C
;
_chemical_formula_sum "Si O2"
_cell_formula_units_Z 28
_cell_length_a 15.127310
_cell_length_b 8.448801
_cell_length_c 15.695837
_cell_angle_alpha 90.000000
_cell_angle_beta 37.713304
_cell_angle_gamma 90.000000
_cell_volume 1227.120967
_symmetry_space_group_name_H-M "P 21/C"
_symmetry_group_IT_number 14
_symmetry_cell_setting 'monoclinic'
loop_
_space_group_symop_operation_xyz
x,y,z
-x,1/2+y,1/2-z
-x,-y,-z
x,1/2-y,1/2+z
loop_
_atom_site_type_symbol
_atom_site_label
_atom_site_fract_x
_atom_site_fract_y
_atom_site_fract_z
Si Si1 0.583612 0.243004 0.438325
Si Si2 0.246435 0.979378 0.812741
Si Si3 0.988661 0.957426 0.133008
Si Si4 0.676289 0.133484 0.551106
Si Si5 0.428327 0.516304 0.321439
Si Si6 0.998448 0.669826 0.235109
Si Si7 0.316153 0.084463 0.088195
O O1 0.647576 0.147269 0.310650
O O2 0.622813 0.146896 0.493889
O O3 0.660589 0.414360 0.385415
O O4 0.414124 0.284355 0.560291
O O5 0.340297 0.067869 0.811992
O O6 0.112454 0.914294 0.971500
O O7 0.161703 0.062611 0.800633
O O8 0.004557 0.853906 0.205494
O O9 0.004792 0.131629 0.161674
O O10 0.628911 0.304101 0.626105
O O11 0.847639 0.109895 0.417744
O O12 0.593130 0.000993 0.667870
O O13 0.391778 0.434904 0.438097
O O14 0.851603 0.615237 0.301045
#
# Coordination Sequence:
#
# PCOD9248866 Si02
#       7
#     4   4   4   4   4   4   4
#     4  10  22  44  69  97 141 177 228 279 341 402
#     4  11  22  43  66 101 135 181 220 288 333 407
#     4  11  25  41  72  94 144 172 227 282 350 387
#     4  11  24  43  68 100 135 179 224 278 338 403
#     4  11  23  44  66  97 136 176 224 276 337 404
#     4  12  23  47  68 106 129 188 224 283 336 421
#     4  10  23  42  73  98 137 182 223 282 341 403
#
# _framework density 22.817637000000001
#
# number of rings (size 3 to 8) (size 9 to 14) (size 15 to 20)
#    0.000    1.143    4.286    1.714    2.000    2.857 
#    0.000    0.714    0.000    0.000    0.000    0.000 
#    0.000    0.000    0.000    0.000    0.000    0.000 
#
# Total GULP energy -156394.586505 kJ/mol
# GULP energy per Si atom -5585.520947 kJ/mol
# Density = 2.276570 g / cm^3
# Si number density = 22.817637 Si / 1000 Ang^3
#
#
#
# Elastic Constant Matrix: (Units=GPa)
#
#
# Indices 1 2 3 4 5 6 
#
# 1 104.0107 8.2663 38.0699 0.0000 -12.6135 0.0000
# 2 8.2663 22.2110 43.4592 0.0000 -1.2859 0.0000
# 3 38.0699 43.4592 132.4587 0.0000 -28.9649 0.0000
# 4 0.0000 0.0000 0.0000 29.2973 0.0000 -0.9052
# 5 -12.6135 -1.2859 -28.9649 0.0000 49.0183 0.0000
# 6 0.0000 0.0000 0.0000 -0.9052 0.0000 26.4730
#
#
#
# Elastic Compliance Matrix: (Units=1/GPa)
#
#
# Indices 1 2 3 4 5 6 
#
# 1 0.011010 0.005874 -0.005097 0.000000 -0.000025 0.000000
# 2 0.005874 0.160113 -0.060832 0.000000 -0.030234 0.000000
# 3 -0.005097 -0.060832 0.032542 0.000000 0.016322 0.000000
# 4 0.000000 0.000000 0.000000 0.034169 0.000000 0.001168
# 5 -0.000025 -0.030234 0.016322 0.000000 0.029246 0.000000
# 6 0.000000 0.000000 0.000000 0.001168 0.000000 0.037814
#
#
# Mechanical properties :
#
#
# Convention : Reuss Voigt Hill
#
# Bulk Modulus (GPa) = 11.96806 48.69681 30.33244
# Shear Modulus (GPa) = 11.04102 32.21673 21.62888
#
# Velocity S-wave (km/s) = 2.20212 3.76163 3.08214
# Velocity P-wave (km/s) = 3.42377 6.34465 5.09788
#
# Compressibility (1/GPa) = 0.08355570
#
# Stress axis : x y z
#
# Youngs Moduli (GPa) = 90.82481 6.24558 30.72915
#
# Poissons Ratio (x) = -0.03669 0.15663
# Poissons Ratio (y) = -0.53352 1.86932
# Poissons Ratio (z) = 0.46294 0.37993
#
# Static dielectric constant tensor:
#      x y z
#    x 1.883100 0.000000 -0.011430 
#    y 0.000000 1.901550 0.000000 
#    z -0.011430 0.000000 1.839200 
# 
# From -- ./inp_files/46683.got.cif
#   From: 2010.05.17/outbox.cif.g08.bks.cpg/sg14_24_cif.got.tgz:46683.got - 2010.06.03 17:49:19.
