data_PCOD9248152
_publ_section_title
;
Structure prediction by ZEFSAII (Michael W. Deem and Ramdas Pophale) SiO2 
 PCOD9248152
Probable space group: P 21/C
;
_chemical_formula_sum "Si O2"
_cell_formula_units_Z 16
_cell_length_a 4.867124
_cell_length_b 7.283777
_cell_length_c 16.908553
_cell_angle_alpha 90.000000
_cell_angle_beta 81.731081
_cell_angle_gamma 90.000000
_cell_volume 593.194227
_symmetry_space_group_name_H-M "P 21/C"
_symmetry_group_IT_number 14
_symmetry_cell_setting 'monoclinic'
loop_
_space_group_symop_operation_xyz
x,y,z
-x,1/2+y,1/2-z
-x,-y,-z
x,1/2-y,1/2+z
loop_
_atom_site_type_symbol
_atom_site_label
_atom_site_fract_x
_atom_site_fract_y
_atom_site_fract_z
Si Si1 0.095983 0.622114 0.327906
Si Si2 0.644974 0.410927 0.275523
Si Si3 0.744277 0.732420 0.975466
Si Si4 0.203712 0.681250 0.077181
O O1 0.331780 0.471404 0.302665
O O2 0.264662 0.810015 0.307945
O O3 0.845899 0.585445 0.277185
O O4 0.926002 0.628908 0.416261
O O5 0.735419 0.269582 0.340975
O O6 0.743404 0.537366 0.929265
O O7 0.427145 0.773826 0.008018
O O8 0.901868 0.705978 0.051948
#
# Coordination Sequence:
#
# PCOD9248152 Si02
#       4
#     4   4   4   4
#     4  12  26  43  66  94 130 171 216 267 318 380
#     4  12  26  43  66  94 130 171 216 267 318 380
#     4  10  22  41  66  95 129 167 208 260 322 383
#     4  10  22  41  66  95 129 167 208 260 322 383
#
# _framework density 26.972612000000002
#
# number of rings (size 3 to 8) (size 9 to 14) (size 15 to 20)
#    0.000    1.000    0.000    6.000    0.000   12.000 
#    0.000    0.000    0.000    0.000    0.000    0.000 
#    0.000    0.000    0.000    0.000    0.000    0.000 
#
# Total GULP energy -89701.838803 kJ/mol
# GULP energy per Si atom -5606.364925 kJ/mol
# Density = 2.691122 g / cm^3
# Si number density = 26.972612 Si / 1000 Ang^3
#
#
#
# Elastic Constant Matrix: (Units=GPa)
#
#
# Indices 1 2 3 4 5 6 
#
# 1 152.8420 29.4728 21.3178 0.0000 -30.5348 0.0000
# 2 29.4728 59.7537 25.1003 0.0000 -19.2935 0.0000
# 3 21.3178 25.1003 68.1572 0.0000 -31.6053 0.0000
# 4 0.0000 0.0000 0.0000 50.9398 0.0000 -7.5520
# 5 -30.5348 -19.2935 -31.6053 0.0000 45.6629 0.0000
# 6 0.0000 0.0000 0.0000 -7.5520 0.0000 51.9518
#
#
#
# Elastic Compliance Matrix: (Units=1/GPa)
#
#
# Indices 1 2 3 4 5 6 
#
# 1 0.007886 -0.002680 0.000649 0.000000 0.004590 0.000000
# 2 -0.002680 0.021478 -0.005441 0.000000 0.003517 0.000000
# 3 0.000649 -0.005441 0.022985 0.000000 0.014044 0.000000
# 4 0.000000 0.000000 0.000000 0.020063 0.000000 0.002917
# 5 0.004590 0.003517 0.014044 0.000000 0.036176 0.000000
# 6 0.000000 0.000000 0.000000 0.002917 0.000000 0.019673
#
#
# Mechanical properties :
#
#
# Convention : Reuss Voigt Hill
#
# Bulk Modulus (GPa) = 26.73389 48.05939 37.39664
# Shear Modulus (GPa) = 32.11855 43.36837 37.74346
#
# Velocity S-wave (km/s) = 3.45452 4.01417 3.74481
# Velocity P-wave (km/s) = 5.08376 6.27226 5.70902
#
# Compressibility (1/GPa) = 0.03740571
#
# Stress axis : x y z
#
# Youngs Moduli (GPa) = 126.80646 46.55851 43.50657
#
# Poissons Ratio (x) = 0.12479 -0.02824
# Poissons Ratio (y) = 0.33987 0.23670
# Poissons Ratio (z) = -0.08230 0.25331
#
# Static dielectric constant tensor:
#      x y z
#    x 1.973430 0.000000 -0.005880 
#    y 0.000000 2.194670 0.000000 
#    z -0.005880 0.000000 2.159860 
# 
# From -- ./inp_files/52502.got.cif
#   From: 2010.05.17/outbox.cif.g08.bks.cpg/sg14_27_cif.got.tgz:52502.got - 2010.06.03 17:49:19.
