data_PCOD9248304
_publ_section_title
;
Structure prediction by ZEFSAII (Michael W. Deem and Ramdas Pophale) SiO2 
 PCOD9248304
Probable space group: P 21/C
;
_chemical_formula_sum "Si O2"
_cell_formula_units_Z 32
_cell_length_a 8.929578
_cell_length_b 12.196989
_cell_length_c 14.697149
_cell_angle_alpha 90.000000
_cell_angle_beta 107.166836
_cell_angle_gamma 90.000000
_cell_volume 1529.411460
_symmetry_space_group_name_H-M "P 21/C"
_symmetry_group_IT_number 14
_symmetry_cell_setting 'monoclinic'
loop_
_space_group_symop_operation_xyz
x,y,z
-x,1/2+y,1/2-z
-x,-y,-z
x,1/2-y,1/2+z
loop_
_atom_site_type_symbol
_atom_site_label
_atom_site_fract_x
_atom_site_fract_y
_atom_site_fract_z
Si Si1 0.877146 0.162316 0.017023
Si Si2 0.110622 0.609403 0.292908
Si Si3 0.208340 0.406158 0.525902
Si Si4 0.613443 0.945226 0.097662
Si Si5 0.524215 0.992027 0.396181
Si Si6 0.729440 0.176800 0.349879
Si Si7 0.558360 0.809244 0.258917
Si Si8 0.252300 0.107508 0.234802
O O1 0.776733 0.234085 0.932323
O O2 0.838043 0.032325 0.004736
O O3 0.858010 0.194296 0.118895
O O4 0.056886 0.166152 0.018875
O O5 0.250106 0.520623 0.332713
O O6 0.132143 0.653312 0.195816
O O7 0.929326 0.576383 0.279224
O O8 0.298003 0.361566 0.454445
O O9 0.295026 0.415947 0.637187
O O10 0.531600 0.889962 0.168495
O O11 0.500000 0.000000 0.000000
O O12 0.665934 0.070495 0.389939
O O13 0.367617 0.041691 0.321015
O O14 0.500000 0.000000 0.500000
O O15 0.560437 0.876024 0.353307
O O16 0.585424 0.224797 0.265651
O O17 0.710414 0.737794 0.257014
#
# Coordination Sequence:
#
# PCOD9248304 Si02
#       8
#     4   4   4   4   4   4   4   4
#     4   9  19  37  62  97 118 162 208 262 318 382
#     4  10  22  42  64  95 129 164 214 274 320 385
#     4   9  19  37  64  90 125 154 210 267 316 366
#     4  11  21  37  68  92 125 162 219 267 322 375
#     4  11  25  46  63  93 134 179 218 268 328 402
#     4  11  23  40  67  92 131 167 221 258 337 389
#     4  11  24  40  62  95 125 173 215 265 324 394
#     4  10  23  43  65  94 132 168 218 269 330 388
#
# _framework density 20.923082000000001
#
# number of rings (size 3 to 8) (size 9 to 14) (size 15 to 20)
#    0.000    1.750    1.250    3.750    5.250    2.000 
#    2.250    0.625    0.000    0.000    0.000    0.000 
#    0.000    0.000    0.000    0.000    0.000    0.000 
#
# Total GULP energy -178331.203463 kJ/mol
# GULP energy per Si atom -5572.850108 kJ/mol
# Density = 2.087546 g / cm^3
# Si number density = 20.923082 Si / 1000 Ang^3
#
#
#
# Elastic Constant Matrix: (Units=GPa)
#
#
# Indices 1 2 3 4 5 6 
#
# 1 65.4125 8.6288 21.9799 0.0000 -6.3293 0.0000
# 2 8.6288 38.9482 3.9740 0.0000 1.2968 0.0000
# 3 21.9799 3.9740 100.5446 0.0000 -14.8327 0.0000
# 4 0.0000 0.0000 0.0000 21.8875 0.0000 2.4394
# 5 -6.3293 1.2968 -14.8327 0.0000 45.4104 0.0000
# 6 0.0000 0.0000 0.0000 2.4394 0.0000 15.2266
#
#
#
# Elastic Compliance Matrix: (Units=1/GPa)
#
#
# Indices 1 2 3 4 5 6 
#
# 1 0.017013 -0.003470 -0.003381 0.000000 0.001366 0.000000
# 2 -0.003470 0.026541 -0.000498 0.000000 -0.001404 0.000000
# 3 -0.003381 -0.000498 0.011176 0.000000 0.003193 0.000000
# 4 0.000000 0.000000 0.000000 0.046519 0.000000 -0.007453
# 5 0.001366 -0.001404 0.003193 0.000000 0.023295 0.000000
# 6 0.000000 0.000000 0.000000 -0.007453 0.000000 0.066868
#
#
# Mechanical properties :
#
#
# Convention : Reuss Voigt Hill
#
# Bulk Modulus (GPa) = 24.97856 30.45229 27.71542
# Shear Modulus (GPa) = 22.78389 27.85976 25.32183
#
# Velocity S-wave (km/s) = 3.30348 3.65298 3.48262
# Velocity P-wave (km/s) = 5.14926 5.69019 5.42647
#
# Compressibility (1/GPa) = 0.04003434
#
# Stress axis : x y z
#
# Youngs Moduli (GPa) = 58.77705 37.67707 89.48041
#
# Poissons Ratio (x) = 0.13073 0.30250
# Poissons Ratio (y) = 0.20394 0.04453
# Poissons Ratio (z) = 0.19870 0.01875
#
# Static dielectric constant tensor:
#      x y z
#    x 1.824270 0.000000 0.012430 
#    y 0.000000 1.798020 0.000000 
#    z 0.012430 0.000000 1.779070 
# 
# From -- ./inp_files/40370.got.cif
#   From: 2010.05.17/outbox.cif.g08.bks.cpg/sg14_21_cif.got.tgz:40370.got - 2010.06.03 17:49:19.
