data_PCOD9248721
_publ_section_title
;
Structure prediction by ZEFSAII (Michael W. Deem and Ramdas Pophale) SiO2 
 PCOD9248721
Probable space group: P 21/C
;
_chemical_formula_sum "Si O2"
_cell_formula_units_Z 28
_cell_length_a 28.929196
_cell_length_b 8.802718
_cell_length_c 9.424375
_cell_angle_alpha 90.000000
_cell_angle_beta 32.707625
_cell_angle_gamma 90.000000
_cell_volume 1296.829019
_symmetry_space_group_name_H-M "P 21/C"
_symmetry_group_IT_number 14
_symmetry_cell_setting 'monoclinic'
loop_
_space_group_symop_operation_xyz
x,y,z
-x,1/2+y,1/2-z
-x,-y,-z
x,1/2-y,1/2+z
loop_
_atom_site_type_symbol
_atom_site_label
_atom_site_fract_x
_atom_site_fract_y
_atom_site_fract_z
Si Si1 0.913930 0.427487 0.589849
Si Si2 0.595205 0.942979 0.779990
Si Si3 0.970053 0.629673 0.189829
Si Si4 0.811237 0.493583 0.122569
Si Si5 0.334503 0.207593 0.128174
Si Si6 0.756523 0.349337 0.798905
Si Si7 0.187222 0.418380 0.575383
O O1 0.955772 0.553251 0.379636
O O2 0.032197 0.727562 0.541250
O O3 0.822822 0.396991 0.749589
O O4 0.888055 0.479949 0.812623
O O5 0.616240 0.806253 0.616224
O O6 0.609049 0.882126 0.903922
O O7 0.665095 0.075955 0.569736
O O8 0.500000 0.000000 0.000000
O O9 0.878227 0.670539 0.357561
O O10 0.000000 0.500000 0.000000
O O11 0.734471 0.598561 0.266927
O O12 0.766836 0.329399 0.257591
O O13 0.847251 0.548381 0.180424
O O14 0.274208 0.325528 0.368600
O O15 0.790385 0.428410 0.567260
#
# Coordination Sequence:
#
# PCOD9248721 Si02
#       7
#     4   4   4   4   4   4   4
#     4  11  24  45  70  97 138 189 240 297 356 417
#     4  11  25  49  75 109 148 178 235 289 349 429
#     4  11  25  44  65 100 142 183 246 299 348 411
#     4  12  22  43  75  98 134 191 239 282 365 414
#     4  11  24  47  73 106 140 191 228 278 360 424
#     4  10  22  43  71 101 140 183 233 295 357 418
#     4  10  24  43  68  99 141 188 235 291 347 429
#
# _framework density 21.591125000000002
#
# number of rings (size 3 to 8) (size 9 to 14) (size 15 to 20)
#    0.000    1.143    2.857    3.429    0.000    4.571 
#    2.571    8.571    0.000    0.000    0.000    0.000 
#    0.000    0.000    0.000    0.000    0.000    0.000 
#
# Total GULP energy -156836.925740 kJ/mol
# GULP energy per Si atom -5601.318776 kJ/mol
# Density = 2.154198 g / cm^3
# Si number density = 21.591125 Si / 1000 Ang^3
#
#
#
# Elastic Constant Matrix: (Units=GPa)
#
#
# Indices 1 2 3 4 5 6 
#
# 1 164.0654 55.0190 78.6264 0.0000 3.3170 0.0000
# 2 55.0190 103.3815 55.6895 0.0000 0.5029 0.0000
# 3 78.6264 55.6895 117.0565 0.0000 -0.5084 0.0000
# 4 0.0000 0.0000 0.0000 28.2362 0.0000 -7.9897
# 5 3.3170 0.5029 -0.5084 0.0000 47.5950 0.0000
# 6 0.0000 0.0000 0.0000 -7.9897 0.0000 36.4558
#
#
#
# Elastic Compliance Matrix: (Units=1/GPa)
#
#
# Indices 1 2 3 4 5 6 
#
# 1 0.009349 -0.002135 -0.005267 0.000000 -0.000685 0.000000
# 2 -0.002135 0.013496 -0.004987 0.000000 -0.000047 0.000000
# 3 -0.005267 -0.004987 0.014456 0.000000 0.000574 0.000000
# 4 0.000000 0.000000 0.000000 0.037757 0.000000 0.008275
# 5 -0.000685 -0.000047 0.000574 0.000000 0.021065 0.000000
# 6 0.000000 0.000000 0.000000 0.008275 0.000000 0.029244
#
#
# Mechanical properties :
#
#
# Convention : Reuss Voigt Hill
#
# Bulk Modulus (GPa) = 79.85313 84.79701 82.32507
# Shear Modulus (GPa) = 32.40066 35.46863 33.93465
#
# Velocity S-wave (km/s) = 3.87802 4.05747 3.96876
# Velocity P-wave (km/s) = 7.55755 7.83007 7.69502
#
# Compressibility (1/GPa) = 0.01252299
#
# Stress axis : x y z
#
# Youngs Moduli (GPa) = 106.96220 74.09846 69.17729
#
# Poissons Ratio (x) = 0.15820 0.36436
# Poissons Ratio (y) = 0.22836 0.34496
# Poissons Ratio (z) = 0.56337 0.36950
#
# Static dielectric constant tensor:
#      x y z
#    x 1.775130 0.000000 0.011060 
#    y 0.000000 1.796200 0.000000 
#    z 0.011060 0.000000 1.778070 
# 
# From -- ./inp_files/19701.got.cif
#   From: 2010.05.17/outbox.cif.g08.bks.cpg/sg14_10_cif.got.tgz:19701.got - 2010.06.03 17:49:19.
