data_PCOD9248014
_publ_section_title
;
Structure prediction by ZEFSAII (Michael W. Deem and Ramdas Pophale) SiO2 
 PCOD9248014
Probable space group: P 21/C
;
_chemical_formula_sum "Si O2"
_cell_formula_units_Z 32
_cell_length_a 10.876132
_cell_length_b 8.022215
_cell_length_c 15.055436
_cell_angle_alpha 90.000000
_cell_angle_beta 102.916023
_cell_angle_gamma 90.000000
_cell_volume 1280.361189
_symmetry_space_group_name_H-M "P 21/C"
_symmetry_group_IT_number 14
_symmetry_cell_setting 'monoclinic'
loop_
_space_group_symop_operation_xyz
x,y,z
-x,1/2+y,1/2-z
-x,-y,-z
x,1/2-y,1/2+z
loop_
_atom_site_type_symbol
_atom_site_label
_atom_site_fract_x
_atom_site_fract_y
_atom_site_fract_z
Si Si1 0.321395 0.739589 0.752885
Si Si2 0.661369 0.625516 0.027605
Si Si3 0.454143 0.112523 0.311945
Si Si4 0.147705 0.570750 0.583153
Si Si5 0.277273 0.280850 0.146624
Si Si6 0.041584 0.058007 0.674958
Si Si7 0.210361 0.765672 0.420631
Si Si8 0.086966 0.297810 0.372825
O O1 0.412406 0.860027 0.712869
O O2 0.397535 0.568216 0.782327
O O3 0.205739 0.681669 0.673422
O O4 0.274875 0.801318 0.841128
O O5 0.552485 0.640745 0.083478
O O6 0.720175 0.439930 0.043930
O O7 0.772962 0.751886 0.074773
O O8 0.634069 0.673967 0.922131
O O9 0.357419 0.239470 0.246914
O O10 0.198073 0.386950 0.612419
O O11 0.207329 0.642033 0.502658
O O12 0.998977 0.608319 0.569219
O O13 0.169097 0.419224 0.139941
O O14 0.078376 0.099029 0.781344
O O15 0.933997 0.186517 0.625789
O O16 0.976624 0.880891 0.655529
#
# Coordination Sequence:
#
# PCOD9248014 Si02
#       8
#     4   4   4   4   4   4   4   4
#     4  10  23  43  62  84 119 157 201 251 298 349
#     4  10  22  41  61  87 123 159 195 243 299 356
#     4  10  23  43  62  84 119 157 201 251 298 349
#     4  11  23  40  61  91 124 155 198 248 296 354
#     4  11  23  40  61  91 124 155 198 248 296 354
#     4  11  21  37  62  90 124 160 196 240 297 357
#     4  10  22  41  61  87 123 159 195 243 299 356
#     4  11  21  37  62  90 124 160 196 240 297 357
#
# _framework density 24.992946
#
# number of rings (size 3 to 8) (size 9 to 14) (size 15 to 20)
#    0.000    1.500    2.500    2.250    0.000    9.000 
#    0.000    5.000    0.000    0.000    0.000    0.000 
#    0.000    0.000    0.000    0.000    0.000    0.000 
#
# Total GULP energy -179538.643824 kJ/mol
# GULP energy per Si atom -5610.582619 kJ/mol
# Density = 2.493606 g / cm^3
# Si number density = 24.992946 Si / 1000 Ang^3
#
#
#
# Elastic Constant Matrix: (Units=GPa)
#
#
# Indices 1 2 3 4 5 6 
#
# 1 79.2632 -3.6176 17.5051 0.0000 -6.9767 0.0000
# 2 -3.6176 62.8115 16.2697 0.0000 -3.9243 0.0000
# 3 17.5051 16.2697 129.7675 0.0000 -32.3450 0.0000
# 4 0.0000 0.0000 0.0000 37.6239 0.0000 -4.9074
# 5 -6.9767 -3.9243 -32.3450 0.0000 44.0793 0.0000
# 6 0.0000 0.0000 0.0000 -4.9074 0.0000 36.9835
#
#
#
# Elastic Compliance Matrix: (Units=1/GPa)
#
#
# Indices 1 2 3 4 5 6 
#
# 1 0.013131 0.001254 -0.001692 0.000000 0.000948 0.000000
# 2 0.001254 0.016575 -0.002240 0.000000 0.000031 0.000000
# 3 -0.001692 -0.002240 0.009911 0.000000 0.006806 0.000000
# 4 0.000000 0.000000 0.000000 0.027047 0.000000 0.003589
# 5 0.000948 0.000031 0.006806 0.000000 0.027833 0.000000
# 6 0.000000 0.000000 0.000000 0.003589 0.000000 0.027515
#
#
# Mechanical properties :
#
#
# Convention : Reuss Voigt Hill
#
# Bulk Modulus (GPa) = 29.18754 36.90627 33.04690
# Shear Modulus (GPa) = 36.02603 39.84968 37.93785
#
# Velocity S-wave (km/s) = 3.80076 3.99737 3.90030
# Velocity P-wave (km/s) = 5.56459 6.00866 5.79089
#
# Compressibility (1/GPa) = 0.03426120
#
# Stress axis : x y z
#
# Youngs Moduli (GPa) = 76.15808 60.33223 100.89292
#
# Poissons Ratio (x) = -0.07564 0.17072
# Poissons Ratio (y) = -0.09549 0.22596
# Poissons Ratio (z) = 0.12887 0.13512
#
# Static dielectric constant tensor:
#      x y z
#    x 1.951530 0.000000 0.011620 
#    y 0.000000 1.969900 0.000000 
#    z 0.011620 0.000000 1.961890 
# 
# From -- ./inp_files/43759.got.cif
#   From: 2010.05.17/outbox.cif.g08.bks.cpg/sg14_22_cif.got.tgz:43759.got - 2010.06.03 17:49:19.
