data_PCOD9248631
_publ_section_title
;
Structure prediction by ZEFSAII (Michael W. Deem and Ramdas Pophale) SiO2 
 PCOD9248631
Probable space group: P 21/C
;
_chemical_formula_sum "Si O2"
_cell_formula_units_Z 12
_cell_length_a 8.764027
_cell_length_b 5.092927
_cell_length_c 12.931652
_cell_angle_alpha 90.000000
_cell_angle_beta 129.728846
_cell_angle_gamma 90.000000
_cell_volume 443.910563
_symmetry_space_group_name_H-M "P 21/C"
_symmetry_group_IT_number 14
_symmetry_cell_setting 'monoclinic'
loop_
_space_group_symop_operation_xyz
x,y,z
-x,1/2+y,1/2-z
-x,-y,-z
x,1/2-y,1/2+z
loop_
_atom_site_type_symbol
_atom_site_label
_atom_site_fract_x
_atom_site_fract_y
_atom_site_fract_z
Si Si1 0.322306 0.889748 0.206737
Si Si2 0.343623 0.583295 0.020184
Si Si3 0.083088 0.084331 0.648256
O O1 0.316574 0.849539 0.078634
O O2 0.240745 0.641892 0.237026
O O3 0.549874 0.925559 0.339463
O O4 0.184837 0.134243 0.181103
O O5 0.500000 0.500000 0.000000
O O6 0.122958 0.546813 0.880454
O O7 0.000000 0.000000 0.500000
#
# Coordination Sequence:
#
# PCOD9248631 Si02
#       3
#     4   4   4
#     4  11  24  45  66  98 142 177 224 288 345 409
#     4  11  24  44  73 103 136 186 238 285 348 422
#     4  10  22  43  67  95 138 181 220 283 351 405
#
# _framework density 27.03247
#
# number of rings (size 3 to 8) (size 9 to 14) (size 15 to 20)
#    0.000    1.333    0.000    8.000    0.000    5.333 
#    0.000   38.333    0.000    0.000    0.000    0.000 
#    0.000    0.000    0.000    0.000    0.000    0.000 
#
# Total GULP energy -66835.072783 kJ/mol
# GULP energy per Si atom -5569.589399 kJ/mol
# Density = 2.697094 g / cm^3
# Si number density = 27.032470 Si / 1000 Ang^3
#
#
#
# Elastic Constant Matrix: (Units=GPa)
#
#
# Indices 1 2 3 4 5 6 
#
# 1 252.9468 101.7035 48.9483 0.0000 27.0475 0.0000
# 2 101.7035 165.7578 29.6408 0.0000 40.2519 0.0000
# 3 48.9483 29.6408 64.0894 0.0000 22.5643 0.0000
# 4 0.0000 0.0000 0.0000 48.9266 0.0000 16.5563
# 5 27.0475 40.2519 22.5643 0.0000 76.0041 0.0000
# 6 0.0000 0.0000 0.0000 16.5563 0.0000 32.5515
#
#
#
# Elastic Compliance Matrix: (Units=1/GPa)
#
#
# Indices 1 2 3 4 5 6 
#
# 1 0.005750 -0.003093 -0.003146 0.000000 0.000526 0.000000
# 2 -0.003093 0.008859 -0.000526 0.000000 -0.003435 0.000000
# 3 -0.003146 -0.000526 0.019829 0.000000 -0.004489 0.000000
# 4 0.000000 0.000000 0.000000 0.024688 0.000000 -0.012557
# 5 0.000526 -0.003435 -0.004489 0.000000 0.016122 0.000000
# 6 0.000000 0.000000 0.000000 -0.012557 0.000000 0.037107
#
#
# Mechanical properties :
#
#
# Convention : Reuss Voigt Hill
#
# Bulk Modulus (GPa) = 47.82626 93.70881 70.76753
# Shear Modulus (GPa) = 37.63562 51.66319 44.64940
#
# Velocity S-wave (km/s) = 3.73532 4.37642 4.06851
# Velocity P-wave (km/s) = 6.02777 7.76388 6.95025
#
# Compressibility (1/GPa) = 0.02090901
#
# Stress axis : x y z
#
# Youngs Moduli (GPa) = 173.92814 112.88388 50.42997
#
# Poissons Ratio (x) = 0.34913 0.15865
# Poissons Ratio (y) = 0.53793 0.02650
# Poissons Ratio (z) = 0.54716 0.05933
#
# Static dielectric constant tensor:
#      x y z
#    x 2.429610 0.000000 0.016380 
#    y 0.000000 2.412410 0.000000 
#    z 0.016380 0.000000 2.171690 
# 
# From -- ./inp_files/38259.got.cif
#   From: 2010.05.17/outbox.cif.g08.bks.cpg/sg14_20_cif.got.tgz:38259.got - 2010.06.03 17:49:19.
