data_PCOD9248679
_publ_section_title
;
Structure prediction by ZEFSAII (Michael W. Deem and Ramdas Pophale) SiO2 
 PCOD9248679
Probable space group: P 21/C
;
_chemical_formula_sum "Si O2"
_cell_formula_units_Z 24
_cell_length_a 11.999491
_cell_length_b 10.662886
_cell_length_c 18.357407
_cell_angle_alpha 90.000000
_cell_angle_beta 156.022551
_cell_angle_gamma 90.000000
_cell_volume 954.504764
_symmetry_space_group_name_H-M "P 21/C"
_symmetry_group_IT_number 14
_symmetry_cell_setting 'monoclinic'
loop_
_space_group_symop_operation_xyz
x,y,z
-x,1/2+y,1/2-z
-x,-y,-z
x,1/2-y,1/2+z
loop_
_atom_site_type_symbol
_atom_site_label
_atom_site_fract_x
_atom_site_fract_y
_atom_site_fract_z
Si Si1 0.245266 0.342701 0.083460
Si Si2 0.568444 0.238951 0.389245
Si Si3 0.577562 0.984664 0.959894
Si Si4 0.277644 0.622665 0.134525
Si Si5 0.987486 0.728279 0.701181
Si Si6 0.594886 0.637794 0.076259
O O1 0.485683 0.240296 0.250045
O O2 0.362044 0.481514 0.156214
O O3 0.115193 0.296045 0.932628
O O4 0.023318 0.339850 0.014220
O O5 0.586556 0.378258 0.428020
O O6 0.826209 0.160970 0.519943
O O7 0.362026 0.156171 0.312159
O O8 0.400343 0.902382 0.795797
O O9 0.500000 0.000000 0.000000
O O10 0.866638 0.911865 0.131437
O O11 0.837015 0.807944 0.673456
O O12 0.314407 0.719439 0.899189
O O13 0.500000 0.500000 0.000000
#
# Coordination Sequence:
#
# PCOD9248679 Si02
#       6
#     4   4   4   4   4   4
#     4  10  23  42  72  96 144 195 243 305 375 445
#     4  11  24  43  70 106 145 192 250 308 377 447
#     4  11  23  43  73 105 149 205 245 303 387 446
#     4  10  22  43  69 104 142 192 251 301 375 450
#     4  12  26  49  73 109 154 197 261 313 372 456
#     4  12  30  47  76 111 154 197 257 314 379 452
#
# _framework density 25.143927999999999
#
# number of rings (size 3 to 8) (size 9 to 14) (size 15 to 20)
#    0.000    1.000    3.333    2.000    4.667    1.333 
#    0.000    1.667    0.000    0.000    0.000    0.000 
#    0.000    0.000    0.000    0.000    0.000    0.000 
#
# Total GULP energy -133632.478660 kJ/mol
# GULP energy per Si atom -5568.019944 kJ/mol
# Density = 2.508670 g / cm^3
# Si number density = 25.143928 Si / 1000 Ang^3
#
#
#
# Elastic Constant Matrix: (Units=GPa)
#
#
# Indices 1 2 3 4 5 6 
#
# 1 163.7391 88.8134 16.5318 0.0000 -23.1390 0.0000
# 2 88.8134 175.6277 53.8318 0.0000 -15.0791 0.0000
# 3 16.5318 53.8318 96.5200 0.0000 2.7950 0.0000
# 4 0.0000 0.0000 0.0000 33.3655 0.0000 -7.5348
# 5 -23.1390 -15.0791 2.7950 0.0000 28.1606 0.0000
# 6 0.0000 0.0000 0.0000 -7.5348 0.0000 47.6893
#
#
#
# Elastic Compliance Matrix: (Units=1/GPa)
#
#
# Indices 1 2 3 4 5 6 
#
# 1 0.009146 -0.004420 0.000752 0.000000 0.005074 0.000000
# 2 -0.004420 0.009502 -0.004598 0.000000 0.001913 0.000000
# 3 0.000752 -0.004598 0.012887 0.000000 -0.003124 0.000000
# 4 0.000000 0.000000 0.000000 0.031080 0.000000 0.004911
# 5 0.005074 0.001913 -0.003124 0.000000 0.041014 0.000000
# 6 0.000000 0.000000 0.000000 0.004911 0.000000 0.021745
#
#
# Mechanical properties :
#
#
# Convention : Reuss Voigt Hill
#
# Bulk Modulus (GPa) = 66.65594 83.80454 75.23024
# Shear Modulus (GPa) = 34.03509 40.29039 37.16274
#
# Velocity S-wave (km/s) = 3.68314 4.00733 3.84865
# Velocity P-wave (km/s) = 6.68241 7.40364 7.05225
#
# Compressibility (1/GPa) = 0.01500241
#
# Stress axis : x y z
#
# Youngs Moduli (GPa) = 109.34198 105.23557 77.59867
#
# Poissons Ratio (x) = 0.46510 -0.05832
# Poissons Ratio (y) = 0.48325 0.35682
# Poissons Ratio (z) = -0.08218 0.48390
#
# Static dielectric constant tensor:
#      x y z
#    x 2.089190 0.000000 -0.244080 
#    y 0.000000 2.003780 0.000000 
#    z -0.244080 0.000000 2.423100 
# 
# From -- ./inp_files/57757.got.cif
#   From: 2010.05.17/outbox.cif.g08.bks.cpg/sg14_29_cif.got.tgz:57757.got - 2010.06.03 17:49:19.
