data_PCOD9248591
_publ_section_title
;
Structure prediction by ZEFSAII (Michael W. Deem and Ramdas Pophale) SiO2 
 PCOD9248591
Probable space group: P 21/C
;
_chemical_formula_sum "Si O2"
_cell_formula_units_Z 30
_cell_length_a 13.982635
_cell_length_b 13.200349
_cell_length_c 8.050097
_cell_angle_alpha 90.000000
_cell_angle_beta 50.083043
_cell_angle_gamma 90.000000
_cell_volume 1139.611737
_symmetry_space_group_name_H-M "P 21/C"
_symmetry_group_IT_number 14
_symmetry_cell_setting 'monoclinic'
loop_
_space_group_symop_operation_xyz
x,y,z
-x,1/2+y,1/2-z
-x,-y,-z
x,1/2-y,1/2+z
loop_
_atom_site_type_symbol
_atom_site_label
_atom_site_fract_x
_atom_site_fract_y
_atom_site_fract_z
Si Si1 0.249861 0.381996 0.730286
Si Si2 0.317143 0.844273 0.249971
Si Si3 0.000000 0.000000 0.500000
Si Si4 0.858401 0.274434 0.774451
Si Si5 0.509885 0.148007 0.430760
Si Si6 0.492773 0.036366 0.788588
Si Si7 0.984282 0.386594 0.338733
Si Si8 0.759912 0.826323 0.386871
O O1 0.367383 0.411799 0.489437
O O2 0.284963 0.343890 0.875237
O O3 0.191666 0.286417 0.699026
O O4 0.142860 0.464008 0.875023
O O5 0.209249 0.836684 0.507978
O O6 0.239600 0.812509 0.174338
O O7 0.417227 0.752999 0.161690
O O8 0.399019 0.943649 0.195941
O O9 0.036531 0.980333 0.258642
O O10 0.891311 0.347651 0.585133
O O11 0.973550 0.208819 0.718384
O O12 0.543114 0.092942 0.565929
O O13 0.360540 0.158737 0.592048
O O14 0.536606 0.075773 0.243842
O O15 0.119461 0.395332 0.272106
#
# Coordination Sequence:
#
# PCOD9248591 Si02
#       8
#     4   4   2   4   4   4   4   4
#     4  11  24  41  69  99 137 185 229 284 345 413
#     4  11  22  42  65 100 132 183 219 281 340 412
#     4  10  24  40  66  96 132 168 232 278 336 394
#     4  10  23  39  68  90 135 172 230 267 342 409
#     4  11  25  43  66 105 140 180 229 282 347 414
#     4  11  25  42  68 100 144 182 225 284 349 409
#     4  10  22  43  65  97 127 183 224 288 336 407
#     4  11  23  43  68  97 136 176 233 278 344 412
#
# _framework density 26.324756000000001
#
# number of rings (size 3 to 8) (size 9 to 14) (size 15 to 20)
#    0.000    1.333    2.667    2.400    5.600    2.667 
#    0.000    0.000    0.000   14.400    0.000    0.000 
#    0.000    0.000    0.000    0.000    0.000    0.000 
#
# Total GULP energy -167540.262056 kJ/mol
# GULP energy per Si atom -5584.675402 kJ/mol
# Density = 2.626484 g / cm^3
# Si number density = 26.324756 Si / 1000 Ang^3
#
#
#
# Elastic Constant Matrix: (Units=GPa)
#
#
# Indices 1 2 3 4 5 6 
#
# 1 94.0125 7.8627 -5.1228 0.0000 -6.4888 0.0000
# 2 7.8627 57.9143 8.6323 0.0000 11.4230 0.0000
# 3 -5.1228 8.6323 77.7736 0.0000 -0.8097 0.0000
# 4 0.0000 0.0000 0.0000 34.8385 0.0000 5.8737
# 5 -6.4888 11.4230 -0.8097 0.0000 33.2632 0.0000
# 6 0.0000 0.0000 0.0000 5.8737 0.0000 39.8050
#
#
#
# Elastic Compliance Matrix: (Units=1/GPa)
#
#
# Indices 1 2 3 4 5 6 
#
# 1 0.011083 -0.002238 0.001009 0.000000 0.002955 0.000000
# 2 -0.002238 0.019330 -0.002367 0.000000 -0.007133 0.000000
# 3 0.001009 -0.002367 0.013201 0.000000 0.001331 0.000000
# 4 0.000000 0.000000 0.000000 0.029436 0.000000 -0.004344
# 5 0.002955 -0.007133 0.001331 0.000000 0.033122 0.000000
# 6 0.000000 0.000000 0.000000 -0.004344 0.000000 0.025763
#
#
# Mechanical properties :
#
#
# Convention : Reuss Voigt Hill
#
# Bulk Modulus (GPa) = 27.45571 28.04944 27.75257
# Shear Modulus (GPa) = 33.05386 36.13654 34.59520
#
# Velocity S-wave (km/s) = 3.54732 3.70904 3.62908
# Velocity P-wave (km/s) = 5.21825 5.38711 5.30336
#
# Compressibility (1/GPa) = 0.03642230
#
# Stress axis : x y z
#
# Youngs Moduli (GPa) = 90.22815 51.73204 75.75241
#
# Poissons Ratio (x) = 0.11578 -0.07645
# Poissons Ratio (y) = 0.20193 0.17932
# Poissons Ratio (z) = -0.09106 0.12246
#
# Static dielectric constant tensor:
#      x y z
#    x 2.024330 0.000000 0.040280 
#    y 0.000000 2.180540 0.000000 
#    z 0.040280 0.000000 2.097880 
# 
# From -- ./inp_files/16221.got.cif
#   From: 2010.05.17/outbox.cif.g08.bks.cpg/sg14_9_cif.got.tgz:16221.got - 2010.06.03 17:49:19.
