data_PCOD9248269
_publ_section_title
;
Structure prediction by ZEFSAII (Michael W. Deem and Ramdas Pophale) SiO2 
 PCOD9248269
Probable space group: P 21/C
;
_chemical_formula_sum "Si O2"
_cell_formula_units_Z 24
_cell_length_a 20.893986
_cell_length_b 5.200939
_cell_length_c 31.745531
_cell_angle_alpha 90.000000
_cell_angle_beta 18.341895
_cell_angle_gamma 90.000000
_cell_volume 1085.585170
_symmetry_space_group_name_H-M "P 21/C"
_symmetry_group_IT_number 14
_symmetry_cell_setting 'monoclinic'
loop_
_space_group_symop_operation_xyz
x,y,z
-x,1/2+y,1/2-z
-x,-y,-z
x,1/2-y,1/2+z
loop_
_atom_site_type_symbol
_atom_site_label
_atom_site_fract_x
_atom_site_fract_y
_atom_site_fract_z
Si Si1 0.399487 0.739888 0.796821
Si Si2 0.389803 0.683085 0.705518
Si Si3 0.989464 0.952081 0.595376
Si Si4 0.176456 0.947248 0.765951
Si Si5 0.227539 0.492885 0.141206
Si Si6 0.744322 0.490877 0.429063
O O1 0.561478 0.517305 0.706980
O O2 0.400800 0.776543 0.745978
O O3 0.191513 0.618194 0.944457
O O4 0.196713 0.492984 0.820907
O O5 0.330577 0.901702 0.708483
O O6 0.592818 0.549044 0.561897
O O7 0.932328 0.717684 0.661100
O O8 0.982104 0.212658 0.627590
O O9 0.284163 0.942583 0.653710
O O10 0.284468 0.214384 0.087849
O O11 0.979422 0.501370 0.295954
O O12 0.296858 0.717646 0.066635
#
# Coordination Sequence:
#
# PCOD9248269 Si02
#       6
#     4   4   4   4   4   4
#     4  12  28  45  70  99 129 173 218 275 330 394
#     4  10  27  42  69  98 132 172 223 268 328 393
#     4  10  24  44  65  99 129 174 209 277 322 389
#     4  10  23  41  69  93 132 177 209 271 322 390
#     4  10  22  42  61  96 133 176 213 269 319 379
#     4  10  23  39  65  94 133 171 221 265 318 383
#
# _framework density 22.107890999999999
#
# number of rings (size 3 to 8) (size 9 to 14) (size 15 to 20)
#    1.000    0.667    0.000    2.500    9.333    2.000 
#    0.000    0.000    0.000    0.000    0.000    0.000 
#    0.000    0.000    0.000    0.000    0.000    0.000 
#
# Total GULP energy -134134.118689 kJ/mol
# GULP energy per Si atom -5588.921612 kJ/mol
# Density = 2.205757 g / cm^3
# Si number density = 22.107891 Si / 1000 Ang^3
#
#
#
# Elastic Constant Matrix: (Units=GPa)
#
#
# Indices 1 2 3 4 5 6 
#
# 1 83.5753 25.5018 8.6888 0.0000 22.7083 0.0000
# 2 25.5018 90.7449 -17.7302 0.0000 -4.8415 0.0000
# 3 8.6888 -17.7302 72.2857 0.0000 4.5112 0.0000
# 4 0.0000 0.0000 0.0000 23.8422 0.0000 14.5240
# 5 22.7083 -4.8415 4.5112 0.0000 23.7794 0.0000
# 6 0.0000 0.0000 0.0000 14.5240 0.0000 9.4091
#
#
#
# Elastic Compliance Matrix: (Units=1/GPa)
#
#
# Indices 1 2 3 4 5 6 
#
# 1 0.019878 -0.007218 -0.002918 -0.000001 -0.019898 0.000001
# 2 -0.007218 0.014276 0.003803 0.000000 0.009078 0.000000
# 3 -0.002918 0.003803 0.015074 0.000000 0.000701 0.000000
# 4 -0.000001 0.000000 0.000000 0.702885 0.000001 -1.084983
# 5 -0.019898 0.009078 0.000701 0.000001 0.062770 -0.000002
# 6 0.000001 0.000000 0.000000 -1.084983 -0.000002 1.781075
#
#
# Mechanical properties :
#
#
# Convention : Reuss Voigt Hill
#
# Bulk Modulus (GPa) = 27.35191 31.05851 29.20521
# Shear Modulus (GPa) = 1.90781 26.74919 14.32850
#
# Velocity S-wave (km/s) = 0.92996 3.48219 2.54858
# Velocity P-wave (km/s) = 3.68130 5.49969 4.67967
#
# Compressibility (1/GPa) = 0.03656052
#
# Stress axis : x y z
#
# Youngs Moduli (GPa) = 50.30786 70.04946 66.34079
#
# Poissons Ratio (x) = 0.50561 0.19358
# Poissons Ratio (y) = 0.36312 -0.25227
# Poissons Ratio (z) = 0.14679 -0.26637
#
# Static dielectric constant tensor:
#      x y z
#    x 1.802580 0.000000 -0.063580 
#    y 0.000000 1.775220 0.000000 
#    z -0.063580 0.000000 1.820350 
# 
# From -- ./inp_files/80449.got.cif
#   From: 2010.05.17/outbox.cif.g08.bks.cpg/sg14_41_cif.got.tgz:80449.got - 2010.06.03 17:49:19.
