data_PCOD9248247
_publ_section_title
;
Structure prediction by ZEFSAII (Michael W. Deem and Ramdas Pophale) SiO2 
 PCOD9248247
Probable space group: P 21/C
;
_chemical_formula_sum "Si O2"
_cell_formula_units_Z 20
_cell_length_a 18.360420
_cell_length_b 7.042358
_cell_length_c 9.764802
_cell_angle_alpha 90.000000
_cell_angle_beta 38.064638
_cell_angle_gamma 90.000000
_cell_volume 778.453197
_symmetry_space_group_name_H-M "P 21/C"
_symmetry_group_IT_number 14
_symmetry_cell_setting 'monoclinic'
loop_
_space_group_symop_operation_xyz
x,y,z
-x,1/2+y,1/2-z
-x,-y,-z
x,1/2-y,1/2+z
loop_
_atom_site_type_symbol
_atom_site_label
_atom_site_fract_x
_atom_site_fract_y
_atom_site_fract_z
Si Si1 0.177501 0.789366 0.383675
Si Si2 0.001802 0.966221 0.238882
Si Si3 0.587937 0.656349 0.027929
Si Si4 0.155403 0.095668 0.782070
Si Si5 0.563497 0.280786 0.483015
O O1 0.118166 0.840810 0.091309
O O2 0.078642 0.951122 0.522498
O O3 0.182734 0.632363 0.256069
O O4 0.306008 0.864157 0.228832
O O5 0.911763 0.873064 0.260199
O O6 0.065868 0.123586 0.041890
O O7 0.499815 0.654445 0.285846
O O8 0.591051 0.445617 0.958732
O O9 0.720612 0.700381 0.880957
O O10 0.528311 0.793587 0.005080
#
# Coordination Sequence:
#
# PCOD9248247 Si02
#       5
#     4   4   4   4   4
#     4   9  19  36  59  82 114 150 193 241 290 353
#     4   9  18  37  59  79 114 154 185 242 298 339
#     4  10  22  42  59  88 121 159 196 252 292 355
#     4   8  19  37  56  78 121 144 192 244 291 342
#     4  10  23  40  62  87 124 156 201 246 298 349
#
# _framework density 25.691973999999998
#
# number of rings (size 3 to 8) (size 9 to 14) (size 15 to 20)
#    1.200    1.600    0.000    0.000    5.600    2.400 
#    3.600    1.000    0.000    0.000    0.000    0.000 
#    0.000    0.000    0.000    0.000    0.000    0.000 
#
# Total GULP energy -111547.337930 kJ/mol
# GULP energy per Si atom -5577.366896 kJ/mol
# Density = 2.563350 g / cm^3
# Si number density = 25.691974 Si / 1000 Ang^3
#
#
#
# Elastic Constant Matrix: (Units=GPa)
#
#
# Indices 1 2 3 4 5 6 
#
# 1 149.2052 29.5777 80.4843 0.0000 -26.3656 0.0000
# 2 29.5777 46.4361 9.5814 0.0000 -10.1220 0.0000
# 3 80.4843 9.5814 151.2066 0.0000 -46.6280 0.0000
# 4 0.0000 0.0000 0.0000 60.5821 0.0000 27.4917
# 5 -26.3656 -10.1220 -46.6280 0.0000 48.0597 0.0000
# 6 0.0000 0.0000 0.0000 27.4917 0.0000 98.8044
#
#
#
# Elastic Compliance Matrix: (Units=1/GPa)
#
#
# Indices 1 2 3 4 5 6 
#
# 1 0.010738 -0.005853 -0.005577 0.000000 -0.000752 0.000000
# 2 -0.005853 0.025762 0.003091 0.000000 0.005213 0.000000
# 3 -0.005577 0.003091 0.012333 0.000000 0.009557 0.000000
# 4 0.000000 0.000000 0.000000 0.018892 0.000000 -0.005257
# 5 -0.000752 0.005213 0.009557 0.000000 0.030765 0.000000
# 6 0.000000 0.000000 0.000000 -0.005257 0.000000 0.011584
#
#
# Mechanical properties :
#
#
# Convention : Reuss Voigt Hill
#
# Bulk Modulus (GPa) = 31.09953 65.12610 48.11281
# Shear Modulus (GPa) = 36.37188 56.63620 46.50404
#
# Velocity S-wave (km/s) = 3.76665 4.70023 4.25910
# Velocity P-wave (km/s) = 5.57206 7.40676 6.55393
#
# Compressibility (1/GPa) = 0.03215483
#
# Stress axis : x y z
#
# Youngs Moduli (GPa) = 93.13119 38.81745 81.08233
#
# Poissons Ratio (x) = 0.22719 0.45216
# Poissons Ratio (y) = 0.54507 -0.25059
# Poissons Ratio (z) = 0.51935 -0.11997
#
# Static dielectric constant tensor:
#      x y z
#    x 1.974970 0.000000 0.001180 
#    y 0.000000 2.360220 0.000000 
#    z 0.001180 0.000000 1.961540 
# 
# From -- ./inp_files/17653.got.cif
#   From: 2010.05.17/outbox.cif.g08.bks.cpg/sg14_9_cif.got.tgz:17653.got - 2010.06.03 17:49:19.
