data_PCOD9248944
_publ_section_title
;
Structure prediction by ZEFSAII (Michael W. Deem and Ramdas Pophale) SiO2 
 PCOD9248944
Probable space group: P 21/C
;
_chemical_formula_sum "Si O2"
_cell_formula_units_Z 32
_cell_length_a 8.236653
_cell_length_b 13.491561
_cell_length_c 19.059607
_cell_angle_alpha 90.000000
_cell_angle_beta 40.345479
_cell_angle_gamma 90.000000
_cell_volume 1371.185526
_symmetry_space_group_name_H-M "P 21/C"
_symmetry_group_IT_number 14
_symmetry_cell_setting 'monoclinic'
loop_
_space_group_symop_operation_xyz
x,y,z
-x,1/2+y,1/2-z
-x,-y,-z
x,1/2-y,1/2+z
loop_
_atom_site_type_symbol
_atom_site_label
_atom_site_fract_x
_atom_site_fract_y
_atom_site_fract_z
Si Si1 0.539037 0.580518 0.385002
Si Si2 0.884662 0.053655 0.862628
Si Si3 0.070362 0.230752 0.266005
Si Si4 0.217731 0.759632 0.272694
Si Si5 0.722933 0.421517 0.150587
Si Si6 0.010412 0.129942 0.421135
Si Si7 0.168355 0.920953 0.884206
Si Si8 0.712213 0.828629 0.120719
O O1 0.349492 0.587345 0.512143
O O2 0.762219 0.507860 0.338215
O O3 0.378034 0.545068 0.371301
O O4 0.651597 0.686492 0.327101
O O5 0.027353 0.153487 0.794159
O O6 0.069293 0.113063 0.990385
O O7 0.965569 0.215613 0.223091
O O8 0.931571 0.161109 0.368886
O O9 0.111836 0.852675 0.351282
O O10 0.054480 0.512712 0.358901
O O11 0.474940 0.796376 0.151123
O O12 0.805525 0.534603 0.135915
O O13 0.792098 0.394081 0.048374
O O14 0.447712 0.383104 0.264812
O O15 0.723887 0.176000 0.189670
O O16 0.155866 0.228934 0.396675
#
# Coordination Sequence:
#
# PCOD9248944 Si02
#       8
#     4   4   4   4   4   4   4   4
#     4  11  27  48  77 115 151 203 259 317 391 472
#     4  11  28  49  77 118 155 200 258 330 388 459
#     4  12  27  47  74 112 158 201 252 322 395 460
#     4  10  24  44  71 110 158 201 255 315 387 458
#     4   9  24  44  74 105 149 206 250 315 390 460
#     4  11  22  46  73 106 153 194 264 316 379 472
#     4  12  23  50  78 118 156 198 263 322 389 463
#     4  10  22  44  75 112 145 202 254 318 379 467
#
# _framework density 23.33747
#
# number of rings (size 3 to 8) (size 9 to 14) (size 15 to 20)
#    0.750    0.500    2.500    1.875    7.000    0.000 
#    6.750    0.000    0.000    2.250    0.000    0.000 
#    0.000    0.000    0.000    0.000    0.000    0.000 
#
# Total GULP energy -178740.483376 kJ/mol
# GULP energy per Si atom -5585.640106 kJ/mol
# Density = 2.328435 g / cm^3
# Si number density = 23.337470 Si / 1000 Ang^3
#
#
#
# Elastic Constant Matrix: (Units=GPa)
#
#
# Indices 1 2 3 4 5 6 
#
# 1 130.2739 66.6468 25.3332 0.0000 2.5750 0.0000
# 2 66.6468 168.9958 57.0622 0.0000 2.1589 0.0000
# 3 25.3332 57.0622 95.6699 0.0000 1.0477 0.0000
# 4 0.0000 0.0000 0.0000 51.2789 0.0000 2.3804
# 5 2.5750 2.1589 1.0477 0.0000 32.1427 0.0000
# 6 0.0000 0.0000 0.0000 2.3804 0.0000 44.8481
#
#
#
# Elastic Compliance Matrix: (Units=1/GPa)
#
#
# Indices 1 2 3 4 5 6 
#
# 1 0.009634 -0.003673 -0.000355 0.000000 -0.000514 0.000000
# 2 -0.003673 0.008814 -0.004283 0.000000 -0.000158 0.000000
# 3 -0.000355 -0.004283 0.013102 0.000000 -0.000111 0.000000
# 4 0.000000 0.000000 0.000000 0.019549 0.000000 -0.001038
# 5 -0.000514 -0.000158 -0.000111 0.000000 0.031167 0.000000
# 6 0.000000 0.000000 0.000000 -0.001038 0.000000 0.022353
#
#
# Mechanical properties :
#
#
# Convention : Reuss Voigt Hill
#
# Bulk Modulus (GPa) = 66.98190 77.00267 71.99229
# Shear Modulus (GPa) = 39.61437 42.04711 40.83074
#
# Velocity S-wave (km/s) = 4.12449 4.24925 4.18733
# Velocity P-wave (km/s) = 7.17256 7.55922 7.36843
#
# Compressibility (1/GPa) = 0.01492941
#
# Stress axis : x y z
#
# Youngs Moduli (GPa) = 103.79442 113.45581 76.32331
#
# Poissons Ratio (x) = 0.41675 0.02707
# Poissons Ratio (y) = 0.38126 0.32687
# Poissons Ratio (z) = 0.03681 0.48590
#
# Static dielectric constant tensor:
#      x y z
#    x 1.904890 0.000000 -0.003830 
#    y 0.000000 1.954460 0.000000 
#    z -0.003830 0.000000 1.888490 
# 
# From -- ./inp_files/76697.got.cif
#   From: 2010.05.17/outbox.cif.g08.bks.cpg/sg14_39_cif.got.tgz:76697.got - 2010.06.03 17:49:19.
