data_PCOD9248943
_publ_section_title
;
Structure prediction by ZEFSAII (Michael W. Deem and Ramdas Pophale) SiO2 
 PCOD9248943
Probable space group: P 21/C
;
_chemical_formula_sum "Si O2"
_cell_formula_units_Z 30
_cell_length_a 7.885290
_cell_length_b 6.726537
_cell_length_c 23.193496
_cell_angle_alpha 90.000000
_cell_angle_beta 84.738153
_cell_angle_gamma 90.000000
_cell_volume 1225.015070
_symmetry_space_group_name_H-M "P 21/C"
_symmetry_group_IT_number 14
_symmetry_cell_setting 'monoclinic'
loop_
_space_group_symop_operation_xyz
x,y,z
-x,1/2+y,1/2-z
-x,-y,-z
x,1/2-y,1/2+z
loop_
_atom_site_type_symbol
_atom_site_label
_atom_site_fract_x
_atom_site_fract_y
_atom_site_fract_z
Si Si1 0.270064 0.107696 0.803596
Si Si2 0.679438 0.106308 0.558715
Si Si3 0.091472 0.628488 0.387475
Si Si4 0.670522 0.973595 0.378129
Si Si5 0.831003 0.777755 0.477020
Si Si6 0.349839 0.747257 0.719242
Si Si7 0.500000 0.500000 0.500000
Si Si8 0.816589 0.663764 0.294514
O O1 0.447916 0.223228 0.796346
O O2 0.138943 0.210759 0.763584
O O3 0.197550 0.069948 0.869306
O O4 0.311702 0.896520 0.772101
O O5 0.772051 0.196678 0.611444
O O6 0.507319 0.998294 0.584420
O O7 0.614041 0.295860 0.522367
O O8 0.805246 0.942591 0.527127
O O9 0.993038 0.649868 0.451098
O O10 0.963891 0.641484 0.337116
O O11 0.805438 0.917790 0.421678
O O12 0.670099 0.787716 0.333582
O O13 0.718419 0.158241 0.337940
O O14 0.673760 0.625713 0.485938
O O15 0.260784 0.537828 0.726315
#
# Coordination Sequence:
#
# PCOD9248943 Si02
#       8
#     4   4   4   4   4   4   2   4
#     4  11  24  42  68  95 129 177 229 284 334 410
#     4  11  23  42  70 102 137 183 229 284 346 411
#     4  11  26  42  65 100 143 177 224 280 353 415
#     4   9  21  40  68  99 124 171 228 275 331 404
#     4  10  23  45  68 101 140 182 228 283 342 412
#     4  11  22  43  70  95 128 176 230 279 334 409
#     4  10  22  44  74  98 134 174 238 280 326 406
#     4  10  23  43  62  94 135 172 223 282 344 407
#
# _framework density 24.489495999999999
#
# number of rings (size 3 to 8) (size 9 to 14) (size 15 to 20)
#    0.000    1.600    1.333    2.800    3.733    9.067 
#    0.000    8.000    0.000    0.000    0.000    0.000 
#    0.000    0.000    0.000    0.000    0.000    0.000 
#
# Total GULP energy -167049.512462 kJ/mol
# GULP energy per Si atom -5568.317082 kJ/mol
# Density = 2.443376 g / cm^3
# Si number density = 24.489496 Si / 1000 Ang^3
#
#
#
# Elastic Constant Matrix: (Units=GPa)
#
#
# Indices 1 2 3 4 5 6 
#
# 1 73.5616 13.6574 10.9379 0.0000 -11.2808 0.0000
# 2 13.6574 101.6921 51.2704 0.0000 -4.0872 0.0000
# 3 10.9379 51.2704 78.0945 0.0000 -3.9284 0.0000
# 4 0.0000 0.0000 0.0000 34.7445 0.0000 13.2691
# 5 -11.2808 -4.0872 -3.9284 0.0000 29.2887 0.0000
# 6 0.0000 0.0000 0.0000 13.2691 0.0000 5.6654
#
#
#
# Elastic Compliance Matrix: (Units=1/GPa)
#
#
# Indices 1 2 3 4 5 6 
#
# 1 0.014803 -0.001290 -0.000955 0.000000 0.005393 0.000000
# 2 -0.001290 0.014828 -0.009540 0.000000 0.000293 0.000000
# 3 -0.000955 -0.009540 0.019246 0.000000 0.000882 0.000000
# 4 0.000000 0.000000 0.000000 0.272707 0.000000 -0.638710
# 5 0.005393 0.000293 0.000882 0.000000 0.036379 0.000000
# 6 0.000000 0.000000 0.000000 -0.638710 0.000000 1.672435
#
#
# Mechanical properties :
#
#
# Convention : Reuss Voigt Hill
#
# Bulk Modulus (GPa) = 39.51345 45.00886 42.26116
# Shear Modulus (GPa) = 2.42436 25.77189 14.09812
#
# Velocity S-wave (km/s) = 0.99605 3.24754 2.40194
# Velocity P-wave (km/s) = 4.18243 5.69919 4.99867
#
# Compressibility (1/GPa) = 0.02530784
#
# Stress axis : x y z
#
# Youngs Moduli (GPa) = 67.55573 67.43916 51.95860
#
# Poissons Ratio (x) = 0.08697 0.04964
# Poissons Ratio (y) = 0.08712 0.49566
# Poissons Ratio (z) = 0.06454 0.64334
#
# Static dielectric constant tensor:
#      x y z
#    x 1.973620 0.000000 -0.005030 
#    y 0.000000 1.982800 0.000000 
#    z -0.005030 0.000000 1.991250 
# 
# From -- ./inp_files/79224.got.cif
#   From: 2010.05.17/outbox.cif.g08.bks.cpg/sg14_40_cif.got.tgz:79224.got - 2010.06.03 17:49:19.
