data_PCOD9248695
_publ_section_title
;
Structure prediction by ZEFSAII (Michael W. Deem and Ramdas Pophale) SiO2 
 PCOD9248695
Probable space group: P 21/C
;
_chemical_formula_sum "Si O2"
_cell_formula_units_Z 28
_cell_length_a 14.394485
_cell_length_b 10.842577
_cell_length_c 10.024276
_cell_angle_alpha 90.000000
_cell_angle_beta 62.737564
_cell_angle_gamma 90.000000
_cell_volume 1390.731320
_symmetry_space_group_name_H-M "P 21/C"
_symmetry_group_IT_number 14
_symmetry_cell_setting 'monoclinic'
loop_
_space_group_symop_operation_xyz
x,y,z
-x,1/2+y,1/2-z
-x,-y,-z
x,1/2-y,1/2+z
loop_
_atom_site_type_symbol
_atom_site_label
_atom_site_fract_x
_atom_site_fract_y
_atom_site_fract_z
Si Si1 0.090257 0.677941 0.127720
Si Si2 0.778328 0.550063 0.684335
Si Si3 0.719442 0.204668 0.133552
Si Si4 0.392591 0.488650 0.407152
Si Si5 0.202937 0.418014 0.029980
Si Si6 0.046957 0.216044 0.022218
Si Si7 0.634507 0.463353 0.271992
O O1 0.194180 0.758579 0.032723
O O2 0.010866 0.722182 0.064645
O O3 0.125554 0.536662 0.086110
O O4 0.033456 0.697641 0.304772
O O5 0.768027 0.401363 0.695860
O O6 0.688093 0.582579 0.636254
O O7 0.761804 0.604565 0.841310
O O8 0.891389 0.592503 0.559701
O O9 0.624889 0.131552 0.125303
O O10 0.684142 0.326984 0.231390
O O11 0.512809 0.453890 0.313438
O O12 0.360648 0.481575 0.582601
O O13 0.137869 0.306517 0.013271
O O14 0.299996 0.454721 0.873903
#
# Coordination Sequence:
#
# PCOD9248695 Si02
#       7
#     4   4   4   4   4   4   4
#     4  11  25  39  66  93 133 176 216 262 323 385
#     4  10  24  43  64  97 129 171 215 273 322 380
#     4   9  23  40  69  94 132 166 216 264 322 395
#     4   9  23  42  68  97 129 168 210 278 321 386
#     4  11  25  41  65  97 128 172 223 265 322 394
#     4  12  25  42  62  97 133 176 214 272 318 384
#     4  10  22  43  69  99 125 171 217 265 335 383
#
# _framework density 20.133292000000001
#
# number of rings (size 3 to 8) (size 9 to 14) (size 15 to 20)
#    0.857    0.857    1.429    1.286   12.000    2.857 
#    0.000    2.857    0.000    0.000    0.000    0.000 
#    0.000    0.000    0.000    0.000    0.000    0.000 
#
# Total GULP energy -156331.123845 kJ/mol
# GULP energy per Si atom -5583.254423 kJ/mol
# Density = 2.008747 g / cm^3
# Si number density = 20.133292 Si / 1000 Ang^3
#
#
#
# Elastic Constant Matrix: (Units=GPa)
#
#
# Indices 1 2 3 4 5 6 
#
# 1 125.7744 23.6195 64.9245 0.0000 13.9242 0.0000
# 2 23.6195 32.3330 7.9535 0.0000 -5.1035 0.0000
# 3 64.9245 7.9535 118.9405 0.0000 0.3681 0.0000
# 4 0.0000 0.0000 0.0000 11.2253 0.0000 -2.3745
# 5 13.9242 -5.1035 0.3681 0.0000 24.3579 0.0000
# 6 0.0000 0.0000 0.0000 -2.3745 0.0000 25.5107
#
#
#
# Elastic Compliance Matrix: (Units=1/GPa)
#
#
# Indices 1 2 3 4 5 6 
#
# 1 0.015013 -0.010833 -0.007437 0.000000 -0.010740 0.000000
# 2 -0.010833 0.040367 0.003169 0.000000 0.014603 0.000000
# 3 -0.007437 0.003169 0.012241 0.000000 0.004731 0.000000
# 4 0.000000 0.000000 0.000000 0.090874 0.000000 0.008458
# 5 -0.010740 0.014603 0.004731 0.000000 0.050182 0.000000
# 6 0.000000 0.000000 0.000000 0.008458 0.000000 0.039987
#
#
# Mechanical properties :
#
#
# Convention : Reuss Voigt Hill
#
# Bulk Modulus (GPa) = 26.72526 52.22698 39.47612
# Shear Modulus (GPa) = 17.16213 24.25547 20.70880
#
# Velocity S-wave (km/s) = 2.92280 3.47471 3.21064
# Velocity P-wave (km/s) = 4.96924 6.48807 5.77877
#
# Compressibility (1/GPa) = 0.03741778
#
# Stress axis : x y z
#
# Youngs Moduli (GPa) = 66.60778 24.77267 81.69380
#
# Poissons Ratio (x) = 0.26836 0.60759
# Poissons Ratio (y) = 0.72156 -0.25886
# Poissons Ratio (z) = 0.49539 -0.07850
#
# Static dielectric constant tensor:
#      x y z
#    x 1.704450 0.000000 0.023060 
#    y 0.000000 1.714650 0.000000 
#    z 0.023060 0.000000 1.678950 
# 
# From -- ./inp_files/15457.got.cif
#   From: 2010.05.17/outbox.cif.g08.bks.cpg/sg14_8_cif.got.tgz:15457.got - 2010.06.03 17:49:19.
