data_PCOD9248644
_publ_section_title
;
Structure prediction by ZEFSAII (Michael W. Deem and Ramdas Pophale) SiO2 
 PCOD9248644
Probable space group: P 21/C
;
_chemical_formula_sum "Si O2"
_cell_formula_units_Z 28
_cell_length_a 5.946847
_cell_length_b 18.747227
_cell_length_c 12.576482
_cell_angle_alpha 90.000000
_cell_angle_beta 53.466750
_cell_angle_gamma 90.000000
_cell_volume 1126.613869
_symmetry_space_group_name_H-M "P 21/C"
_symmetry_group_IT_number 14
_symmetry_cell_setting 'monoclinic'
loop_
_space_group_symop_operation_xyz
x,y,z
-x,1/2+y,1/2-z
-x,-y,-z
x,1/2-y,1/2+z
loop_
_atom_site_type_symbol
_atom_site_label
_atom_site_fract_x
_atom_site_fract_y
_atom_site_fract_z
Si Si1 0.508842 0.324026 0.799056
Si Si2 0.981397 0.825018 0.180496
Si Si3 0.893110 0.674747 0.290634
Si Si4 0.316926 0.174470 0.921089
Si Si5 0.623436 0.043466 0.867439
Si Si6 0.431563 0.386290 0.043522
Si Si7 0.931051 0.021458 0.400543
O O1 0.323279 0.343559 0.746712
O O2 0.490273 0.237524 0.814817
O O3 0.823462 0.357246 0.727964
O O4 0.359218 0.351083 0.950472
O O5 0.035265 0.746755 0.208136
O O6 0.977140 0.817173 0.055353
O O7 0.688723 0.843258 0.323662
O O8 0.178035 0.890503 0.154840
O O9 0.696466 0.684247 0.449444
O O10 0.393301 0.091984 0.873824
O O11 0.793792 0.988791 0.747204
O O12 0.500000 0.000000 0.000000
O O13 0.273218 0.461858 0.091197
O O14 0.761342 0.404616 0.952577
O O15 0.000000 0.000000 0.500000
#
# Coordination Sequence:
#
# PCOD9248644 Si02
#       7
#     4   4   4   4   4   4   4
#     4  11  25  42  71 104 140 182 238 294 358 432
#     4  10  22  46  68  99 142 183 236 299 362 428
#     4  11  25  43  70 106 143 184 231 295 365 434
#     4  11  24  44  67 102 141 184 235 298 370 432
#     4  11  25  43  66 100 142 189 239 299 366 428
#     4  10  22  43  68 100 134 187 241 293 352 424
#     4  10  23  43  69  97 138 185 245 293 352 427
#
# _framework density 24.853232999999999
#
# number of rings (size 3 to 8) (size 9 to 14) (size 15 to 20)
#    0.000    1.429    2.857    0.857    6.000    0.571 
#    0.000    0.000    0.000    0.000    0.000    0.000 
#    0.000    0.000    0.000    0.000    0.000    0.000 
#
# Total GULP energy -155949.195106 kJ/mol
# GULP energy per Si atom -5569.614111 kJ/mol
# Density = 2.479667 g / cm^3
# Si number density = 24.853233 Si / 1000 Ang^3
#
#
#
# Elastic Constant Matrix: (Units=GPa)
#
#
# Indices 1 2 3 4 5 6 
#
# 1 113.7668 21.3517 44.1460 0.0000 17.3621 0.0000
# 2 21.3517 78.3146 5.8085 0.0000 0.5451 0.0000
# 3 44.1460 5.8085 127.2735 0.0000 22.1416 0.0000
# 4 0.0000 0.0000 0.0000 32.7313 0.0000 3.7134
# 5 17.3621 0.5451 22.1416 0.0000 40.0514 0.0000
# 6 0.0000 0.0000 0.0000 3.7134 0.0000 35.3571
#
#
#
# Elastic Compliance Matrix: (Units=1/GPa)
#
#
# Indices 1 2 3 4 5 6 
#
# 1 0.010988 -0.002740 -0.003169 0.000000 -0.002974 0.000000
# 2 -0.002740 0.013497 0.000177 0.000000 0.000906 0.000000
# 3 -0.003169 0.000177 0.009636 0.000000 -0.003956 0.000000
# 4 0.000000 0.000000 0.000000 0.030920 0.000000 -0.003247
# 5 -0.002974 0.000906 -0.003956 0.000000 0.028432 0.000000
# 6 0.000000 0.000000 0.000000 -0.003247 0.000000 0.028624
#
#
# Mechanical properties :
#
#
# Convention : Reuss Voigt Hill
#
# Bulk Modulus (GPa) = 44.13701 51.32972 47.73336
# Shear Modulus (GPa) = 35.43269 38.16454 36.79862
#
# Velocity S-wave (km/s) = 3.77991 3.92292 3.85208
# Velocity P-wave (km/s) = 6.07025 6.42005 6.24760
#
# Compressibility (1/GPa) = 0.02265672
#
# Stress axis : x y z
#
# Youngs Moduli (GPa) = 91.01164 74.09271 103.77356
#
# Poissons Ratio (x) = 0.20301 0.32883
# Poissons Ratio (y) = 0.24937 -0.01834
# Poissons Ratio (z) = 0.28839 -0.01310
#
# Static dielectric constant tensor:
#      x y z
#    x 2.125060 0.000000 -0.096630 
#    y 0.000000 1.996430 0.000000 
#    z -0.096630 0.000000 1.987710 
# 
# From -- ./inp_files/21697.got.cif
#   From: 2010.05.17/outbox.cif.g08.bks.cpg/sg14_11_cif.got.tgz:21697.got - 2010.06.03 17:49:19.
