data_PCOD9248187
_publ_section_title
;
Structure prediction by ZEFSAII (Michael W. Deem and Ramdas Pophale) SiO2 
 PCOD9248187
Probable space group: P 21/C
;
_chemical_formula_sum "Si O2"
_cell_formula_units_Z 28
_cell_length_a 20.779192
_cell_length_b 8.094104
_cell_length_c 11.339032
_cell_angle_alpha 90.000000
_cell_angle_beta 145.323077
_cell_angle_gamma 90.000000
_cell_volume 1085.041262
_symmetry_space_group_name_H-M "P 21/C"
_symmetry_group_IT_number 14
_symmetry_cell_setting 'monoclinic'
loop_
_space_group_symop_operation_xyz
x,y,z
-x,1/2+y,1/2-z
-x,-y,-z
x,1/2-y,1/2+z
loop_
_atom_site_type_symbol
_atom_site_label
_atom_site_fract_x
_atom_site_fract_y
_atom_site_fract_z
Si Si1 0.102672 0.602480 0.276017
Si Si2 0.636542 0.149880 0.235163
Si Si3 0.355031 0.498892 0.700355
Si Si4 0.039680 0.240590 0.241554
Si Si5 0.415189 0.071792 0.052825
Si Si6 0.156599 0.940645 0.281690
Si Si7 0.755000 0.678746 0.275247
O O1 0.231365 0.541416 0.460922
O O2 0.037507 0.425303 0.181036
O O3 0.071415 0.685982 0.354803
O O4 0.094585 0.762532 0.178304
O O5 0.622083 0.342311 0.187440
O O6 0.642163 0.059989 0.119534
O O7 0.743315 0.097889 0.474818
O O8 0.528893 0.110831 0.154796
O O9 0.440440 0.487506 0.722116
O O10 0.334285 0.345889 0.752811
O O11 0.081658 0.088530 0.224217
O O12 0.133748 0.253380 0.490847
O O13 0.318283 0.210393 0.923113
O O14 0.207411 0.016702 0.238999
#
# Coordination Sequence:
#
# PCOD9248187 Si02
#       7
#     4   4   4   4   4   4   4
#     4  10  22  41  68  94 133 176 227 274 340 407
#     4  10  25  43  69  97 134 178 226 282 339 408
#     4  10  25  44  65  99 137 173 226 278 340 412
#     4  11  21  44  66  99 132 179 225 283 337 411
#     4  11  24  44  68 100 133 177 230 278 348 401
#     4  11  23  45  65  96 140 177 222 289 335 407
#     4  11  24  41  69  96 137 176 227 280 345 403
#
# _framework density 25.805472000000002
#
# number of rings (size 3 to 8) (size 9 to 14) (size 15 to 20)
#    0.000    1.429    2.857    1.714    6.000    2.286 
#    0.000    2.857    0.000    0.000    0.000    0.000 
#    0.000    0.000    0.000    0.000    0.000    0.000 
#
# Total GULP energy -156580.513362 kJ/mol
# GULP energy per Si atom -5592.161192 kJ/mol
# Density = 2.574674 g / cm^3
# Si number density = 25.805472 Si / 1000 Ang^3
#
#
#
# Elastic Constant Matrix: (Units=GPa)
#
#
# Indices 1 2 3 4 5 6 
#
# 1 128.8560 37.8579 11.1619 0.0000 2.2523 0.0000
# 2 37.8579 149.0901 33.4369 0.0000 -5.1710 0.0000
# 3 11.1619 33.4369 82.8456 0.0000 -1.6954 0.0000
# 4 0.0000 0.0000 0.0000 25.9421 0.0000 -12.5001
# 5 2.2523 -5.1710 -1.6954 0.0000 10.3499 0.0000
# 6 0.0000 0.0000 0.0000 -12.5001 0.0000 43.4423
#
#
#
# Elastic Compliance Matrix: (Units=1/GPa)
#
#
# Indices 1 2 3 4 5 6 
#
# 1 0.008483 -0.002186 -0.000322 0.000000 -0.002991 0.000000
# 2 -0.002186 0.008046 -0.002870 0.000000 0.004025 0.000000
# 3 -0.000322 -0.002870 0.013289 0.000000 0.000813 0.000000
# 4 0.000000 0.000000 0.000000 0.044752 0.000000 0.012877
# 5 -0.002991 0.004025 0.000813 0.000000 0.099414 0.000000
# 6 0.000000 0.000000 0.000000 0.012877 0.000000 0.026724
#
#
# Mechanical properties :
#
#
# Convention : Reuss Voigt Hill
#
# Bulk Modulus (GPa) = 52.46104 58.41169 55.43637
# Shear Modulus (GPa) = 22.95492 34.50253 28.72873
#
# Velocity S-wave (km/s) = 2.98575 3.66050 3.34021
# Velocity P-wave (km/s) = 5.67977 6.36791 6.03366
#
# Compressibility (1/GPa) = 0.01906176
#
# Stress axis : x y z
#
# Youngs Moduli (GPa) = 117.88453 124.29013 75.24905
#
# Poissons Ratio (x) = 0.27164 0.02423
# Poissons Ratio (y) = 0.25764 0.21600
# Poissons Ratio (z) = 0.03796 0.35677
#
# Static dielectric constant tensor:
#      x y z
#    x 1.949410 0.000000 -0.013780 
#    y 0.000000 2.045180 0.000000 
#    z -0.013780 0.000000 2.092130 
# 
# From -- ./inp_files/34998.got.cif
#   From: 2010.05.17/outbox.cif.g08.bks.cpg/sg14_18_cif.got.tgz:34998.got - 2010.06.03 17:49:19.
