data_PCOD9248629
_publ_section_title
;
Structure prediction by ZEFSAII (Michael W. Deem and Ramdas Pophale) SiO2 
 PCOD9248629
Probable space group: P 21/C
;
_chemical_formula_sum "Si O2"
_cell_formula_units_Z 20
_cell_length_a 21.439889
_cell_length_b 7.040409
_cell_length_c 13.675330
_cell_angle_alpha 90.000000
_cell_angle_beta 155.951389
_cell_angle_gamma 90.000000
_cell_volume 841.197899
_symmetry_space_group_name_H-M "P 21/C"
_symmetry_group_IT_number 14
_symmetry_cell_setting 'monoclinic'
loop_
_space_group_symop_operation_xyz
x,y,z
-x,1/2+y,1/2-z
-x,-y,-z
x,1/2-y,1/2+z
loop_
_atom_site_type_symbol
_atom_site_label
_atom_site_fract_x
_atom_site_fract_y
_atom_site_fract_z
Si Si1 0.834592 0.431357 0.860596
Si Si2 0.621930 0.213457 0.217962
Si Si3 0.322253 0.876438 0.484941
Si Si4 0.599731 0.876684 0.744426
Si Si5 0.859104 0.732921 0.259515
O O1 0.749093 0.398293 0.839307
O O2 0.730097 0.329258 0.628209
O O3 0.856539 0.646248 0.856469
O O4 0.992529 0.314294 0.082988
O O5 0.609089 0.136892 0.308729
O O6 0.670068 0.435641 0.296724
O O7 0.532452 0.767444 0.067007
O O8 0.451034 0.943902 0.593682
O O9 0.174006 0.011861 0.270360
O O10 0.715386 0.785595 0.985350
#
# Coordination Sequence:
#
# PCOD9248629 Si02
#       5
#     4   4   4   4   4
#     4  10  24  45  63  95 137 170 222 268 328 401
#     4  10  22  43  67  95 131 171 217 274 322 398
#     4  11  22  43  67  96 132 172 219 277 329 386
#     4  10  22  43  67  97 134 170 223 276 325 393
#     4  11  23  42  67  93 132 178 211 276 333 384
#
# _framework density 23.775618999999999
#
# number of rings (size 3 to 8) (size 9 to 14) (size 15 to 20)
#    0.000    1.600    2.000    1.800    2.800    2.400 
#   10.800    0.000    0.000    0.000    0.000    0.000 
#    0.000    0.000    0.000    0.000    0.000    0.000 
#
# Total GULP energy -111940.787226 kJ/mol
# GULP energy per Si atom -5597.039361 kJ/mol
# Density = 2.372150 g / cm^3
# Si number density = 23.775619 Si / 1000 Ang^3
#
#
#
# Elastic Constant Matrix: (Units=GPa)
#
#
# Indices 1 2 3 4 5 6 
#
# 1 132.5625 22.5246 20.6128 0.0000 -7.4483 0.0000
# 2 22.5246 66.5634 -5.1705 0.0000 4.5173 0.0000
# 3 20.6128 -5.1705 59.3216 0.0000 -3.6084 0.0000
# 4 0.0000 0.0000 0.0000 37.6963 0.0000 -6.7639
# 5 -7.4483 4.5173 -3.6084 0.0000 25.8296 0.0000
# 6 0.0000 0.0000 0.0000 -6.7639 0.0000 21.5005
#
#
#
# Elastic Compliance Matrix: (Units=1/GPa)
#
#
# Indices 1 2 3 4 5 6 
#
# 1 0.008765 -0.003395 -0.003179 0.000000 0.002677 0.000000
# 2 -0.003395 0.016600 0.002411 0.000000 -0.003545 0.000000
# 3 -0.003179 0.002411 0.018246 0.000000 0.001211 0.000000
# 4 0.000000 0.000000 0.000000 0.028115 0.000000 0.008845
# 5 0.002677 -0.003545 0.001211 0.000000 0.040276 0.000000
# 6 0.000000 0.000000 0.000000 0.008845 0.000000 0.049293
#
#
# Mechanical properties :
#
#
# Convention : Reuss Voigt Hill
#
# Bulk Modulus (GPa) = 28.34037 37.15347 32.74692
# Shear Modulus (GPa) = 27.56615 31.70399 29.63507
#
# Velocity S-wave (km/s) = 3.40873 3.65563 3.53434
# Velocity P-wave (km/s) = 5.23817 5.78609 5.51893
#
# Compressibility (1/GPa) = 0.03528535
#
# Stress axis : x y z
#
# Youngs Moduli (GPa) = 114.08867 60.24144 54.80791
#
# Poissons Ratio (x) = 0.20450 0.17422
# Poissons Ratio (y) = 0.38729 -0.13213
# Poissons Ratio (z) = 0.36265 -0.14523
#
# Static dielectric constant tensor:
#      x y z
#    x 1.860520 0.000000 0.000180 
#    y 0.000000 1.977610 0.000000 
#    z 0.000180 0.000000 1.881680 
# 
# From -- ./inp_files/49761.got.cif
#   From: 2010.05.17/outbox.cif.g08.bks.cpg/sg14_25_cif.got.tgz:49761.got - 2010.06.03 17:49:19.
