data_PCOD9248659
_publ_section_title
;
Structure prediction by ZEFSAII (Michael W. Deem and Ramdas Pophale) SiO2 
 PCOD9248659
Probable space group: P 21/C
;
_chemical_formula_sum "Si O2"
_cell_formula_units_Z 28
_cell_length_a 8.018343
_cell_length_b 17.323744
_cell_length_c 12.880669
_cell_angle_alpha 90.000000
_cell_angle_beta 133.484623
_cell_angle_gamma 90.000000
_cell_volume 1298.188005
_symmetry_space_group_name_H-M "P 21/C"
_symmetry_group_IT_number 14
_symmetry_cell_setting 'monoclinic'
loop_
_space_group_symop_operation_xyz
x,y,z
-x,1/2+y,1/2-z
-x,-y,-z
x,1/2-y,1/2+z
loop_
_atom_site_type_symbol
_atom_site_label
_atom_site_fract_x
_atom_site_fract_y
_atom_site_fract_z
Si Si1 0.205099 0.197362 0.227405
Si Si2 0.770130 0.495804 0.615158
Si Si3 0.680832 0.379486 0.889725
Si Si4 0.567819 0.557411 0.812618
Si Si5 0.902840 0.876030 0.284030
Si Si6 0.900911 0.413264 0.472465
Si Si7 0.953603 0.885711 0.629862
O O1 0.473427 0.178839 0.322591
O O2 0.150803 0.286648 0.220764
O O3 0.122538 0.161542 0.301973
O O4 0.073443 0.156554 0.072847
O O5 0.500000 0.500000 0.500000
O O6 0.867253 0.584056 0.655601
O O7 0.798059 0.430195 0.541293
O O8 0.918615 0.460907 0.771956
O O9 0.568279 0.463867 0.818178
O O10 0.857121 0.354822 0.872458
O O11 0.845319 0.389020 0.059984
O O12 0.709726 0.582739 0.772231
O O13 0.313437 0.593109 0.697055
O O14 0.723281 0.589965 0.971595
O O15 0.000000 0.500000 0.500000
#
# Coordination Sequence:
#
# PCOD9248659 Si02
#       7
#     4   4   4   4   4   4   4
#     4  11  27  41  66 103 139 169 223 288 335 391
#     4  11  20  38  68  92 124 174 223 266 324 403
#     4  11  21  44  72  93 129 179 226 266 334 405
#     4  11  20  43  72  92 129 180 227 271 328 408
#     4  11  23  42  68  99 134 176 216 285 345 385
#     4  11  23  40  65 103 131 169 228 280 325 396
#     4  10  22  43  68  95 126 178 227 266 328 412
#
# _framework density 21.568525000000001
#
# number of rings (size 3 to 8) (size 9 to 14) (size 15 to 20)
#    0.000    1.143    5.714    0.857    2.000    1.714 
#    5.143    2.857    0.000    0.000    0.000    0.000 
#    0.000    0.000    0.000    0.000    0.000    0.000 
#
# Total GULP energy -155931.011596 kJ/mol
# GULP energy per Si atom -5568.964700 kJ/mol
# Density = 2.151943 g / cm^3
# Si number density = 21.568525 Si / 1000 Ang^3
#
#
#
# Elastic Constant Matrix: (Units=GPa)
#
#
# Indices 1 2 3 4 5 6 
#
# 1 39.8204 3.9798 26.0345 0.0000 15.5797 0.0000
# 2 3.9798 88.7135 40.7715 0.0000 4.6864 0.0000
# 3 26.0345 40.7715 166.2388 0.0000 28.9676 0.0000
# 4 0.0000 0.0000 0.0000 19.8298 0.0000 -3.2456
# 5 15.5797 4.6864 28.9676 0.0000 30.0722 0.0000
# 6 0.0000 0.0000 0.0000 -3.2456 0.0000 15.6294
#
#
#
# Elastic Compliance Matrix: (Units=1/GPa)
#
#
# Indices 1 2 3 4 5 6 
#
# 1 0.032418 0.000553 -0.002729 0.000000 -0.014252 0.000000
# 2 0.000553 0.012751 -0.003386 0.000000 0.000988 0.000000
# 3 -0.002729 -0.003386 0.008334 0.000000 -0.006086 0.000000
# 4 0.000000 0.000000 0.000000 0.052203 0.000000 0.010840
# 5 -0.014252 0.000988 -0.006086 0.000000 0.046346 0.000000
# 6 0.000000 0.000000 0.000000 0.010840 0.000000 0.066233
#
#
# Mechanical properties :
#
#
# Convention : Reuss Voigt Hill
#
# Bulk Modulus (GPa) = 23.59681 48.48269 36.03975
# Shear Modulus (GPa) = 20.53080 28.03875 24.28478
#
# Velocity S-wave (km/s) = 3.08861 3.60944 3.35914
# Velocity P-wave (km/s) = 4.86657 6.31649 5.63833
#
# Compressibility (1/GPa) = 0.04237860
#
# Stress axis : x y z
#
# Youngs Moduli (GPa) = 30.84705 78.42231 119.99237
#
# Poissons Ratio (x) = -0.04335 0.32746
# Poissons Ratio (y) = -0.01705 0.40632
# Poissons Ratio (z) = 0.08418 0.26555
#
# Static dielectric constant tensor:
#      x y z
#    x 1.855940 0.000000 -0.071130 
#    y 0.000000 1.844150 0.000000 
#    z -0.071130 0.000000 1.816290 
# 
# From -- ./inp_files/41808.got.cif
#   From: 2010.05.17/outbox.cif.g08.bks.cpg/sg14_21_cif.got.tgz:41808.got - 2010.06.03 17:49:19.
