data_PCOD9248658
_publ_section_title
;
Structure prediction by ZEFSAII (Michael W. Deem and Ramdas Pophale) SiO2 
 PCOD9248658
Probable space group: P 21/C
;
_chemical_formula_sum "Si O2"
_cell_formula_units_Z 26
_cell_length_a 11.185380
_cell_length_b 9.643421
_cell_length_c 16.468208
_cell_angle_alpha 90.000000
_cell_angle_beta 37.386024
_cell_angle_gamma 90.000000
_cell_volume 1078.567010
_symmetry_space_group_name_H-M "P 21/C"
_symmetry_group_IT_number 14
_symmetry_cell_setting 'monoclinic'
loop_
_space_group_symop_operation_xyz
x,y,z
-x,1/2+y,1/2-z
-x,-y,-z
x,1/2-y,1/2+z
loop_
_atom_site_type_symbol
_atom_site_label
_atom_site_fract_x
_atom_site_fract_y
_atom_site_fract_z
Si Si1 0.094066 0.823888 0.507418
Si Si2 0.305113 0.471173 0.781676
Si Si3 0.253695 0.552306 0.473347
Si Si4 0.809654 0.371463 0.305907
Si Si5 0.000000 0.000000 0.000000
Si Si6 0.671224 0.078090 0.312569
Si Si7 0.767686 0.968340 0.434373
O O1 0.249351 0.889642 0.361294
O O2 0.102403 0.658002 0.506831
O O3 0.157153 0.891463 0.559889
O O4 0.876800 0.871366 0.600880
O O5 0.525273 0.420581 0.672578
O O6 0.283433 0.508430 0.698922
O O7 0.227101 0.585780 0.581417
O O8 0.154411 0.420182 0.488023
O O9 0.716862 0.229947 0.324214
O O10 0.043342 0.370141 0.162450
O O11 0.193039 0.974417 0.832445
O O12 0.440090 0.072133 0.414529
O O13 0.718021 0.984078 0.366367
#
# Coordination Sequence:
#
# PCOD9248658 Si02
#       7
#     4   4   4   4   2   4   4
#     4  10  22  44  64  93 131 183 222 281 351 408
#     4  10  24  41  65  96 137 171 228 287 338 413
#     4  12  24  41  68 100 134 179 229 284 345 411
#     4  11  23  44  67 100 140 180 225 278 349 412
#     4  12  26  42  66 106 136 168 236 288 320 408
#     4  11  23  42  69  99 134 185 224 281 342 400
#     4  10  22  43  68  94 137 181 230 275 340 415
#
# _framework density 24.106058000000001
#
# number of rings (size 3 to 8) (size 9 to 14) (size 15 to 20)
#    0.000    1.231    3.077    2.308    0.000    4.923 
#    0.000    1.538    0.000    0.000    0.000    0.000 
#    0.000    0.000    0.000    0.000    0.000    0.000 
#
# Total GULP energy -144999.300052 kJ/mol
# GULP energy per Si atom -5576.896156 kJ/mol
# Density = 2.405119 g / cm^3
# Si number density = 24.106058 Si / 1000 Ang^3
#
#
#
# Elastic Constant Matrix: (Units=GPa)
#
#
# Indices 1 2 3 4 5 6 
#
# 1 103.2324 28.5973 63.7925 0.0000 -6.0840 0.0000
# 2 28.5973 48.5574 28.1536 0.0000 -3.3282 0.0000
# 3 63.7925 28.1536 179.1627 0.0000 -12.9701 0.0000
# 4 0.0000 0.0000 0.0000 7.7006 0.0000 -2.6076
# 5 -6.0840 -3.3282 -12.9701 0.0000 72.0880 0.0000
# 6 0.0000 0.0000 0.0000 -2.6076 0.0000 29.9650
#
#
#
# Elastic Compliance Matrix: (Units=1/GPa)
#
#
# Indices 1 2 3 4 5 6 
#
# 1 0.013757 -0.005784 -0.003976 0.000000 0.000179 0.000000
# 2 -0.005784 0.025103 -0.001861 0.000000 0.000336 0.000000
# 3 -0.003976 -0.001861 0.007355 0.000000 0.000902 0.000000
# 4 0.000000 0.000000 0.000000 0.133803 0.000000 0.011644
# 5 0.000179 0.000336 0.000902 0.000000 0.014065 0.000000
# 6 0.000000 0.000000 0.000000 0.011644 0.000000 0.034386
#
#
# Mechanical properties :
#
#
# Convention : Reuss Voigt Hill
#
# Bulk Modulus (GPa) = 43.53162 63.55991 53.54576
# Shear Modulus (GPa) = 19.27761 35.97798 27.62780
#
# Velocity S-wave (km/s) = 2.83096 3.86746 3.38907
# Velocity P-wave (km/s) = 5.36502 6.80934 6.12986
#
# Compressibility (1/GPa) = 0.02297181
#
# Stress axis : x y z
#
# Youngs Moduli (GPa) = 72.69027 39.83641 135.96091
#
# Poissons Ratio (x) = 0.23042 0.54064
# Poissons Ratio (y) = 0.42046 0.25299
# Poissons Ratio (z) = 0.28905 0.07413
#
# Static dielectric constant tensor:
#      x y z
#    x 2.089890 0.000000 -0.009160 
#    y 0.000000 2.104340 0.000000 
#    z -0.009160 0.000000 1.900430 
# 
# From -- ./inp_files/57678.got.cif
#   From: 2010.05.17/outbox.cif.g08.bks.cpg/sg14_29_cif.got.tgz:57678.got - 2010.06.03 17:49:19.
