data_PCOD9248836
_publ_section_title
;
Structure prediction by ZEFSAII (Michael W. Deem and Ramdas Pophale) SiO2 
 PCOD9248836
Probable space group: P 21/C
;
_chemical_formula_sum "Si O2"
_cell_formula_units_Z 24
_cell_length_a 10.044101
_cell_length_b 16.981421
_cell_length_c 5.270714
_cell_angle_alpha 90.000000
_cell_angle_beta 71.221652
_cell_angle_gamma 90.000000
_cell_volume 851.137033
_symmetry_space_group_name_H-M "P 21/C"
_symmetry_group_IT_number 14
_symmetry_cell_setting 'monoclinic'
loop_
_space_group_symop_operation_xyz
x,y,z
-x,1/2+y,1/2-z
-x,-y,-z
x,1/2-y,1/2+z
loop_
_atom_site_type_symbol
_atom_site_label
_atom_site_fract_x
_atom_site_fract_y
_atom_site_fract_z
Si Si1 0.667019 0.584463 0.844411
Si Si2 0.306244 0.764235 0.471587
Si Si3 0.927805 0.565394 0.288041
Si Si4 0.632804 0.070204 0.703012
Si Si5 0.163841 0.900614 0.051048
Si Si6 0.175102 0.300895 0.972732
O O1 0.799071 0.584729 0.567936
O O2 0.528062 0.588171 0.760490
O O3 0.665992 0.507482 0.023680
O O4 0.680868 0.655479 0.037810
O O5 0.390767 0.745638 0.171604
O O6 0.276125 0.856190 0.461766
O O7 0.182493 0.696565 0.553439
O O8 0.897911 0.474142 0.239724
O O9 0.917093 0.624727 0.058589
O O10 0.065580 0.581491 0.371135
O O11 0.672854 0.075417 0.977952
O O12 0.150636 0.245611 0.746958
#
# Coordination Sequence:
#
# PCOD9248836 Si02
#       6
#     4   4   4   4   4   4
#     4  11  24  47  75 114 157 204 264 324 397 474
#     4  10  22  44  68 106 146 192 246 306 376 456
#     4  11  24  47  75 114 157 204 264 324 397 474
#     4  10  23  45  76 115 154 207 255 329 394 475
#     4  10  23  45  76 115 154 207 255 329 394 475
#     4  12  26  48  72 110 152 204 254 322 394 464
#
# _framework density 28.197575000000001
#
# number of rings (size 3 to 8) (size 9 to 14) (size 15 to 20)
#    0.000    1.333    3.333    1.000    0.000    6.667 
#   12.000    0.000    0.000    0.000    0.000    0.000 
#    0.000    0.000    0.000    0.000    0.000    0.000 
#
# Total GULP energy -133795.600399 kJ/mol
# GULP energy per Si atom -5574.816683 kJ/mol
# Density = 2.813340 g / cm^3
# Si number density = 28.197575 Si / 1000 Ang^3
#
#
#
# Elastic Constant Matrix: (Units=GPa)
#
#
# Indices 1 2 3 4 5 6 
#
# 1 215.6248 62.0407 64.6775 0.0000 44.2487 0.0000
# 2 62.0407 208.1263 50.4441 0.0000 -5.8522 0.0000
# 3 64.6775 50.4441 129.3518 0.0000 28.5580 0.0000
# 4 0.0000 0.0000 0.0000 53.0829 0.0000 17.1753
# 5 44.2487 -5.8522 28.5580 0.0000 32.3239 0.0000
# 6 0.0000 0.0000 0.0000 17.1753 0.0000 50.8481
#
#
#
# Elastic Compliance Matrix: (Units=1/GPa)
#
#
# Indices 1 2 3 4 5 6 
#
# 1 0.007643 -0.002430 -0.000580 0.000000 -0.010390 0.000000
# 2 -0.002430 0.006411 -0.002827 0.000000 0.006985 0.000000
# 3 -0.000580 -0.002827 0.011257 0.000000 -0.009663 0.000000
# 4 0.000000 0.000000 0.000000 0.021150 0.000000 -0.007144
# 5 -0.010390 0.006985 -0.009663 0.000000 0.054962 0.000000
# 6 0.000000 0.000000 0.000000 -0.007144 0.000000 0.022080
#
#
# Mechanical properties :
#
#
# Convention : Reuss Voigt Hill
#
# Bulk Modulus (GPa) = 73.33365 100.82529 87.07947
# Shear Modulus (GPa) = 35.78552 52.31367 44.04959
#
# Velocity S-wave (km/s) = 3.56631 4.31194 3.95673
# Velocity P-wave (km/s) = 6.55908 7.78619 7.19883
#
# Compressibility (1/GPa) = 0.01363631
#
# Stress axis : x y z
#
# Youngs Moduli (GPa) = 130.83922 155.98898 88.83498
#
# Poissons Ratio (x) = 0.37903 0.05154
# Poissons Ratio (y) = 0.31792 0.25115
# Poissons Ratio (z) = 0.07590 0.44100
#
# Static dielectric constant tensor:
#      x y z
#    x 2.153570 0.000000 0.012530 
#    y 0.000000 2.296290 0.000000 
#    z 0.012530 0.000000 2.438340 
# 
# From -- ./inp_files/2665.got.cif
#   From: 2010.05.17/outbox.cif.g08.bks.cpg/sg14_2_cif.got.tgz:2665.got - 2010.06.03 17:49:19.
