data_PCOD9248815
_publ_section_title
;
Structure prediction by ZEFSAII (Michael W. Deem and Ramdas Pophale) SiO2 
 PCOD9248815
Probable space group: P 21/C
;
_chemical_formula_sum "Si O2"
_cell_formula_units_Z 16
_cell_length_a 13.313575
_cell_length_b 8.010188
_cell_length_c 15.790643
_cell_angle_alpha 90.000000
_cell_angle_beta 24.860038
_cell_angle_gamma 90.000000
_cell_volume 707.950836
_symmetry_space_group_name_H-M "P 21/C"
_symmetry_group_IT_number 14
_symmetry_cell_setting 'monoclinic'
loop_
_space_group_symop_operation_xyz
x,y,z
-x,1/2+y,1/2-z
-x,-y,-z
x,1/2-y,1/2+z
loop_
_atom_site_type_symbol
_atom_site_label
_atom_site_fract_x
_atom_site_fract_y
_atom_site_fract_z
Si Si1 0.975713 0.851594 0.449043
Si Si2 0.862597 0.290158 0.519654
Si Si3 0.731266 0.581569 0.369038
Si Si4 0.605018 0.873533 0.158601
O O1 0.720105 0.776715 0.624466
O O2 0.123915 0.713914 0.388238
O O3 0.000000 0.000000 0.500000
O O4 0.091359 0.922492 0.275535
O O5 0.679118 0.150696 0.622759
O O6 0.739112 0.461701 0.587900
O O7 0.125174 0.236291 0.284602
O O8 0.500000 0.500000 0.500000
O O9 0.669806 0.635191 0.510049
#
# Coordination Sequence:
#
# PCOD9248815 Si02
#       4
#     4   4   4   4
#     4  10  22  44  67  94 134 174 222 282 336 399
#     4  11  24  41  68  99 135 180 229 281 341 403
#     4  11  23  43  67  94 137 179 222 281 335 397
#     4  12  24  43  70 100 135 182 229 278 343 408
#
# _framework density 22.600439000000001
#
# number of rings (size 3 to 8) (size 9 to 14) (size 15 to 20)
#    0.000    1.000    2.500    5.250    3.500    0.000 
#    0.000    1.250    0.000    0.000    0.000    0.000 
#    0.000    0.000    0.000    0.000    0.000    0.000 
#
# Total GULP energy -89154.593737 kJ/mol
# GULP energy per Si atom -5572.162109 kJ/mol
# Density = 2.254900 g / cm^3
# Si number density = 22.600439 Si / 1000 Ang^3
#
#
#
# Elastic Constant Matrix: (Units=GPa)
#
#
# Indices 1 2 3 4 5 6 
#
# 1 103.7930 24.6199 27.4820 0.0000 -24.0856 0.0000
# 2 24.6199 79.5518 24.8749 0.0000 -13.6336 0.0000
# 3 27.4820 24.8749 92.1560 0.0000 -27.7630 0.0000
# 4 0.0000 0.0000 0.0000 27.1289 0.0000 -18.0998
# 5 -24.0856 -13.6336 -27.7630 0.0000 44.2527 0.0000
# 6 0.0000 0.0000 0.0000 -18.0998 0.0000 42.1302
#
#
#
# Elastic Compliance Matrix: (Units=1/GPa)
#
#
# Indices 1 2 3 4 5 6 
#
# 1 0.011668 -0.002356 -0.001417 0.000000 0.004736 0.000000
# 2 -0.002356 0.014406 -0.002756 0.000000 0.001427 0.000000
# 3 -0.001417 -0.002756 0.014216 0.000000 0.007299 0.000000
# 4 0.000000 0.000000 0.000000 0.051672 0.000000 0.022199
# 5 0.004736 0.001427 0.007299 0.000000 0.030194 0.000000
# 6 0.000000 0.000000 0.000000 0.022199 0.000000 0.033273
#
#
# Mechanical properties :
#
#
# Convention : Reuss Voigt Hill
#
# Bulk Modulus (GPa) = 36.72172 47.71715 42.21943
# Shear Modulus (GPa) = 28.15895 35.93728 32.04811
#
# Velocity S-wave (km/s) = 3.53363 3.99195 3.76976
# Velocity P-wave (km/s) = 5.73866 6.51205 6.13755
#
# Compressibility (1/GPa) = 0.02723184
#
# Stress axis : x y z
#
# Youngs Moduli (GPa) = 85.70812 69.41586 70.34132
#
# Poissons Ratio (x) = 0.16357 0.09965
# Poissons Ratio (y) = 0.20195 0.19386
# Poissons Ratio (z) = 0.12143 0.19131
#
# Static dielectric constant tensor:
#      x y z
#    x 1.850530 0.000000 0.011570 
#    y 0.000000 2.005420 0.000000 
#    z 0.011570 0.000000 1.877060 
# 
# From -- ./inp_files/27687.got.cif
#   From: 2010.05.17/outbox.cif.g08.bks.cpg/sg14_14_cif.got.tgz:27687.got - 2010.06.03 17:49:19.
