data_PCOD9248145
_publ_section_title
;
Structure prediction by ZEFSAII (Michael W. Deem and Ramdas Pophale) SiO2 
 PCOD9248145
Probable space group: P 21/C
;
_chemical_formula_sum "Si O2"
_cell_formula_units_Z 20
_cell_length_a 9.152160
_cell_length_b 16.855483
_cell_length_c 5.675368
_cell_angle_alpha 90.000000
_cell_angle_beta 92.184222
_cell_angle_gamma 90.000000
_cell_volume 874.869309
_symmetry_space_group_name_H-M "P 21/C"
_symmetry_group_IT_number 14
_symmetry_cell_setting 'monoclinic'
loop_
_space_group_symop_operation_xyz
x,y,z
-x,1/2+y,1/2-z
-x,-y,-z
x,1/2-y,1/2+z
loop_
_atom_site_type_symbol
_atom_site_label
_atom_site_fract_x
_atom_site_fract_y
_atom_site_fract_z
Si Si1 0.897515 0.779701 0.291198
Si Si2 0.231822 0.773931 0.327229
Si Si3 0.413884 0.053698 0.183558
Si Si4 0.311031 0.569447 0.063089
Si Si5 0.132689 0.454529 0.380989
O O1 0.831554 0.755435 0.541956
O O2 0.907344 0.875349 0.267161
O O3 0.063684 0.744906 0.300530
O O4 0.296043 0.732910 0.567729
O O5 0.234400 0.864673 0.404330
O O6 0.545092 0.106054 0.299391
O O7 0.363200 0.998439 0.392084
O O8 0.262643 0.079283 0.057108
O O9 0.500000 0.000000 0.000000
O O10 0.205617 0.525083 0.235729
O O11 0.000000 0.500000 0.500000
#
# Coordination Sequence:
#
# PCOD9248145 Si02
#       5
#     4   4   4   4   4
#     4  10  24  42  60  92 140 171 204 267 333 382
#     4  10  23  39  63  94 130 173 214 266 327 385
#     4   9  21  40  64  90 128 164 215 272 323 371
#     4  10  22  41  66  92 129 169 221 269 319 384
#     4  11  24  38  69  99 125 170 224 263 322 391
#
# _framework density 22.860555000000002
#
# number of rings (size 3 to 8) (size 9 to 14) (size 15 to 20)
#    0.000    2.000    0.000    1.200   16.800    1.600 
#    0.000    2.000    0.000    0.000    0.000    0.000 
#    0.000    0.000    0.000    0.000    0.000    0.000 
#
# Total GULP energy -111420.203054 kJ/mol
# GULP energy per Si atom -5571.010153 kJ/mol
# Density = 2.280852 g / cm^3
# Si number density = 22.860555 Si / 1000 Ang^3
#
#
#
# Elastic Constant Matrix: (Units=GPa)
#
#
# Indices 1 2 3 4 5 6 
#
# 1 82.7191 22.5410 56.4756 0.0000 -2.3029 0.0000
# 2 22.5410 87.4541 33.0727 0.0000 5.6449 0.0000
# 3 56.4756 33.0727 147.9306 0.0000 -4.9690 0.0000
# 4 0.0000 0.0000 0.0000 38.6815 0.0000 12.1916
# 5 -2.3029 5.6449 -4.9690 0.0000 28.9511 0.0000
# 6 0.0000 0.0000 0.0000 12.1916 0.0000 10.1670
#
#
#
# Elastic Compliance Matrix: (Units=1/GPa)
#
#
# Indices 1 2 3 4 5 6 
#
# 1 0.016701 -0.002130 -0.005875 0.000000 0.000735 0.000000
# 2 -0.002130 0.013015 -0.002200 0.000000 -0.003085 0.000000
# 3 -0.005875 -0.002200 0.009548 0.000000 0.001600 0.000000
# 4 0.000000 0.000000 0.000000 0.041559 0.000000 -0.049835
# 5 0.000735 -0.003085 0.001600 0.000000 0.035476 0.000000
# 6 0.000000 0.000000 0.000000 -0.049835 0.000000 0.158116
#
#
# Mechanical properties :
#
#
# Convention : Reuss Voigt Hill
#
# Bulk Modulus (GPa) = 53.04028 60.25361 56.64694
# Shear Modulus (GPa) = 16.60516 29.29421 22.94969
#
# Velocity S-wave (km/s) = 2.69804 3.58359 3.17187
# Velocity P-wave (km/s) = 5.74090 6.59826 6.18446
#
# Compressibility (1/GPa) = 0.01885360
#
# Stress axis : x y z
#
# Youngs Moduli (GPa) = 59.87573 76.83585 104.72883
#
# Poissons Ratio (x) = 0.16369 0.61529
# Poissons Ratio (y) = 0.12756 0.23040
# Poissons Ratio (z) = 0.35177 0.16904
#
# Static dielectric constant tensor:
#      x y z
#    x 1.935290 0.000000 0.082630 
#    y 0.000000 1.843680 0.000000 
#    z 0.082630 0.000000 1.919020 
# 
# From -- ./inp_files/1178.got.cif
#   From: 2010.05.17/outbox.cif.g08.bks.cpg/sg14_1_cif.got.tgz:1178.got - 2010.06.03 17:49:19.
