data_PCOD9248245
_publ_section_title
;
Structure prediction by ZEFSAII (Michael W. Deem and Ramdas Pophale) SiO2 
 PCOD9248245
Probable space group: P 21/C
;
_chemical_formula_sum "Si O2"
_cell_formula_units_Z 28
_cell_length_a 7.394046
_cell_length_b 12.759117
_cell_length_c 15.258796
_cell_angle_alpha 90.000000
_cell_angle_beta 120.390231
_cell_angle_gamma 90.000000
_cell_volume 1241.745104
_symmetry_space_group_name_H-M "P 21/C"
_symmetry_group_IT_number 14
_symmetry_cell_setting 'monoclinic'
loop_
_space_group_symop_operation_xyz
x,y,z
-x,1/2+y,1/2-z
-x,-y,-z
x,1/2-y,1/2+z
loop_
_atom_site_type_symbol
_atom_site_label
_atom_site_fract_x
_atom_site_fract_y
_atom_site_fract_z
Si Si1 0.005021 0.867432 0.760878
Si Si2 0.074615 0.470408 0.153026
Si Si3 0.842490 0.526059 0.381697
Si Si4 0.511100 0.408686 0.575501
Si Si5 0.499806 0.831295 0.464882
Si Si6 0.702362 0.457160 0.942968
Si Si7 0.924232 0.352127 0.255822
O O1 0.925501 0.955516 0.675244
O O2 0.245984 0.896423 0.840307
O O3 0.006510 0.763745 0.704077
O O4 0.897707 0.877671 0.829194
O O5 0.258096 0.532840 0.150505
O O6 0.116098 0.386987 0.238455
O O7 0.927186 0.426595 0.040464
O O8 0.627666 0.552481 0.377296
O O9 0.866607 0.426827 0.321948
O O10 0.000000 0.500000 0.500000
O O11 0.500000 0.500000 0.500000
O O12 0.436982 0.291178 0.526846
O O13 0.636474 0.924809 0.455413
O O14 0.280826 0.838823 0.356163
O O15 0.452890 0.872693 0.552191
#
# Coordination Sequence:
#
# PCOD9248245 Si02
#       7
#     4   4   4   4   4   4   4
#     4  10  22  42  58  88 127 158 207 255 308 375
#     4   9  19  35  59  86 115 155 195 253 303 361
#     4  11  23  41  65  90 125 167 208 262 312 377
#     4  11  23  40  61  91 124 164 205 250 318 368
#     4   9  20  37  59  88 125 155 201 258 300 380
#     4   9  18  36  60  89 116 153 203 248 309 366
#     4   9  21  39  58  86 122 160 203 258 310 366
#
# _framework density 22.548908999999998
#
# number of rings (size 3 to 8) (size 9 to 14) (size 15 to 20)
#    0.000    2.286    1.429    0.000    4.000    2.286 
#    2.571    0.000    0.000    0.000    0.000    0.000 
#    0.000    0.000    0.000    0.000    0.000    0.000 
#
# Total GULP energy -155881.306403 kJ/mol
# GULP energy per Si atom -5567.189514 kJ/mol
# Density = 2.249759 g / cm^3
# Si number density = 22.548909 Si / 1000 Ang^3
#
#
#
# Elastic Constant Matrix: (Units=GPa)
#
#
# Indices 1 2 3 4 5 6 
#
# 1 98.3958 14.4838 46.5163 0.0000 -48.1010 0.0000
# 2 14.4838 127.2773 34.3629 0.0000 -22.7341 0.0000
# 3 46.5163 34.3629 86.0781 0.0000 -26.1720 0.0000
# 4 0.0000 0.0000 0.0000 24.1792 0.0000 -1.4101
# 5 -48.1010 -22.7341 -26.1720 0.0000 44.3193 0.0000
# 6 0.0000 0.0000 0.0000 -1.4101 0.0000 24.2609
#
#
#
# Elastic Compliance Matrix: (Units=1/GPa)
#
#
# Indices 1 2 3 4 5 6 
#
# 1 0.025424 0.003616 -0.007592 0.000000 0.024965 0.000000
# 2 0.003616 0.009654 -0.003789 0.000000 0.006639 0.000000
# 3 -0.007592 -0.003789 0.017230 0.000000 -0.000009 0.000000
# 4 0.000000 0.000000 0.000000 0.041499 0.000000 0.002412
# 5 0.024965 0.006639 -0.000009 0.000000 0.053059 0.000000
# 6 0.000000 0.000000 0.000000 0.002412 0.000000 0.041359
#
#
# Mechanical properties :
#
#
# Convention : Reuss Voigt Hill
#
# Bulk Modulus (GPa) = 27.19087 55.83078 41.51082
# Shear Modulus (GPa) = 23.14657 32.97776 28.06217
#
# Velocity S-wave (km/s) = 3.20739 3.82841 3.53158
# Velocity P-wave (km/s) = 5.07949 6.66002 5.92272
#
# Compressibility (1/GPa) = 0.03677706
#
# Stress axis : x y z
#
# Youngs Moduli (GPa) = 39.33308 103.58078 58.03775
#
# Poissons Ratio (x) = -0.37452 0.44062
# Poissons Ratio (y) = -0.14222 0.21993
# Poissons Ratio (z) = 0.29861 0.39252
#
# Static dielectric constant tensor:
#      x y z
#    x 1.872330 0.000000 0.021730 
#    y 0.000000 2.093400 0.000000 
#    z 0.021730 0.000000 1.897080 
# 
# From -- ./inp_files/40730.got.cif
#   From: 2010.05.17/outbox.cif.g08.bks.cpg/sg14_21_cif.got.tgz:40730.got - 2010.06.03 17:49:19.
