data_PCOD9248328
_publ_section_title
;
Structure prediction by ZEFSAII (Michael W. Deem and Ramdas Pophale) SiO2 
 PCOD9248328
Probable space group: P 21/C
;
_chemical_formula_sum "Si O2"
_cell_formula_units_Z 24
_cell_length_a 10.746569
_cell_length_b 15.679266
_cell_length_c 14.188349
_cell_angle_alpha 90.000000
_cell_angle_beta 30.687389
_cell_angle_gamma 90.000000
_cell_volume 1220.109044
_symmetry_space_group_name_H-M "P 21/C"
_symmetry_group_IT_number 14
_symmetry_cell_setting 'monoclinic'
loop_
_space_group_symop_operation_xyz
x,y,z
-x,1/2+y,1/2-z
-x,-y,-z
x,1/2-y,1/2+z
loop_
_atom_site_type_symbol
_atom_site_label
_atom_site_fract_x
_atom_site_fract_y
_atom_site_fract_z
Si Si1 0.986685 0.410756 0.952749
Si Si2 0.179590 0.362385 0.511589
Si Si3 0.471421 0.567109 0.875679
Si Si4 0.553634 0.600214 0.466425
Si Si5 0.358290 0.603316 0.160142
Si Si6 0.178253 0.718450 0.782468
O O1 0.248429 0.383703 0.742889
O O2 0.798916 0.420652 0.988893
O O3 0.880996 0.340666 0.091461
O O4 0.000000 0.500000 0.000000
O O5 0.344180 0.384314 0.314052
O O6 0.327520 0.380914 0.509319
O O7 0.929752 0.417604 0.667333
O O8 0.067493 0.267020 0.588518
O O9 0.530948 0.466271 0.842572
O O10 0.482617 0.598027 0.976482
O O11 0.500000 0.500000 0.500000
O O12 0.314766 0.659528 0.617447
O O13 0.352094 0.701540 0.195896
#
# Coordination Sequence:
#
# PCOD9248328 Si02
#       6
#     4   4   4   4   4   4
#     4  12  23  41  66  95 130 175 216 264 333 388
#     4  10  22  42  65  95 134 165 220 267 326 390
#     4  11  20  43  67  93 132 171 211 273 324 397
#     4  12  23  45  65  94 137 172 218 272 332 389
#     4   9  23  40  66  96 129 167 219 264 330 379
#     4  10  24  40  62  97 126 172 215 271 314 392
#
# _framework density 19.670370999999999
#
# number of rings (size 3 to 8) (size 9 to 14) (size 15 to 20)
#    1.000    0.333    5.000    0.500    2.333    1.333 
#    0.000    3.333    0.000    0.000    0.000    0.000 
#    0.000    0.000    0.000    0.000    0.000    0.000 
#
# Total GULP energy -133853.433919 kJ/mol
# GULP energy per Si atom -5577.226413 kJ/mol
# Density = 1.962560 g / cm^3
# Si number density = 19.670371 Si / 1000 Ang^3
#
#
#
# Elastic Constant Matrix: (Units=GPa)
#
#
# Indices 1 2 3 4 5 6 
#
# 1 50.4395 31.6126 11.7452 0.0000 2.9364 0.0000
# 2 31.6126 150.5777 52.2872 0.0000 3.2791 0.0000
# 3 11.7452 52.2872 148.7190 0.0000 22.0406 0.0000
# 4 0.0000 0.0000 0.0000 39.5466 0.0000 -8.6155
# 5 2.9364 3.2791 22.0406 0.0000 18.3960 0.0000
# 6 0.0000 0.0000 0.0000 -8.6155 0.0000 26.8263
#
#
#
# Elastic Compliance Matrix: (Units=1/GPa)
#
#
# Indices 1 2 3 4 5 6 
#
# 1 0.022990 -0.004890 0.000387 0.000000 -0.003262 0.000000
# 2 -0.004890 0.008681 -0.003103 0.000000 0.002951 0.000000
# 3 0.000387 -0.003103 0.009377 0.000000 -0.010743 0.000000
# 4 0.000000 0.000000 0.000000 0.027189 0.000000 0.008732
# 5 -0.003262 0.002951 -0.010743 0.000000 0.067226 0.000000
# 6 0.000000 0.000000 0.000000 0.008732 0.000000 0.040081
#
#
# Mechanical properties :
#
#
# Convention : Reuss Voigt Hill
#
# Bulk Modulus (GPa) = 38.70658 60.11401 49.41029
# Shear Modulus (GPa) = 25.07922 33.89320 29.48621
#
# Velocity S-wave (km/s) = 3.57455 4.15548 3.87591
# Velocity P-wave (km/s) = 6.06275 7.32469 6.72339
#
# Compressibility (1/GPa) = 0.02583540
#
# Stress axis : x y z
#
# Youngs Moduli (GPa) = 43.49671 115.19370 106.64676
#
# Poissons Ratio (x) = 0.56329 -0.04127
# Poissons Ratio (y) = 0.21270 0.33096
# Poissons Ratio (z) = -0.01683 0.35748
#
# Static dielectric constant tensor:
#      x y z
#    x 1.659190 0.000000 -0.014280 
#    y 0.000000 1.693630 0.000000 
#    z -0.014280 0.000000 1.705470 
# 
# From -- ./inp_files/45021.got.cif
#   From: 2010.05.17/outbox.cif.g08.bks.cpg/sg14_23_cif.got.tgz:45021.got - 2010.06.03 17:49:19.
