data_PCOD9248353
_publ_section_title
;
Structure prediction by ZEFSAII (Michael W. Deem and Ramdas Pophale) SiO2 
 PCOD9248353
Probable space group: P 21/C
;
_chemical_formula_sum "Si O2"
_cell_formula_units_Z 28
_cell_length_a 5.257411
_cell_length_b 29.153570
_cell_length_c 9.054362
_cell_angle_alpha 90.000000
_cell_angle_beta 54.839774
_cell_angle_gamma 90.000000
_cell_volume 1134.574755
_symmetry_space_group_name_H-M "P 21/C"
_symmetry_group_IT_number 14
_symmetry_cell_setting 'monoclinic'
loop_
_space_group_symop_operation_xyz
x,y,z
-x,1/2+y,1/2-z
-x,-y,-z
x,1/2-y,1/2+z
loop_
_atom_site_type_symbol
_atom_site_label
_atom_site_fract_x
_atom_site_fract_y
_atom_site_fract_z
Si Si1 0.490328 0.268289 0.262586
Si Si2 0.306288 0.593614 0.417789
Si Si3 0.306327 0.354951 0.466626
Si Si4 0.196439 0.299741 0.049608
Si Si5 0.052250 0.467508 0.230256
Si Si6 0.865052 0.110703 0.588112
Si Si7 0.306548 0.938491 0.607552
O O1 0.346699 0.300492 0.441149
O O2 0.339011 0.284272 0.158649
O O3 0.408192 0.217421 0.343701
O O4 0.857015 0.277101 0.138990
O O5 0.034616 0.628172 0.458032
O O6 0.128426 0.553711 0.570262
O O7 0.544163 0.620543 0.441897
O O8 0.440958 0.572513 0.223371
O O9 0.538178 0.371302 0.258634
O O10 0.120833 0.353885 0.063866
O O11 0.913991 0.439420 0.139895
O O12 0.048895 0.522065 0.218190
O O13 0.418643 0.455508 0.092705
O O14 0.840476 0.105520 0.422060
#
# Coordination Sequence:
#
# PCOD9248353 Si02
#       7
#     4   4   4   4   4   4   4
#     4  11  23  46  67 106 132 187 214 292 338 413
#     4  11  23  42  66  99 131 182 223 278 330 409
#     4  10  22  43  66  89 139 175 218 272 347 389
#     4  11  25  43  74  96 142 174 235 270 355 403
#     4  10  22  43  62  96 140 177 220 292 341 394
#     4  10  22  42  66  92 132 186 219 278 341 414
#     4  11  23  39  68  98 131 179 236 275 337 409
#
# _framework density 24.678850000000001
#
# number of rings (size 3 to 8) (size 9 to 14) (size 15 to 20)
#    0.000    1.429    1.429    4.286    4.000    1.143 
#    2.571    2.143    0.000    0.000    0.000    0.000 
#    0.000    0.000    0.000    0.000    0.000    0.000 
#
# Total GULP energy -156748.414933 kJ/mol
# GULP energy per Si atom -5598.157676 kJ/mol
# Density = 2.462268 g / cm^3
# Si number density = 24.678850 Si / 1000 Ang^3
#
#
#
# Elastic Constant Matrix: (Units=GPa)
#
#
# Indices 1 2 3 4 5 6 
#
# 1 141.0236 31.8918 44.0933 0.0000 19.7674 0.0000
# 2 31.8918 46.2700 38.1547 0.0000 14.2525 0.0000
# 3 44.0933 38.1547 108.8318 0.0000 27.1639 0.0000
# 4 0.0000 0.0000 0.0000 24.1964 0.0000 -2.3275
# 5 19.7674 14.2525 27.1639 0.0000 45.2421 0.0000
# 6 0.0000 0.0000 0.0000 -2.3275 0.0000 24.8631
#
#
#
# Elastic Compliance Matrix: (Units=1/GPa)
#
#
# Indices 1 2 3 4 5 6 
#
# 1 0.008782 -0.004174 -0.001724 0.000000 -0.001487 0.000000
# 2 -0.004174 0.032932 -0.009081 0.000000 -0.003098 0.000000
# 3 -0.001724 -0.009081 0.014314 0.000000 -0.004980 0.000000
# 4 0.000000 0.000000 0.000000 0.041704 0.000000 0.003904
# 5 -0.001487 -0.003098 -0.004980 0.000000 0.026719 0.000000
# 6 0.000000 0.000000 0.000000 0.003904 0.000000 0.040586
#
#
# Mechanical properties :
#
#
# Convention : Reuss Voigt Hill
#
# Bulk Modulus (GPa) = 38.35711 58.26723 48.31217
# Shear Modulus (GPa) = 24.54786 30.99269 27.77027
#
# Velocity S-wave (km/s) = 3.15730 3.54763 3.35814
# Velocity P-wave (km/s) = 5.37286 6.35943 5.88685
#
# Compressibility (1/GPa) = 0.02607079
#
# Stress axis : x y z
#
# Youngs Moduli (GPa) = 113.86534 30.36584 69.86409
#
# Poissons Ratio (x) = 0.12674 0.12042
# Poissons Ratio (y) = 0.47524 0.63444
# Poissons Ratio (z) = 0.19626 0.27575
#
# Static dielectric constant tensor:
#      x y z
#    x 1.918240 0.000000 -0.016750 
#    y 0.000000 2.019820 0.000000 
#    z -0.016750 0.000000 1.945420 
# 
# From -- ./inp_files/6888.got.cif
#   From: 2010.05.17/outbox.cif.g08.bks.cpg/sg14_4_cif.got.tgz:6888.got - 2010.06.03 17:49:19.
