data_PCOD9248087
_publ_section_title
;
Structure prediction by ZEFSAII (Michael W. Deem and Ramdas Pophale) SiO2 
 PCOD9248087
Probable space group: P 21/C
;
_chemical_formula_sum "Si O2"
_cell_formula_units_Z 28
_cell_length_a 8.140153
_cell_length_b 21.260641
_cell_length_c 11.369104
_cell_angle_alpha 90.000000
_cell_angle_beta 37.319934
_cell_angle_gamma 90.000000
_cell_volume 1192.882711
_symmetry_space_group_name_H-M "P 21/C"
_symmetry_group_IT_number 14
_symmetry_cell_setting 'monoclinic'
loop_
_space_group_symop_operation_xyz
x,y,z
-x,1/2+y,1/2-z
-x,-y,-z
x,1/2-y,1/2+z
loop_
_atom_site_type_symbol
_atom_site_label
_atom_site_fract_x
_atom_site_fract_y
_atom_site_fract_z
Si Si1 0.653411 0.117909 0.368343
Si Si2 0.107846 0.886608 0.014336
Si Si3 0.318292 0.351658 0.699610
Si Si4 0.165971 0.553093 0.004369
Si Si5 0.940758 0.922177 0.340616
Si Si6 0.397780 0.206565 0.688532
Si Si7 0.428537 0.865490 0.186400
O O1 0.360102 0.103196 0.482662
O O2 0.607810 0.183722 0.466414
O O3 0.711111 0.068529 0.437920
O O4 0.861413 0.109639 0.143199
O O5 0.014150 0.938702 0.163013
O O6 0.874292 0.834824 0.167818
O O7 0.407210 0.870867 0.890461
O O8 0.067780 0.394549 0.880268
O O9 0.304284 0.277725 0.730530
O O10 0.349903 0.362452 0.541394
O O11 0.047116 0.483925 0.086188
O O12 0.406263 0.570615 0.776693
O O13 0.151457 0.869933 0.267925
O O14 0.530395 0.188590 0.739476
#
# Coordination Sequence:
#
# PCOD9248087 Si02
#       7
#     4   4   4   4   4   4   4
#     4  10  22  41  64  95 129 173 211 267 329 379
#     4  10  23  42  62  94 132 167 218 267 322 384
#     4  11  25  40  63  96 126 173 215 267 327 388
#     4  11  23  40  68  98 132 173 215 266 323 386
#     4  10  22  42  67  98 131 169 221 266 319 390
#     4  10  24  41  62  92 128 166 222 265 324 390
#     4  10  23  43  63  93 127 170 215 265 324 379
#
# _framework density 23.472550999999999
#
# number of rings (size 3 to 8) (size 9 to 14) (size 15 to 20)
#    0.000    1.714    0.000    2.571    6.000    4.000 
#    0.000    0.000    0.000    0.000    0.000    0.000 
#    0.000    0.000    0.000    0.000    0.000    0.000 
#
# Total GULP energy -156295.115459 kJ/mol
# GULP energy per Si atom -5581.968409 kJ/mol
# Density = 2.341913 g / cm^3
# Si number density = 23.472551 Si / 1000 Ang^3
#
#
#
# Elastic Constant Matrix: (Units=GPa)
#
#
# Indices 1 2 3 4 5 6 
#
# 1 104.7597 15.3259 22.2946 0.0000 11.8464 0.0000
# 2 15.3259 59.7478 10.3263 0.0000 1.7917 0.0000
# 3 22.2946 10.3263 111.3961 0.0000 38.5895 0.0000
# 4 0.0000 0.0000 0.0000 27.2791 0.0000 -1.9525
# 5 11.8464 1.7917 38.5895 0.0000 46.8958 0.0000
# 6 0.0000 0.0000 0.0000 -1.9525 0.0000 19.4599
#
#
#
# Elastic Compliance Matrix: (Units=1/GPa)
#
#
# Indices 1 2 3 4 5 6 
#
# 1 0.010342 -0.002375 -0.001365 0.000000 -0.001398 0.000000
# 2 -0.002375 0.017582 -0.001580 0.000000 0.001228 0.000000
# 3 -0.001365 -0.001580 0.012947 0.000000 -0.010248 0.000000
# 4 0.000000 0.000000 0.000000 0.036923 0.000000 0.003705
# 5 -0.001398 0.001228 -0.010248 0.000000 0.030063 0.000000
# 6 0.000000 0.000000 0.000000 0.003705 0.000000 0.051759
#
#
# Mechanical properties :
#
#
# Convention : Reuss Voigt Hill
#
# Bulk Modulus (GPa) = 33.07896 41.31080 37.19488
# Shear Modulus (GPa) = 27.72625 33.92409 30.82517
#
# Velocity S-wave (km/s) = 3.44062 3.80579 3.62780
# Velocity P-wave (km/s) = 5.46873 6.07864 5.78173
#
# Compressibility (1/GPa) = 0.03023069
#
# Stress axis : x y z
#
# Youngs Moduli (GPa) = 96.69538 56.87492 77.23836
#
# Poissons Ratio (x) = 0.13507 0.10545
# Poissons Ratio (y) = 0.22964 0.12204
# Poissons Ratio (z) = 0.13201 0.08987
#
# Static dielectric constant tensor:
#      x y z
#    x 1.961500 0.000000 0.064390 
#    y 0.000000 1.858890 0.000000 
#    z 0.064390 0.000000 1.926440 
# 
# From -- ./inp_files/26730.got.cif
#   From: 2010.05.17/outbox.cif.g08.bks.cpg/sg14_14_cif.got.tgz:26730.got - 2010.06.03 17:49:19.
