data_PCOD9248733
_publ_section_title
;
Structure prediction by ZEFSAII (Michael W. Deem and Ramdas Pophale) SiO2 
 PCOD9248733
Probable space group: P 21/C
;
_chemical_formula_sum "Si O2"
_cell_formula_units_Z 20
_cell_length_a 9.237204
_cell_length_b 15.381184
_cell_length_c 12.952894
_cell_angle_alpha 90.000000
_cell_angle_beta 29.211123
_cell_angle_gamma 90.000000
_cell_volume 898.137529
_symmetry_space_group_name_H-M "P 21/C"
_symmetry_group_IT_number 14
_symmetry_cell_setting 'monoclinic'
loop_
_space_group_symop_operation_xyz
x,y,z
-x,1/2+y,1/2-z
-x,-y,-z
x,1/2-y,1/2+z
loop_
_atom_site_type_symbol
_atom_site_label
_atom_site_fract_x
_atom_site_fract_y
_atom_site_fract_z
Si Si1 0.453213 0.652035 0.280642
Si Si2 0.585299 0.401045 0.926131
Si Si3 0.299455 0.503957 0.749899
Si Si4 0.224313 0.115435 0.105952
Si Si5 0.801223 0.730477 0.712849
O O1 0.518766 0.629099 0.121817
O O2 0.480672 0.564585 0.331951
O O3 0.688897 0.719047 0.181821
O O4 0.127453 0.692151 0.496449
O O5 0.939190 0.388203 0.711653
O O6 0.500000 0.500000 0.000000
O O7 0.429305 0.343847 0.111211
O O8 0.461741 0.597009 0.644609
O O9 0.213498 0.466894 0.691159
O O10 0.000000 0.500000 0.000000
O O11 0.211375 0.199723 0.185763
#
# Coordination Sequence:
#
# PCOD9248733 Si02
#       5
#     4   4   4   4   4
#     4  11  26  44  73 106 144 193 244 299 372 436
#     4  12  26  45  73 107 145 188 243 309 361 433
#     4  10  22  43  72 103 144 190 238 295 370 435
#     4  10  23  43  68 102 143 187 236 298 357 436
#     4  11  25  47  70 106 149 192 243 300 367 442
#
# _framework density 22.268305000000002
#
# number of rings (size 3 to 8) (size 9 to 14) (size 15 to 20)
#    0.000    1.200    2.000    2.400    2.800   11.200 
#    0.000    0.000    0.000    0.000    0.000    0.000 
#    0.000    0.000    0.000    0.000    0.000    0.000 
#
# Total GULP energy -111966.793628 kJ/mol
# GULP energy per Si atom -5598.339681 kJ/mol
# Density = 2.221762 g / cm^3
# Si number density = 22.268305 Si / 1000 Ang^3
#
#
#
# Elastic Constant Matrix: (Units=GPa)
#
#
# Indices 1 2 3 4 5 6 
#
# 1 127.8517 41.1494 25.2772 0.0000 2.5713 0.0000
# 2 41.1494 110.6465 40.9346 0.0000 -1.4862 0.0000
# 3 25.2772 40.9346 107.9833 0.0000 -14.8471 0.0000
# 4 0.0000 0.0000 0.0000 45.2869 0.0000 -2.5249
# 5 2.5713 -1.4862 -14.8471 0.0000 32.8969 0.0000
# 6 0.0000 0.0000 0.0000 -2.5249 0.0000 26.5962
#
#
#
# Elastic Compliance Matrix: (Units=1/GPa)
#
#
# Indices 1 2 3 4 5 6 
#
# 1 0.009030 -0.002936 -0.001190 0.000000 -0.001375 0.000000
# 2 -0.002936 0.011529 -0.003817 0.000000 -0.000972 0.000000
# 3 -0.001190 -0.003817 0.011701 0.000000 0.005202 0.000000
# 4 0.000000 0.000000 0.000000 0.022199 0.000000 0.002107
# 5 -0.001375 -0.000972 0.005202 0.000000 0.032809 0.000000
# 6 0.000000 0.000000 0.000000 0.002107 0.000000 0.037799
#
#
# Mechanical properties :
#
#
# Convention : Reuss Voigt Hill
#
# Bulk Modulus (GPa) = 61.07218 62.35597 61.71408
# Shear Modulus (GPa) = 34.15055 36.89735 35.52395
#
# Velocity S-wave (km/s) = 3.92036 4.07497 3.99842
# Velocity P-wave (km/s) = 6.92658 7.08544 7.00646
#
# Compressibility (1/GPa) = 0.01637407
#
# Stress axis : x y z
#
# Youngs Moduli (GPa) = 110.74787 86.73938 85.46144
#
# Poissons Ratio (x) = 0.25470 0.10167
# Poissons Ratio (y) = 0.32520 0.32618
# Poissons Ratio (z) = 0.13175 0.33105
#
# Static dielectric constant tensor:
#      x y z
#    x 1.795520 0.000000 0.029560 
#    y 0.000000 1.819270 0.000000 
#    z 0.029560 0.000000 1.865840 
# 
# From -- ./inp_files/26221.got.cif
#   From: 2010.05.17/outbox.cif.g08.bks.cpg/sg14_14_cif.got.tgz:26221.got - 2010.06.03 17:49:19.
