data_PCOD9248519
_publ_section_title
;
Structure prediction by ZEFSAII (Michael W. Deem and Ramdas Pophale) SiO2 
 PCOD9248519
Probable space group: P 21/C
;
_chemical_formula_sum "Si O2"
_cell_formula_units_Z 30
_cell_length_a 16.921720
_cell_length_b 12.347159
_cell_length_c 19.032452
_cell_angle_alpha 90.000000
_cell_angle_beta 20.455727
_cell_angle_gamma 90.000000
_cell_volume 1389.738108
_symmetry_space_group_name_H-M "P 21/C"
_symmetry_group_IT_number 14
_symmetry_cell_setting 'monoclinic'
loop_
_space_group_symop_operation_xyz
x,y,z
-x,1/2+y,1/2-z
-x,-y,-z
x,1/2-y,1/2+z
loop_
_atom_site_type_symbol
_atom_site_label
_atom_site_fract_x
_atom_site_fract_y
_atom_site_fract_z
Si Si1 0.810680 0.149697 0.805868
Si Si2 0.500000 0.500000 0.000000
Si Si3 0.443143 0.302569 0.148381
Si Si4 0.956747 0.284584 0.030645
Si Si5 0.590584 0.375454 0.780462
Si Si6 0.835146 0.774484 0.890896
Si Si7 0.471705 0.065518 0.766190
Si Si8 0.017646 0.578401 0.118954
O O1 0.841861 0.177055 0.697887
O O2 0.989255 0.221194 0.701489
O O3 0.871204 0.024592 0.763626
O O4 0.567538 0.188043 0.035213
O O5 0.523650 0.379849 0.018169
O O6 0.411444 0.549343 0.149165
O O7 0.175319 0.286509 0.366986
O O8 0.505213 0.356291 0.170739
O O9 0.030283 0.383346 0.919935
O O10 0.783396 0.213288 0.129444
O O11 0.620415 0.452592 0.688133
O O12 0.350119 0.315360 0.975349
O O13 0.957966 0.823184 0.720795
O O14 0.700944 0.872552 0.039891
O O15 0.717629 0.049138 0.594942
#
# Coordination Sequence:
#
# PCOD9248519 Si02
#       8
#     4   2   4   4   4   4   4   4
#     4  12  26  47  71 103 143 189 230 298 345 426
#     4  10  22  42  72 106 138 170 236 282 352 410
#     4  11  24  44  71 105 142 180 231 288 350 419
#     4  12  26  46  72 101 146 185 230 293 355 416
#     4  11  24  45  73 102 139 180 234 295 346 421
#     4  12  25  46  71 101 140 186 235 287 355 415
#     4  11  24  44  70 104 137 181 238 284 347 426
#     4  12  27  43  72 103 138 190 237 285 356 421
#
# _framework density 21.586801999999999
#
# number of rings (size 3 to 8) (size 9 to 14) (size 15 to 20)
#    0.000    0.533    6.667    1.200    0.000    6.933 
#    0.000    0.000    0.000    0.000    0.000    0.000 
#    0.000    0.000    0.000    0.000    0.000    0.000 
#
# Total GULP energy -167401.761965 kJ/mol
# GULP energy per Si atom -5580.058732 kJ/mol
# Density = 2.153767 g / cm^3
# Si number density = 21.586802 Si / 1000 Ang^3
#
#
#
# Elastic Constant Matrix: (Units=GPa)
#
#
# Indices 1 2 3 4 5 6 
#
# 1 42.5350 7.3162 1.2491 0.0000 7.4650 0.0000
# 2 7.3162 65.1684 -8.8104 0.0000 6.1636 0.0000
# 3 1.2491 -8.8104 26.2771 0.0000 -0.0359 0.0000
# 4 0.0000 0.0000 0.0000 16.7474 0.0000 -7.4666
# 5 7.4650 6.1636 -0.0359 0.0000 29.7020 0.0000
# 6 0.0000 0.0000 0.0000 -7.4666 0.0000 27.1218
#
#
#
# Elastic Compliance Matrix: (Units=1/GPa)
#
#
# Indices 1 2 3 4 5 6 
#
# 1 0.025019 -0.002541 -0.002049 0.000000 -0.005763 0.000000
# 2 -0.002541 0.016668 0.005705 0.000000 -0.002813 0.000000
# 3 -0.002049 0.005705 0.040065 0.000000 -0.000620 0.000000
# 4 0.000000 0.000000 0.000000 0.068065 0.000000 0.018738
# 5 -0.005763 -0.002813 -0.000620 0.000000 0.035699 0.000000
# 6 0.000000 0.000000 0.000000 0.018738 0.000000 0.042029
#
#
# Mechanical properties :
#
#
# Convention : Reuss Voigt Hill
#
# Bulk Modulus (GPa) = 11.90720 14.83226 13.36973
# Shear Modulus (GPa) = 19.73878 23.66261 21.70070
#
# Velocity S-wave (km/s) = 3.02717 3.31442 3.17405
# Velocity P-wave (km/s) = 4.21263 4.64038 4.43167
#
# Compressibility (1/GPa) = 0.08398281
#
# Stress axis : x y z
#
# Youngs Moduli (GPa) = 39.97015 59.99698 24.95920
#
# Poissons Ratio (x) = 0.15243 0.05114
# Poissons Ratio (y) = 0.10155 -0.14240
# Poissons Ratio (z) = 0.08190 -0.34230
#
# Static dielectric constant tensor:
#      x y z
#    x 1.771980 0.000000 -0.036520 
#    y 0.000000 1.805940 0.000000 
#    z -0.036520 0.000000 1.783690 
# 
# From -- ./inp_files/61283.got.cif
#   From: 2010.05.17/outbox.cif.g08.bks.cpg/sg14_31_cif.got.tgz:61283.got - 2010.06.03 17:49:19.
