data_PCOD9248311
_publ_section_title
;
Structure prediction by ZEFSAII (Michael W. Deem and Ramdas Pophale) SiO2 
 PCOD9248311
Probable space group: P 21/C
;
_chemical_formula_sum "Si O2"
_cell_formula_units_Z 28
_cell_length_a 5.264691
_cell_length_b 9.989788
_cell_length_c 21.083301
_cell_angle_alpha 90.000000
_cell_angle_beta 69.445094
_cell_angle_gamma 90.000000
_cell_volume 1038.244316
_symmetry_space_group_name_H-M "P 21/C"
_symmetry_group_IT_number 14
_symmetry_cell_setting 'monoclinic'
loop_
_space_group_symop_operation_xyz
x,y,z
-x,1/2+y,1/2-z
-x,-y,-z
x,1/2-y,1/2+z
loop_
_atom_site_type_symbol
_atom_site_label
_atom_site_fract_x
_atom_site_fract_y
_atom_site_fract_z
Si Si1 0.931534 0.932746 0.266392
Si Si2 0.006656 0.562843 0.621398
Si Si3 0.500453 0.291750 0.986996
Si Si4 0.292279 0.178855 0.369059
Si Si5 0.343998 0.338295 0.727609
Si Si6 0.581649 0.415771 0.583159
Si Si7 0.869890 0.524454 0.914183
O O1 0.849929 0.972889 0.201603
O O2 0.798850 0.975636 0.345140
O O3 0.216458 0.012678 0.244227
O O4 0.891718 0.772244 0.266779
O O5 0.965457 0.722365 0.620021
O O6 0.840524 0.501787 0.578215
O O7 0.303884 0.500474 0.600458
O O8 0.434914 0.271328 0.919330
O O9 0.706473 0.415552 0.969454
O O10 0.612950 0.170913 0.017960
O O11 0.221227 0.336591 0.047139
O O12 0.451557 0.190650 0.288962
O O13 0.175575 0.030012 0.390334
O O14 0.536294 0.326573 0.650405
#
# Coordination Sequence:
#
# PCOD9248311 Si02
#       7
#     4   4   4   4   4   4   4
#     4   9  18  41  67  99 135 179 233 289 346 407
#     4  10  25  43  71 101 135 182 230 284 346 406
#     4  11  24  39  67  97 137 181 230 279 347 409
#     4  10  23  42  67  96 135 179 231 283 342 412
#     4   9  19  40  66  98 135 179 230 290 342 413
#     4  11  24  45  67 101 137 181 228 280 348 412
#     4  10  22  42  64  98 136 179 232 282 346 411
#
# _framework density 26.968603000000002
#
# number of rings (size 3 to 8) (size 9 to 14) (size 15 to 20)
#    0.000    2.000    1.429    0.429    6.000    1.143 
#    0.000    2.857    0.000    0.000    0.000    0.000 
#    0.000    0.000    0.000    0.000    0.000    0.000 
#
# Total GULP energy -156527.612953 kJ/mol
# GULP energy per Si atom -5590.271891 kJ/mol
# Density = 2.690722 g / cm^3
# Si number density = 26.968603 Si / 1000 Ang^3
#
#
#
# Elastic Constant Matrix: (Units=GPa)
#
#
# Indices 1 2 3 4 5 6 
#
# 1 97.0890 21.2598 35.3576 0.0000 14.2036 0.0000
# 2 21.2598 67.8538 41.6315 0.0000 8.1714 0.0000
# 3 35.3576 41.6315 183.6873 0.0000 25.5747 0.0000
# 4 0.0000 0.0000 0.0000 34.5579 0.0000 -6.2551
# 5 14.2036 8.1714 25.5747 0.0000 38.6561 0.0000
# 6 0.0000 0.0000 0.0000 -6.2551 0.0000 25.9408
#
#
#
# Elastic Compliance Matrix: (Units=1/GPa)
#
#
# Indices 1 2 3 4 5 6 
#
# 1 0.011751 -0.002545 -0.001276 0.000000 -0.002935 0.000000
# 2 -0.002545 0.017716 -0.003452 0.000000 -0.000526 0.000000
# 3 -0.001276 -0.003452 0.006945 0.000000 -0.003396 0.000000
# 4 0.000000 0.000000 0.000000 0.030257 0.000000 0.007296
# 5 -0.002935 -0.000526 -0.003396 0.000000 0.029306 0.000000
# 6 0.000000 0.000000 0.000000 0.007296 0.000000 0.040309
#
#
# Mechanical properties :
#
#
# Convention : Reuss Voigt Hill
#
# Bulk Modulus (GPa) = 45.73504 60.56975 53.15240
# Shear Modulus (GPa) = 31.62140 36.52305 34.07223
#
# Velocity S-wave (km/s) = 3.42793 3.68405 3.55829
# Velocity P-wave (km/s) = 5.71516 6.37216 6.05258
#
# Compressibility (1/GPa) = 0.02186507
#
# Stress axis : x y z
#
# Youngs Moduli (GPa) = 85.09580 56.44471 143.98919
#
# Poissons Ratio (x) = 0.14367 0.18379
# Poissons Ratio (y) = 0.21659 0.49707
# Poissons Ratio (z) = 0.10862 0.19486
#
# Static dielectric constant tensor:
#      x y z
#    x 2.089420 0.000000 -0.051040 
#    y 0.000000 2.147490 0.000000 
#    z -0.051040 0.000000 2.127330 
# 
# From -- ./inp_files/63294.got.cif
#   From: 2010.05.17/outbox.cif.g08.bks.cpg/sg14_32_cif.got.tgz:63294.got - 2010.06.03 17:49:19.
