data_PCOD9248705
_publ_section_title
;
Structure prediction by ZEFSAII (Michael W. Deem and Ramdas Pophale) SiO2 
 PCOD9248705
Probable space group: P 21/C
;
_chemical_formula_sum "Si O2"
_cell_formula_units_Z 22
_cell_length_a 6.999762
_cell_length_b 7.238563
_cell_length_c 21.827464
_cell_angle_alpha 90.000000
_cell_angle_beta 130.535454
_cell_angle_gamma 90.000000
_cell_volume 840.532986
_symmetry_space_group_name_H-M "P 21/C"
_symmetry_group_IT_number 14
_symmetry_cell_setting 'monoclinic'
loop_
_space_group_symop_operation_xyz
x,y,z
-x,1/2+y,1/2-z
-x,-y,-z
x,1/2-y,1/2+z
loop_
_atom_site_type_symbol
_atom_site_label
_atom_site_fract_x
_atom_site_fract_y
_atom_site_fract_z
Si Si1 0.678012 0.270999 0.011953
Si Si2 0.795933 0.840348 0.165669
Si Si3 0.602800 0.553565 0.355996
Si Si4 0.384986 0.132402 0.566314
Si Si5 0.000000 0.500000 0.500000
Si Si6 0.305385 0.479104 0.760643
O O1 0.401347 0.219208 0.927657
O O2 0.754351 0.464473 0.995168
O O3 0.616900 0.318496 0.069829
O O4 0.867630 0.107530 0.037889
O O5 0.789669 0.684588 0.216148
O O6 0.667158 0.014190 0.173062
O O7 0.072645 0.885049 0.202342
O O8 0.749368 0.674662 0.442150
O O9 0.600283 0.593581 0.284758
O O10 0.785134 0.384184 0.410312
O O11 0.484782 0.078836 0.654295
#
# Coordination Sequence:
#
# PCOD9248705 Si02
#       6
#     4   4   4   4   2   4
#     4   9  22  44  66 101 133 179 226 282 343 417
#     4  10  23  40  63  94 133 173 221 282 340 398
#     4  11  24  39  65  95 130 172 222 279 331 411
#     4  10  22  43  70  94 136 177 232 281 341 410
#     4  10  24  38  66 100 136 170 222 274 350 402
#     4  11  23  41  65  96 128 179 224 279 343 405
#
# _framework density 26.173867000000001
#
# number of rings (size 3 to 8) (size 9 to 14) (size 15 to 20)
#    0.000    1.818    0.000    2.182    7.636    2.182 
#    0.000    1.818    0.000    0.000    0.000    0.000 
#    0.000    0.000    0.000    0.000    0.000    0.000 
#
# Total GULP energy -122737.643137 kJ/mol
# GULP energy per Si atom -5578.983779 kJ/mol
# Density = 2.611429 g / cm^3
# Si number density = 26.173867 Si / 1000 Ang^3
#
#
#
# Elastic Constant Matrix: (Units=GPa)
#
#
# Indices 1 2 3 4 5 6 
#
# 1 66.1593 46.7746 35.1349 0.0000 -12.3437 0.0000
# 2 46.7746 126.9033 27.8074 0.0000 -13.3210 0.0000
# 3 35.1349 27.8074 98.9321 0.0000 -24.2282 0.0000
# 4 0.0000 0.0000 0.0000 34.4864 0.0000 -6.8751
# 5 -12.3437 -13.3210 -24.2282 0.0000 46.4933 0.0000
# 6 0.0000 0.0000 0.0000 -6.8751 0.0000 48.2060
#
#
#
# Elastic Compliance Matrix: (Units=1/GPa)
#
#
# Indices 1 2 3 4 5 6 
#
# 1 0.023711 -0.007291 -0.006123 0.000000 0.001015 0.000000
# 2 -0.007291 0.010714 -0.000165 0.000000 0.001048 0.000000
# 3 -0.006123 -0.000165 0.013663 0.000000 0.005447 0.000000
# 4 0.000000 0.000000 0.000000 0.029846 0.000000 0.004257
# 5 0.001015 0.001048 0.005447 0.000000 0.024917 0.000000
# 6 0.000000 0.000000 0.000000 0.004257 0.000000 0.021351
#
#
# Mechanical properties :
#
#
# Convention : Reuss Voigt Hill
#
# Bulk Modulus (GPa) = 47.78099 56.82539 52.30319
# Shear Modulus (GPa) = 31.57843 37.98898 34.78371
#
# Velocity S-wave (km/s) = 3.47722 3.81387 3.64943
# Velocity P-wave (km/s) = 5.86654 6.41498 6.14688
#
# Compressibility (1/GPa) = 0.02092882
#
# Stress axis : x y z
#
# Youngs Moduli (GPa) = 42.17453 93.33871 73.19161
#
# Poissons Ratio (x) = 0.68056 0.44813
# Poissons Ratio (y) = 0.30751 0.01210
# Poissons Ratio (z) = 0.25822 0.01543
#
# Static dielectric constant tensor:
#      x y z
#    x 2.037630 0.000000 -0.009630 
#    y 0.000000 2.380120 0.000000 
#    z -0.009630 0.000000 2.106280 
# 
# From -- ./inp_files/63088.got.cif
#   From: 2010.05.17/outbox.cif.g08.bks.cpg/sg14_32_cif.got.tgz:63088.got - 2010.06.03 17:49:19.
