data_PCOD9248109
_publ_section_title
;
Structure prediction by ZEFSAII (Michael W. Deem and Ramdas Pophale) SiO2 
 PCOD9248109
Probable space group: P 21/C
;
_chemical_formula_sum "Si O2"
_cell_formula_units_Z 20
_cell_length_a 7.975746
_cell_length_b 24.623098
_cell_length_c 6.657017
_cell_angle_alpha 90.000000
_cell_angle_beta 138.751374
_cell_angle_gamma 90.000000
_cell_volume 861.975759
_symmetry_space_group_name_H-M "P 21/C"
_symmetry_group_IT_number 14
_symmetry_cell_setting 'monoclinic'
loop_
_space_group_symop_operation_xyz
x,y,z
-x,1/2+y,1/2-z
-x,-y,-z
x,1/2-y,1/2+z
loop_
_atom_site_type_symbol
_atom_site_label
_atom_site_fract_x
_atom_site_fract_y
_atom_site_fract_z
Si Si1 0.269516 0.549465 0.443690
Si Si2 0.862731 0.339184 0.536728
Si Si3 0.774989 0.821583 0.973626
Si Si4 0.361354 0.203581 0.560391
Si Si5 0.809482 0.934864 0.225394
O O1 0.192240 0.597033 0.525800
O O2 0.216447 0.486814 0.446682
O O3 0.565902 0.557029 0.653716
O O4 0.079690 0.560600 0.082946
O O5 0.618624 0.309142 0.405825
O O6 0.962182 0.315672 0.414819
O O7 0.106657 0.327235 0.898388
O O8 0.708951 0.766399 0.028237
O O9 0.586772 0.822370 0.612346
O O10 0.775692 0.877659 0.087779
#
# Coordination Sequence:
#
# PCOD9248109 Si02
#       5
#     4   4   4   4   4
#     4  10  22  41  65  90 124 155 204 245 308 352
#     4  10  24  40  61  90 118 164 194 255 291 363
#     4  10  26  39  64  87 124 158 207 244 304 353
#     4  10  25  38  59  92 119 161 199 249 300 352
#     4  10  23  40  65  93 118 163 197 253 297 365
#
# _framework density 23.202507000000001
#
# number of rings (size 3 to 8) (size 9 to 14) (size 15 to 20)
#    1.200    0.800    0.000    1.200   11.200    0.800 
#    0.000    1.000    0.000    0.000    0.000    0.000 
#    0.000    0.000    0.000    0.000    0.000    0.000 
#
# Total GULP energy -111484.539652 kJ/mol
# GULP energy per Si atom -5574.226983 kJ/mol
# Density = 2.314970 g / cm^3
# Si number density = 23.202507 Si / 1000 Ang^3
#
#
#
# Elastic Constant Matrix: (Units=GPa)
#
#
# Indices 1 2 3 4 5 6 
#
# 1 42.3429 31.4475 31.3989 0.0000 17.9266 0.0000
# 2 31.4475 166.1161 19.0104 0.0000 -1.7070 0.0000
# 3 31.3989 19.0104 84.1499 0.0000 38.5933 0.0000
# 4 0.0000 0.0000 0.0000 23.8890 0.0000 -2.4751
# 5 17.9266 -1.7070 38.5933 0.0000 37.1494 0.0000
# 6 0.0000 0.0000 0.0000 -2.4751 0.0000 42.6685
#
#
#
# Elastic Compliance Matrix: (Units=1/GPa)
#
#
# Indices 1 2 3 4 5 6 
#
# 1 0.039094 -0.006567 -0.008239 0.000000 -0.010608 0.000000
# 2 -0.006567 0.007504 -0.001636 0.000000 0.005213 0.000000
# 3 -0.008239 -0.001636 0.025859 0.000000 -0.022963 0.000000
# 4 0.000000 0.000000 0.000000 0.042113 0.000000 0.002443
# 5 -0.010608 0.005213 -0.022963 0.000000 0.056133 0.000000
# 6 0.000000 0.000000 0.000000 0.002443 0.000000 0.023578
#
#
# Mechanical properties :
#
#
# Convention : Reuss Voigt Hill
#
# Bulk Modulus (GPa) = 25.26889 50.70249 37.98569
# Shear Modulus (GPa) = 20.80251 34.79152 27.79702
#
# Velocity S-wave (km/s) = 2.99751 3.87650 3.46499
# Velocity P-wave (km/s) = 4.78480 6.47580 5.69343
#
# Compressibility (1/GPa) = 0.03957435
#
# Stress axis : x y z
#
# Youngs Moduli (GPa) = 25.57910 133.26475 38.67167
#
# Poissons Ratio (x) = 0.87517 0.31860
# Poissons Ratio (y) = 0.16798 0.06325
# Poissons Ratio (z) = 0.21074 0.21797
#
# Static dielectric constant tensor:
#      x y z
#    x 1.899630 0.000000 -0.026670 
#    y 0.000000 1.866740 0.000000 
#    z -0.026670 0.000000 1.940300 
# 
# From -- ./inp_files/10050.got.cif
#   From: 2010.05.17/outbox.cif.g08.bks.cpg/sg14_6_cif.got.tgz:10050.got - 2010.06.03 17:49:19.
