data_PCOD9248789
_publ_section_title
;
Structure prediction by ZEFSAII (Michael W. Deem and Ramdas Pophale) SiO2 
 PCOD9248789
Probable space group: P 21/C
;
_chemical_formula_sum "Si O2"
_cell_formula_units_Z 26
_cell_length_a 13.888920
_cell_length_b 11.284768
_cell_length_c 13.802685
_cell_angle_alpha 90.000000
_cell_angle_beta 152.405680
_cell_angle_gamma 90.000000
_cell_volume 1002.076570
_symmetry_space_group_name_H-M "P 21/C"
_symmetry_group_IT_number 14
_symmetry_cell_setting 'monoclinic'
loop_
_space_group_symop_operation_xyz
x,y,z
-x,1/2+y,1/2-z
-x,-y,-z
x,1/2-y,1/2+z
loop_
_atom_site_type_symbol
_atom_site_label
_atom_site_fract_x
_atom_site_fract_y
_atom_site_fract_z
Si Si1 0.642891 0.031175 0.512131
Si Si2 0.370861 0.185918 0.386187
Si Si3 0.181204 0.294983 0.031833
Si Si4 0.081026 0.814779 0.375147
Si Si5 0.709348 0.567028 0.621726
Si Si6 0.000000 0.000000 0.500000
Si Si7 0.623242 0.403880 0.362452
O O1 0.585004 0.130549 0.538238
O O2 0.774788 0.087788 0.545487
O O3 0.736246 0.914541 0.644253
O O4 0.428303 0.985083 0.274755
O O5 0.233375 0.213727 0.170356
O O6 0.405251 0.308247 0.473484
O O7 0.404919 0.343050 0.196426
O O8 0.033138 0.396302 0.942488
O O9 0.079284 0.225591 0.851322
O O10 0.214181 0.699131 0.516763
O O11 0.957189 0.882379 0.351091
O O12 0.685854 0.489194 0.506735
O O13 0.731178 0.497785 0.741108
#
# Coordination Sequence:
#
# PCOD9248789 Si02
#       7
#     4   4   4   4   4   2   4
#     4  11  25  46  69 106 145 188 238 292 365 425
#     4  10  24  46  68 107 142 185 232 300 364 418
#     4  11  23  46  70 105 143 183 241 291 362 421
#     4  12  26  47  73 106 141 193 242 294 352 447
#     4  11  25  44  72 103 141 187 239 294 358 421
#     4  10  22  44  66 108 134 182 234 294 348 422
#     4  12  26  47  75 104 143 194 241 299 354 442
#
# _framework density 25.946121999999999
#
# number of rings (size 3 to 8) (size 9 to 14) (size 15 to 20)
#    0.000    0.923    3.077    2.769    4.308    4.308 
#   13.846    0.000    0.000    0.000    0.000    0.000 
#    0.000    0.000    0.000    0.000    0.000    0.000 
#
# Total GULP energy -145291.327554 kJ/mol
# GULP energy per Si atom -5588.127983 kJ/mol
# Density = 2.588707 g / cm^3
# Si number density = 25.946122 Si / 1000 Ang^3
#
#
#
# Elastic Constant Matrix: (Units=GPa)
#
#
# Indices 1 2 3 4 5 6 
#
# 1 81.9732 39.4230 0.0639 0.0000 4.2033 0.0000
# 2 39.4230 161.3792 41.7835 0.0000 8.0148 0.0000
# 3 0.0639 41.7835 72.4113 0.0000 -20.5103 0.0000
# 4 0.0000 0.0000 0.0000 51.0743 0.0000 -10.4782
# 5 4.2033 8.0148 -20.5103 0.0000 34.7169 0.0000
# 6 0.0000 0.0000 0.0000 -10.4782 0.0000 28.2466
#
#
#
# Elastic Compliance Matrix: (Units=1/GPa)
#
#
# Indices 1 2 3 4 5 6 
#
# 1 0.014167 -0.004181 0.002627 0.000000 0.000802 0.000000
# 2 -0.004181 0.009322 -0.007015 0.000000 -0.005791 0.000000
# 3 0.002627 -0.007015 0.021887 0.000000 0.014232 0.000000
# 4 0.000000 0.000000 0.000000 0.021192 0.000000 0.007861
# 5 0.000802 -0.005791 0.014232 0.000000 0.038452 0.000000
# 6 0.000000 0.000000 0.000000 0.007861 0.000000 0.038319
#
#
# Mechanical properties :
#
#
# Convention : Reuss Voigt Hill
#
# Bulk Modulus (GPa) = 35.41426 53.14495 44.27961
# Shear Modulus (GPa) = 29.43091 38.44044 33.93568
#
# Velocity S-wave (km/s) = 3.37160 3.85326 3.62045
# Velocity P-wave (km/s) = 5.36989 6.35013 5.88047
#
# Compressibility (1/GPa) = 0.02823721
#
# Stress axis : x y z
#
# Youngs Moduli (GPa) = 70.58881 107.27433 45.68905
#
# Poissons Ratio (x) = 0.44849 -0.12003
# Poissons Ratio (y) = 0.29511 0.32053
# Poissons Ratio (z) = -0.18544 0.75258
#
# Static dielectric constant tensor:
#      x y z
#    x -0.283280 0.000000 3.516420 
#    y 0.000000 0.097170 0.000000 
#    z 3.516420 0.000000 -2.848700 
# 
# From -- ./inp_files/47225.got.cif
#   From: 2010.05.17/outbox.cif.g08.bks.cpg/sg14_24_cif.got.tgz:47225.got - 2010.06.03 17:49:19.
