data_PCOD9248575
_publ_section_title
;
Structure prediction by ZEFSAII (Michael W. Deem and Ramdas Pophale) SiO2 
 PCOD9248575
Probable space group: P 21/C
;
_chemical_formula_sum "Si O2"
_cell_formula_units_Z 28
_cell_length_a 8.400978
_cell_length_b 12.493155
_cell_length_c 12.791787
_cell_angle_alpha 90.000000
_cell_angle_beta 111.181399
_cell_angle_gamma 90.000000
_cell_volume 1251.856727
_symmetry_space_group_name_H-M "P 21/C"
_symmetry_group_IT_number 14
_symmetry_cell_setting 'monoclinic'
loop_
_space_group_symop_operation_xyz
x,y,z
-x,1/2+y,1/2-z
-x,-y,-z
x,1/2-y,1/2+z
loop_
_atom_site_type_symbol
_atom_site_label
_atom_site_fract_x
_atom_site_fract_y
_atom_site_fract_z
Si Si1 0.692993 0.575266 0.244958
Si Si2 0.367226 0.677777 0.484902
Si Si3 0.109737 0.884927 0.114654
Si Si4 0.273872 0.165653 0.024805
Si Si5 0.189515 0.660618 0.224431
Si Si6 0.633216 0.414557 0.936391
Si Si7 0.166157 0.111254 0.424284
O O1 0.829321 0.486194 0.306464
O O2 0.658144 0.633668 0.344974
O O3 0.538837 0.525213 0.140777
O O4 0.766557 0.651579 0.173079
O O5 0.249021 0.634792 0.553189
O O6 0.566921 0.642922 0.516523
O O7 0.265505 0.645217 0.356257
O O8 0.378974 0.807920 0.495838
O O9 0.126768 0.781842 0.193088
O O10 0.909743 0.892593 0.035976
O O11 0.216708 0.290222 0.010127
O O12 0.320682 0.636527 0.164060
O O13 0.029849 0.591183 0.148130
O O14 0.756961 0.502428 0.012868
#
# Coordination Sequence:
#
# PCOD9248575 Si02
#       7
#     4   4   4   4   4   4   4
#     4  12  23  42  66  95 132 175 217 271 334 389
#     4  11  22  44  69  95 135 174 218 277 331 390
#     4  10  25  42  64  97 133 174 222 272 327 398
#     4  11  24  43  66  96 132 172 227 268 331 398
#     4  10  22  43  64  95 132 173 217 273 332 388
#     4  11  23  40  69 100 129 171 225 270 329 400
#     4  11  24  42  66  96 131 173 217 277 328 395
#
# _framework density 22.366776000000002
#
# number of rings (size 3 to 8) (size 9 to 14) (size 15 to 20)
#    0.000    1.143    2.857    3.000    2.000    0.571 
#    2.571    1.429    0.000    0.000    0.000    0.000 
#    0.000    0.000    0.000    0.000    0.000    0.000 
#
# Total GULP energy -156063.547405 kJ/mol
# GULP energy per Si atom -5573.698122 kJ/mol
# Density = 2.231587 g / cm^3
# Si number density = 22.366776 Si / 1000 Ang^3
#
#
#
# Elastic Constant Matrix: (Units=GPa)
#
#
# Indices 1 2 3 4 5 6 
#
# 1 103.0773 20.2827 41.5236 0.0000 34.6015 0.0000
# 2 20.2827 76.1441 39.8431 0.0000 14.1210 0.0000
# 3 41.5236 39.8431 93.6377 0.0000 23.8759 0.0000
# 4 0.0000 0.0000 0.0000 -15.8263 0.0000 17.4678
# 5 34.6015 14.1210 23.8759 0.0000 38.3982 0.0000
# 6 0.0000 0.0000 0.0000 17.4678 0.0000 14.6677
#
#
#
# Elastic Compliance Matrix: (Units=1/GPa)
#
#
# Indices 1 2 3 4 5 6 
#
# 1 0.014967 0.000084 -0.003834 0.000000 -0.011134 0.000000
# 2 0.000084 0.017035 -0.006737 0.000000 -0.002151 0.000000
# 3 -0.003834 -0.006737 0.016321 0.000000 -0.004216 0.000000
# 4 0.000000 0.000000 0.000000 -0.027301 0.000000 0.032513
# 5 -0.011134 -0.002151 -0.004216 0.000000 0.039489 0.000000
# 6 0.000000 0.000000 0.000000 0.032513 0.000000 0.029457
#
#
# Mechanical properties :
#
#
# Convention : Reuss Voigt Hill
#
# Bulk Modulus (GPa) = 36.56409 52.90644 44.73526
# Shear Modulus (GPa) = 41.64646 18.86191 30.25418
#
# Velocity S-wave (km/s) = 4.31975 2.90711 3.68181
# Velocity P-wave (km/s) = 6.42365 5.91386 6.17402
#
# Compressibility (1/GPa) = 0.02734924
#
# Stress axis : x y z
#
# Youngs Moduli (GPa) = 66.81431 58.70329 61.26953
#
# Poissons Ratio (x) = -0.00494 0.23490
# Poissons Ratio (y) = -0.00562 0.41278
# Poissons Ratio (z) = 0.25616 0.39549
#
# Static dielectric constant tensor:
#      x y z
#    x 2.145840 0.000000 -0.016830 
#    y 0.000000 1.805520 0.000000 
#    z -0.016830 0.000000 1.761210 
# 
# From -- ./inp_files/25299.got.cif
#   From: 2010.05.17/outbox.cif.g08.bks.cpg/sg14_13_cif.got.tgz:25299.got - 2010.06.03 17:49:19.
