data_PCOD9248978
_publ_section_title
;
Structure prediction by ZEFSAII (Michael W. Deem and Ramdas Pophale) SiO2 
 PCOD9248978
Probable space group: P 21/C
;
_chemical_formula_sum "Si O2"
_cell_formula_units_Z 32
_cell_length_a 9.453313
_cell_length_b 7.349377
_cell_length_c 18.888042
_cell_angle_alpha 90.000000
_cell_angle_beta 73.106003
_cell_angle_gamma 90.000000
_cell_volume 1255.632817
_symmetry_space_group_name_H-M "P 21/C"
_symmetry_group_IT_number 14
_symmetry_cell_setting 'monoclinic'
loop_
_space_group_symop_operation_xyz
x,y,z
-x,1/2+y,1/2-z
-x,-y,-z
x,1/2-y,1/2+z
loop_
_atom_site_type_symbol
_atom_site_label
_atom_site_fract_x
_atom_site_fract_y
_atom_site_fract_z
Si Si1 0.332600 0.027050 0.577894
Si Si2 0.658179 0.435881 0.307590
Si Si3 0.717163 0.924437 0.955257
Si Si4 0.349290 0.561616 0.381313
Si Si5 0.856292 0.933430 0.656996
Si Si6 0.351695 0.966188 0.424249
Si Si7 0.958840 0.142635 0.132613
Si Si8 0.885330 0.123738 0.294492
O O1 0.356089 0.228515 0.545974
O O2 0.484643 0.955754 0.588293
O O3 0.291587 0.920783 0.511944
O O4 0.206479 0.034692 0.654630
O O5 0.683432 0.476102 0.386785
O O6 0.482420 0.456482 0.323563
O O7 0.738465 0.563981 0.238335
O O8 0.753504 0.252391 0.286648
O O9 0.894159 0.897223 0.932408
O O10 0.657186 0.008480 0.035493
O O11 0.375069 0.780582 0.376789
O O12 0.186768 0.538960 0.372851
O O13 0.762590 0.903784 0.599527
O O14 0.921937 0.139982 0.636545
O O15 0.997412 0.817794 0.662072
O O16 0.980228 0.085684 0.211412
#
# Coordination Sequence:
#
# PCOD9248978 Si02
#       8
#     4   4   4   4   4   4   4   4
#     4  11  24  41  66  96 131 172 218 275 331 400
#     4  11  24  41  69  96 130 178 219 272 344 395
#     4  12  22  43  66  95 136 171 220 269 342 397
#     4  11  24  43  66  97 133 174 221 280 329 410
#     4  10  22  45  67  94 131 176 224 273 332 406
#     4  10  24  44  65  95 131 172 220 272 334 397
#     4  10  23  44  66  99 130 174 222 277 335 400
#     4  11  23  43  68  94 134 171 223 274 334 407
#
# _framework density 25.485158999999999
#
# number of rings (size 3 to 8) (size 9 to 14) (size 15 to 20)
#    0.000    1.250    3.750    1.500    5.250    0.500 
#    4.500    0.000    0.000    0.000    0.000    0.000 
#    0.000    0.000    0.000    0.000    0.000    0.000 
#
# Total GULP energy -178962.514835 kJ/mol
# GULP energy per Si atom -5592.578589 kJ/mol
# Density = 2.542715 g / cm^3
# Si number density = 25.485159 Si / 1000 Ang^3
#
#
#
# Elastic Constant Matrix: (Units=GPa)
#
#
# Indices 1 2 3 4 5 6 
#
# 1 130.2526 -1.9396 21.2865 0.0000 -5.1363 0.0000
# 2 -1.9396 42.3003 -4.7496 0.0000 -5.1567 0.0000
# 3 21.2865 -4.7496 70.1072 0.0000 -8.4166 0.0000
# 4 0.0000 0.0000 0.0000 24.8155 0.0000 3.1624
# 5 -5.1363 -5.1567 -8.4166 0.0000 54.0489 0.0000
# 6 0.0000 0.0000 0.0000 3.1624 0.0000 25.2979
#
#
#
# Elastic Compliance Matrix: (Units=1/GPa)
#
#
# Indices 1 2 3 4 5 6 
#
# 1 0.008087 0.000152 -0.002396 0.000000 0.000410 0.000000
# 2 0.000152 0.024181 0.001906 0.000000 0.002618 0.000000
# 3 -0.002396 0.001906 0.015403 0.000000 0.002353 0.000000
# 4 0.000000 0.000000 0.000000 0.040950 0.000000 -0.005119
# 5 0.000410 0.002618 0.002353 0.000000 0.019157 0.000000
# 6 0.000000 0.000000 0.000000 -0.005119 0.000000 0.040169
#
#
# Mechanical properties :
#
#
# Convention : Reuss Voigt Hill
#
# Bulk Modulus (GPa) = 21.27870 30.20609 25.74239
# Shear Modulus (GPa) = 30.43447 36.03666 33.23557
#
# Velocity S-wave (km/s) = 3.45947 3.76443 3.61517
# Velocity P-wave (km/s) = 4.93202 5.54732 5.24870
#
# Compressibility (1/GPa) = 0.04699536
#
# Stress axis : x y z
#
# Youngs Moduli (GPa) = 123.64932 41.35531 64.92247
#
# Poissons Ratio (x) = -0.00628 0.15556
# Poissons Ratio (y) = -0.01877 -0.12377
# Poissons Ratio (z) = 0.29627 -0.07884
#
# Static dielectric constant tensor:
#      x y z
#    x 2.018550 0.000000 0.016000 
#    y 0.000000 2.109500 0.000000 
#    z 0.016000 0.000000 2.045190 
# 
# From -- ./inp_files/64821.got.cif
#   From: 2010.05.17/outbox.cif.g08.bks.cpg/sg14_33_cif.got.tgz:64821.got - 2010.06.03 17:49:19.
