data_PCOD9248384
_publ_section_title
;
Structure prediction by ZEFSAII (Michael W. Deem and Ramdas Pophale) SiO2 
 PCOD9248384
Probable space group: P 21/C
;
_chemical_formula_sum "Si O2"
_cell_formula_units_Z 24
_cell_length_a 21.980404
_cell_length_b 10.606060
_cell_length_c 21.218045
_cell_angle_alpha 90.000000
_cell_angle_beta 13.807694
_cell_angle_gamma 90.000000
_cell_volume 1180.542932
_symmetry_space_group_name_H-M "P 21/C"
_symmetry_group_IT_number 14
_symmetry_cell_setting 'monoclinic'
loop_
_space_group_symop_operation_xyz
x,y,z
-x,1/2+y,1/2-z
-x,-y,-z
x,1/2-y,1/2+z
loop_
_atom_site_type_symbol
_atom_site_label
_atom_site_fract_x
_atom_site_fract_y
_atom_site_fract_z
Si Si1 0.530657 0.817242 0.302327
Si Si2 0.021559 0.714225 0.873817
Si Si3 0.005174 0.178608 0.962525
Si Si4 0.485767 0.912710 0.613990
Si Si5 0.978941 0.572778 0.137884
Si Si6 0.469639 0.663119 0.714504
O O1 0.295520 0.739650 0.567650
O O2 0.496409 0.828908 0.262193
O O3 0.523454 0.953981 0.342383
O O4 0.797558 0.752817 0.051518
O O5 0.997597 0.566591 0.913355
O O6 0.993176 0.797738 0.964999
O O7 0.254992 0.108497 0.685607
O O8 0.002924 0.316871 0.932040
O O9 0.753889 0.108199 0.190841
O O10 0.473012 0.801727 0.679234
O O11 0.709577 0.589538 0.443778
O O12 0.208104 0.597529 0.956230
#
# Coordination Sequence:
#
# PCOD9248384 Si02
#       6
#     4   4   4   4   4   4
#     4  12  26  40  61  98 124 170 201 258 309 368
#     4  12  25  39  65  97 126 158 212 255 308 364
#     4  10  22  43  64  92 124 166 208 255 305 367
#     4  10  23  41  65  86 127 170 204 250 316 364
#     4  10  22  42  67  91 120 169 203 263 307 353
#     4  10  23  43  63  88 125 162 212 253 308 366
#
# _framework density 20.329630000000002
#
# number of rings (size 3 to 8) (size 9 to 14) (size 15 to 20)
#    0.000    1.333    0.000    4.500    4.667    4.000 
#    0.000    6.667    0.000    0.000    0.000    0.000 
#    0.000    0.000    0.000    0.000    0.000    0.000 
#
# Total GULP energy -134371.424726 kJ/mol
# GULP energy per Si atom -5598.809364 kJ/mol
# Density = 2.028336 g / cm^3
# Si number density = 20.329630 Si / 1000 Ang^3
#
#
#
# Elastic Constant Matrix: (Units=GPa)
#
#
# Indices 1 2 3 4 5 6 
#
# 1 128.6666 -8.1161 25.7086 0.0000 -43.0498 0.0000
# 2 -8.1161 105.0338 18.0747 0.0000 3.8629 0.0000
# 3 25.7086 18.0747 101.3666 0.0000 -51.4886 0.0000
# 4 0.0000 0.0000 0.0000 -11.2761 0.0000 -25.4595
# 5 -43.0498 3.8629 -51.4886 0.0000 44.5866 0.0000
# 6 0.0000 0.0000 0.0000 -25.4595 0.0000 -32.8544
#
#
#
# Elastic Compliance Matrix: (Units=1/GPa)
#
#
# Indices 1 2 3 4 5 6 
#
# 1 0.013781 -0.001269 0.008576 0.000000 0.023319 0.000000
# 2 -0.001269 0.010918 -0.006598 0.000000 -0.009790 0.000000
# 3 0.008576 -0.006598 0.032322 0.000000 0.046178 0.000000
# 4 0.000000 0.000000 0.000000 0.118302 0.000000 -0.091674
# 5 0.023319 -0.009790 0.046178 0.000000 0.099117 0.000000
# 6 0.000000 0.000000 0.000000 -0.091674 0.000000 0.040603
#
#
# Mechanical properties :
#
#
# Convention : Reuss Voigt Hill
#
# Bulk Modulus (GPa) = 17.11154 45.15571 31.13363
# Shear Modulus (GPa) = 15.01033 20.05122 17.53078
#
# Velocity S-wave (km/s) = 2.72020 3.14396 2.93973
# Velocity P-wave (km/s) = 4.27800 5.95309 5.18366
#
# Compressibility (1/GPa) = 0.05844009
#
# Stress axis : x y z
#
# Youngs Moduli (GPa) = 72.56566 91.59071 30.93847
#
# Poissons Ratio (x) = 0.11619 -0.26532
# Poissons Ratio (y) = 0.09205 0.20412
# Poissons Ratio (z) = -0.62231 0.60429
#
# Static dielectric constant tensor:
#      x y z
#    x 1.668420 0.000000 -0.006750 
#    y 0.000000 1.714980 0.000000 
#    z -0.006750 0.000000 1.684400 
# 
# From -- ./inp_files/74942.got.cif
#   From: 2010.05.17/outbox.cif.g08.bks.cpg/sg14_38_cif.got.tgz:74942.got - 2010.06.03 17:49:19.
