data_PCOD9248268
_publ_section_title
;
Structure prediction by ZEFSAII (Michael W. Deem and Ramdas Pophale) SiO2 
 PCOD9248268
Probable space group: P 21/C
;
_chemical_formula_sum "Si O2"
_cell_formula_units_Z 28
_cell_length_a 11.537005
_cell_length_b 5.697323
_cell_length_c 18.680208
_cell_angle_alpha 90.000000
_cell_angle_beta 107.030168
_cell_angle_gamma 90.000000
_cell_volume 1174.010467
_symmetry_space_group_name_H-M "P 21/C"
_symmetry_group_IT_number 14
_symmetry_cell_setting 'monoclinic'
loop_
_space_group_symop_operation_xyz
x,y,z
-x,1/2+y,1/2-z
-x,-y,-z
x,1/2-y,1/2+z
loop_
_atom_site_type_symbol
_atom_site_label
_atom_site_fract_x
_atom_site_fract_y
_atom_site_fract_z
Si Si1 0.607862 0.860714 0.191872
Si Si2 0.122614 0.738729 0.584350
Si Si3 0.989204 0.757502 0.404421
Si Si4 0.375921 0.901867 0.665381
Si Si5 0.233908 0.705352 0.922027
Si Si6 0.302536 0.280662 0.441097
Si Si7 0.500393 0.246334 0.582788
O O1 0.513772 0.678942 0.208805
O O2 0.699234 0.786848 0.145660
O O3 0.669695 0.992589 0.268005
O O4 0.513151 0.019355 0.130181
O O5 0.062526 0.743758 0.494079
O O6 0.268642 0.741589 0.616096
O O7 0.080221 0.491289 0.611868
O O8 0.081116 0.994224 0.608441
O O9 0.099315 0.767015 0.366994
O O10 0.409492 0.083742 0.609587
O O11 0.230829 0.444691 0.956525
O O12 0.358645 0.674825 0.899200
O O13 0.259141 0.964475 0.959346
O O14 0.440274 0.260750 0.494220
#
# Coordination Sequence:
#
# PCOD9248268 Si02
#       7
#     4   4   4   4   4   4   4
#     4  11  24  41  60 101 136 176 222 267 357 418
#     4  10  24  39  64  91 132 178 225 271 330 396
#     4  10  22  42  61  96 127 175 230 276 324 385
#     4  12  24  41  67  96 143 182 217 286 349 427
#     4  11  21  39  64  93 133 164 217 288 332 392
#     4  11  24  38  65 101 133 172 222 277 347 404
#     4  11  24  38  64 100 130 177 219 279 350 407
#
# _framework density 23.849872999999999
#
# number of rings (size 3 to 8) (size 9 to 14) (size 15 to 20)
#    0.000    1.143    2.857    3.857    8.000    1.143 
#    0.000    0.000    0.000   10.286    0.000    0.000 
#    0.000    0.000    0.000    0.000    0.000    0.000 
#
# Total GULP energy -155893.215769 kJ/mol
# GULP energy per Si atom -5567.614849 kJ/mol
# Density = 2.379559 g / cm^3
# Si number density = 23.849873 Si / 1000 Ang^3
#
#
#
# Elastic Constant Matrix: (Units=GPa)
#
#
# Indices 1 2 3 4 5 6 
#
# 1 94.0198 46.6374 11.3511 0.0000 -0.5405 0.0000
# 2 46.6374 177.4845 13.7389 0.0000 -0.8423 0.0000
# 3 11.3511 13.7389 71.8543 0.0000 -12.0609 0.0000
# 4 0.0000 0.0000 0.0000 17.1478 0.0000 5.7577
# 5 -0.5405 -0.8423 -12.0609 0.0000 19.5232 0.0000
# 6 0.0000 0.0000 0.0000 5.7577 0.0000 44.1851
#
#
#
# Elastic Compliance Matrix: (Units=1/GPa)
#
#
# Indices 1 2 3 4 5 6 
#
# 1 0.012367 -0.003139 -0.001471 0.000000 -0.000702 0.000000
# 2 -0.003139 0.006520 -0.000801 0.000000 -0.000301 0.000000
# 3 -0.001471 -0.000801 0.015943 0.000000 0.009774 0.000000
# 4 0.000000 0.000000 0.000000 0.060985 0.000000 -0.007947
# 5 -0.000702 -0.000301 0.009774 0.000000 0.057227 0.000000
# 6 0.000000 0.000000 0.000000 -0.007947 0.000000 0.023668
#
#
# Mechanical properties :
#
#
# Convention : Reuss Voigt Hill
#
# Bulk Modulus (GPa) = 41.65484 54.09038 47.87261
# Shear Modulus (GPa) = 25.57097 34.27997 29.92547
#
# Velocity S-wave (km/s) = 3.27794 3.79532 3.54608
# Velocity P-wave (km/s) = 5.64180 6.47570 6.07308
#
# Compressibility (1/GPa) = 0.02400681
#
# Stress axis : x y z
#
# Youngs Moduli (GPa) = 80.86210 153.38063 62.72249
#
# Poissons Ratio (x) = 0.48147 0.09228
# Poissons Ratio (y) = 0.25383 0.05025
# Poissons Ratio (z) = 0.11897 0.12288
#
# Static dielectric constant tensor:
#      x y z
#    x 2.056170 0.000000 -0.097470 
#    y 0.000000 2.123010 0.000000 
#    z -0.097470 0.000000 1.937520 
# 
# From -- ./inp_files/66513.got.cif
#   From: 2010.05.17/outbox.cif.g08.bks.cpg/sg14_34_cif.got.tgz:66513.got - 2010.06.03 17:49:19.
