data_PCOD9248164
_publ_section_title
;
Structure prediction by ZEFSAII (Michael W. Deem and Ramdas Pophale) SiO2 
 PCOD9248164
Probable space group: P 21/C
;
_chemical_formula_sum "Si O2"
_cell_formula_units_Z 26
_cell_length_a 11.529702
_cell_length_b 20.898268
_cell_length_c 14.781087
_cell_angle_alpha 90.000000
_cell_angle_beta 16.486200
_cell_angle_gamma 90.000000
_cell_volume 1010.702331
_symmetry_space_group_name_H-M "P 21/C"
_symmetry_group_IT_number 14
_symmetry_cell_setting 'monoclinic'
loop_
_space_group_symop_operation_xyz
x,y,z
-x,1/2+y,1/2-z
-x,-y,-z
x,1/2-y,1/2+z
loop_
_atom_site_type_symbol
_atom_site_label
_atom_site_fract_x
_atom_site_fract_y
_atom_site_fract_z
Si Si1 0.066603 0.402644 0.086187
Si Si2 0.500000 0.000000 0.500000
Si Si3 0.601115 0.370196 0.838520
Si Si4 0.105475 0.958763 0.615487
Si Si5 0.379343 0.178868 0.197640
Si Si6 0.109670 0.259630 0.718593
Si Si7 0.362117 0.374248 0.397491
O O1 0.500949 0.388024 0.810043
O O2 0.005014 0.478449 0.132256
O O3 0.082539 0.360405 0.984717
O O4 0.708813 0.371726 0.413341
O O5 0.615922 0.926345 0.441750
O O6 0.458290 0.979300 0.422735
O O7 0.046815 0.371197 0.548475
O O8 0.408864 0.300909 0.993665
O O9 0.766397 0.932331 0.938381
O O10 0.240057 0.901550 0.450117
O O11 0.655199 0.233560 0.038872
O O12 0.145873 0.212541 0.291252
O O13 0.262200 0.310823 0.530000
#
# Coordination Sequence:
#
# PCOD9248164 Si02
#       7
#     4   2   4   4   4   4   4
#     4  10  23  43  69 100 135 183 231 291 346 411
#     4   8  18  38  66  96 128 172 230 286 334 384
#     4   9  20  40  66  98 133 177 226 290 339 409
#     4  10  22  41  67 101 140 178 234 289 350 408
#     4  11  25  44  71  97 140 182 238 282 351 414
#     4  11  24  47  66 105 138 189 229 288 349 428
#     4  11  23  40  67 101 139 183 228 285 350 423
#
# _framework density 25.724685999999998
#
# number of rings (size 3 to 8) (size 9 to 14) (size 15 to 20)
#    0.000    1.846    1.538    0.923    0.000   19.077 
#    0.000    4.615    0.000    0.000    0.000    0.000 
#    0.000    0.000    0.000    0.000    0.000    0.000 
#
# Total GULP energy -145050.360116 kJ/mol
# GULP energy per Si atom -5578.860004 kJ/mol
# Density = 2.566614 g / cm^3
# Si number density = 25.724686 Si / 1000 Ang^3
#
#
#
# Elastic Constant Matrix: (Units=GPa)
#
#
# Indices 1 2 3 4 5 6 
#
# 1 100.7229 50.2695 5.7169 0.0000 -16.6435 0.0000
# 2 50.2695 164.0232 10.7442 0.0000 -14.7688 0.0000
# 3 5.7169 10.7442 37.3788 0.0000 -10.2168 0.0000
# 4 0.0000 0.0000 0.0000 14.8996 0.0000 3.8661
# 5 -16.6435 -14.7688 -10.2168 0.0000 16.1526 0.0000
# 6 0.0000 0.0000 0.0000 3.8661 0.0000 45.1917
#
#
#
# Elastic Compliance Matrix: (Units=1/GPa)
#
#
# Indices 1 2 3 4 5 6 
#
# 1 0.013413 -0.003144 0.002230 0.000000 0.012356 0.000000
# 2 -0.003144 0.007384 -0.000824 0.000000 0.002990 0.000000
# 3 0.002230 -0.000824 0.032729 0.000000 0.022246 0.000000
# 4 0.000000 0.000000 0.000000 0.068640 0.000000 -0.005872
# 5 0.012356 0.002990 0.022246 0.000000 0.091445 0.000000
# 6 0.000000 0.000000 0.000000 -0.005872 0.000000 0.022630
#
#
# Mechanical properties :
#
#
# Convention : Reuss Voigt Hill
#
# Bulk Modulus (GPa) = 19.98090 48.39846 34.18968
# Shear Modulus (GPa) = 19.50073 30.94173 25.22123
#
# Velocity S-wave (km/s) = 2.75627 3.47191 3.13458
# Velocity P-wave (km/s) = 4.23242 5.90991 5.14006
#
# Compressibility (1/GPa) = 0.05004780
#
# Stress axis : x y z
#
# Youngs Moduli (GPa) = 74.55703 135.43660 30.55355
#
# Poissons Ratio (x) = 0.42584 -0.06812
# Poissons Ratio (y) = 0.23442 0.02518
# Poissons Ratio (z) = -0.16623 0.11163
#
# Static dielectric constant tensor:
#      x y z
#    x 2.082890 0.000000 -0.093420 
#    y 0.000000 1.985300 0.000000 
#    z -0.093420 0.000000 2.091470 
# 
# From -- ./inp_files/45547.got.cif
#   From: 2010.05.17/outbox.cif.g08.bks.cpg/sg14_23_cif.got.tgz:45547.got - 2010.06.03 17:49:19.
