data_PCOD9248987
_publ_section_title
;
Structure prediction by ZEFSAII (Michael W. Deem and Ramdas Pophale) SiO2 
 PCOD9248987
Probable space group: P 21/C
;
_chemical_formula_sum "Si O2"
_cell_formula_units_Z 28
_cell_length_a 19.492190
_cell_length_b 11.042565
_cell_length_c 16.420546
_cell_angle_alpha 90.000000
_cell_angle_beta 20.154670
_cell_angle_gamma 90.000000
_cell_volume 1217.804293
_symmetry_space_group_name_H-M "P 21/C"
_symmetry_group_IT_number 14
_symmetry_cell_setting 'monoclinic'
loop_
_space_group_symop_operation_xyz
x,y,z
-x,1/2+y,1/2-z
-x,-y,-z
x,1/2-y,1/2+z
loop_
_atom_site_type_symbol
_atom_site_label
_atom_site_fract_x
_atom_site_fract_y
_atom_site_fract_z
Si Si1 0.235715 0.531930 0.661713
Si Si2 0.978686 0.472362 0.269154
Si Si3 0.677515 0.731200 0.455759
Si Si4 0.166147 0.356211 0.440841
Si Si5 0.917577 0.248760 0.571824
Si Si6 0.372455 0.324117 0.818617
Si Si7 0.346289 0.891945 0.747524
O O1 0.331925 0.401497 0.574497
O O2 0.129994 0.611821 0.848751
O O3 0.417945 0.614053 0.428060
O O4 0.087270 0.515063 0.750651
O O5 0.956714 0.597068 0.343564
O O6 0.813691 0.388664 0.498873
O O7 0.198847 0.419951 0.032336
O O8 0.616796 0.730855 0.617792
O O9 0.548212 0.834849 0.556452
O O10 0.909348 0.759995 0.187674
O O11 0.296176 0.243390 0.323425
O O12 0.314399 0.468085 0.256915
O O13 0.011633 0.319702 0.543643
O O14 0.728067 0.311594 0.744314
#
# Coordination Sequence:
#
# PCOD9248987 Si02
#       7
#     4   4   4   4   4   4   4
#     4  12  27  43  69 107 136 187 237 285 347 425
#     4  10  22  45  68 101 134 178 236 288 338 409
#     4  12  25  47  71 101 142 188 227 291 355 420
#     4  10  23  46  70 102 134 181 234 297 343 413
#     4  12  26  45  69 103 148 180 228 288 365 417
#     4  12  23  44  73  99 133 184 236 288 345 409
#     4  10  24  45  68 102 136 178 230 289 347 414
#
# _framework density 22.992201000000001
#
# number of rings (size 3 to 8) (size 9 to 14) (size 15 to 20)
#    0.857    0.000    5.714    0.857    2.000    4.571 
#    2.571    0.000    0.000    0.000    0.000    0.000 
#    0.000    0.000    0.000    0.000    0.000    0.000 
#
# Total GULP energy -156505.000968 kJ/mol
# GULP energy per Si atom -5589.464320 kJ/mol
# Density = 2.293987 g / cm^3
# Si number density = 22.992201 Si / 1000 Ang^3
#
#
#
# Elastic Constant Matrix: (Units=GPa)
#
#
# Indices 1 2 3 4 5 6 
#
# 1 62.4345 9.1126 0.8633 0.0000 -0.1966 0.0000
# 2 9.1126 64.2972 6.5357 0.0000 -4.8462 0.0000
# 3 0.8633 6.5357 80.2696 0.0000 -3.9548 0.0000
# 4 0.0000 0.0000 0.0000 33.9178 0.0000 9.1832
# 5 -0.1966 -4.8462 -3.9548 0.0000 19.8439 0.0000
# 6 0.0000 0.0000 0.0000 9.1832 0.0000 31.4847
#
#
#
# Elastic Compliance Matrix: (Units=1/GPa)
#
#
# Indices 1 2 3 4 5 6 
#
# 1 0.016358 -0.002349 -0.000005 0.000000 -0.000413 0.000000
# 2 -0.002349 0.016280 -0.001117 0.000000 0.003730 0.000000
# 3 -0.000005 -0.001117 0.012660 0.000000 0.002250 0.000000
# 4 0.000000 0.000000 0.000000 0.032011 0.000000 -0.009337
# 5 -0.000413 0.003730 0.002250 0.000000 0.051749 0.000000
# 6 0.000000 0.000000 0.000000 -0.009337 0.000000 0.034485
#
#
# Mechanical properties :
#
#
# Convention : Reuss Voigt Hill
#
# Bulk Modulus (GPa) = 26.07052 26.66938 26.36995
# Shear Modulus (GPa) = 27.28219 29.74859 28.51539
#
# Velocity S-wave (km/s) = 3.44842 3.60092 3.52550
# Velocity P-wave (km/s) = 5.21718 5.37711 5.29775
#
# Compressibility (1/GPa) = 0.03835750
#
# Stress axis : x y z
#
# Youngs Moduli (GPa) = 61.13062 61.42380 78.98983
#
# Poissons Ratio (x) = 0.14429 0.00040
# Poissons Ratio (y) = 0.14360 0.08819
# Poissons Ratio (z) = 0.00031 0.06858
#
# Static dielectric constant tensor:
#      x y z
#    x 1.839880 0.000000 0.041330 
#    y 0.000000 1.886750 0.000000 
#    z 0.041330 0.000000 1.874030 
# 
# From -- ./inp_files/61254.got.cif
#   From: 2010.05.17/outbox.cif.g08.bks.cpg/sg14_31_cif.got.tgz:61254.got - 2010.06.03 17:49:19.
