data_PCOD9248759
_publ_section_title
;
Structure prediction by ZEFSAII (Michael W. Deem and Ramdas Pophale) SiO2 
 PCOD9248759
Probable space group: P 21/C
;
_chemical_formula_sum "Si O2"
_cell_formula_units_Z 30
_cell_length_a 7.315463
_cell_length_b 25.741368
_cell_length_c 7.113516
_cell_angle_alpha 90.000000
_cell_angle_beta 121.252726
_cell_angle_gamma 90.000000
_cell_volume 1145.161035
_symmetry_space_group_name_H-M "P 21/C"
_symmetry_group_IT_number 14
_symmetry_cell_setting 'monoclinic'
loop_
_space_group_symop_operation_xyz
x,y,z
-x,1/2+y,1/2-z
-x,-y,-z
x,1/2-y,1/2+z
loop_
_atom_site_type_symbol
_atom_site_label
_atom_site_fract_x
_atom_site_fract_y
_atom_site_fract_z
Si Si1 0.303685 0.308932 0.620742
Si Si2 0.328409 0.940982 0.556592
Si Si3 0.749179 0.160649 0.232585
Si Si4 0.343336 0.113191 0.495403
Si Si5 0.500000 0.500000 0.500000
Si Si6 0.167401 0.304037 0.158991
Si Si7 0.878925 0.963831 0.165039
Si Si8 0.932057 0.076477 0.120002
O O1 0.533072 0.307337 0.637455
O O2 0.315216 0.352156 0.787395
O O3 0.139361 0.319260 0.362199
O O4 0.249103 0.254535 0.687520
O O5 0.279057 0.888813 0.645865
O O6 0.453288 0.922395 0.437460
O O7 0.098856 0.965204 0.390680
O O8 0.470424 0.977243 0.762219
O O9 0.809894 0.130922 0.071518
O O10 0.950924 0.191541 0.421798
O O11 0.330475 0.155786 0.649858
O O12 0.122946 0.080973 0.372732
O O13 0.658373 0.554054 0.632875
O O14 0.951646 0.938806 0.009782
O O15 0.788987 0.024798 0.092446
#
# Coordination Sequence:
#
# PCOD9248759 Si02
#       8
#     4   4   4   4   2   4   4   4
#     4  11  24  46  70  98 134 176 217 285 346 403
#     4  11  24  43  66  98 129 184 221 279 335 399
#     4  10  25  43  66 101 132 166 236 270 332 420
#     4  10  23  46  65 100 137 168 237 272 333 415
#     4  12  22  42  64  92 136 176 226 282 322 404
#     4  11  24  46  70  99 134 179 218 283 346 402
#     4  11  24  41  66  92 136 179 224 273 341 385
#     4  10  22  44  60  97 133 171 223 283 320 400
#
# _framework density 26.197189000000002
#
# number of rings (size 3 to 8) (size 9 to 14) (size 15 to 20)
#    0.000    1.333    4.000    0.400    3.733    1.600 
#    4.800    0.000    0.000    0.000    0.000    0.000 
#    0.000    0.000    0.000    0.000    0.000    0.000 
#
# Total GULP energy -167632.085405 kJ/mol
# GULP energy per Si atom -5587.736180 kJ/mol
# Density = 2.613756 g / cm^3
# Si number density = 26.197189 Si / 1000 Ang^3
#
#
#
# Elastic Constant Matrix: (Units=GPa)
#
#
# Indices 1 2 3 4 5 6 
#
# 1 108.5054 38.2951 4.0569 0.0000 10.0386 0.0000
# 2 38.2951 114.3774 31.6729 0.0000 4.2545 0.0000
# 3 4.0569 31.6729 96.3972 0.0000 20.6148 0.0000
# 4 0.0000 0.0000 0.0000 37.4453 0.0000 -6.3691
# 5 10.0386 4.2545 20.6148 0.0000 51.3950 0.0000
# 6 0.0000 0.0000 0.0000 -6.3691 0.0000 44.6354
#
#
#
# Elastic Compliance Matrix: (Units=1/GPa)
#
#
# Indices 1 2 3 4 5 6 
#
# 1 0.010749 -0.003877 0.001315 0.000000 -0.002306 0.000000
# 2 -0.003877 0.011029 -0.003749 0.000000 0.001348 0.000000
# 3 0.001315 -0.003749 0.012621 0.000000 -0.005009 0.000000
# 4 0.000000 0.000000 0.000000 0.027370 0.000000 0.003905
# 5 -0.002306 0.001348 -0.005009 0.000000 0.021805 0.000000
# 6 0.000000 0.000000 0.000000 0.003905 0.000000 0.022961
#
#
# Mechanical properties :
#
#
# Convention : Reuss Voigt Hill
#
# Bulk Modulus (GPa) = 45.92125 51.92551 48.92338
# Shear Modulus (GPa) = 39.55181 43.04549 41.29865
#
# Velocity S-wave (km/s) = 3.88980 4.05796 3.97477
# Velocity P-wave (km/s) = 6.14338 6.46684 6.30719
#
# Compressibility (1/GPa) = 0.02177641
#
# Stress axis : x y z
#
# Youngs Moduli (GPa) = 93.03495 90.66956 79.23085
#
# Poissons Ratio (x) = 0.35153 -0.10416
# Poissons Ratio (y) = 0.36070 0.29703
# Poissons Ratio (z) = -0.12231 0.33991
#
# Static dielectric constant tensor:
#      x y z
#    x 2.349810 0.000000 0.084960 
#    y 0.000000 2.076800 0.000000 
#    z 0.084960 0.000000 2.147850 
# 
# From -- ./inp_files/11085.got.cif
#   From: 2010.05.17/outbox.cif.g08.bks.cpg/sg14_6_cif.got.tgz:11085.got - 2010.06.03 17:49:19.
