data_PCOD9248980
_publ_section_title
;
Structure prediction by ZEFSAII (Michael W. Deem and Ramdas Pophale) SiO2 
 PCOD9248980
Probable space group: P 21/C
;
_chemical_formula_sum "Si O2"
_cell_formula_units_Z 28
_cell_length_a 4.986773
_cell_length_b 17.791371
_cell_length_c 14.796779
_cell_angle_alpha 90.000000
_cell_angle_beta 116.541811
_cell_angle_gamma 90.000000
_cell_volume 1174.435662
_symmetry_space_group_name_H-M "P 21/C"
_symmetry_group_IT_number 14
_symmetry_cell_setting 'monoclinic'
loop_
_space_group_symop_operation_xyz
x,y,z
-x,1/2+y,1/2-z
-x,-y,-z
x,1/2-y,1/2+z
loop_
_atom_site_type_symbol
_atom_site_label
_atom_site_fract_x
_atom_site_fract_y
_atom_site_fract_z
Si Si1 0.784654 0.006207 0.796192
Si Si2 0.656630 0.728331 0.725457
Si Si3 0.581758 0.446022 0.597056
Si Si4 0.937649 0.309285 0.579367
Si Si5 0.058089 0.859677 0.410658
Si Si6 0.021601 0.825962 0.117854
Si Si7 0.417444 0.453756 0.076898
O O1 0.862921 0.091932 0.834607
O O2 0.529580 0.002115 0.681781
O O3 0.670335 0.960548 0.866093
O O4 0.103580 0.974350 0.812810
O O5 0.784162 0.656978 0.801195
O O6 0.303097 0.729214 0.676563
O O7 0.820322 0.796397 0.803127
O O8 0.763565 0.709008 0.640875
O O9 0.500000 0.500000 0.500000
O O10 0.678427 0.364263 0.574754
O O11 0.048616 0.335110 0.498136
O O12 0.851089 0.222908 0.543605
O O13 0.912121 0.917708 0.459791
O O14 0.341015 0.887180 0.397618
O O15 0.500000 0.500000 0.000000
#
# Coordination Sequence:
#
# PCOD9248980 Si02
#       7
#     4   4   4   4   4   4   4
#     4  12  23  43  67  99 136 181 231 272 351 418
#     4  10  23  42  66  98 129 173 237 272 335 421
#     4  12  26  42  66 105 140 181 228 285 346 405
#     4  10  26  44  70  99 143 177 233 293 337 419
#     4  10  22  45  67  95 138 175 227 283 339 407
#     4  12  22  43  75  91 130 195 218 277 356 416
#     4  12  24  46  74  99 136 181 230 289 347 418
#
# _framework density 23.841237
#
# number of rings (size 3 to 8) (size 9 to 14) (size 15 to 20)
#    0.857    0.000    4.286    2.571    0.000    4.571 
#    7.714    0.000    0.000    0.000    0.000    0.000 
#    0.000    0.000    0.000    0.000    0.000    0.000 
#
# Total GULP energy -156401.528472 kJ/mol
# GULP energy per Si atom -5585.768874 kJ/mol
# Density = 2.378697 g / cm^3
# Si number density = 23.841237 Si / 1000 Ang^3
#
#
#
# Elastic Constant Matrix: (Units=GPa)
#
#
# Indices 1 2 3 4 5 6 
#
# 1 93.0329 21.7115 0.8010 0.0000 -10.7287 0.0000
# 2 21.7115 80.4964 44.1816 0.0000 -2.1643 0.0000
# 3 0.8010 44.1816 109.8132 0.0000 -18.4416 0.0000
# 4 0.0000 0.0000 0.0000 29.2032 0.0000 9.4433
# 5 -10.7287 -2.1643 -18.4416 0.0000 32.6837 0.0000
# 6 0.0000 0.0000 0.0000 9.4433 0.0000 32.5405
#
#
#
# Elastic Compliance Matrix: (Units=1/GPa)
#
#
# Indices 1 2 3 4 5 6 
#
# 1 0.012427 -0.004680 0.002679 0.000000 0.005281 0.000000
# 2 -0.004680 0.017947 -0.008004 0.000000 -0.004864 0.000000
# 3 0.002679 -0.008004 0.013660 0.000000 0.008057 0.000000
# 4 0.000000 0.000000 0.000000 0.037789 0.000000 -0.010966
# 5 0.005281 -0.004864 0.008057 0.000000 0.036554 0.000000
# 6 0.000000 0.000000 0.000000 -0.010966 0.000000 0.033913
#
#
# Mechanical properties :
#
#
# Convention : Reuss Voigt Hill
#
# Bulk Modulus (GPa) = 41.62281 46.30343 43.96312
# Shear Modulus (GPa) = 27.73023 33.32871 30.52947
#
# Velocity S-wave (km/s) = 3.41416 3.74296 3.58233
# Velocity P-wave (km/s) = 5.74788 6.17604 5.96580
#
# Compressibility (1/GPa) = 0.02402529
#
# Stress axis : x y z
#
# Youngs Moduli (GPa) = 80.46894 55.71828 73.20642
#
# Poissons Ratio (x) = 0.26079 -0.19615
# Poissons Ratio (y) = 0.37663 0.58591
# Poissons Ratio (z) = -0.21561 0.44594
#
# Static dielectric constant tensor:
#      x y z
#    x 1.879160 0.000000 0.039580 
#    y 0.000000 1.979450 0.000000 
#    z 0.039580 0.000000 1.951780 
# 
# From -- ./inp_files/37576.got.cif
#   From: 2010.05.17/outbox.cif.g08.bks.cpg/sg14_19_cif.got.tgz:37576.got - 2010.06.03 17:49:19.
