data_PCOD9248738
_publ_section_title
;
Structure prediction by ZEFSAII (Michael W. Deem and Ramdas Pophale) SiO2 
 PCOD9248738
Probable space group: P 21/C
;
_chemical_formula_sum "Si O2"
_cell_formula_units_Z 20
_cell_length_a 5.234235
_cell_length_b 18.282646
_cell_length_c 8.970555
_cell_angle_alpha 90.000000
_cell_angle_beta 69.637980
_cell_angle_gamma 90.000000
_cell_volume 804.801555
_symmetry_space_group_name_H-M "P 21/C"
_symmetry_group_IT_number 14
_symmetry_cell_setting 'monoclinic'
loop_
_space_group_symop_operation_xyz
x,y,z
-x,1/2+y,1/2-z
-x,-y,-z
x,1/2-y,1/2+z
loop_
_atom_site_type_symbol
_atom_site_label
_atom_site_fract_x
_atom_site_fract_y
_atom_site_fract_z
Si Si1 0.490513 0.286334 0.757603
Si Si2 0.754086 0.925009 0.805858
Si Si3 0.018679 0.928245 0.343051
Si Si4 0.840821 0.106336 0.022589
Si Si5 0.525542 0.349489 0.071626
O O1 0.253765 0.343068 0.758419
O O2 0.747868 0.314948 0.606880
O O3 0.425083 0.204736 0.723093
O O4 0.551060 0.301536 0.917021
O O5 0.431713 0.940812 0.885270
O O6 0.906901 0.921273 0.932194
O O7 0.900448 0.986855 0.680599
O O8 0.201281 0.885771 0.424775
O O9 0.700477 0.910546 0.418173
O O10 0.107884 0.897729 0.161781
#
# Coordination Sequence:
#
# PCOD9248738 Si02
#       5
#     4   4   4   4   4
#     4  10  28  45  69  95 140 176 230 270 347 391
#     4  10  23  43  73 100 136 176 225 275 331 404
#     4  12  25  43  72 103 135 175 229 273 340 393
#     4  10  22  43  72  96 138 171 225 266 333 399
#     4  12  28  43  69  98 136 179 223 283 334 404
#
# _framework density 24.850847000000002
#
# number of rings (size 3 to 8) (size 9 to 14) (size 15 to 20)
#    1.200    0.000    0.000    4.800    8.400    1.600 
#    0.000    0.000    0.000    0.000    0.000    0.000 
#    0.000    0.000    0.000    0.000    0.000    0.000 
#
# Total GULP energy -111983.872972 kJ/mol
# GULP energy per Si atom -5599.193649 kJ/mol
# Density = 2.479429 g / cm^3
# Si number density = 24.850847 Si / 1000 Ang^3
#
#
#
# Elastic Constant Matrix: (Units=GPa)
#
#
# Indices 1 2 3 4 5 6 
#
# 1 155.9865 47.3556 45.0706 0.0000 37.6881 0.0000
# 2 47.3556 87.3999 15.2515 0.0000 14.3858 0.0000
# 3 45.0706 15.2515 94.3508 0.0000 19.0606 0.0000
# 4 0.0000 0.0000 0.0000 41.7710 0.0000 0.8760
# 5 37.6881 14.3858 19.0606 0.0000 39.8976 0.0000
# 6 0.0000 0.0000 0.0000 0.8760 0.0000 37.2257
#
#
#
# Elastic Compliance Matrix: (Units=1/GPa)
#
#
# Indices 1 2 3 4 5 6 
#
# 1 0.010010 -0.003826 -0.002802 0.000000 -0.006737 0.000000
# 2 -0.003826 0.013749 -0.000137 0.000000 -0.001278 0.000000
# 3 -0.002802 -0.000137 0.012634 0.000000 -0.003340 0.000000
# 4 0.000000 0.000000 0.000000 0.023952 0.000000 -0.000564
# 5 -0.006737 -0.001278 -0.003340 0.000000 0.033485 0.000000
# 6 0.000000 0.000000 0.000000 -0.000564 0.000000 0.026876
#
#
# Mechanical properties :
#
#
# Convention : Reuss Voigt Hill
#
# Bulk Modulus (GPa) = 43.73767 61.45472 52.59619
# Shear Modulus (GPa) = 35.24715 39.11615 37.18165
#
# Velocity S-wave (km/s) = 3.77018 3.97172 3.87226
# Velocity P-wave (km/s) = 6.04902 6.76874 6.41897
#
# Compressibility (1/GPa) = 0.02286359
#
# Stress axis : x y z
#
# Youngs Moduli (GPa) = 99.90369 72.73399 79.15132
#
# Poissons Ratio (x) = 0.27825 0.22179
# Poissons Ratio (y) = 0.38219 0.01082
# Poissons Ratio (z) = 0.27994 0.00995
#
# Static dielectric constant tensor:
#      x y z
#    x 1.896360 0.000000 -0.024940 
#    y 0.000000 1.965570 0.000000 
#    z -0.024940 0.000000 1.994260 
# 
# From -- ./inp_files/20943.got.cif
#   From: 2010.05.17/outbox.cif.g08.bks.cpg/sg14_11_cif.got.tgz:20943.got - 2010.06.03 17:49:19.
