data_PCOD9248389
_publ_section_title
;
Structure prediction by ZEFSAII (Michael W. Deem and Ramdas Pophale) SiO2 
 PCOD9248389
Probable space group: P 21/C
;
_chemical_formula_sum "Si O2"
_cell_formula_units_Z 12
_cell_length_a 5.573369
_cell_length_b 4.798538
_cell_length_c 16.003032
_cell_angle_alpha 90.000000
_cell_angle_beta 89.265288
_cell_angle_gamma 90.000000
_cell_volume 427.950268
_symmetry_space_group_name_H-M "P 21/C"
_symmetry_group_IT_number 14
_symmetry_cell_setting 'monoclinic'
loop_
_space_group_symop_operation_xyz
x,y,z
-x,1/2+y,1/2-z
-x,-y,-z
x,1/2-y,1/2+z
loop_
_atom_site_type_symbol
_atom_site_label
_atom_site_fract_x
_atom_site_fract_y
_atom_site_fract_z
Si Si1 0.756482 0.703167 0.065023
Si Si2 0.557498 0.695910 0.396223
Si Si3 0.090213 0.963788 0.702165
O O1 0.648841 0.393930 0.065602
O O2 0.995116 0.679438 0.117780
O O3 0.566342 0.899915 0.114485
O O4 0.753880 0.812827 0.970441
O O5 0.676514 0.854230 0.318634
O O6 0.094419 0.704673 0.765498
#
# Coordination Sequence:
#
# PCOD9248389 Si02
#       3
#     4   4   4
#     4  10  22  42  67  93 126 173 226 275 323 387
#     4  10  22  42  67  93 126 173 226 275 323 387
#     4  12  25  40  63  98 138 176 214 272 343 402
#
# _framework density 28.04064
#
# number of rings (size 3 to 8) (size 9 to 14) (size 15 to 20)
#    0.000    1.333    0.000    5.000    0.000    5.333 
#    0.000   13.333    0.000    0.000    0.000    0.000 
#    0.000    0.000    0.000    0.000    0.000    0.000 
#
# Total GULP energy -67275.350799 kJ/mol
# GULP energy per Si atom -5606.279233 kJ/mol
# Density = 2.797682 g / cm^3
# Si number density = 28.040640 Si / 1000 Ang^3
#
#
#
# Elastic Constant Matrix: (Units=GPa)
#
#
# Indices 1 2 3 4 5 6 
#
# 1 67.7113 35.6536 20.4882 0.0000 -8.7222 0.0000
# 2 35.6536 180.6316 41.2794 0.0000 -16.1139 0.0000
# 3 20.4882 41.2794 89.2498 0.0000 1.5252 0.0000
# 4 0.0000 0.0000 0.0000 52.7796 0.0000 -19.1717
# 5 -8.7222 -16.1139 1.5252 0.0000 34.9263 0.0000
# 6 0.0000 0.0000 0.0000 -19.1717 0.0000 61.7448
#
#
#
# Elastic Compliance Matrix: (Units=1/GPa)
#
#
# Indices 1 2 3 4 5 6 
#
# 1 0.017376 -0.002469 -0.002904 0.000000 0.003327 0.000000
# 2 -0.002469 0.006868 -0.002655 0.000000 0.002668 0.000000
# 3 -0.002904 -0.002655 0.013142 0.000000 -0.002524 0.000000
# 4 0.000000 0.000000 0.000000 0.021355 0.000000 0.006631
# 5 0.003327 0.002668 -0.002524 0.000000 0.030804 0.000000
# 6 0.000000 0.000000 0.000000 0.006631 0.000000 0.018255
#
#
# Mechanical properties :
#
#
# Convention : Reuss Voigt Hill
#
# Bulk Modulus (GPa) = 46.88247 59.15944 53.02095
# Shear Modulus (GPa) = 38.17752 45.90159 42.03955
#
# Velocity S-wave (km/s) = 3.69386 4.05033 3.87620
# Velocity P-wave (km/s) = 5.91173 6.55875 6.24363
#
# Compressibility (1/GPa) = 0.02132994
#
# Stress axis : x y z
#
# Youngs Moduli (GPa) = 57.55082 145.59393 76.08969
#
# Poissons Ratio (x) = 0.35953 0.22093
# Poissons Ratio (y) = 0.14212 0.20205
# Poissons Ratio (z) = 0.16710 0.38662
#
# Static dielectric constant tensor:
#      x y z
#    x 2.187810 0.000000 0.006330 
#    y 0.000000 2.041740 0.000000 
#    z 0.006330 0.000000 2.286000 
# 
# From -- ./inp_files/36561.got.cif
#   From: 2010.05.17/outbox.cif.g08.bks.cpg/sg14_19_cif.got.tgz:36561.got - 2010.06.03 17:49:19.
