data_PCOD9248507
_publ_section_title
;
Structure prediction by ZEFSAII (Michael W. Deem and Ramdas Pophale) SiO2 
 PCOD9248507
Probable space group: P 21/C
;
_chemical_formula_sum "Si O2"
_cell_formula_units_Z 24
_cell_length_a 22.931433
_cell_length_b 5.059531
_cell_length_c 12.900775
_cell_angle_alpha 90.000000
_cell_angle_beta 37.697012
_cell_angle_gamma 90.000000
_cell_volume 915.258175
_symmetry_space_group_name_H-M "P 21/C"
_symmetry_group_IT_number 14
_symmetry_cell_setting 'monoclinic'
loop_
_space_group_symop_operation_xyz
x,y,z
-x,1/2+y,1/2-z
-x,-y,-z
x,1/2-y,1/2+z
loop_
_atom_site_type_symbol
_atom_site_label
_atom_site_fract_x
_atom_site_fract_y
_atom_site_fract_z
Si Si1 0.418094 0.040575 0.763964
Si Si2 0.917036 0.418488 0.487278
Si Si3 0.783090 0.431086 0.263935
Si Si4 0.870792 0.657931 0.781025
Si Si5 0.381584 0.546156 0.952054
Si Si6 0.752160 0.756100 0.120794
O O1 0.386350 0.252225 0.898157
O O2 0.530824 0.084143 0.590863
O O3 0.341840 0.093399 0.782849
O O4 0.407484 0.745571 0.821534
O O5 0.876736 0.127697 0.563783
O O6 0.896809 0.542797 0.630360
O O7 0.845451 0.562180 0.510024
O O8 0.027648 0.393063 0.306968
O O9 0.824835 0.559852 0.309513
O O10 0.717504 0.173348 0.370852
O O11 0.727478 0.620303 0.263930
O O12 0.789311 0.563831 0.975744
#
# Coordination Sequence:
#
# PCOD9248507 Si02
#       6
#     4   4   4   4   4   4
#     4  10  22  43  68 101 131 187 221 283 342 415
#     4  10  24  40  63  93 126 177 224 277 344 403
#     4  11  23  39  65  94 128 178 222 285 334 417
#     4  10  22  44  61  88 136 171 222 282 338 407
#     4  10  22  42  71  95 139 179 230 273 354 403
#     4  11  24  38  65  98 131 171 232 276 345 402
#
# _framework density 26.222110000000001
#
# number of rings (size 3 to 8) (size 9 to 14) (size 15 to 20)
#    0.000    1.667    1.667    1.500    7.000    2.000 
#    0.000    0.833    0.000    0.000    0.000    0.000 
#    0.000    0.000    0.000    0.000    0.000    0.000 
#
# Total GULP energy -134020.303010 kJ/mol
# GULP energy per Si atom -5584.179292 kJ/mol
# Density = 2.616243 g / cm^3
# Si number density = 26.222110 Si / 1000 Ang^3
#
#
#
# Elastic Constant Matrix: (Units=GPa)
#
#
# Indices 1 2 3 4 5 6 
#
# 1 137.5433 19.9616 43.7672 0.0000 -24.6173 0.0000
# 2 19.9616 51.6545 13.0834 0.0000 9.5585 0.0000
# 3 43.7672 13.0834 141.1906 0.0000 -20.3538 0.0000
# 4 0.0000 0.0000 0.0000 35.5463 0.0000 3.0867
# 5 -24.6173 9.5585 -20.3538 0.0000 53.9543 0.0000
# 6 0.0000 0.0000 0.0000 3.0867 0.0000 22.2779
#
#
#
# Elastic Compliance Matrix: (Units=1/GPa)
#
#
# Indices 1 2 3 4 5 6 
#
# 1 0.009171 -0.003834 -0.001889 0.000000 0.004151 0.000000
# 2 -0.003834 0.022490 -0.001821 0.000000 -0.006421 0.000000
# 3 -0.001889 -0.001821 0.008206 0.000000 0.002556 0.000000
# 4 0.000000 0.000000 0.000000 0.028475 0.000000 -0.003945
# 5 0.004151 -0.006421 0.002556 0.000000 0.022530 0.000000
# 6 0.000000 0.000000 0.000000 -0.003945 0.000000 0.045434
#
#
# Mechanical properties :
#
#
# Convention : Reuss Voigt Hill
#
# Bulk Modulus (GPa) = 40.35768 53.77922 47.06845
# Shear Modulus (GPa) = 31.31787 39.26078 35.28933
#
# Velocity S-wave (km/s) = 3.45966 3.87362 3.67247
# Velocity P-wave (km/s) = 5.60206 6.36869 5.99764
#
# Compressibility (1/GPa) = 0.02477843
#
# Stress axis : x y z
#
# Youngs Moduli (GPa) = 109.04075 44.46368 121.86919
#
# Poissons Ratio (x) = 0.17046 0.23024
# Poissons Ratio (y) = 0.41802 0.22196
# Poissons Ratio (z) = 0.20600 0.08098
#
# Static dielectric constant tensor:
#      x y z
#    x 2.156360 0.000000 0.023350 
#    y 0.000000 2.186050 0.000000 
#    z 0.023350 0.000000 2.043790 
# 
# From -- ./inp_files/49606.got.cif
#   From: 2010.05.17/outbox.cif.g08.bks.cpg/sg14_25_cif.got.tgz:49606.got - 2010.06.03 17:49:19.
