data_PCOD9248429
_publ_section_title
;
Structure prediction by ZEFSAII (Michael W. Deem and Ramdas Pophale) SiO2 
 PCOD9248429
Probable space group: P 21/C
;
_chemical_formula_sum "Si O2"
_cell_formula_units_Z 30
_cell_length_a 12.128714
_cell_length_b 14.214792
_cell_length_c 8.773496
_cell_angle_alpha 90.000000
_cell_angle_beta 68.306106
_cell_angle_gamma 90.000000
_cell_volume 1405.477984
_symmetry_space_group_name_H-M "P 21/C"
_symmetry_group_IT_number 14
_symmetry_cell_setting 'monoclinic'
loop_
_space_group_symop_operation_xyz
x,y,z
-x,1/2+y,1/2-z
-x,-y,-z
x,1/2-y,1/2+z
loop_
_atom_site_type_symbol
_atom_site_label
_atom_site_fract_x
_atom_site_fract_y
_atom_site_fract_z
Si Si1 0.918661 0.240507 0.668051
Si Si2 0.034480 0.437994 0.254704
Si Si3 0.500000 0.000000 0.500000
Si Si4 0.744948 0.016847 0.531356
Si Si5 0.751076 0.234829 0.504964
Si Si6 0.431302 0.599416 0.359117
Si Si7 0.673376 0.569327 0.383510
Si Si8 0.888958 0.893229 0.955213
O O1 0.880448 0.252235 0.512946
O O2 0.974890 0.140976 0.680606
O O3 0.013684 0.320201 0.653560
O O4 0.789541 0.254477 0.810266
O O5 0.103868 0.395234 0.365410
O O6 0.931965 0.504251 0.376214
O O7 0.129186 0.498033 0.110778
O O8 0.361920 0.020053 0.518559
O O9 0.454108 0.944135 0.681058
O O10 0.717945 0.128070 0.559467
O O11 0.739442 0.969056 0.699398
O O12 0.652063 0.309710 0.597694
O O13 0.556157 0.620480 0.379972
O O14 0.369475 0.518912 0.493350
O O15 0.762462 0.627048 0.444657
#
# Coordination Sequence:
#
# PCOD9248429 Si02
#       8
#     4   4   2   4   4   4   4   4
#     4  12  25  40  65 102 136 179 231 280 346 411
#     4  11  24  41  65  99 139 183 226 282 348 410
#     4  10  22  42  68  96 128 180 224 274 336 420
#     4  11  23  40  68  98 134 179 230 282 339 406
#     4  12  23  41  67 100 135 174 229 285 330 410
#     4  10  22  43  67  98 133 177 230 278 344 409
#     4  10  23  41  67  96 133 176 224 283 344 406
#     4  11  23  42  65  98 140 183 222 282 348 413
#
# _framework density 21.345051999999999
#
# number of rings (size 3 to 8) (size 9 to 14) (size 15 to 20)
#    0.000    1.067    2.667    4.000    3.733    1.067 
#    2.400    0.000    5.867    0.000    0.000    0.000 
#    0.000    0.000    0.000    0.000    0.000    0.000 
#
# Total GULP energy -167123.023597 kJ/mol
# GULP energy per Si atom -5570.767453 kJ/mol
# Density = 2.129647 g / cm^3
# Si number density = 21.345052 Si / 1000 Ang^3
#
#
#
# Elastic Constant Matrix: (Units=GPa)
#
#
# Indices 1 2 3 4 5 6 
#
# 1 109.6841 24.3989 42.3881 0.0000 12.2890 0.0000
# 2 24.3989 66.1223 16.1833 0.0000 1.6312 0.0000
# 3 42.3881 16.1833 60.0717 0.0000 -4.0209 0.0000
# 4 0.0000 0.0000 0.0000 20.7735 0.0000 -7.3113
# 5 12.2890 1.6312 -4.0209 0.0000 26.1717 0.0000
# 6 0.0000 0.0000 0.0000 -7.3113 0.0000 32.5045
#
#
#
# Elastic Compliance Matrix: (Units=1/GPa)
#
#
# Indices 1 2 3 4 5 6 
#
# 1 0.014529 -0.002693 -0.010075 0.000000 -0.008202 0.000000
# 2 -0.002693 0.016765 -0.002629 0.000000 -0.000184 0.000000
# 3 -0.010075 -0.002629 0.025050 0.000000 0.008743 0.000000
# 4 0.000000 0.000000 0.000000 0.052277 0.000000 0.011759
# 5 -0.008202 -0.000184 0.008743 0.000000 0.043415 0.000000
# 6 0.000000 0.000000 0.000000 0.011759 0.000000 0.033410
#
#
# Mechanical properties :
#
#
# Convention : Reuss Voigt Hill
#
# Bulk Modulus (GPa) = 39.13963 44.64652 41.89307
# Shear Modulus (GPa) = 22.24634 26.08378 24.16506
#
# Velocity S-wave (km/s) = 3.23185 3.49951 3.36834
# Velocity P-wave (km/s) = 5.68357 6.10662 5.89889
#
# Compressibility (1/GPa) = 0.02554955
#
# Stress axis : x y z
#
# Youngs Moduli (GPa) = 68.82892 59.64785 39.92067
#
# Poissons Ratio (x) = 0.16062 0.40222
# Poissons Ratio (y) = 0.18534 0.10494
# Poissons Ratio (z) = 0.69348 0.15680
#
# Static dielectric constant tensor:
#      x y z
#    x 1.774130 0.000000 0.031350 
#    y 0.000000 1.748920 0.000000 
#    z 0.031350 0.000000 1.752850 
# 
# From -- ./inp_files/13303.got.cif
#   From: 2010.05.17/outbox.cif.g08.bks.cpg/sg14_7_cif.got.tgz:13303.got - 2010.06.03 17:49:19.
