data_PCOD9248345
_publ_section_title
;
Structure prediction by ZEFSAII (Michael W. Deem and Ramdas Pophale) SiO2 
 PCOD9248345
Probable space group: P 21/C
;
_chemical_formula_sum "Si O2"
_cell_formula_units_Z 26
_cell_length_a 8.026103
_cell_length_b 22.753726
_cell_length_c 5.172597
_cell_angle_alpha 90.000000
_cell_angle_beta 88.214713
_cell_angle_gamma 90.000000
_cell_volume 944.180520
_symmetry_space_group_name_H-M "P 21/C"
_symmetry_group_IT_number 14
_symmetry_cell_setting 'monoclinic'
loop_
_space_group_symop_operation_xyz
x,y,z
-x,1/2+y,1/2-z
-x,-y,-z
x,1/2-y,1/2+z
loop_
_atom_site_type_symbol
_atom_site_label
_atom_site_fract_x
_atom_site_fract_y
_atom_site_fract_z
Si Si1 0.245370 0.622658 0.635901
Si Si2 0.728269 0.710043 0.353713
Si Si3 0.500000 0.000000 0.500000
Si Si4 0.871718 0.286647 0.705122
Si Si5 0.164515 0.528865 0.272356
Si Si6 0.071795 0.405656 0.083150
Si Si7 0.594908 0.619310 0.732980
O O1 0.231798 0.656231 0.363582
O O2 0.232039 0.555541 0.534354
O O3 0.409712 0.644041 0.770884
O O4 0.074023 0.633697 0.794287
O O5 0.682535 0.746563 0.098436
O O6 0.654008 0.647329 0.457472
O O7 0.928977 0.702121 0.323084
O O8 0.679860 0.032889 0.433418
O O9 0.444634 0.050295 0.719893
O O10 0.830642 0.256626 0.972671
O O11 0.104085 0.461585 0.269174
O O12 0.006089 0.565394 0.167778
O O13 0.247732 0.372236 0.082947
#
# Coordination Sequence:
#
# PCOD9248345 Si02
#       7
#     4   4   2   4   4   4   4
#     4  12  24  42  70  99 136 181 241 291 364 429
#     4  10  23  45  70 103 140 188 244 299 370 441
#     4  10  22  42  66 102 144 178 242 290 362 428
#     4  10  24  44  73 104 142 187 243 308 367 437
#     4  10  23  42  68  95 141 186 230 297 356 433
#     4  10  22  45  62 100 137 183 232 289 359 432
#     4  11  24  43  70 104 141 187 236 305 361 442
#
# _framework density 27.537108
#
# number of rings (size 3 to 8) (size 9 to 14) (size 15 to 20)
#    0.000    1.538    3.077    0.462    2.154    6.154 
#    8.308    0.000    0.000    0.000    0.000    0.000 
#    0.000    0.000    0.000    0.000    0.000    0.000 
#
# Total GULP energy -144860.533795 kJ/mol
# GULP energy per Si atom -5571.558992 kJ/mol
# Density = 2.747443 g / cm^3
# Si number density = 27.537108 Si / 1000 Ang^3
#
#
#
# Elastic Constant Matrix: (Units=GPa)
#
#
# Indices 1 2 3 4 5 6 
#
# 1 214.7787 18.4031 50.2427 0.0000 13.1828 0.0000
# 2 18.4031 97.7762 40.8517 0.0000 -5.0191 0.0000
# 3 50.2427 40.8517 123.7489 0.0000 -2.7527 0.0000
# 4 0.0000 0.0000 0.0000 42.8609 0.0000 -14.8358
# 5 13.1828 -5.0191 -2.7527 0.0000 26.2381 0.0000
# 6 0.0000 0.0000 0.0000 -14.8358 0.0000 26.6704
#
#
#
# Elastic Compliance Matrix: (Units=1/GPa)
#
#
# Indices 1 2 3 4 5 6 
#
# 1 0.005366 -0.000261 -0.002159 0.000000 -0.002972 0.000000
# 2 -0.000261 0.011968 -0.003800 0.000000 0.002022 0.000000
# 3 -0.002159 -0.003800 0.010244 0.000000 0.001432 0.000000
# 4 0.000000 0.000000 0.000000 0.028895 0.000000 0.016073
# 5 -0.002972 0.002022 0.001432 0.000000 0.040143 0.000000
# 6 0.000000 0.000000 0.000000 0.016073 0.000000 0.046436
#
#
# Mechanical properties :
#
#
# Convention : Reuss Voigt Hill
#
# Bulk Modulus (GPa) = 66.05566 72.81098 69.43332
# Shear Modulus (GPa) = 31.14585 40.94098 36.04341
#
# Velocity S-wave (km/s) = 3.36676 3.86003 3.62180
# Velocity P-wave (km/s) = 6.25726 6.80918 6.53905
#
# Compressibility (1/GPa) = 0.01513875
#
# Stress axis : x y z
#
# Youngs Moduli (GPa) = 186.37021 83.55643 97.62196
#
# Poissons Ratio (x) = 0.02178 0.21072
# Poissons Ratio (y) = 0.04857 0.37097
# Poissons Ratio (z) = 0.40229 0.31752
#
# Static dielectric constant tensor:
#      x y z
#    x 2.169780 0.000000 0.022800 
#    y 0.000000 2.213010 0.000000 
#    z 0.022800 0.000000 2.148300 
# 
# From -- ./inp_files/1673.got.cif
#   From: 2010.05.17/outbox.cif.g08.bks.cpg/sg14_1_cif.got.tgz:1673.got - 2010.06.03 17:49:19.
