data_PCOD9248662
_publ_section_title
;
Structure prediction by ZEFSAII (Michael W. Deem and Ramdas Pophale) SiO2 
 PCOD9248662
Probable space group: P 21/C
;
_chemical_formula_sum "Si O2"
_cell_formula_units_Z 28
_cell_length_a 15.578970
_cell_length_b 7.328620
_cell_length_c 14.358490
_cell_angle_alpha 90.000000
_cell_angle_beta 41.554331
_cell_angle_gamma 90.000000
_cell_volume 1087.425021
_symmetry_space_group_name_H-M "P 21/C"
_symmetry_group_IT_number 14
_symmetry_cell_setting 'monoclinic'
loop_
_space_group_symop_operation_xyz
x,y,z
-x,1/2+y,1/2-z
-x,-y,-z
x,1/2-y,1/2+z
loop_
_atom_site_type_symbol
_atom_site_label
_atom_site_fract_x
_atom_site_fract_y
_atom_site_fract_z
Si Si1 0.419336 0.299882 0.762186
Si Si2 0.004593 0.286080 0.475587
Si Si3 0.638165 0.594814 0.871806
Si Si4 0.755325 0.278274 0.273159
Si Si5 0.094700 0.068742 0.228712
Si Si6 0.481894 0.371561 0.404375
Si Si7 0.149764 0.142808 0.537787
O O1 0.359197 0.154691 0.738205
O O2 0.520725 0.416201 0.619871
O O3 0.483322 0.222216 0.802389
O O4 0.296456 0.415131 0.899457
O O5 0.071658 0.219668 0.327537
O O6 0.081619 0.186823 0.495500
O O7 0.000000 0.500000 0.500000
O O8 0.857275 0.218683 0.605256
O O9 0.737734 0.434703 0.814791
O O10 0.847590 0.832901 0.907587
O O11 0.500000 0.500000 0.000000
O O12 0.628780 0.773098 0.944794
O O13 0.818645 0.404137 0.300983
O O14 0.617229 0.345837 0.348266
O O15 0.950233 0.989544 0.328774
#
# Coordination Sequence:
#
# PCOD9248662 Si02
#       7
#     4   4   4   4   4   4   4
#     4  12  25  43  68 100 137 182 237 294 356 427
#     4  11  22  41  69  98 137 183 231 289 353 417
#     4  10  23  43  65  95 133 179 230 285 350 415
#     4  10  22  43  68  96 138 185 232 289 353 422
#     4  11  24  45  72 106 142 186 233 291 356 421
#     4  11  24  44  69  98 137 183 234 292 355 425
#     4  11  25  43  68 103 138 178 233 288 353 421
#
# _framework density 25.748899000000002
#
# number of rings (size 3 to 8) (size 9 to 14) (size 15 to 20)
#    0.000    1.143    0.000    7.286    0.000    8.000 
#    0.000   11.429    0.000    0.000    0.000    0.000 
#    0.000    0.000    0.000    0.000    0.000    0.000 
#
# Total GULP energy -156922.647336 kJ/mol
# GULP energy per Si atom -5604.380262 kJ/mol
# Density = 2.569029 g / cm^3
# Si number density = 25.748899 Si / 1000 Ang^3
#
#
#
# Elastic Constant Matrix: (Units=GPa)
#
#
# Indices 1 2 3 4 5 6 
#
# 1 107.7334 41.2364 38.9536 0.0000 15.3712 0.0000
# 2 41.2364 133.5769 32.6318 0.0000 5.8414 0.0000
# 3 38.9536 32.6318 132.1043 0.0000 -1.4958 0.0000
# 4 0.0000 0.0000 0.0000 56.3982 0.0000 2.5358
# 5 15.3712 5.8414 -1.4958 0.0000 39.2887 0.0000
# 6 0.0000 0.0000 0.0000 2.5358 0.0000 52.4692
#
#
#
# Elastic Compliance Matrix: (Units=1/GPa)
#
#
# Indices 1 2 3 4 5 6 
#
# 1 0.012037 -0.002814 -0.002904 0.000000 -0.004402 0.000000
# 2 -0.002814 0.008688 -0.001319 0.000000 -0.000241 0.000000
# 3 -0.002904 -0.001319 0.008771 0.000000 0.001666 0.000000
# 4 0.000000 0.000000 0.000000 0.017770 0.000000 -0.000859
# 5 -0.004402 -0.000241 0.001666 0.000000 0.027274 0.000000
# 6 0.000000 0.000000 0.000000 -0.000859 0.000000 0.019100
#
#
# Mechanical properties :
#
#
# Convention : Reuss Voigt Hill
#
# Bulk Modulus (GPa) = 64.84437 66.56201 65.70319
# Shear Modulus (GPa) = 44.30464 47.00405 45.65435
#
# Velocity S-wave (km/s) = 4.15256 4.27720 4.21534
# Velocity P-wave (km/s) = 6.94476 7.09219 7.01886
#
# Compressibility (1/GPa) = 0.01542154
#
# Stress axis : x y z
#
# Youngs Moduli (GPa) = 83.07438 115.10384 114.01470
#
# Poissons Ratio (x) = 0.32391 0.33112
# Poissons Ratio (y) = 0.23378 0.15038
# Poissons Ratio (z) = 0.24126 0.15182
#
# Static dielectric constant tensor:
#      x y z
#    x 1.994470 0.000000 0.005260 
#    y 0.000000 2.097950 0.000000 
#    z 0.005260 0.000000 2.125170 
# 
# From -- ./inp_files/59024.got.cif
#   From: 2010.05.17/outbox.cif.g08.bks.cpg/sg14_30_cif.got.tgz:59024.got - 2010.06.03 17:49:19.
