data_PCOD9248569
_publ_section_title
;
Structure prediction by ZEFSAII (Michael W. Deem and Ramdas Pophale) SiO2 
 PCOD9248569
Probable space group: P 21/C
;
_chemical_formula_sum "Si O2"
_cell_formula_units_Z 30
_cell_length_a 8.370486
_cell_length_b 14.747809
_cell_length_c 18.447176
_cell_angle_alpha 90.000000
_cell_angle_beta 144.876748
_cell_angle_gamma 90.000000
_cell_volume 1310.178739
_symmetry_space_group_name_H-M "P 21/C"
_symmetry_group_IT_number 14
_symmetry_cell_setting 'monoclinic'
loop_
_space_group_symop_operation_xyz
x,y,z
-x,1/2+y,1/2-z
-x,-y,-z
x,1/2-y,1/2+z
loop_
_atom_site_type_symbol
_atom_site_label
_atom_site_fract_x
_atom_site_fract_y
_atom_site_fract_z
Si Si1 0.200054 0.518054 0.141758
Si Si2 0.336353 0.051015 0.292801
Si Si3 0.614835 0.577812 0.491156
Si Si4 0.650685 0.310007 0.728314
Si Si5 0.901316 0.359334 0.252112
Si Si6 0.000000 0.000000 0.000000
Si Si7 0.850435 0.133946 0.569035
Si Si8 0.065278 0.316680 0.591574
O O1 0.517444 0.517692 0.229666
O O2 0.159909 0.619635 0.156124
O O3 0.105393 0.438872 0.160235
O O4 0.000000 0.500000 0.000000
O O5 0.577482 0.085734 0.435370
O O6 0.141076 0.133160 0.195762
O O7 0.192412 0.963347 0.271598
O O8 0.500000 0.500000 0.500000
O O9 0.396742 0.635152 0.363827
O O10 0.779385 0.643585 0.606661
O O11 0.818811 0.536778 0.504842
O O12 0.758331 0.211054 0.752430
O O13 0.361206 0.299823 0.663011
O O14 0.826605 0.336360 0.142644
O O15 0.080179 0.894368 0.009034
O O16 0.912825 0.222442 0.544890
#
# Coordination Sequence:
#
# PCOD9248569 Si02
#       8
#     4   4   4   4   4   2   4   4
#     4   9  20  42  67  95 129 174 228 288 341 409
#     4  10  22  44  65  94 135 178 230 292 347 418
#     4  11  25  45  71  98 142 183 236 290 352 423
#     4  10  24  42  67 103 136 183 230 287 357 419
#     4  12  25  42  67 101 142 184 229 290 361 421
#     4  10  22  44  74  92 136 186 226 296 340 426
#     4  11  24  39  66  99 136 183 229 292 350 426
#     4  10  22  43  64 100 130 181 239 280 357 425
#
# _framework density 22.897638000000001
#
# number of rings (size 3 to 8) (size 9 to 14) (size 15 to 20)
#    0.000    1.600    1.333    2.000    1.867   10.667 
#    9.600    0.000    0.000    0.000    0.000    0.000 
#    0.000    0.000    0.000    0.000    0.000    0.000 
#
# Total GULP energy -167197.550574 kJ/mol
# GULP energy per Si atom -5573.251686 kJ/mol
# Density = 2.284552 g / cm^3
# Si number density = 22.897638 Si / 1000 Ang^3
#
#
#
# Elastic Constant Matrix: (Units=GPa)
#
#
# Indices 1 2 3 4 5 6 
#
# 1 36.8760 11.2883 6.2241 0.0000 -18.5662 0.0000
# 2 11.2883 99.3578 24.6953 0.0000 -2.8032 0.0000
# 3 6.2241 24.6953 75.5851 0.0000 -16.6507 0.0000
# 4 0.0000 0.0000 0.0000 30.4665 0.0000 -1.9115
# 5 -18.5662 -2.8032 -16.6507 0.0000 22.2774 0.0000
# 6 0.0000 0.0000 0.0000 -1.9115 0.0000 47.6359
#
#
#
# Elastic Compliance Matrix: (Units=1/GPa)
#
#
# Indices 1 2 3 4 5 6 
#
# 1 0.052710 -0.006778 0.008815 0.000000 0.049665 0.000000
# 2 -0.006778 0.011871 -0.005071 0.000000 -0.007945 0.000000
# 3 0.008815 -0.005071 0.018721 0.000000 0.020701 0.000000
# 4 0.000000 0.000000 0.000000 0.032906 0.000000 0.001320
# 5 0.049665 -0.007945 0.020701 0.000000 0.100752 0.000000
# 6 0.000000 0.000000 0.000000 0.001320 0.000000 0.021046
#
#
# Mechanical properties :
#
#
# Convention : Reuss Voigt Hill
#
# Bulk Modulus (GPa) = 12.94767 32.91490 22.93128
# Shear Modulus (GPa) = 18.53100 31.38337 24.95719
#
# Velocity S-wave (km/s) = 2.84790 3.70617 3.30501
# Velocity P-wave (km/s) = 4.05967 5.72016 4.95990
#
# Compressibility (1/GPa) = 0.07723400
#
# Stress axis : x y z
#
# Youngs Moduli (GPa) = 18.97177 84.23997 53.41548
#
# Poissons Ratio (x) = 0.57100 -0.47085
# Poissons Ratio (y) = 0.12859 0.27085
# Poissons Ratio (z) = -0.16723 0.42714
#
# Static dielectric constant tensor:
#      x y z
#    x 1.901360 0.000000 0.000840 
#    y 0.000000 1.825070 0.000000 
#    z 0.000840 0.000000 1.921100 
# 
# From -- ./inp_files/55996.got.cif
#   From: 2010.05.17/outbox.cif.g08.bks.cpg/sg14_28_cif.got.tgz:55996.got - 2010.06.03 17:49:19.
