data_PCOD9248054
_publ_section_title
;
Structure prediction by ZEFSAII (Michael W. Deem and Ramdas Pophale) SiO2 
 PCOD9248054
Probable space group: P 21/C
;
_chemical_formula_sum "Si O2"
_cell_formula_units_Z 20
_cell_length_a 21.890487
_cell_length_b 7.420523
_cell_length_c 10.321121
_cell_angle_alpha 90.000000
_cell_angle_beta 154.119343
_cell_angle_gamma 90.000000
_cell_volume 731.811348
_symmetry_space_group_name_H-M "P 21/C"
_symmetry_group_IT_number 14
_symmetry_cell_setting 'monoclinic'
loop_
_space_group_symop_operation_xyz
x,y,z
-x,1/2+y,1/2-z
-x,-y,-z
x,1/2-y,1/2+z
loop_
_atom_site_type_symbol
_atom_site_label
_atom_site_fract_x
_atom_site_fract_y
_atom_site_fract_z
Si Si1 0.507685 0.074897 0.308032
Si Si2 0.560280 0.728011 0.566412
Si Si3 0.147398 0.230308 0.272582
Si Si4 0.813587 0.046007 0.307216
Si Si5 0.078941 0.582902 0.475849
O O1 0.504485 0.224274 0.416868
O O2 0.578658 0.908459 0.514731
O O3 0.543057 0.120303 0.226572
O O4 0.344009 0.022436 0.975699
O O5 0.717501 0.662333 0.891831
O O6 0.162474 0.445336 0.286334
O O7 0.000034 0.178823 0.053740
O O8 0.148346 0.106081 0.145657
O O9 0.948942 0.962391 0.636566
O O10 0.817497 0.254556 0.359851
#
# Coordination Sequence:
#
# PCOD9248054 Si02
#       5
#     4   4   4   4   4
#     4  10  23  45  66  97 135 172 233 270 341 392
#     4  10  22  46  67  95 132 175 220 284 324 404
#     4  10  22  41  63  92 133 170 217 268 328 389
#     4  11  21  40  62  95 129 171 218 268 327 399
#     4  11  21  38  64  95 129 171 212 265 333 398
#
# _framework density 27.329449
#
# number of rings (size 3 to 8) (size 9 to 14) (size 15 to 20)
#    0.000    1.600    4.000    0.600    0.000    0.800 
#   21.600    0.000    0.000    0.000    0.000    0.000 
#    0.000    0.000    0.000    0.000    0.000    0.000 
#
# Total GULP energy -111591.961780 kJ/mol
# GULP energy per Si atom -5579.598089 kJ/mol
# Density = 2.726725 g / cm^3
# Si number density = 27.329449 Si / 1000 Ang^3
#
#
#
# Elastic Constant Matrix: (Units=GPa)
#
#
# Indices 1 2 3 4 5 6 
#
# 1 50.4290 -0.0586 38.1456 0.0000 -0.3724 0.0000
# 2 -0.0586 108.0335 41.8123 0.0000 -19.9164 0.0000
# 3 38.1456 41.8123 170.5298 0.0000 -27.2492 0.0000
# 4 0.0000 0.0000 0.0000 55.8393 0.0000 -14.6376
# 5 -0.3724 -19.9164 -27.2492 0.0000 32.9192 0.0000
# 6 0.0000 0.0000 0.0000 -14.6376 0.0000 22.5325
#
#
#
# Elastic Compliance Matrix: (Units=1/GPa)
#
#
# Indices 1 2 3 4 5 6 
#
# 1 0.024844 0.001832 -0.006666 0.000000 -0.004128 0.000000
# 2 0.001832 0.011046 -0.002359 0.000000 0.004751 0.000000
# 3 -0.006666 -0.002359 0.008866 0.000000 0.005836 0.000000
# 4 0.000000 0.000000 0.000000 0.021584 0.000000 0.014022
# 5 -0.004128 0.004751 0.005836 0.000000 0.038036 0.000000
# 6 0.000000 0.000000 0.000000 0.014022 0.000000 0.053489
#
#
# Mechanical properties :
#
#
# Convention : Reuss Voigt Hill
#
# Bulk Modulus (GPa) = 32.92654 54.31007 43.61831
# Shear Modulus (GPa) = 27.41591 38.86439 33.14015
#
# Velocity S-wave (km/s) = 3.17071 3.77513 3.48604
# Velocity P-wave (km/s) = 5.04764 6.23840 5.67434
#
# Compressibility (1/GPa) = 0.03037064
#
# Stress axis : x y z
#
# Youngs Moduli (GPa) = 40.25107 90.52783 112.78646
#
# Poissons Ratio (x) = -0.16589 0.75187
# Poissons Ratio (y) = -0.07376 0.26608
# Poissons Ratio (z) = 0.26833 0.21357
#
# Static dielectric constant tensor:
#      x y z
#    x 2.264860 0.000000 -0.035430 
#    y 0.000000 2.383160 0.000000 
#    z -0.035430 0.000000 2.026830 
# 
# From -- ./inp_files/23113.got.cif
#   From: 2010.05.17/outbox.cif.g08.bks.cpg/sg14_12_cif.got.tgz:23113.got - 2010.06.03 17:49:19.
