data_PCOD9248953
_publ_section_title
;
Structure prediction by ZEFSAII (Michael W. Deem and Ramdas Pophale) SiO2 
 PCOD9248953
Probable space group: P 21/C
;
_chemical_formula_sum "Si O2"
_cell_formula_units_Z 30
_cell_length_a 14.306513
_cell_length_b 7.123846
_cell_length_c 14.821730
_cell_angle_alpha 90.000000
_cell_angle_beta 136.749161
_cell_angle_gamma 90.000000
_cell_volume 1035.048135
_symmetry_space_group_name_H-M "P 21/C"
_symmetry_group_IT_number 14
_symmetry_cell_setting 'monoclinic'
loop_
_space_group_symop_operation_xyz
x,y,z
-x,1/2+y,1/2-z
-x,-y,-z
x,1/2-y,1/2+z
loop_
_atom_site_type_symbol
_atom_site_label
_atom_site_fract_x
_atom_site_fract_y
_atom_site_fract_z
Si Si1 0.858790 0.339139 0.247994
Si Si2 0.245448 0.967727 0.953508
Si Si3 0.382008 0.457231 0.140142
Si Si4 0.108361 0.174250 0.353118
Si Si5 0.322122 0.123139 0.784957
Si Si6 0.484434 0.215648 0.066705
Si Si7 0.781936 0.210635 0.891515
Si Si8 0.000000 0.000000 0.500000
O O1 0.774518 0.228838 0.111161
O O2 0.788471 0.365470 0.294024
O O3 0.910633 0.531571 0.241610
O O4 0.837988 0.912304 0.348895
O O5 0.146564 0.123068 0.840726
O O6 0.205642 0.953940 0.028945
O O7 0.391981 0.061239 0.053313
O O8 0.390148 0.331897 0.236268
O O9 0.486055 0.398535 0.133058
O O10 0.342392 0.661744 0.154061
O O11 0.241331 0.397217 0.995210
O O12 0.991615 0.201163 0.347444
O O13 0.383201 0.915213 0.859036
O O14 0.393096 0.251232 0.912296
O O15 0.917404 0.336287 0.992447
#
# Coordination Sequence:
#
# PCOD9248953 Si02
#       8
#     4   4   4   4   4   4   4   2
#     4  12  23  44  68 107 156 218 276 341 422 502
#     4  11  24  45  67 112 156 210 274 346 406 499
#     4  10  22  45  71 113 157 212 276 342 409 500
#     4  11  24  44  68 108 161 217 277 345 414 494
#     4  10  22  46  78 112 160 219 266 349 416 489
#     4  10  24  46  77 113 157 218 282 332 420 508
#     4  11  24  42  73 110 158 214 269 346 425 490
#     4  10  22  44  78 118 160 212 272 336 410 498
#
# _framework density 28.984158000000001
#
# number of rings (size 3 to 8) (size 9 to 14) (size 15 to 20)
#    0.000    1.333    2.667    3.200    0.000    4.800 
#   14.400    0.000    0.000    4.000    0.000    0.000 
#    0.000    0.000    0.000    0.000    0.000    0.000 
#
# Total GULP energy -167164.296984 kJ/mol
# GULP energy per Si atom -5572.143233 kJ/mol
# Density = 2.891819 g / cm^3
# Si number density = 28.984158 Si / 1000 Ang^3
#
#
#
# Elastic Constant Matrix: (Units=GPa)
#
#
# Indices 1 2 3 4 5 6 
#
# 1 156.5642 44.4654 50.3244 0.0000 -10.5173 0.0000
# 2 44.4654 114.6726 38.2189 0.0000 -13.2054 0.0000
# 3 50.3244 38.2189 135.7155 0.0000 -17.1383 0.0000
# 4 0.0000 0.0000 0.0000 35.6614 0.0000 -9.2478
# 5 -10.5173 -13.2054 -17.1383 0.0000 65.1703 0.0000
# 6 0.0000 0.0000 0.0000 -9.2478 0.0000 54.0047
#
#
#
# Elastic Compliance Matrix: (Units=1/GPa)
#
#
# Indices 1 2 3 4 5 6 
#
# 1 0.007750 -0.002242 -0.002215 0.000000 0.000214 0.000000
# 2 -0.002242 0.010377 -0.001935 0.000000 0.001232 0.000000
# 3 -0.002215 -0.001935 0.008937 0.000000 0.001601 0.000000
# 4 0.000000 0.000000 0.000000 0.029345 0.000000 0.005025
# 5 0.000214 0.001232 0.001601 0.000000 0.016049 0.000000
# 6 0.000000 0.000000 0.000000 0.005025 0.000000 0.019377
#
#
# Mechanical properties :
#
#
# Convention : Reuss Voigt Hill
#
# Bulk Modulus (GPa) = 70.03647 74.77441 72.40544
# Shear Modulus (GPa) = 45.71176 49.23019 47.47097
#
# Velocity S-wave (km/s) = 3.97562 4.12578 4.05140
# Velocity P-wave (km/s) = 6.72980 6.96782 6.84984
#
# Compressibility (1/GPa) = 0.01427827
#
# Stress axis : x y z
#
# Youngs Moduli (GPa) = 129.02434 96.36897 111.89490
#
# Poissons Ratio (x) = 0.21609 0.24790
# Poissons Ratio (y) = 0.28931 0.21654
# Poissons Ratio (z) = 0.28585 0.18649
#
# Static dielectric constant tensor:
#      x y z
#    x 2.315540 0.000000 0.286650 
#    y 0.000000 2.306780 0.000000 
#    z 0.286650 0.000000 1.742790 
# 
# From -- ./inp_files/46316.got.cif
#   From: 2010.05.17/outbox.cif.g08.bks.cpg/sg14_24_cif.got.tgz:46316.got - 2010.06.03 17:49:19.
