data_PCOD9248108
_publ_section_title
;
Structure prediction by ZEFSAII (Michael W. Deem and Ramdas Pophale) SiO2 
 PCOD9248108
Probable space group: P 21/C
;
_chemical_formula_sum "Si O2"
_cell_formula_units_Z 32
_cell_length_a 16.048381
_cell_length_b 19.279805
_cell_length_c 5.318128
_cell_angle_alpha 90.000000
_cell_angle_beta 124.697703
_cell_angle_gamma 90.000000
_cell_volume 1352.859258
_symmetry_space_group_name_H-M "P 21/C"
_symmetry_group_IT_number 14
_symmetry_cell_setting 'monoclinic'
loop_
_space_group_symop_operation_xyz
x,y,z
-x,1/2+y,1/2-z
-x,-y,-z
x,1/2-y,1/2+z
loop_
_atom_site_type_symbol
_atom_site_label
_atom_site_fract_x
_atom_site_fract_y
_atom_site_fract_z
Si Si1 0.008349 0.433958 0.333926
Si Si2 0.890550 0.703054 0.337572
Si Si3 0.556066 0.790189 0.898303
Si Si4 0.291876 0.393867 0.104262
Si Si5 0.642514 0.081296 0.917204
Si Si6 0.830617 0.999643 0.248249
Si Si7 0.331162 0.740203 0.535144
Si Si8 0.407131 0.517542 0.154230
O O1 0.029342 0.360540 0.500248
O O2 0.104535 0.451765 0.325024
O O3 0.000000 0.500000 0.500000
O O4 0.906995 0.444132 0.999390
O O5 0.899268 0.751934 0.597740
O O6 0.781077 0.664364 0.135617
O O7 0.583830 0.736211 0.169421
O O8 0.618458 0.858228 0.079237
O O9 0.432396 0.788509 0.702304
O O10 0.222274 0.445107 0.152729
O O11 0.348563 0.445125 0.010064
O O12 0.629897 0.162426 0.893137
O O13 0.568155 0.053796 0.567762
O O14 0.744530 0.047609 0.979938
O O15 0.650132 0.062719 0.228229
O O16 0.269546 0.748823 0.178541
O O17 0.500000 0.500000 0.500000
#
# Coordination Sequence:
#
# PCOD9248108 Si02
#       8
#     4   4   4   4   4   4   4   4
#     4  11  23  47  79 102 144 192 241 304 377 460
#     4  12  26  44  69 110 147 183 231 303 373 442
#     4  10  23  37  61  90 130 185 227 274 346 422
#     4  11  23  44  66 103 143 184 239 292 365 430
#     4  11  24  44  66  99 138 173 248 292 344 424
#     4  10  24  44  74 108 134 193 244 309 365 444
#     4  10  22  41  65  88 129 188 231 286 343 421
#     4  11  26  40  66  99 136 190 231 304 340 410
#
# _framework density 23.653607999999998
#
# number of rings (size 3 to 8) (size 9 to 14) (size 15 to 20)
#    0.000    1.250    1.250    3.375   10.500    4.000 
#    0.000    1.250    0.000    0.000    0.000    0.000 
#    0.000    0.000    0.000    0.000    0.000    0.000 
#
# Total GULP energy -178564.845945 kJ/mol
# GULP energy per Si atom -5580.151436 kJ/mol
# Density = 2.359977 g / cm^3
# Si number density = 23.653608 Si / 1000 Ang^3
#
#
#
# Elastic Constant Matrix: (Units=GPa)
#
#
# Indices 1 2 3 4 5 6 
#
# 1 31.5516 29.8215 17.8414 0.0000 -7.2645 0.0000
# 2 29.8215 122.3602 47.6646 0.0000 -9.9635 0.0000
# 3 17.8414 47.6646 104.4557 0.0000 -24.8782 0.0000
# 4 0.0000 0.0000 0.0000 53.5224 0.0000 2.6747
# 5 -7.2645 -9.9635 -24.8782 0.0000 38.7776 0.0000
# 6 0.0000 0.0000 0.0000 2.6747 0.0000 24.5132
#
#
#
# Elastic Compliance Matrix: (Units=1/GPa)
#
#
# Indices 1 2 3 4 5 6 
#
# 1 0.042557 -0.009230 -0.002034 0.000000 0.004296 0.000000
# 2 -0.009230 0.011947 -0.004197 0.000000 -0.001352 0.000000
# 3 -0.002034 -0.004197 0.013560 0.000000 0.007240 0.000000
# 4 0.000000 0.000000 0.000000 0.018786 0.000000 -0.002050
# 5 0.004296 -0.001352 0.007240 0.000000 0.030891 0.000000
# 6 0.000000 0.000000 0.000000 -0.002050 0.000000 0.041018
#
#
# Mechanical properties :
#
#
# Convention : Reuss Voigt Hill
#
# Bulk Modulus (GPa) = 26.92322 49.89140 38.40731
# Shear Modulus (GPa) = 24.74485 34.23197 29.48841
#
# Velocity S-wave (km/s) = 3.23791 3.80836 3.53466
# Velocity P-wave (km/s) = 5.03843 6.36211 5.73856
#
# Compressibility (1/GPa) = 0.03714267
#
# Stress axis : x y z
#
# Youngs Moduli (GPa) = 23.49781 83.70357 73.74362
#
# Poissons Ratio (x) = 0.77257 0.15000
# Poissons Ratio (y) = 0.21688 0.30951
# Poissons Ratio (z) = 0.04780 0.35131
#
# Static dielectric constant tensor:
#      x y z
#    x 1.872510 0.000000 0.048940 
#    y 0.000000 1.426140 0.000000 
#    z 0.048940 0.000000 2.061110 
# 
# From -- ./inp_files/4252.got.cif
#   From: 2010.05.17/outbox.cif.g08.bks.cpg/sg14_3_cif.got.tgz:4252.got - 2010.06.03 17:49:19.
