data_PCOD9248320
_publ_section_title
;
Structure prediction by ZEFSAII (Michael W. Deem and Ramdas Pophale) SiO2 
 PCOD9248320
Probable space group: P 21/C
;
_chemical_formula_sum "Si O2"
_cell_formula_units_Z 20
_cell_length_a 7.737516
_cell_length_b 9.888532
_cell_length_c 11.637746
_cell_angle_alpha 90.000000
_cell_angle_beta 65.898133
_cell_angle_gamma 90.000000
_cell_volume 812.807719
_symmetry_space_group_name_H-M "P 21/C"
_symmetry_group_IT_number 14
_symmetry_cell_setting 'monoclinic'
loop_
_space_group_symop_operation_xyz
x,y,z
-x,1/2+y,1/2-z
-x,-y,-z
x,1/2-y,1/2+z
loop_
_atom_site_type_symbol
_atom_site_label
_atom_site_fract_x
_atom_site_fract_y
_atom_site_fract_z
Si Si1 0.931823 0.876294 0.355173
Si Si2 0.698286 0.526756 0.707713
Si Si3 0.247277 0.385522 0.556785
Si Si4 0.275226 0.949493 0.415541
Si Si5 0.330797 0.669543 0.475785
O O1 0.848578 0.942700 0.263960
O O2 0.910681 0.714338 0.353262
O O3 0.129364 0.928562 0.351205
O O4 0.783369 0.920852 0.495871
O O5 0.738480 0.621305 0.585978
O O6 0.488945 0.548745 0.813803
O O7 0.699195 0.379612 0.647481
O O8 0.236497 0.548495 0.574125
O O9 0.447164 0.339838 0.556179
O O10 0.254529 0.819477 0.505336
#
# Coordination Sequence:
#
# PCOD9248320 Si02
#       5
#     4   4   4   4   4
#     4  11  24  43  64  98 129 166 209 264 314 382
#     4  10  22  42  65  89 128 170 210 254 312 374
#     4   9  21  42  65  93 127 165 212 262 311 374
#     4  11  24  41  66  94 129 166 211 261 322 370
#     4   9  21  42  64  92 124 170 206 264 315 364
#
# _framework density 24.606064
#
# number of rings (size 3 to 8) (size 9 to 14) (size 15 to 20)
#    1.200    0.800    2.000    0.600    2.800    0.800 
#   14.400    0.000    0.000    0.000    0.000    0.000 
#    0.000    0.000    0.000    0.000    0.000    0.000 
#
# Total GULP energy -111824.060463 kJ/mol
# GULP energy per Si atom -5591.203023 kJ/mol
# Density = 2.455006 g / cm^3
# Si number density = 24.606064 Si / 1000 Ang^3
#
#
#
# Elastic Constant Matrix: (Units=GPa)
#
#
# Indices 1 2 3 4 5 6 
#
# 1 153.4034 -3.2952 24.0178 0.0000 10.4893 0.0000
# 2 -3.2952 92.8634 -3.5890 0.0000 -1.7342 0.0000
# 3 24.0178 -3.5890 47.6385 0.0000 3.9189 0.0000
# 4 0.0000 0.0000 0.0000 10.1118 0.0000 0.7876
# 5 10.4893 -1.7342 3.9189 0.0000 28.7049 0.0000
# 6 0.0000 0.0000 0.0000 0.7876 0.0000 22.3979
#
#
#
# Elastic Compliance Matrix: (Units=1/GPa)
#
#
# Indices 1 2 3 4 5 6 
#
# 1 0.007208 0.000082 -0.003450 0.000000 -0.002158 0.000000
# 2 0.000082 0.010809 0.000730 0.000000 0.000523 0.000000
# 3 -0.003450 0.000730 0.022936 0.000000 -0.001826 0.000000
# 4 0.000000 0.000000 0.000000 0.099166 0.000000 -0.003487
# 5 -0.002158 0.000523 -0.001826 0.000000 0.035907 0.000000
# 6 0.000000 0.000000 0.000000 -0.003487 0.000000 0.044770
#
#
# Mechanical properties :
#
#
# Convention : Reuss Voigt Hill
#
# Bulk Modulus (GPa) = 28.02919 36.46361 32.24640
# Shear Modulus (GPa) = 21.01143 30.69437 25.85290
#
# Velocity S-wave (km/s) = 2.92535 3.53573 3.24492
# Velocity P-wave (km/s) = 4.77767 5.61424 5.21276
#
# Compressibility (1/GPa) = 0.03567709
#
# Stress axis : x y z
#
# Youngs Moduli (GPa) = 138.72871 92.51209 43.59902
#
# Poissons Ratio (x) = -0.00760 0.15044
# Poissons Ratio (y) = -0.01139 -0.03182
# Poissons Ratio (z) = 0.47868 -0.06752
#
# Static dielectric constant tensor:
#      x y z
#    x 1.898850 0.000000 -0.023530 
#    y 0.000000 1.952190 0.000000 
#    z -0.023530 0.000000 1.951500 
# 
# From -- ./inp_files/23755.got.cif
#   From: 2010.05.17/outbox.cif.g08.bks.cpg/sg14_12_cif.got.tgz:23755.got - 2010.06.03 17:49:19.
