data_PCOD9248253
_publ_section_title
;
Structure prediction by ZEFSAII (Michael W. Deem and Ramdas Pophale) SiO2 
 PCOD9248253
Probable space group: P 21/C
;
_chemical_formula_sum "Si O2"
_cell_formula_units_Z 22
_cell_length_a 20.255425
_cell_length_b 9.232145
_cell_length_c 8.915306
_cell_angle_alpha 90.000000
_cell_angle_beta 145.246346
_cell_angle_gamma 90.000000
_cell_volume 950.369614
_symmetry_space_group_name_H-M "P 21/C"
_symmetry_group_IT_number 14
_symmetry_cell_setting 'monoclinic'
loop_
_space_group_symop_operation_xyz
x,y,z
-x,1/2+y,1/2-z
-x,-y,-z
x,1/2-y,1/2+z
loop_
_atom_site_type_symbol
_atom_site_label
_atom_site_fract_x
_atom_site_fract_y
_atom_site_fract_z
Si Si1 0.699011 0.547770 0.655949
Si Si2 0.324003 0.777112 0.092030
Si Si3 0.513982 0.207100 0.346556
Si Si4 0.500000 0.000000 0.000000
Si Si5 0.070387 0.705968 0.698172
Si Si6 0.958229 0.915499 0.690786
O O1 0.711929 0.391184 0.601267
O O2 0.609030 0.632735 0.382053
O O3 0.632987 0.543865 0.690859
O O4 0.824851 0.616859 0.904757
O O5 0.427396 0.679326 0.209627
O O6 0.391075 0.847010 0.357030
O O7 0.207339 0.699403 0.922277
O O8 0.498206 0.375266 0.356385
O O9 0.036832 0.584374 0.757402
O O10 0.037928 0.861288 0.704417
O O11 0.001919 0.666391 0.420813
#
# Coordination Sequence:
#
# PCOD9248253 Si02
#       6
#     4   4   4   2   4   4
#     4  11  24  41  69 102 136 181 228 289 342 417
#     4  11  23  44  70  95 143 181 226 281 353 418
#     4  11  22  41  68  99 135 183 220 282 345 416
#     4  10  22  42  60  96 142 166 222 276 342 402
#     4  11  25  49  69 104 135 195 230 292 352 407
#     4  11  26  45  73  99 144 181 241 291 347 414
#
# _framework density 23.148887999999999
#
# number of rings (size 3 to 8) (size 9 to 14) (size 15 to 20)
#    0.000    1.091    1.818    4.909    2.545    2.909 
#    0.000    0.000    0.000    0.000    0.000    0.000 
#    0.000    0.000    0.000    0.000    0.000    0.000 
#
# Total GULP energy -122636.175710 kJ/mol
# GULP energy per Si atom -5574.371623 kJ/mol
# Density = 2.309620 g / cm^3
# Si number density = 23.148888 Si / 1000 Ang^3
#
#
#
# Elastic Constant Matrix: (Units=GPa)
#
#
# Indices 1 2 3 4 5 6 
#
# 1 63.4939 17.9914 16.3442 0.0000 10.9898 0.0000
# 2 17.9914 72.8856 19.2358 0.0000 9.8067 0.0000
# 3 16.3442 19.2358 161.4621 0.0000 9.6354 0.0000
# 4 0.0000 0.0000 0.0000 34.3687 0.0000 4.9024
# 5 10.9898 9.8067 9.6354 0.0000 35.2433 0.0000
# 6 0.0000 0.0000 0.0000 4.9024 0.0000 43.2516
#
#
#
# Elastic Compliance Matrix: (Units=1/GPa)
#
#
# Indices 1 2 3 4 5 6 
#
# 1 0.017773 -0.003517 -0.001126 0.000000 -0.004255 0.000000
# 2 -0.003517 0.015309 -0.001300 0.000000 -0.002808 0.000000
# 3 -0.001126 -0.001300 0.006526 0.000000 -0.001071 0.000000
# 4 0.000000 0.000000 0.000000 0.029574 0.000000 -0.003352
# 5 -0.004255 -0.002808 -0.001071 0.000000 0.030775 0.000000
# 6 0.000000 0.000000 0.000000 -0.003352 0.000000 0.023500
#
#
# Mechanical properties :
#
#
# Convention : Reuss Voigt Hill
#
# Bulk Modulus (GPa) = 36.07402 44.99827 40.53615
# Shear Modulus (GPa) = 34.58151 38.85739 36.71945
#
# Velocity S-wave (km/s) = 3.86926 4.10150 3.98707
# Velocity P-wave (km/s) = 5.96480 6.47384 6.22453
#
# Compressibility (1/GPa) = 0.02772078
#
# Stress axis : x y z
#
# Youngs Moduli (GPa) = 56.26637 65.31977 153.22773
#
# Poissons Ratio (x) = 0.22975 0.17255
# Poissons Ratio (y) = 0.19791 0.19924
# Poissons Ratio (z) = 0.06336 0.08493
#
# Static dielectric constant tensor:
#      x y z
#    x 1.858280 0.000000 0.039450 
#    y 0.000000 1.691120 0.000000 
#    z 0.039450 0.000000 1.707940 
# 
# From -- ./inp_files/17876.got.cif
#   From: 2010.05.17/outbox.cif.g08.bks.cpg/sg14_9_cif.got.tgz:17876.got - 2010.06.03 17:49:19.
