data_PCOD9248822
_publ_section_title
;
Structure prediction by ZEFSAII (Michael W. Deem and Ramdas Pophale) SiO2 
 PCOD9248822
Probable space group: P 21/C
;
_chemical_formula_sum "Si O2"
_cell_formula_units_Z 20
_cell_length_a 5.588738
_cell_length_b 7.925062
_cell_length_c 18.655292
_cell_angle_alpha 90.000000
_cell_angle_beta 113.117649
_cell_angle_gamma 90.000000
_cell_volume 759.914865
_symmetry_space_group_name_H-M "P 21/C"
_symmetry_group_IT_number 14
_symmetry_cell_setting 'monoclinic'
loop_
_space_group_symop_operation_xyz
x,y,z
-x,1/2+y,1/2-z
-x,-y,-z
x,1/2-y,1/2+z
loop_
_atom_site_type_symbol
_atom_site_label
_atom_site_fract_x
_atom_site_fract_y
_atom_site_fract_z
Si Si1 0.374344 0.610029 0.047840
Si Si2 0.237696 0.479985 0.182130
Si Si3 0.890226 0.682475 0.472124
Si Si4 0.775524 0.602794 0.310579
Si Si5 0.148723 0.213996 0.866515
O O1 0.263505 0.489844 0.098018
O O2 0.553475 0.739429 0.115836
O O3 0.500000 0.500000 0.000000
O O4 0.146722 0.712078 0.982846
O O5 0.523745 0.523629 0.244642
O O6 0.157288 0.296381 0.204073
O O7 0.035541 0.629170 0.177748
O O8 0.000000 0.500000 0.500000
O O9 0.699381 0.644776 0.384345
O O10 0.814327 0.733950 0.542789
O O11 0.008798 0.464717 0.335389
#
# Coordination Sequence:
#
# PCOD9248822 Si02
#       5
#     4   4   4   4   4
#     4  11  23  43  68 101 133 173 227 276 330 398
#     4  11  23  43  66  96 136 179 217 277 339 395
#     4   9  21  40  68  95 127 171 217 272 327 392
#     4  11  21  41  68  93 130 178 217 270 333 395
#     4  10  22  44  67  98 131 172 227 272 334 399
#
# _framework density 26.318739999999998
#
# number of rings (size 3 to 8) (size 9 to 14) (size 15 to 20)
#    0.000    1.600    2.000    2.400    0.000    6.400 
#    7.200   10.000    0.000    0.000    0.000    0.000 
#    0.000    0.000    0.000    0.000    0.000    0.000 
#
# Total GULP energy -111706.675451 kJ/mol
# GULP energy per Si atom -5585.333773 kJ/mol
# Density = 2.625884 g / cm^3
# Si number density = 26.318740 Si / 1000 Ang^3
#
#
#
# Elastic Constant Matrix: (Units=GPa)
#
#
# Indices 1 2 3 4 5 6 
#
# 1 51.7832 59.8863 33.2493 0.0000 16.2029 0.0000
# 2 59.8863 234.8181 48.6681 0.0000 21.4299 0.0000
# 3 33.2493 48.6681 130.1057 0.0000 21.6693 0.0000
# 4 0.0000 0.0000 0.0000 41.2407 0.0000 -6.7643
# 5 16.2029 21.4299 21.6693 0.0000 43.3107 0.0000
# 6 0.0000 0.0000 0.0000 -6.7643 0.0000 18.4338
#
#
#
# Elastic Compliance Matrix: (Units=1/GPa)
#
#
# Indices 1 2 3 4 5 6 
#
# 1 0.031899 -0.006596 -0.004626 0.000000 -0.006355 0.000000
# 2 -0.006596 0.006078 -0.000543 0.000000 -0.000268 0.000000
# 3 -0.004626 -0.000543 0.009533 0.000000 -0.002770 0.000000
# 4 0.000000 0.000000 0.000000 0.025801 0.000000 0.009468
# 5 -0.006355 -0.000268 -0.002770 0.000000 0.026985 0.000000
# 6 0.000000 0.000000 0.000000 0.009468 0.000000 0.057722
#
#
# Mechanical properties :
#
#
# Convention : Reuss Voigt Hill
#
# Bulk Modulus (GPa) = 41.70431 77.81270 59.75850
# Shear Modulus (GPa) = 26.37946 38.92394 32.65170
#
# Velocity S-wave (km/s) = 3.16936 3.84988 3.52607
# Velocity P-wave (km/s) = 5.41049 7.02793 6.27157
#
# Compressibility (1/GPa) = 0.02397834
#
# Stress axis : x y z
#
# Youngs Moduli (GPa) = 31.34915 164.52912 104.90106
#
# Poissons Ratio (x) = 1.08531 0.48527
# Poissons Ratio (y) = 0.20679 0.05698
# Poissons Ratio (z) = 0.14502 0.08937
#
# Static dielectric constant tensor:
#      x y z
#    x 2.272680 0.000000 -0.210940 
#    y 0.000000 2.193040 0.000000 
#    z -0.210940 0.000000 2.240450 
# 
# From -- ./inp_files/52697.got.cif
#   From: 2010.05.17/outbox.cif.g08.bks.cpg/sg14_27_cif.got.tgz:52697.got - 2010.06.03 17:49:19.
