data_PCOD9248716
_publ_section_title
;
Structure prediction by ZEFSAII (Michael W. Deem and Ramdas Pophale) SiO2 
 PCOD9248716
Probable space group: P 21/C
;
_chemical_formula_sum "Si O2"
_cell_formula_units_Z 24
_cell_length_a 13.763976
_cell_length_b 5.092764
_cell_length_c 13.371008
_cell_angle_alpha 90.000000
_cell_angle_beta 105.055453
_cell_angle_gamma 90.000000
_cell_volume 905.091613
_symmetry_space_group_name_H-M "P 21/C"
_symmetry_group_IT_number 14
_symmetry_cell_setting 'monoclinic'
loop_
_space_group_symop_operation_xyz
x,y,z
-x,1/2+y,1/2-z
-x,-y,-z
x,1/2-y,1/2+z
loop_
_atom_site_type_symbol
_atom_site_label
_atom_site_fract_x
_atom_site_fract_y
_atom_site_fract_z
Si Si1 0.050428 0.123725 0.385851
Si Si2 0.869957 0.860500 0.281752
Si Si3 0.207520 0.364468 0.561207
Si Si4 0.620794 0.510194 0.830499
Si Si5 0.401326 0.511499 0.813882
Si Si6 0.764006 0.261986 0.600218
O O1 0.134709 0.898293 0.397059
O O2 0.937687 0.030984 0.376021
O O3 0.051347 0.259027 0.278076
O O4 0.102195 0.323015 0.475919
O O5 0.822303 0.618122 0.330019
O O6 0.792811 0.032824 0.197052
O O7 0.279269 0.108132 0.586999
O O8 0.262968 0.571768 0.505780
O O9 0.519803 0.540723 0.868919
O O10 0.621718 0.225670 0.779661
O O11 0.609066 0.724789 0.737747
O O12 0.675057 0.079405 0.617989
#
# Coordination Sequence:
#
# PCOD9248716 Si02
#       6
#     4   4   4   4   4   4
#     4  11  24  41  64  95 125 178 224 271 343 394
#     4  11  22  44  63  88 136 172 222 274 333 402
#     4  11  25  39  65  99 129 172 225 279 333 398
#     4  10  22  43  70  99 134 179 224 273 339 394
#     4  10  22  43  71  97 133 184 221 270 339 406
#     4  11  24  40  65  95 130 176 219 277 336 399
#
# _framework density 26.516653000000002
#
# number of rings (size 3 to 8) (size 9 to 14) (size 15 to 20)
#    0.000    1.333    3.333    1.500    4.667    2.667 
#    0.000    0.833    0.000    0.000    0.000    0.000 
#    0.000    0.000    0.000    0.000    0.000    0.000 
#
# Total GULP energy -134354.498154 kJ/mol
# GULP energy per Si atom -5598.104090 kJ/mol
# Density = 2.645630 g / cm^3
# Si number density = 26.516653 Si / 1000 Ang^3
#
#
#
# Elastic Constant Matrix: (Units=GPa)
#
#
# Indices 1 2 3 4 5 6 
#
# 1 116.7527 1.9569 18.7611 0.0000 -2.8285 0.0000
# 2 1.9569 74.6675 5.5962 0.0000 -3.8485 0.0000
# 3 18.7611 5.5962 78.9039 0.0000 -1.8425 0.0000
# 4 0.0000 0.0000 0.0000 37.7074 0.0000 -2.7068
# 5 -2.8285 -3.8485 -1.8425 0.0000 45.4273 0.0000
# 6 0.0000 0.0000 0.0000 -2.7068 0.0000 46.0139
#
#
#
# Elastic Compliance Matrix: (Units=1/GPa)
#
#
# Indices 1 2 3 4 5 6 
#
# 1 0.008916 -0.000052 -0.002105 0.000000 0.000465 0.000000
# 2 -0.000052 0.013520 -0.000921 0.000000 0.001105 0.000000
# 3 -0.002105 -0.000921 0.013247 0.000000 0.000328 0.000000
# 4 0.000000 0.000000 0.000000 0.026632 0.000000 0.001567
# 5 0.000465 0.001105 0.000328 0.000000 0.022149 0.000000
# 6 0.000000 0.000000 0.000000 0.001567 0.000000 0.021825
#
#
# Mechanical properties :
#
#
# Convention : Reuss Voigt Hill
#
# Bulk Modulus (GPa) = 33.86748 35.88360 34.87554
# Shear Modulus (GPa) = 40.88735 42.09706 41.49220
#
# Velocity S-wave (km/s) = 3.93103 3.98876 3.96000
# Velocity P-wave (km/s) = 5.77961 5.89707 5.83863
#
# Compressibility (1/GPa) = 0.02952685
#
# Stress axis : x y z
#
# Youngs Moduli (GPa) = 112.16344 73.96438 75.48771
#
# Poissons Ratio (x) = 0.00384 0.15893
# Poissons Ratio (y) = 0.00582 0.06951
# Poissons Ratio (z) = 0.23614 0.06810
#
# Static dielectric constant tensor:
#      x y z
#    x 2.025850 0.000000 -0.000310 
#    y 0.000000 2.124190 0.000000 
#    z -0.000310 0.000000 2.115780 
# 
# From -- ./inp_files/45727.got.cif
#   From: 2010.05.17/outbox.cif.g08.bks.cpg/sg14_23_cif.got.tgz:45727.got - 2010.06.03 17:49:19.
