data_PCOD9248259
_publ_section_title
;
Structure prediction by ZEFSAII (Michael W. Deem and Ramdas Pophale) SiO2 
 PCOD9248259
Probable space group: P 21/C
;
_chemical_formula_sum "Si O2"
_cell_formula_units_Z 20
_cell_length_a 13.346327
_cell_length_b 8.417233
_cell_length_c 23.357041
_cell_angle_alpha 90.000000
_cell_angle_beta 20.243919
_cell_angle_gamma 90.000000
_cell_volume 907.918728
_symmetry_space_group_name_H-M "P 21/C"
_symmetry_group_IT_number 14
_symmetry_cell_setting 'monoclinic'
loop_
_space_group_symop_operation_xyz
x,y,z
-x,1/2+y,1/2-z
-x,-y,-z
x,1/2-y,1/2+z
loop_
_atom_site_type_symbol
_atom_site_label
_atom_site_fract_x
_atom_site_fract_y
_atom_site_fract_z
Si Si1 0.822501 0.565483 0.328553
Si Si2 0.906364 0.264104 0.011353
Si Si3 0.402562 0.077388 0.304341
Si Si4 0.253016 0.423603 0.172238
Si Si5 0.725994 0.033265 0.508225
O O1 0.500000 0.500000 0.500000
O O2 0.812537 0.748874 0.316220
O O3 0.970141 0.528663 0.310649
O O4 0.035112 0.487033 0.166858
O O5 0.858734 0.315573 0.971253
O O6 0.228428 0.293511 0.860270
O O7 0.739195 0.103240 0.113035
O O8 0.724234 0.403628 0.142781
O O9 0.326812 0.090600 0.412206
O O10 0.500000 0.500000 0.000000
O O11 0.417585 0.426003 0.144649
#
# Coordination Sequence:
#
# PCOD9248259 Si02
#       5
#     4   4   4   4   4
#     4  11  22  42  64  90 125 165 206 262 308 369
#     4   9  20  39  59  89 124 157 200 251 289 371
#     4   9  20  40  59  87 126 154 207 244 296 364
#     4  10  22  42  61  90 123 158 215 257 308 376
#     4   9  21  39  63  89 123 163 197 246 315 365
#
# _framework density 22.028404999999999
#
# number of rings (size 3 to 8) (size 9 to 14) (size 15 to 20)
#    1.200    1.200    0.000    2.400    2.800    0.800 
#   14.400    0.000    0.000    0.000    0.000    0.000 
#    0.000    0.000    0.000    0.000    0.000    0.000 
#
# Total GULP energy -111417.797116 kJ/mol
# GULP energy per Si atom -5570.889856 kJ/mol
# Density = 2.197827 g / cm^3
# Si number density = 22.028405 Si / 1000 Ang^3
#
#
#
# Elastic Constant Matrix: (Units=GPa)
#
#
# Indices 1 2 3 4 5 6 
#
# 1 175.4462 29.4495 49.6334 0.0000 -32.1684 0.0000
# 2 29.4495 34.9472 7.4082 0.0000 -5.8603 0.0000
# 3 49.6334 7.4082 71.7597 0.0000 -19.7703 0.0000
# 4 0.0000 0.0000 0.0000 38.5104 0.0000 -11.7556
# 5 -32.1684 -5.8603 -19.7703 0.0000 46.1666 0.0000
# 6 0.0000 0.0000 0.0000 -11.7556 0.0000 24.2761
#
#
#
# Elastic Compliance Matrix: (Units=1/GPa)
#
#
# Indices 1 2 3 4 5 6 
#
# 1 0.008501 -0.005678 -0.004377 0.000000 0.003329 0.000000
# 2 -0.005678 0.033357 0.000635 0.000000 0.000550 0.000000
# 3 -0.004377 0.000635 0.018230 0.000000 0.004838 0.000000
# 4 0.000000 0.000000 0.000000 0.030471 0.000000 0.014756
# 5 0.003329 0.000550 0.004838 0.000000 0.026121 0.000000
# 6 0.000000 0.000000 0.000000 0.014756 0.000000 0.048338
#
#
# Mechanical properties :
#
#
# Convention : Reuss Voigt Hill
#
# Bulk Modulus (GPa) = 24.24314 50.57060 37.40687
# Shear Modulus (GPa) = 25.30262 34.83476 30.06869
#
# Velocity S-wave (km/s) = 3.39283 3.98094 3.69859
# Velocity P-wave (km/s) = 5.13592 6.64360 5.93780
#
# Compressibility (1/GPa) = 0.04124878
#
# Stress axis : x y z
#
# Youngs Moduli (GPa) = 117.62869 29.97877 54.85489
#
# Poissons Ratio (x) = 0.17022 0.24009
# Poissons Ratio (y) = 0.66789 -0.03484
# Poissons Ratio (z) = 0.51484 -0.01904
#
# Static dielectric constant tensor:
#      x y z
#    x 1.799800 0.000000 -0.027580 
#    y 0.000000 1.829360 0.000000 
#    z -0.027580 0.000000 1.773410 
# 
# From -- ./inp_files/73686.got.cif
#   From: 2010.05.17/outbox.cif.g08.bks.cpg/sg14_37_cif.got.tgz:73686.got - 2010.06.03 17:49:19.
