data_PCOD9248858
_publ_section_title
;
Structure prediction by ZEFSAII (Michael W. Deem and Ramdas Pophale) SiO2 
 PCOD9248858
Probable space group: P 21/C
;
_chemical_formula_sum "Si O2"
_cell_formula_units_Z 16
_cell_length_a 6.832764
_cell_length_b 13.669708
_cell_length_c 9.447669
_cell_angle_alpha 90.000000
_cell_angle_beta 129.480947
_cell_angle_gamma 90.000000
_cell_volume 681.091394
_symmetry_space_group_name_H-M "P 21/C"
_symmetry_group_IT_number 14
_symmetry_cell_setting 'monoclinic'
loop_
_space_group_symop_operation_xyz
x,y,z
-x,1/2+y,1/2-z
-x,-y,-z
x,1/2-y,1/2+z
loop_
_atom_site_type_symbol
_atom_site_label
_atom_site_fract_x
_atom_site_fract_y
_atom_site_fract_z
Si Si1 0.205024 0.749804 0.322627
Si Si2 0.958855 0.043637 0.826874
Si Si3 0.700070 0.826388 0.197714
Si Si4 0.091310 0.411368 0.945334
O O1 0.201980 0.856685 0.251190
O O2 0.448416 0.723453 0.525600
O O3 0.943838 0.755556 0.293429
O O4 0.141911 0.662577 0.186478
O O5 0.218410 0.082375 0.867874
O O6 0.837944 0.961630 0.669711
O O7 0.000000 0.000000 0.000000
O O8 0.704446 0.857164 0.363125
O O9 0.000000 0.500000 0.000000
#
# Coordination Sequence:
#
# PCOD9248858 Si02
#       4
#     4   4   4   4
#     4  10  23  44  71 101 144 187 238 304 363 428
#     4   9  22  43  74 108 142 191 244 302 363 443
#     4   9  23  45  71  98 141 190 235 300 363 429
#     4  10  22  44  69 106 138 188 241 298 359 434
#
# _framework density 23.491705
#
# number of rings (size 3 to 8) (size 9 to 14) (size 15 to 20)
#    1.500    1.000    0.000    0.000    3.500    6.000 
#    4.500    1.250    5.500    0.000    0.000    0.000 
#    0.000    0.000    0.000    0.000    0.000    0.000 
#
# Total GULP energy -89275.379452 kJ/mol
# GULP energy per Si atom -5579.711216 kJ/mol
# Density = 2.343824 g / cm^3
# Si number density = 23.491705 Si / 1000 Ang^3
#
#
#
# Elastic Constant Matrix: (Units=GPa)
#
#
# Indices 1 2 3 4 5 6 
#
# 1 89.0444 44.5139 83.9290 0.0000 22.1770 0.0000
# 2 44.5139 100.1789 92.3138 0.0000 16.4600 0.0000
# 3 83.9290 92.3138 247.7293 0.0000 13.9876 0.0000
# 4 0.0000 0.0000 0.0000 58.0512 0.0000 0.1538
# 5 22.1770 16.4600 13.9876 0.0000 44.3600 0.0000
# 6 0.0000 0.0000 0.0000 0.1538 0.0000 -3.3984
#
#
#
# Elastic Compliance Matrix: (Units=1/GPa)
#
#
# Indices 1 2 3 4 5 6 
#
# 1 0.019078 -0.002651 -0.005083 0.000000 -0.006951 0.000000
# 2 -0.002651 0.016273 -0.004988 0.000000 -0.003140 0.000000
# 3 -0.005083 -0.004988 0.007503 0.000000 0.002026 0.000000
# 4 0.000000 0.000000 0.000000 0.017224 0.000000 0.000780
# 5 -0.006951 -0.003140 0.002026 0.000000 0.026544 0.000000
# 6 0.000000 0.000000 0.000000 0.000780 0.000000 -0.294222
#
#
# Mechanical properties :
#
#
# Convention : Reuss Voigt Hill
#
# Bulk Modulus (GPa) = 57.44204 97.60735 77.52469
# Shear Modulus (GPa) = -28.35253 34.21561 2.93154
#
# Velocity S-wave (km/s) = -3.47784 3.82055 1.11831
# Velocity P-wave (km/s) = 2.89447 7.81678 5.89407
#
# Compressibility (1/GPa) = 0.01740885
#
# Stress axis : x y z
#
# Youngs Moduli (GPa) = 52.41648 61.45215 133.27495
#
# Poissons Ratio (x) = 0.16291 0.67745
# Poissons Ratio (y) = 0.13896 0.66484
# Poissons Ratio (z) = 0.26644 0.30655
#
# Static dielectric constant tensor:
#      x y z
#    x 1.970750 0.000000 -0.049790 
#    y 0.000000 1.929190 0.000000 
#    z -0.049790 0.000000 1.868260 
# 
# From -- ./inp_files/8229.got.cif
#   From: 2010.05.17/outbox.cif.g08.bks.cpg/sg14_5_cif.got.tgz:8229.got - 2010.06.03 17:49:19.
