data_PCOD9248641
_publ_section_title
;
Structure prediction by ZEFSAII (Michael W. Deem and Ramdas Pophale) SiO2 
 PCOD9248641
Probable space group: P 21/C
;
_chemical_formula_sum "Si O2"
_cell_formula_units_Z 20
_cell_length_a 12.132301
_cell_length_b 15.560960
_cell_length_c 9.511533
_cell_angle_alpha 90.000000
_cell_angle_beta 31.960126
_cell_angle_gamma 90.000000
_cell_volume 950.507899
_symmetry_space_group_name_H-M "P 21/C"
_symmetry_group_IT_number 14
_symmetry_cell_setting 'monoclinic'
loop_
_space_group_symop_operation_xyz
x,y,z
-x,1/2+y,1/2-z
-x,-y,-z
x,1/2-y,1/2+z
loop_
_atom_site_type_symbol
_atom_site_label
_atom_site_fract_x
_atom_site_fract_y
_atom_site_fract_z
Si Si1 0.489174 0.856422 0.519804
Si Si2 0.783896 0.504543 0.823874
Si Si3 0.894101 0.253388 0.547784
Si Si4 0.050834 0.561952 0.073093
Si Si5 0.846585 0.801123 0.964198
O O1 0.362945 0.927148 0.568162
O O2 0.308316 0.802161 0.787878
O O3 0.656147 0.909500 0.428341
O O4 0.622966 0.794081 0.274834
O O5 0.824636 0.490096 0.943997
O O6 0.000000 0.500000 0.500000
O O7 0.850836 0.150770 0.593157
O O8 0.977748 0.288436 0.605648
O O9 0.084204 0.262884 0.232749
O O10 0.864921 0.605379 0.368372
O O11 0.000000 0.500000 0.000000
#
# Coordination Sequence:
#
# PCOD9248641 Si02
#       5
#     4   4   4   4   4
#     4  11  21  40  77  97 133 186 234 281 357 412
#     4  11  21  42  68 102 137 177 236 286 344 422
#     4  10  22  43  67  98 140 177 234 289 341 419
#     4  10  23  45  66  98 145 177 225 300 343 400
#     4  10  23  43  66 100 137 178 241 282 342 417
#
# _framework density 21.04138
#
# number of rings (size 3 to 8) (size 9 to 14) (size 15 to 20)
#    1.200    0.400    4.000    0.000    0.000    6.400 
#    0.000    1.000    0.000    0.000    0.000    0.000 
#    0.000    0.000    0.000    0.000    0.000    0.000 
#
# Total GULP energy -111424.255735 kJ/mol
# GULP energy per Si atom -5571.212787 kJ/mol
# Density = 2.099349 g / cm^3
# Si number density = 21.041380 Si / 1000 Ang^3
#
#
#
# Elastic Constant Matrix: (Units=GPa)
#
#
# Indices 1 2 3 4 5 6 
#
# 1 140.4280 69.9646 36.1236 0.0000 4.2119 0.0000
# 2 69.9646 103.1718 54.4056 0.0000 -2.5052 0.0000
# 3 36.1236 54.4056 81.0477 0.0000 -11.6784 0.0000
# 4 0.0000 0.0000 0.0000 45.4625 0.0000 -1.6580
# 5 4.2119 -2.5052 -11.6784 0.0000 21.6186 0.0000
# 6 0.0000 0.0000 0.0000 -1.6580 0.0000 20.9076
#
#
#
# Elastic Compliance Matrix: (Units=1/GPa)
#
#
# Indices 1 2 3 4 5 6 
#
# 1 0.010956 -0.007256 -0.000478 0.000000 -0.003234 0.000000
# 2 -0.007256 0.020138 -0.010566 0.000000 -0.001961 0.000000
# 3 -0.000478 -0.010566 0.021126 0.000000 0.010281 0.000000
# 4 0.000000 0.000000 0.000000 0.022060 0.000000 0.001749
# 5 -0.003234 -0.001961 0.010281 0.000000 0.052213 0.000000
# 6 0.000000 0.000000 0.000000 0.001749 0.000000 0.047968
#
#
# Mechanical properties :
#
#
# Convention : Reuss Voigt Hill
#
# Bulk Modulus (GPa) = 64.02795 71.73723 67.88259
# Shear Modulus (GPa) = 23.11937 28.54133 25.83035
#
# Velocity S-wave (km/s) = 3.31835 3.68698 3.50751
# Velocity P-wave (km/s) = 6.72142 7.23136 6.98105
#
# Compressibility (1/GPa) = 0.01561818
#
# Stress axis : x y z
#
# Youngs Moduli (GPa) = 91.27151 49.65849 47.33503
#
# Poissons Ratio (x) = 0.36033 0.02265
# Poissons Ratio (y) = 0.66228 0.50016
# Poissons Ratio (z) = 0.04366 0.52471
#
# Static dielectric constant tensor:
#      x y z
#    x 1.748580 0.000000 0.014040 
#    y 0.000000 1.802260 0.000000 
#    z 0.014040 0.000000 1.773510 
# 
# From -- ./inp_files/13856.got.cif
#   From: 2010.05.17/outbox.cif.g08.bks.cpg/sg14_7_cif.got.tgz:13856.got - 2010.06.03 17:49:19.
