data_PCOD9248230
_publ_section_title
;
Structure prediction by ZEFSAII (Michael W. Deem and Ramdas Pophale) SiO2 
 PCOD9248230
Probable space group: P 21/C
;
_chemical_formula_sum "Si O2"
_cell_formula_units_Z 32
_cell_length_a 12.106242
_cell_length_b 8.677915
_cell_length_c 12.817195
_cell_angle_alpha 90.000000
_cell_angle_beta 64.751997
_cell_angle_gamma 90.000000
_cell_volume 1217.900776
_symmetry_space_group_name_H-M "P 21/C"
_symmetry_group_IT_number 14
_symmetry_cell_setting 'monoclinic'
loop_
_space_group_symop_operation_xyz
x,y,z
-x,1/2+y,1/2-z
-x,-y,-z
x,1/2-y,1/2+z
loop_
_atom_site_type_symbol
_atom_site_label
_atom_site_fract_x
_atom_site_fract_y
_atom_site_fract_z
Si Si1 0.223967 0.649762 0.965152
Si Si2 0.564363 0.230449 0.785874
Si Si3 0.757246 0.356716 0.350284
Si Si4 0.013813 0.827654 0.788463
Si Si5 0.767079 0.657264 0.903506
Si Si6 0.356612 0.433600 0.252179
Si Si7 0.897545 0.939946 0.643737
Si Si8 0.153833 0.130827 0.968224
O O1 0.334936 0.678414 0.840640
O O2 0.114450 0.579400 0.935328
O O3 0.217269 0.803383 0.040927
O O4 0.253354 0.502425 0.026887
O O5 0.618106 0.166960 0.873174
O O6 0.568110 0.412822 0.796475
O O7 0.438172 0.173443 0.791621
O O8 0.800375 0.512983 0.275044
O O9 0.850701 0.235922 0.256441
O O10 0.910873 0.692159 0.818213
O O11 0.008063 0.906426 0.677802
O O12 0.961771 0.914301 0.912329
O O13 0.682963 0.648877 0.837435
O O14 0.749836 0.803356 0.985297
O O15 0.229076 0.475147 0.360910
O O16 0.874808 0.783796 0.588890
#
# Coordination Sequence:
#
# PCOD9248230 Si02
#       8
#     4   4   4   4   4   4   4   4
#     4  10  23  46  67  99 142 181 232 290 366 401
#     4  11  29  43  71 100 138 188 232 304 345 423
#     4  11  25  43  65 105 143 179 242 283 352 429
#     4  10  23  39  71 107 134 185 227 285 344 439
#     4   9  21  42  69  95 133 178 230 275 349 419
#     4  12  24  47  70  99 142 177 245 285 351 422
#     4  10  22  41  70  97 146 178 239 279 359 410
#     4   9  21  42  70 101 128 182 225 285 348 412
#
# _framework density 26.274716999999999
#
# number of rings (size 3 to 8) (size 9 to 14) (size 15 to 20)
#    0.750    1.000    2.500    0.000    8.750    4.500 
#    0.000    1.875    0.000    0.000    0.000    0.000 
#    0.000    0.000    0.000    0.000    0.000    0.000 
#
# Total GULP energy -178598.714297 kJ/mol
# GULP energy per Si atom -5581.209822 kJ/mol
# Density = 2.621491 g / cm^3
# Si number density = 26.274717 Si / 1000 Ang^3
#
#
#
# Elastic Constant Matrix: (Units=GPa)
#
#
# Indices 1 2 3 4 5 6 
#
# 1 109.6854 13.2821 27.3833 0.0000 23.0200 0.0000
# 2 13.2821 40.1537 14.3232 0.0000 12.9905 0.0000
# 3 27.3833 14.3232 109.1659 0.0000 17.7131 0.0000
# 4 0.0000 0.0000 0.0000 50.3063 0.0000 7.5727
# 5 23.0200 12.9905 17.7131 0.0000 35.5274 0.0000
# 6 0.0000 0.0000 0.0000 7.5727 0.0000 44.4712
#
#
#
# Elastic Compliance Matrix: (Units=1/GPa)
#
#
# Indices 1 2 3 4 5 6 
#
# 1 0.010885 -0.001133 -0.001637 0.000000 -0.005822 0.000000
# 2 -0.001133 0.028862 -0.002077 0.000000 -0.008783 0.000000
# 3 -0.001637 -0.002077 0.010389 0.000000 -0.003359 0.000000
# 4 0.000000 0.000000 0.000000 0.020401 0.000000 -0.003474
# 5 -0.005822 -0.008783 -0.003359 0.000000 0.036806 0.000000
# 6 0.000000 0.000000 0.000000 -0.003474 0.000000 0.023078
#
#
# Mechanical properties :
#
#
# Convention : Reuss Voigt Hill
#
# Bulk Modulus (GPa) = 24.72768 40.99803 32.86285
# Shear Modulus (GPa) = 32.55301 39.66208 36.10754
#
# Velocity S-wave (km/s) = 3.52369 3.88946 3.71108
# Velocity P-wave (km/s) = 5.09773 5.98398 5.55854
#
# Compressibility (1/GPa) = 0.04044051
#
# Stress axis : x y z
#
# Youngs Moduli (GPa) = 91.87106 34.64793 96.25914
#
# Poissons Ratio (x) = 0.03925 0.15757
# Poissons Ratio (y) = 0.10408 0.19997
# Poissons Ratio (z) = 0.15039 0.07198
#
# Static dielectric constant tensor:
#      x y z
#    x 2.037900 0.000000 -0.006130 
#    y 0.000000 2.121630 0.000000 
#    z -0.006130 0.000000 2.127830 
# 
# From -- ./inp_files/29358.got.cif
#   From: 2010.05.17/outbox.cif.g08.bks.cpg/sg14_15_cif.got.tgz:29358.got - 2010.06.03 17:49:19.
