data_PCOD9248848
_publ_section_title
;
Structure prediction by ZEFSAII (Michael W. Deem and Ramdas Pophale) SiO2 
 PCOD9248848
Probable space group: P 21/C
;
_chemical_formula_sum "Si O2"
_cell_formula_units_Z 20
_cell_length_a 6.269642
_cell_length_b 9.260951
_cell_length_c 13.596928
_cell_angle_alpha 90.000000
_cell_angle_beta 94.885672
_cell_angle_gamma 90.000000
_cell_volume 786.607891
_symmetry_space_group_name_H-M "P 21/C"
_symmetry_group_IT_number 14
_symmetry_cell_setting 'monoclinic'
loop_
_space_group_symop_operation_xyz
x,y,z
-x,1/2+y,1/2-z
-x,-y,-z
x,1/2-y,1/2+z
loop_
_atom_site_type_symbol
_atom_site_label
_atom_site_fract_x
_atom_site_fract_y
_atom_site_fract_z
Si Si1 0.617090 0.837298 0.729490
Si Si2 0.659196 0.228870 0.543203
Si Si3 0.019430 0.820452 0.272872
Si Si4 0.695248 0.972145 0.407482
Si Si5 0.345174 0.925185 0.134442
O O1 0.866422 0.805793 0.727377
O O2 0.504025 0.689081 0.693758
O O3 0.506627 0.954796 0.656317
O O4 0.590043 0.912171 0.835517
O O5 0.419295 0.162895 0.544169
O O6 0.668714 0.372346 0.477509
O O7 0.794325 0.237422 0.648268
O O8 0.771541 0.099525 0.482366
O O9 0.866884 0.917671 0.335954
O O10 0.124115 0.898200 0.184016
#
# Coordination Sequence:
#
# PCOD9248848 Si02
#       5
#     4   4   4   4   4
#     4  11  23  43  67  98 141 180 219 281 344 399
#     4  10  23  42  69 101 132 181 231 279 337 407
#     4  12  23  42  69 103 135 175 235 279 335 413
#     4  10  22  44  68  98 139 182 229 275 337 407
#     4  11  26  43  71 101 137 185 222 285 343 404
#
# _framework density 25.425628
#
# number of rings (size 3 to 8) (size 9 to 14) (size 15 to 20)
#    0.000    1.200    4.000    0.600    5.600    5.600 
#    0.000    4.000    0.000    0.000    0.000    0.000 
#    0.000    0.000    0.000    0.000    0.000    0.000 
#
# Total GULP energy -111878.521349 kJ/mol
# GULP energy per Si atom -5593.926067 kJ/mol
# Density = 2.536776 g / cm^3
# Si number density = 25.425628 Si / 1000 Ang^3
#
#
#
# Elastic Constant Matrix: (Units=GPa)
#
#
# Indices 1 2 3 4 5 6 
#
# 1 100.3525 8.5020 15.8487 0.0000 -7.7551 0.0000
# 2 8.5020 59.4149 -11.0062 0.0000 1.8083 0.0000
# 3 15.8487 -11.0062 72.1197 0.0000 3.7721 0.0000
# 4 0.0000 0.0000 0.0000 46.3201 0.0000 -4.3451
# 5 -7.7551 1.8083 3.7721 0.0000 40.1923 0.0000
# 6 0.0000 0.0000 0.0000 -4.3451 0.0000 50.0166
#
#
#
# Elastic Compliance Matrix: (Units=1/GPa)
#
#
# Indices 1 2 3 4 5 6 
#
# 1 0.010781 -0.002140 -0.002823 0.000000 0.002441 0.000000
# 2 -0.002140 0.017788 0.003264 0.000000 -0.001520 0.000000
# 3 -0.002823 0.003264 0.015095 0.000000 -0.002108 0.000000
# 4 0.000000 0.000000 0.000000 0.021766 0.000000 0.001891
# 5 0.002441 -0.001520 -0.002108 0.000000 0.025618 0.000000
# 6 0.000000 0.000000 0.000000 0.001891 0.000000 0.020158
#
#
# Mechanical properties :
#
#
# Convention : Reuss Voigt Hill
#
# Bulk Modulus (GPa) = 24.83518 28.73067 26.78292
# Shear Modulus (GPa) = 39.05488 41.87529 40.46509
#
# Velocity S-wave (km/s) = 3.92349 4.06269 3.99370
# Velocity P-wave (km/s) = 5.50582 5.77336 5.64118
#
# Compressibility (1/GPa) = 0.04026546
#
# Stress axis : x y z
#
# Youngs Moduli (GPa) = 92.75799 56.21769 66.24819
#
# Poissons Ratio (x) = 0.12031 0.18705
# Poissons Ratio (y) = 0.19850 -0.21626
# Poissons Ratio (z) = 0.26189 -0.18352
#
# Static dielectric constant tensor:
#      x y z
#    x 2.012630 0.000000 -0.047910 
#    y 0.000000 2.042410 0.000000 
#    z -0.047910 0.000000 2.050900 
# 
# From -- ./inp_files/36816.got.cif
#   From: 2010.05.17/outbox.cif.g08.bks.cpg/sg14_19_cif.got.tgz:36816.got - 2010.06.03 17:49:19.
