data_PCOD9248685
_publ_section_title
;
Structure prediction by ZEFSAII (Michael W. Deem and Ramdas Pophale) SiO2 
 PCOD9248685
Probable space group: P 21/C
;
_chemical_formula_sum "Si O2"
_cell_formula_units_Z 28
_cell_length_a 8.191094
_cell_length_b 14.042549
_cell_length_c 12.704023
_cell_angle_alpha 90.000000
_cell_angle_beta 49.324834
_cell_angle_gamma 90.000000
_cell_volume 1108.248457
_symmetry_space_group_name_H-M "P 21/C"
_symmetry_group_IT_number 14
_symmetry_cell_setting 'monoclinic'
loop_
_space_group_symop_operation_xyz
x,y,z
-x,1/2+y,1/2-z
-x,-y,-z
x,1/2-y,1/2+z
loop_
_atom_site_type_symbol
_atom_site_label
_atom_site_fract_x
_atom_site_fract_y
_atom_site_fract_z
Si Si1 0.800609 0.992337 0.284715
Si Si2 0.872143 0.142054 0.781666
Si Si3 0.452527 0.908450 0.893625
Si Si4 0.253123 0.097598 0.903784
Si Si5 0.576933 0.352775 0.991699
Si Si6 0.629951 0.226526 0.684533
Si Si7 0.210453 0.200211 0.129379
O O1 0.870663 0.956089 0.138908
O O2 0.580400 0.933706 0.396179
O O3 0.974055 0.949492 0.292383
O O4 0.734948 0.098669 0.342425
O O5 0.767779 0.181437 0.719190
O O6 0.032107 0.228022 0.747233
O O7 0.699226 0.113599 0.942295
O O8 0.381276 0.839333 0.828608
O O9 0.687756 0.874246 0.831362
O O10 0.419318 0.016873 0.875149
O O11 0.388668 0.185443 0.800115
O O12 0.143132 0.142233 0.053107
O O13 0.700551 0.312392 0.040728
O O14 0.414904 0.271221 0.017092
#
# Coordination Sequence:
#
# PCOD9248685 Si02
#       7
#     4   4   4   4   4   4   4
#     4   9  20  38  64  98 131 172 224 277 336 401
#     4  11  24  44  67 101 140 176 231 285 340 413
#     4  11  25  46  68 100 140 179 231 288 341 415
#     4  11  23  43  73  98 134 184 231 281 350 409
#     4   8  18  41  63  92 133 177 219 278 336 403
#     4  10  23  43  69  98 133 182 230 283 348 406
#     4  10  22  43  69  94 139 182 224 283 346 407
#
# _framework density 25.265091999999999
#
# number of rings (size 3 to 8) (size 9 to 14) (size 15 to 20)
#    0.000    2.000    1.429    1.286    4.000    1.143 
#    5.143    0.000    0.000    0.000    0.000    0.000 
#    0.000    0.000    0.000    0.000    0.000    0.000 
#
# Total GULP energy -156626.045182 kJ/mol
# GULP energy per Si atom -5593.787328 kJ/mol
# Density = 2.520759 g / cm^3
# Si number density = 25.265092 Si / 1000 Ang^3
#
#
#
# Elastic Constant Matrix: (Units=GPa)
#
#
# Indices 1 2 3 4 5 6 
#
# 1 82.8036 7.3833 28.6742 0.0000 16.4113 0.0000
# 2 7.3833 111.7339 31.5713 0.0000 -1.1967 0.0000
# 3 28.6742 31.5713 89.7776 0.0000 16.7729 0.0000
# 4 0.0000 0.0000 0.0000 42.2579 0.0000 -6.0108
# 5 16.4113 -1.1967 16.7729 0.0000 31.6168 0.0000
# 6 0.0000 0.0000 0.0000 -6.0108 0.0000 46.0346
#
#
#
# Elastic Compliance Matrix: (Units=1/GPa)
#
#
# Indices 1 2 3 4 5 6 
#
# 1 0.014419 -0.000008 -0.003557 0.000000 -0.005598 0.000000
# 2 -0.000008 0.010115 -0.004026 0.000000 0.002523 0.000000
# 3 -0.003557 -0.004026 0.014845 0.000000 -0.006182 0.000000
# 4 0.000000 0.000000 0.000000 0.024112 0.000000 0.003148
# 5 -0.005598 0.002523 -0.006182 0.000000 0.037909 0.000000
# 6 0.000000 0.000000 0.000000 0.003148 0.000000 0.022134
#
#
# Mechanical properties :
#
#
# Convention : Reuss Voigt Hill
#
# Bulk Modulus (GPa) = 41.32536 46.61920 43.97228
# Shear Modulus (GPa) = 34.06449 38.42762 36.24606
#
# Velocity S-wave (km/s) = 3.67588 3.90420 3.79176
# Velocity P-wave (km/s) = 5.86586 6.23023 6.05079
#
# Compressibility (1/GPa) = 0.02419822
#
# Stress axis : x y z
#
# Youngs Moduli (GPa) = 69.35520 98.86402 67.36160
#
# Poissons Ratio (x) = 0.00077 0.23958
# Poissons Ratio (y) = 0.00054 0.27119
# Poissons Ratio (z) = 0.24667 0.39801
#
# Static dielectric constant tensor:
#      x y z
#    x 2.043650 0.000000 0.002070 
#    y 0.000000 1.987360 0.000000 
#    z 0.002070 0.000000 2.006430 
# 
# From -- ./inp_files/25419.got.cif
#   From: 2010.05.17/outbox.cif.g08.bks.cpg/sg14_13_cif.got.tgz:25419.got - 2010.06.03 17:49:19.
