data_PCOD9248061
_publ_section_title
;
Structure prediction by ZEFSAII (Michael W. Deem and Ramdas Pophale) SiO2 
 PCOD9248061
Probable space group: P 21/C
;
_chemical_formula_sum "Si O2"
_cell_formula_units_Z 24
_cell_length_a 10.072989
_cell_length_b 13.495128
_cell_length_c 9.406363
_cell_angle_alpha 90.000000
_cell_angle_beta 134.621859
_cell_angle_gamma 90.000000
_cell_volume 910.100870
_symmetry_space_group_name_H-M "P 21/C"
_symmetry_group_IT_number 14
_symmetry_cell_setting 'monoclinic'
loop_
_space_group_symop_operation_xyz
x,y,z
-x,1/2+y,1/2-z
-x,-y,-z
x,1/2-y,1/2+z
loop_
_atom_site_type_symbol
_atom_site_label
_atom_site_fract_x
_atom_site_fract_y
_atom_site_fract_z
Si Si1 0.774426 0.439290 0.122687
Si Si2 0.773631 0.324532 0.861288
Si Si3 0.601219 0.736831 0.896587
Si Si4 0.162796 0.019986 0.776376
Si Si5 0.593014 0.460498 0.282890
Si Si6 0.844495 0.751929 0.330940
O O1 0.739038 0.448074 0.263201
O O2 0.967872 0.486805 0.216110
O O3 0.777104 0.335834 0.036560
O O4 0.587080 0.484162 0.913218
O O5 0.567126 0.295774 0.658348
O O6 0.822311 0.429433 0.823304
O O7 0.940624 0.246899 0.962045
O O8 0.488768 0.646922 0.743777
O O9 0.716081 0.788816 0.859526
O O10 0.759447 0.702919 0.126477
O O11 0.321478 0.007405 0.013285
O O12 0.178572 0.129079 0.717221
#
# Coordination Sequence:
#
# PCOD9248061 Si02
#       6
#     4   4   4   4   4   4
#     4  10  22  41  63  94 129 167 219 270 317 379
#     4  11  24  43  67  94 128 172 220 267 324 389
#     4  12  25  41  64  96 133 170 211 268 334 389
#     4  11  23  44  71  94 125 175 226 267 316 387
#     4  11  23  39  65  97 130 169 215 269 325 385
#     4  11  26  45  66  96 133 173 218 271 326 388
#
# _framework density 26.370702000000001
#
# number of rings (size 3 to 8) (size 9 to 14) (size 15 to 20)
#    0.000    1.000    0.000    7.500    0.000   10.000 
#    0.000    0.000    0.000    0.000    0.000    0.000 
#    0.000    0.000    0.000    0.000    0.000    0.000 
#
# Total GULP energy -134403.254670 kJ/mol
# GULP energy per Si atom -5600.135611 kJ/mol
# Density = 2.631068 g / cm^3
# Si number density = 26.370702 Si / 1000 Ang^3
#
#
#
# Elastic Constant Matrix: (Units=GPa)
#
#
# Indices 1 2 3 4 5 6 
#
# 1 111.2411 17.5961 24.1453 0.0000 21.3421 0.0000
# 2 17.5961 59.3496 41.5844 0.0000 22.6447 0.0000
# 3 24.1453 41.5844 133.3749 0.0000 3.3939 0.0000
# 4 0.0000 0.0000 0.0000 34.5223 0.0000 5.2014
# 5 21.3421 22.6447 3.3939 0.0000 54.2504 0.0000
# 6 0.0000 0.0000 0.0000 5.2014 0.0000 23.7191
#
#
#
# Elastic Compliance Matrix: (Units=1/GPa)
#
#
# Indices 1 2 3 4 5 6 
#
# 1 0.010116 -0.000484 -0.001587 0.000000 -0.003678 0.000000
# 2 -0.000484 0.026491 -0.007908 0.000000 -0.010373 0.000000
# 3 -0.001587 -0.007908 0.010167 0.000000 0.003289 0.000000
# 4 0.000000 0.000000 0.000000 0.029957 0.000000 -0.006569
# 5 -0.003678 -0.010373 0.003289 0.000000 0.024004 0.000000
# 6 0.000000 0.000000 0.000000 -0.006569 0.000000 0.043601
#
#
# Mechanical properties :
#
#
# Convention : Reuss Voigt Hill
#
# Bulk Modulus (GPa) = 37.29013 52.29078 44.79046
# Shear Modulus (GPa) = 28.86295 37.20768 33.03531
#
# Velocity S-wave (km/s) = 3.31192 3.76033 3.54323
# Velocity P-wave (km/s) = 5.36624 6.22299 5.81043
#
# Compressibility (1/GPa) = 0.02681675
#
# Stress axis : x y z
#
# Youngs Moduli (GPa) = 98.85144 37.74806 98.35856
#
# Poissons Ratio (x) = 0.01827 0.15608
# Poissons Ratio (y) = 0.04783 0.77783
# Poissons Ratio (z) = 0.15687 0.29852
#
# Static dielectric constant tensor:
#      x y z
#    x 2.061070 0.000000 0.026270 
#    y 0.000000 2.144990 0.000000 
#    z 0.026270 0.000000 2.034380 
# 
# From -- ./inp_files/30493.got.cif
#   From: 2010.05.17/outbox.cif.g08.bks.cpg/sg14_16_cif.got.tgz:30493.got - 2010.06.03 17:49:19.
