data_PCOD9248064
_publ_section_title
;
Structure prediction by ZEFSAII (Michael W. Deem and Ramdas Pophale) SiO2 
 PCOD9248064
Probable space group: P 21/C
;
_chemical_formula_sum "Si O2"
_cell_formula_units_Z 32
_cell_length_a 13.511746
_cell_length_b 11.917672
_cell_length_c 16.757502
_cell_angle_alpha 90.000000
_cell_angle_beta 32.049968
_cell_angle_gamma 90.000000
_cell_volume 1431.948600
_symmetry_space_group_name_H-M "P 21/C"
_symmetry_group_IT_number 14
_symmetry_cell_setting 'monoclinic'
loop_
_space_group_symop_operation_xyz
x,y,z
-x,1/2+y,1/2-z
-x,-y,-z
x,1/2-y,1/2+z
loop_
_atom_site_type_symbol
_atom_site_label
_atom_site_fract_x
_atom_site_fract_y
_atom_site_fract_z
Si Si1 0.772213 0.787787 0.058925
Si Si2 0.517532 0.440890 0.322466
Si Si3 0.634446 0.247011 0.871654
Si Si4 0.003904 0.361947 0.200149
Si Si5 0.085723 0.549911 0.023314
Si Si6 0.130880 0.714315 0.548244
Si Si7 0.129662 0.894257 0.888672
Si Si8 0.496696 0.196087 0.123926
O O1 0.660246 0.895611 0.104285
O O2 0.658797 0.726760 0.205753
O O3 0.820711 0.710165 0.950409
O O4 0.970087 0.815065 0.961937
O O5 0.576537 0.341175 0.342677
O O6 0.483479 0.560141 0.389196
O O7 0.693266 0.455339 0.143613
O O8 0.700472 0.366323 0.788744
O O9 0.814047 0.191500 0.793495
O O10 0.478528 0.245220 0.047481
O O11 0.025510 0.479715 0.141424
O O12 0.986239 0.356162 0.307474
O O13 0.030676 0.677406 0.080225
O O14 0.000000 0.500000 0.000000
O O15 0.201790 0.644832 0.424848
O O16 0.315906 0.750952 0.468187
O O17 0.000000 0.000000 0.000000
#
# Coordination Sequence:
#
# PCOD9248064 Si02
#       8
#     4   4   4   4   4   4   4   4
#     4  11  23  40  60  92 126 167 210 271 333 398
#     4  12  22  39  67  96 134 169 218 285 344 391
#     4  10  22  41  63  95 126 167 220 277 324 407
#     4  10  23  40  65  94 126 170 219 266 334 400
#     4  12  21  41  71  95 130 176 227 278 337 401
#     4  11  24  42  64  94 132 173 222 279 325 415
#     4  11  23  43  63  85 127 178 221 260 329 403
#     4  11  23  39  63  95 131 164 210 277 349 384
#
# _framework density 22.347169999999998
#
# number of rings (size 3 to 8) (size 9 to 14) (size 15 to 20)
#    0.000    1.000    5.000    1.875    0.000    6.000 
#    0.000    0.625    0.000    0.000    0.000    0.000 
#    0.000    0.000    0.000    0.000    0.000    0.000 
#
# Total GULP energy -178540.090296 kJ/mol
# GULP energy per Si atom -5579.377822 kJ/mol
# Density = 2.229631 g / cm^3
# Si number density = 22.347170 Si / 1000 Ang^3
#
#
#
# Elastic Constant Matrix: (Units=GPa)
#
#
# Indices 1 2 3 4 5 6 
#
# 1 62.9343 10.0774 19.3277 0.0000 15.5871 0.0000
# 2 10.0774 59.4534 -2.2426 0.0000 11.2051 0.0000
# 3 19.3277 -2.2426 88.1711 0.0000 21.5067 0.0000
# 4 0.0000 0.0000 0.0000 36.8005 0.0000 3.4587
# 5 15.5871 11.2051 21.5067 0.0000 29.7687 0.0000
# 6 0.0000 0.0000 0.0000 3.4587 0.0000 29.6478
#
#
#
# Elastic Compliance Matrix: (Units=1/GPa)
#
#
# Indices 1 2 3 4 5 6 
#
# 1 0.018747 -0.001868 -0.002348 0.000000 -0.007416 0.000000
# 2 -0.001868 0.018786 0.002881 0.000000 -0.008174 0.000000
# 3 -0.002348 0.002881 0.014439 0.000000 -0.010287 0.000000
# 4 0.000000 0.000000 0.000000 0.027475 0.000000 -0.003205
# 5 -0.007416 -0.008174 -0.010287 0.000000 0.047984 0.000000
# 6 0.000000 0.000000 0.000000 -0.003205 0.000000 0.034103
#
#
# Mechanical properties :
#
#
# Convention : Reuss Voigt Hill
#
# Bulk Modulus (GPa) = 20.28352 29.43152 24.85752
# Shear Modulus (GPa) = 27.67982 31.46981 29.57482
#
# Velocity S-wave (km/s) = 3.52323 3.75670 3.64184
# Velocity P-wave (km/s) = 5.06430 5.65825 5.36949
#
# Compressibility (1/GPa) = 0.04930111
#
# Stress axis : x y z
#
# Youngs Moduli (GPa) = 53.34290 53.23143 69.25859
#
# Poissons Ratio (x) = 0.09946 0.16261
# Poissons Ratio (y) = 0.09967 -0.19955
# Poissons Ratio (z) = 0.12525 -0.15337
#
# Static dielectric constant tensor:
#      x y z
#    x 1.843220 0.000000 0.021590 
#    y 0.000000 1.882630 0.000000 
#    z 0.021590 0.000000 1.908830 
# 
# From -- ./inp_files/55583.got.cif
#   From: 2010.05.17/outbox.cif.g08.bks.cpg/sg14_28_cif.got.tgz:55583.got - 2010.06.03 17:49:19.
