data_PCOD9248653
_publ_section_title
;
Structure prediction by ZEFSAII (Michael W. Deem and Ramdas Pophale) SiO2 
 PCOD9248653
Probable space group: P 21/C
;
_chemical_formula_sum "Si O2"
_cell_formula_units_Z 28
_cell_length_a 16.168929
_cell_length_b 15.944885
_cell_length_c 5.269806
_cell_angle_alpha 90.000000
_cell_angle_beta 122.591655
_cell_angle_gamma 90.000000
_cell_volume 1144.677350
_symmetry_space_group_name_H-M "P 21/C"
_symmetry_group_IT_number 14
_symmetry_cell_setting 'monoclinic'
loop_
_space_group_symop_operation_xyz
x,y,z
-x,1/2+y,1/2-z
-x,-y,-z
x,1/2-y,1/2+z
loop_
_atom_site_type_symbol
_atom_site_label
_atom_site_fract_x
_atom_site_fract_y
_atom_site_fract_z
Si Si1 0.670480 0.197998 0.124040
Si Si2 0.885957 0.975924 0.509306
Si Si3 0.964973 0.369213 0.470670
Si Si4 0.857717 0.700458 0.490510
Si Si5 0.279433 0.443705 0.919850
Si Si6 0.557363 0.806804 0.289329
Si Si7 0.801661 0.090341 0.002751
O O1 0.681136 0.271630 0.929742
O O2 0.557778 0.169590 0.905021
O O3 0.748379 0.130976 0.153956
O O4 0.774641 0.953634 0.400094
O O5 0.924646 0.048652 0.760046
O O6 0.881724 0.022225 0.235434
O O7 0.951405 0.895585 0.685528
O O8 0.867716 0.342133 0.460393
O O9 0.025957 0.316284 0.365590
O O10 0.830346 0.741486 0.708666
O O11 0.796766 0.615756 0.357838
O O12 0.377977 0.390802 0.098999
O O13 0.275822 0.535558 0.786482
O O14 0.576872 0.750101 0.071417
#
# Coordination Sequence:
#
# PCOD9248653 Si02
#       7
#     4   4   4   4   4   4   4
#     4  10  25  46  66  93 128 166 213 262 317 385
#     4   9  20  38  58  88 121 163 204 263 309 373
#     4   9  21  38  57  84 121 167 212 246 320 367
#     4  11  25  39  59  91 128 165 213 265 305 372
#     4  10  23  38  63  97 123 165 213 259 323 378
#     4  10  22  43  68  92 130 173 205 256 321 378
#     4  11  23  38  69  89 128 167 211 268 315 372
#
# _framework density 24.461040000000001
#
# number of rings (size 3 to 8) (size 9 to 14) (size 15 to 20)
#    0.000    2.000    0.000    2.143   12.000    1.714 
#    0.000    0.714    0.000    0.000    0.000    0.000 
#    0.000    0.000    0.000    0.000    0.000    0.000 
#
# Total GULP energy -156563.380680 kJ/mol
# GULP energy per Si atom -5591.549310 kJ/mol
# Density = 2.440537 g / cm^3
# Si number density = 24.461040 Si / 1000 Ang^3
#
#
#
# Elastic Constant Matrix: (Units=GPa)
#
#
# Indices 1 2 3 4 5 6 
#
# 1 89.2160 18.3213 27.9635 0.0000 8.5407 0.0000
# 2 18.3213 48.9842 12.7635 0.0000 6.6077 0.0000
# 3 27.9635 12.7635 71.5533 0.0000 -2.9503 0.0000
# 4 0.0000 0.0000 0.0000 36.3852 0.0000 -8.1194
# 5 8.5407 6.6077 -2.9503 0.0000 37.4730 0.0000
# 6 0.0000 0.0000 0.0000 -8.1194 0.0000 50.0387
#
#
#
# Elastic Compliance Matrix: (Units=1/GPa)
#
#
# Indices 1 2 3 4 5 6 
#
# 1 0.013724 -0.003475 -0.004863 0.000000 -0.002898 0.000000
# 2 -0.003475 0.022933 -0.002876 0.000000 -0.003478 0.000000
# 3 -0.004863 -0.002876 0.016509 0.000000 0.002915 0.000000
# 4 0.000000 0.000000 0.000000 0.028516 0.000000 0.004627
# 5 -0.002898 -0.003478 0.002915 0.000000 0.028189 0.000000
# 6 0.000000 0.000000 0.000000 0.004627 0.000000 0.020735
#
#
# Mechanical properties :
#
#
# Convention : Reuss Voigt Hill
#
# Bulk Modulus (GPa) = 32.53292 36.42777 34.48035
# Shear Modulus (GPa) = 30.62187 34.82638 32.72413
#
# Velocity S-wave (km/s) = 3.54201 3.77735 3.66157
# Velocity P-wave (km/s) = 5.48238 5.82658 5.65710
#
# Compressibility (1/GPa) = 0.03073809
#
# Stress axis : x y z
#
# Youngs Moduli (GPa) = 72.86457 43.60504 60.57166
#
# Poissons Ratio (x) = 0.15153 0.29457
# Poissons Ratio (y) = 0.25321 0.17421
# Poissons Ratio (z) = 0.35435 0.12541
#
# Static dielectric constant tensor:
#      x y z
#    x 1.939050 0.000000 -0.004520 
#    y 0.000000 1.970590 0.000000 
#    z -0.004520 0.000000 1.960490 
# 
# From -- ./inp_files/4200.got.cif
#   From: 2010.05.17/outbox.cif.g08.bks.cpg/sg14_3_cif.got.tgz:4200.got - 2010.06.03 17:49:19.
