data_PCOD9248137
_publ_section_title
;
Structure prediction by ZEFSAII (Michael W. Deem and Ramdas Pophale) SiO2 
 PCOD9248137
Probable space group: P 21/C
;
_chemical_formula_sum "Si O2"
_cell_formula_units_Z 20
_cell_length_a 21.998572
_cell_length_b 5.077462
_cell_length_c 11.380656
_cell_angle_alpha 90.000000
_cell_angle_beta 34.686668
_cell_angle_gamma 90.000000
_cell_volume 723.415905
_symmetry_space_group_name_H-M "P 21/C"
_symmetry_group_IT_number 14
_symmetry_cell_setting 'monoclinic'
loop_
_space_group_symop_operation_xyz
x,y,z
-x,1/2+y,1/2-z
-x,-y,-z
x,1/2-y,1/2+z
loop_
_atom_site_type_symbol
_atom_site_label
_atom_site_fract_x
_atom_site_fract_y
_atom_site_fract_z
Si Si1 0.320734 0.719840 0.711095
Si Si2 0.879134 0.254465 0.597282
Si Si3 0.260555 0.218961 0.946705
Si Si4 0.472569 0.124836 0.729339
Si Si5 0.934128 0.407669 0.747857
O O1 0.248490 0.753462 0.709754
O O2 0.308795 0.424687 0.774806
O O3 0.442950 0.799570 0.505382
O O4 0.262344 0.928460 0.889010
O O5 0.909286 0.195116 0.684231
O O6 0.917709 0.111793 0.414991
O O7 0.942666 0.524389 0.470983
O O8 0.351088 0.206507 0.901759
O O9 0.148146 0.354726 0.153909
O O10 0.514792 0.317146 0.765149
#
# Coordination Sequence:
#
# PCOD9248137 Si02
#       5
#     4   4   4   4   4
#     4  11  23  42  66  96 135 181 233 287 347 412
#     4  10  22  41  66 101 140 185 233 288 348 415
#     4  11  23  42  67  96 135 182 232 288 347 413
#     4  12  24  40  64  96 135 180 231 287 350 417
#     4  10  22  41  67 101 141 184 234 287 349 414
#
# _framework density 27.646616000000002
#
# number of rings (size 3 to 8) (size 9 to 14) (size 15 to 20)
#    0.000    1.200    0.000    6.000    0.000    2.400 
#    0.000   10.000    0.000    0.000    0.000    0.000 
#    0.000    0.000    0.000    0.000    0.000    0.000 
#
# Total GULP energy -111800.670711 kJ/mol
# GULP energy per Si atom -5590.033536 kJ/mol
# Density = 2.758369 g / cm^3
# Si number density = 27.646616 Si / 1000 Ang^3
#
#
#
# Elastic Constant Matrix: (Units=GPa)
#
#
# Indices 1 2 3 4 5 6 
#
# 1 144.5040 41.3655 39.4752 0.0000 -3.7505 0.0000
# 2 41.3655 67.2394 37.2133 0.0000 9.1713 0.0000
# 3 39.4752 37.2133 117.2012 0.0000 28.8402 0.0000
# 4 0.0000 0.0000 0.0000 42.4000 0.0000 13.0781
# 5 -3.7505 9.1713 28.8402 0.0000 36.4182 0.0000
# 6 0.0000 0.0000 0.0000 13.0781 0.0000 23.8340
#
#
#
# Elastic Compliance Matrix: (Units=1/GPa)
#
#
# Indices 1 2 3 4 5 6 
#
# 1 0.009089 -0.004729 -0.002587 0.000000 0.004176 0.000000
# 2 -0.004729 0.020504 -0.004380 0.000000 -0.002182 0.000000
# 3 -0.002587 -0.004380 0.013152 0.000000 -0.009578 0.000000
# 4 0.000000 0.000000 0.000000 0.028390 0.000000 -0.015578
# 5 0.004176 -0.002182 -0.009578 0.000000 0.036024 0.000000
# 6 0.000000 0.000000 0.000000 -0.015578 0.000000 0.050505
#
#
# Mechanical properties :
#
#
# Convention : Reuss Voigt Hill
#
# Bulk Modulus (GPa) = 51.67919 62.78362 57.23140
# Shear Modulus (GPa) = 26.66564 34.58980 30.62772
#
# Velocity S-wave (km/s) = 3.10904 3.54098 3.33202
# Velocity P-wave (km/s) = 5.62330 6.28305 5.96231
#
# Compressibility (1/GPa) = 0.01935015
#
# Stress axis : x y z
#
# Youngs Moduli (GPa) = 110.02030 48.77188 76.03589
#
# Poissons Ratio (x) = 0.23066 0.19673
# Poissons Ratio (y) = 0.52032 0.33308
# Poissons Ratio (z) = 0.28467 0.21365
#
# Static dielectric constant tensor:
#      x y z
#    x 2.214060 0.000000 0.034080 
#    y 0.000000 2.178000 0.000000 
#    z 0.034080 0.000000 2.169850 
# 
# From -- ./inp_files/34523.got.cif
#   From: 2010.05.17/outbox.cif.g08.bks.cpg/sg14_18_cif.got.tgz:34523.got - 2010.06.03 17:49:19.
