data_PCOD9248118
_publ_section_title
;
Structure prediction by ZEFSAII (Michael W. Deem and Ramdas Pophale) SiO2 
 PCOD9248118
Probable space group: P 21/C
;
_chemical_formula_sum "Si O2"
_cell_formula_units_Z 20
_cell_length_a 21.277121
_cell_length_b 5.009833
_cell_length_c 14.009858
_cell_angle_alpha 90.000000
_cell_angle_beta 32.919442
_cell_angle_gamma 90.000000
_cell_volume 811.590380
_symmetry_space_group_name_H-M "P 21/C"
_symmetry_group_IT_number 14
_symmetry_cell_setting 'monoclinic'
loop_
_space_group_symop_operation_xyz
x,y,z
-x,1/2+y,1/2-z
-x,-y,-z
x,1/2-y,1/2+z
loop_
_atom_site_type_symbol
_atom_site_label
_atom_site_fract_x
_atom_site_fract_y
_atom_site_fract_z
Si Si1 0.262067 0.687337 0.925570
Si Si2 0.950139 0.943481 0.765555
Si Si3 0.146141 0.018044 0.381405
Si Si4 0.503062 0.856163 0.678893
Si Si5 0.750540 0.483741 0.847707
O O1 0.220599 0.539384 0.883352
O O2 0.393325 0.790988 0.753615
O O3 0.175689 0.936389 0.056071
O O4 0.255499 0.507604 0.029830
O O5 0.026119 0.138778 0.737542
O O6 0.013788 0.985422 0.583926
O O7 0.169896 0.303557 0.306269
O O8 0.198667 0.800448 0.243955
O O9 0.531820 0.584922 0.700309
O O10 0.619310 0.962042 0.481736
#
# Coordination Sequence:
#
# PCOD9248118 Si02
#       5
#     4   4   4   4   4
#     4  10  24  44  68  90 134 176 202 270 328 358
#     4  10  22  41  65  94 128 169 216 259 314 385
#     4  11  24  41  65  98 127 164 219 261 312 388
#     4  10  22  41  65  94 128 169 216 259 314 385
#     4  11  24  41  65  98 127 164 219 261 312 388
#
# _framework density 24.642973999999999
#
# number of rings (size 3 to 8) (size 9 to 14) (size 15 to 20)
#    0.000    1.600    0.000    4.800    0.000   17.600 
#    0.000    0.000    0.000    0.000    0.000    0.000 
#    0.000    0.000    0.000    0.000    0.000    0.000 
#
# Total GULP energy -112003.463957 kJ/mol
# GULP energy per Si atom -5600.173198 kJ/mol
# Density = 2.458689 g / cm^3
# Si number density = 24.642974 Si / 1000 Ang^3
#
#
#
# Elastic Constant Matrix: (Units=GPa)
#
#
# Indices 1 2 3 4 5 6 
#
# 1 105.7581 9.4729 20.3701 0.0000 -10.6977 0.0000
# 2 9.4729 8.6483 -33.7644 0.0000 8.9975 0.0000
# 3 20.3701 -33.7644 63.1744 0.0000 -9.0114 0.0000
# 4 0.0000 0.0000 0.0000 51.4721 0.0000 0.4968
# 5 -10.6977 8.9975 -9.0114 0.0000 52.2023 0.0000
# 6 0.0000 0.0000 0.0000 0.4968 0.0000 33.3151
#
#
#
# Elastic Compliance Matrix: (Units=1/GPa)
#
#
# Indices 1 2 3 4 5 6 
#
# 1 0.006980 0.015047 0.005768 0.000000 -0.000168 0.000000
# 2 0.015047 -0.070220 -0.041231 0.000000 0.008069 0.000000
# 3 0.005768 -0.041231 -0.007059 0.000000 0.007070 0.000000
# 4 0.000000 0.000000 0.000000 0.019431 0.000000 -0.000290
# 5 -0.000168 0.008069 0.007070 0.000000 0.018952 0.000000
# 6 0.000000 0.000000 0.000000 -0.000290 0.000000 0.030021
#
#
# Mechanical properties :
#
#
# Convention : Reuss Voigt Hill
#
# Bulk Modulus (GPa) = -8.99845 18.85976 4.93065
# Shear Modulus (GPa) = 2642.01666 39.49805 1340.75736
#
# Velocity S-wave (km/s) = 32.77873 4.00786 23.35067
# Velocity P-wave (km/s) = 37.80124 5.39324 27.00019
#
# Compressibility (1/GPa) = -0.11113024
#
# Stress axis : x y z
#
# Youngs Moduli (GPa) = 143.26941 -14.24094 -141.67306
#
# Poissons Ratio (x) = 0.21429 0.81714
# Poissons Ratio (y) = -2.15583 -5.84131
# Poissons Ratio (z) = -0.82635 -0.58717
#
# Static dielectric constant tensor:
#      x y z
#    x 2.025500 0.000000 -0.015420 
#    y 0.000000 1.913720 0.000000 
#    z -0.015420 0.000000 1.941900 
# 
# From -- ./inp_files/50958.got.cif
#   From: 2010.05.17/outbox.cif.g08.bks.cpg/sg14_26_cif.got.tgz:50958.got - 2010.06.03 17:49:19.
