data_PCOD9248081
_publ_section_title
;
Structure prediction by ZEFSAII (Michael W. Deem and Ramdas Pophale) SiO2 
 PCOD9248081
Probable space group: P 21/C
;
_chemical_formula_sum "Si O2"
_cell_formula_units_Z 24
_cell_length_a 31.228225
_cell_length_b 8.038596
_cell_length_c 9.093201
_cell_angle_alpha 90.000000
_cell_angle_beta 151.236757
_cell_angle_gamma 90.000000
_cell_volume 1098.404107
_symmetry_space_group_name_H-M "P 21/C"
_symmetry_group_IT_number 14
_symmetry_cell_setting 'monoclinic'
loop_
_space_group_symop_operation_xyz
x,y,z
-x,1/2+y,1/2-z
-x,-y,-z
x,1/2-y,1/2+z
loop_
_atom_site_type_symbol
_atom_site_label
_atom_site_fract_x
_atom_site_fract_y
_atom_site_fract_z
Si Si1 0.731061 0.712338 0.270945
Si Si2 0.727796 0.082583 0.163774
Si Si3 0.830360 0.273883 0.245908
Si Si4 0.102262 0.524924 0.267041
Si Si5 0.453159 0.636374 0.755943
Si Si6 0.386261 0.119658 0.825712
O O1 0.829201 0.626679 0.568818
O O2 0.678746 0.776905 0.258445
O O3 0.728031 0.883937 0.168543
O O4 0.667639 0.590434 0.986330
O O5 0.759223 0.149693 0.103064
O O6 0.792177 0.125306 0.494083
O O7 0.636313 0.174268 0.925868
O O8 0.900103 0.151111 0.378624
O O9 0.858558 0.388561 0.466963
O O10 0.000000 0.500000 0.000000
O O11 0.417831 0.545308 0.503459
O O12 0.500000 0.500000 0.000000
O O13 0.524861 0.776070 0.939541
#
# Coordination Sequence:
#
# PCOD9248081 Si02
#       6
#     4   4   4   4   4   4
#     4  11  23  42  64  89 127 169 215 256 329 369
#     4  10  22  41  64  92 132 171 211 260 308 378
#     4  10  24  42  65  95 128 167 205 261 327 368
#     4  11  25  44  69  97 123 164 209 264 322 385
#     4  11  23  38  58  93 125 164 220 254 304 364
#     4  11  23  40  62  90 126 170 209 265 307 371
#
# _framework density 21.849879000000001
#
# number of rings (size 3 to 8) (size 9 to 14) (size 15 to 20)
#    0.000    1.333    3.333    3.000    2.333    6.000 
#    0.000    3.333    0.000    0.000    0.000    0.000 
#    0.000    0.000    0.000    0.000    0.000    0.000 
#
# Total GULP energy -133950.412908 kJ/mol
# GULP energy per Si atom -5581.267205 kJ/mol
# Density = 2.180015 g / cm^3
# Si number density = 21.849879 Si / 1000 Ang^3
#
#
#
# Elastic Constant Matrix: (Units=GPa)
#
#
# Indices 1 2 3 4 5 6 
#
# 1 73.7673 18.2233 11.2537 0.0000 31.6363 0.0000
# 2 18.2233 59.4092 11.9903 0.0000 17.3887 0.0000
# 3 11.2537 11.9903 48.4715 0.0000 25.3007 0.0000
# 4 0.0000 0.0000 0.0000 20.8046 0.0000 1.2157
# 5 31.6363 17.3887 25.3007 0.0000 53.0463 0.0000
# 6 0.0000 0.0000 0.0000 1.2157 0.0000 26.0444
#
#
#
# Elastic Compliance Matrix: (Units=1/GPa)
#
#
# Indices 1 2 3 4 5 6 
#
# 1 0.018789 -0.002904 0.002274 0.000000 -0.011339 0.000000
# 2 -0.002904 0.019199 -0.002255 0.000000 -0.003486 0.000000
# 3 0.002274 -0.002255 0.027938 0.000000 -0.013942 0.000000
# 4 0.000000 0.000000 0.000000 0.048198 0.000000 -0.002250
# 5 -0.011339 -0.003486 -0.013942 0.000000 0.033406 0.000000
# 6 0.000000 0.000000 0.000000 -0.002250 0.000000 0.038501
#
#
# Mechanical properties :
#
#
# Convention : Reuss Voigt Hill
#
# Bulk Modulus (GPa) = 16.62335 29.39805 23.01070
# Shear Modulus (GPa) = 23.60133 29.32445 26.46289
#
# Velocity S-wave (km/s) = 3.29014 3.66743 3.48389
# Velocity P-wave (km/s) = 4.69658 5.60510 5.17083
#
# Compressibility (1/GPa) = 0.06015636
#
# Stress axis : x y z
#
# Youngs Moduli (GPa) = 53.22182 52.08715 35.79356
#
# Poissons Ratio (x) = 0.15125 -0.08141
# Poissons Ratio (y) = 0.15454 0.08073
# Poissons Ratio (z) = -0.12105 0.11748
#
# Static dielectric constant tensor:
#      x y z
#    x 1.936340 0.000000 -0.220870 
#    y 0.000000 1.951980 0.000000 
#    z -0.220870 0.000000 2.319440 
# 
# From -- ./inp_files/15057.got.cif
#   From: 2010.05.17/outbox.cif.g08.bks.cpg/sg14_8_cif.got.tgz:15057.got - 2010.06.03 17:49:19.
