data_PCOD9248180
_publ_section_title
;
Structure prediction by ZEFSAII (Michael W. Deem and Ramdas Pophale) SiO2 
 PCOD9248180
Probable space group: P 21/C
;
_chemical_formula_sum "Si O2"
_cell_formula_units_Z 20
_cell_length_a 22.587650
_cell_length_b 8.747076
_cell_length_c 9.169370
_cell_angle_alpha 90.000000
_cell_angle_beta 152.548710
_cell_angle_gamma 90.000000
_cell_volume 835.158785
_symmetry_space_group_name_H-M "P 21/C"
_symmetry_group_IT_number 14
_symmetry_cell_setting 'monoclinic'
loop_
_space_group_symop_operation_xyz
x,y,z
-x,1/2+y,1/2-z
-x,-y,-z
x,1/2-y,1/2+z
loop_
_atom_site_type_symbol
_atom_site_label
_atom_site_fract_x
_atom_site_fract_y
_atom_site_fract_z
Si Si1 0.435168 0.604031 0.566904
Si Si2 0.177775 0.660357 0.149207
Si Si3 0.168855 0.102191 0.843048
Si Si4 0.587351 0.720719 0.621040
Si Si5 0.051071 0.539166 0.345377
O O1 0.297876 0.675713 0.306176
O O2 0.502405 0.678325 0.573970
O O3 0.416646 0.425971 0.493041
O O4 0.527302 0.637029 0.904094
O O5 0.266817 0.263555 0.525303
O O6 0.125958 0.825024 0.085590
O O7 0.060377 0.560119 0.823982
O O8 0.031142 0.123049 0.464243
O O9 0.145119 0.072822 0.961638
O O10 0.218271 0.947036 0.873283
#
# Coordination Sequence:
#
# PCOD9248180 Si02
#       5
#     4   4   4   4   4
#     4  11  27  43  73 102 141 184 240 276 356 405
#     4  10  22  41  67  99 134 181 227 290 338 418
#     4   9  22  43  69  93 143 174 233 287 342 408
#     4  11  26  48  69 106 136 192 225 293 342 415
#     4   9  22  41  67  97 128 185 226 279 358 398
#
# _framework density 23.947544000000001
#
# number of rings (size 3 to 8) (size 9 to 14) (size 15 to 20)
#    1.200    0.800    0.000    1.200    8.400    1.600 
#    3.600    2.000    0.000    0.000    0.000    0.000 
#    0.000    0.000    0.000    0.000    0.000    0.000 
#
# Total GULP energy -111758.877101 kJ/mol
# GULP energy per Si atom -5587.943855 kJ/mol
# Density = 2.389304 g / cm^3
# Si number density = 23.947544 Si / 1000 Ang^3
#
#
#
# Elastic Constant Matrix: (Units=GPa)
#
#
# Indices 1 2 3 4 5 6 
#
# 1 60.0064 14.7817 31.5468 0.0000 29.8480 0.0000
# 2 14.7817 42.5891 27.2300 0.0000 3.1287 0.0000
# 3 31.5468 27.2300 34.0188 0.0000 9.2615 0.0000
# 4 0.0000 0.0000 0.0000 50.1735 0.0000 3.9497
# 5 29.8480 3.1287 9.2615 0.0000 33.9060 0.0000
# 6 0.0000 0.0000 0.0000 3.9497 0.0000 34.9790
#
#
#
# Elastic Compliance Matrix: (Units=1/GPa)
#
#
# Indices 1 2 3 4 5 6 
#
# 1 0.073980 0.027703 -0.078166 0.000000 -0.046331 0.000000
# 2 0.027703 0.059859 -0.070720 0.000000 -0.010594 0.000000
# 3 -0.078166 -0.070720 0.149064 0.000000 0.034619 0.000000
# 4 0.000000 0.000000 0.000000 0.020110 0.000000 -0.002271
# 5 -0.046331 -0.010594 0.034619 0.000000 0.061800 0.000000
# 6 0.000000 0.000000 0.000000 -0.002271 0.000000 0.028845
#
#
# Mechanical properties :
#
#
# Convention : Reuss Voigt Hill
#
# Bulk Modulus (GPa) = 24.66810 31.52570 28.09690
# Shear Modulus (GPa) = 7.69781 28.01541 17.85661
#
# Velocity S-wave (km/s) = 1.79483 3.42404 2.73363
# Velocity P-wave (km/s) = 3.82341 5.36890 4.66067
#
# Compressibility (1/GPa) = 0.04053818
#
# Stress axis : x y z
#
# Youngs Moduli (GPa) = 13.51721 16.70584 6.70854
#
# Poissons Ratio (x) = -0.46281 0.52438
# Poissons Ratio (y) = -0.37447 0.47443
# Poissons Ratio (z) = 1.05658 1.18144
#
# Static dielectric constant tensor:
#      x y z
#    x 1.906280 0.000000 -0.030270 
#    y 0.000000 1.906350 0.000000 
#    z -0.030270 0.000000 1.939960 
# 
# From -- ./inp_files/19389.got.cif
#   From: 2010.05.17/outbox.cif.g08.bks.cpg/sg14_10_cif.got.tgz:19389.got - 2010.06.03 17:49:19.
