data_PCOD9248135
_publ_section_title
;
Structure prediction by ZEFSAII (Michael W. Deem and Ramdas Pophale) SiO2 
 PCOD9248135
Probable space group: P 21/C
;
_chemical_formula_sum "Si O2"
_cell_formula_units_Z 30
_cell_length_a 6.404683
_cell_length_b 8.060481
_cell_length_c 32.395018
_cell_angle_alpha 90.000000
_cell_angle_beta 54.549234
_cell_angle_gamma 90.000000
_cell_volume 1362.350347
_symmetry_space_group_name_H-M "P 21/C"
_symmetry_group_IT_number 14
_symmetry_cell_setting 'monoclinic'
loop_
_space_group_symop_operation_xyz
x,y,z
-x,1/2+y,1/2-z
-x,-y,-z
x,1/2-y,1/2+z
loop_
_atom_site_type_symbol
_atom_site_label
_atom_site_fract_x
_atom_site_fract_y
_atom_site_fract_z
Si Si1 0.126776 0.727358 0.988865
Si Si2 0.500000 0.000000 0.500000
Si Si3 0.047654 0.573038 0.912624
Si Si4 0.722418 0.562953 0.574939
Si Si5 0.243713 0.776738 0.817799
Si Si6 0.134117 0.943227 0.170172
Si Si7 0.183907 0.231036 0.855911
Si Si8 0.665361 0.443432 0.267467
O O1 0.118988 0.600001 0.951988
O O2 0.230437 0.899054 0.957268
O O3 0.298594 0.646825 0.004943
O O4 0.837944 0.782658 0.035471
O O5 0.260168 0.077677 0.554035
O O6 0.179499 0.716402 0.870766
O O7 0.151831 0.403855 0.881749
O O8 0.426146 0.562912 0.621340
O O9 0.865830 0.591315 0.602659
O O10 0.254758 0.617857 0.786486
O O11 0.503443 0.886011 0.786210
O O12 0.018993 0.896132 0.827493
O O13 0.123452 0.944788 0.220949
O O14 0.998730 0.791927 0.162228
O O15 0.465814 0.195926 0.806642
#
# Coordination Sequence:
#
# PCOD9248135 Si02
#       8
#     4   2   4   4   4   4   4   4
#     4  11  24  42  66  93 136 180 238 278 344 396
#     4  12  26  40  62 102 132 180 230 290 332 404
#     4  12  25  41  65  96 139 178 230 284 340 405
#     4  10  22  43  67  94 131 188 222 285 335 409
#     4  11  24  44  68 101 131 175 223 285 344 420
#     4  10  22  41  67  96 133 169 225 269 342 417
#     4  10  22  41  65  99 134 176 223 276 345 410
#     4  10  23  44  71  96 135 172 220 281 349 417
#
# _framework density 22.020766999999999
#
# number of rings (size 3 to 8) (size 9 to 14) (size 15 to 20)
#    0.000    1.333    1.333    4.400    1.867    4.267 
#    0.000    4.667    0.000    0.000    0.000    0.000 
#    0.000    0.000    0.000    0.000    0.000    0.000 
#
# Total GULP energy -167041.232017 kJ/mol
# GULP energy per Si atom -5568.041067 kJ/mol
# Density = 2.197065 g / cm^3
# Si number density = 22.020767 Si / 1000 Ang^3
#
#
#
# Elastic Constant Matrix: (Units=GPa)
#
#
# Indices 1 2 3 4 5 6 
#
# 1 60.7740 24.3762 7.3785 0.0000 23.4015 0.0000
# 2 24.3762 109.8219 22.7499 0.0000 13.7954 0.0000
# 3 7.3785 22.7499 83.5906 0.0000 19.7509 0.0000
# 4 0.0000 0.0000 0.0000 55.3365 0.0000 4.9251
# 5 23.4015 13.7954 19.7509 0.0000 29.4321 0.0000
# 6 0.0000 0.0000 0.0000 4.9251 0.0000 16.5032
#
#
#
# Elastic Compliance Matrix: (Units=1/GPa)
#
#
# Indices 1 2 3 4 5 6 
#
# 1 0.025675 -0.003823 0.003772 0.000000 -0.021154 0.000000
# 2 -0.003823 0.010493 -0.002465 0.000000 -0.000224 0.000000
# 3 0.003772 -0.002465 0.015137 0.000000 -0.012002 0.000000
# 4 0.000000 0.000000 0.000000 0.018564 0.000000 -0.005540
# 5 -0.021154 -0.000224 -0.012002 0.000000 0.058955 0.000000
# 6 0.000000 0.000000 0.000000 -0.005540 0.000000 0.062248
#
#
# Mechanical properties :
#
#
# Convention : Reuss Voigt Hill
#
# Bulk Modulus (GPa) = 21.61076 40.35507 30.98291
# Shear Modulus (GPa) = 23.63743 33.56649 28.60196
#
# Velocity S-wave (km/s) = 3.27986 3.90848 3.60788
# Velocity P-wave (km/s) = 4.91715 6.22366 5.60858
#
# Compressibility (1/GPa) = 0.04627326
#
# Stress axis : x y z
#
# Youngs Moduli (GPa) = 38.94789 95.30071 66.06393
#
# Poissons Ratio (x) = 0.36435 -0.24922
# Poissons Ratio (y) = 0.14890 0.16287
# Poissons Ratio (z) = -0.14693 0.23495
#
# Static dielectric constant tensor:
#      x y z
#    x 1.826880 0.000000 0.039530 
#    y 0.000000 2.023880 0.000000 
#    z 0.039530 0.000000 1.854780 
# 
# From -- ./inp_files/78788.got.cif
#   From: 2010.05.17/outbox.cif.g08.bks.cpg/sg14_40_cif.got.tgz:78788.got - 2010.06.03 17:49:19.
