data_PCOD9248563
_publ_section_title
;
Structure prediction by ZEFSAII (Michael W. Deem and Ramdas Pophale) SiO2 
 PCOD9248563
Probable space group: P 21/C
;
_chemical_formula_sum "Si O2"
_cell_formula_units_Z 28
_cell_length_a 12.474519
_cell_length_b 13.239767
_cell_length_c 6.886457
_cell_angle_alpha 90.000000
_cell_angle_beta 87.718845
_cell_angle_gamma 90.000000
_cell_volume 1136.464029
_symmetry_space_group_name_H-M "P 21/C"
_symmetry_group_IT_number 14
_symmetry_cell_setting 'monoclinic'
loop_
_space_group_symop_operation_xyz
x,y,z
-x,1/2+y,1/2-z
-x,-y,-z
x,1/2-y,1/2+z
loop_
_atom_site_type_symbol
_atom_site_label
_atom_site_fract_x
_atom_site_fract_y
_atom_site_fract_z
Si Si1 0.339635 0.486110 0.915206
Si Si2 0.918317 0.692367 0.657731
Si Si3 0.667701 0.163663 0.897152
Si Si4 0.224621 0.346437 0.654497
Si Si5 0.537826 0.895469 0.896815
Si Si6 0.747816 0.383407 0.779485
Si Si7 0.037746 0.612964 0.985055
O O1 0.342680 0.586968 0.781556
O O2 0.240411 0.419574 0.838603
O O3 0.441038 0.420157 0.833366
O O4 0.323097 0.523922 0.132924
O O5 0.868121 0.625132 0.490914
O O6 0.967059 0.798474 0.584477
O O7 0.813061 0.733771 0.782028
O O8 0.016465 0.641111 0.762266
O O9 0.556479 0.175498 0.024488
O O10 0.703528 0.272097 0.825714
O O11 0.749896 0.113940 0.046904
O O12 0.344020 0.355199 0.553722
O O13 0.500000 0.000000 0.000000
O O14 0.852479 0.386011 0.905055
O O15 0.000000 0.500000 0.000000
#
# Coordination Sequence:
#
# PCOD9248563 Si02
#       7
#     4   4   4   4   4   4   4
#     4   9  21  42  60  89 129 161 213 252 321 379
#     4  10  22  43  63  93 123 171 216 263 323 387
#     4  11  22  38  63  93 130 166 204 264 321 374
#     4   9  20  41  64  86 128 160 210 263 311 380
#     4   8  19  39  60  89 125 164 209 258 315 393
#     4  12  23  39  64  93 128 167 214 264 317 384
#     4  11  25  42  64  94 129 164 222 268 322 387
#
# _framework density 24.637826
#
# number of rings (size 3 to 8) (size 9 to 14) (size 15 to 20)
#    0.857    1.143    1.429    1.714    2.000    1.714 
#    0.000    2.143    0.000    0.000    0.000    0.000 
#    0.000    0.000    0.000    0.000    0.000    0.000 
#
# Total GULP energy -156141.886862 kJ/mol
# GULP energy per Si atom -5576.495959 kJ/mol
# Density = 2.458175 g / cm^3
# Si number density = 24.637826 Si / 1000 Ang^3
#
#
#
# Elastic Constant Matrix: (Units=GPa)
#
#
# Indices 1 2 3 4 5 6 
#
# 1 88.2559 -0.5215 0.0624 0.0000 16.2796 0.0000
# 2 -0.5215 54.5136 -1.0239 0.0000 -4.6077 0.0000
# 3 0.0624 -1.0239 52.7358 0.0000 10.1069 0.0000
# 4 0.0000 0.0000 0.0000 25.8628 0.0000 -4.3868
# 5 16.2796 -4.6077 10.1069 0.0000 31.3863 0.0000
# 6 0.0000 0.0000 0.0000 -4.3868 0.0000 26.1747
#
#
#
# Elastic Compliance Matrix: (Units=1/GPa)
#
#
# Indices 1 2 3 4 5 6 
#
# 1 0.012626 -0.000450 0.001326 0.000000 -0.007042 0.000000
# 2 -0.000450 0.018592 -0.000220 0.000000 0.003033 0.000000
# 3 0.001326 -0.000220 0.020351 0.000000 -0.007273 0.000000
# 4 0.000000 0.000000 0.000000 0.039797 0.000000 0.006670
# 5 -0.007042 0.003033 -0.007273 0.000000 0.038301 0.000000
# 6 0.000000 0.000000 0.000000 0.006670 0.000000 0.039323
#
#
# Mechanical properties :
#
#
# Convention : Reuss Voigt Hill
#
# Bulk Modulus (GPa) = 18.91012 21.39326 20.15169
# Shear Modulus (GPa) = 26.98279 29.81731 28.40005
#
# Velocity S-wave (km/s) = 3.31294 3.48260 3.39883
# Velocity P-wave (km/s) = 4.72504 4.98731 4.85795
#
# Compressibility (1/GPa) = 0.05288174
#
# Stress axis : x y z
#
# Youngs Moduli (GPa) = 79.20139 53.78655 49.13868
#
# Poissons Ratio (x) = 0.02418 -0.06515
# Poissons Ratio (y) = 0.03560 0.01080
# Poissons Ratio (z) = -0.10501 0.01183
#
# Static dielectric constant tensor:
#      x y z
#    x 2.031510 0.000000 -0.033100 
#    y 0.000000 1.954080 0.000000 
#    z -0.033100 0.000000 2.094050 
# 
# From -- ./inp_files/12863.got.cif
#   From: 2010.05.17/outbox.cif.g08.bks.cpg/sg14_7_cif.got.tgz:12863.got - 2010.06.03 17:49:19.
