data_PCOD9248981
_publ_section_title
;
Structure prediction by ZEFSAII (Michael W. Deem and Ramdas Pophale) SiO2 
 PCOD9248981
Probable space group: P 21/C
;
_chemical_formula_sum "Si O2"
_cell_formula_units_Z 20
_cell_length_a 9.333353
_cell_length_b 15.560538
_cell_length_c 9.351234
_cell_angle_alpha 90.000000
_cell_angle_beta 137.180109
_cell_angle_gamma 90.000000
_cell_volume 923.094006
_symmetry_space_group_name_H-M "P 21/C"
_symmetry_group_IT_number 14
_symmetry_cell_setting 'monoclinic'
loop_
_space_group_symop_operation_xyz
x,y,z
-x,1/2+y,1/2-z
-x,-y,-z
x,1/2-y,1/2+z
loop_
_atom_site_type_symbol
_atom_site_label
_atom_site_fract_x
_atom_site_fract_y
_atom_site_fract_z
Si Si1 0.382831 0.086759 0.369429
Si Si2 0.920388 0.689428 0.158767
Si Si3 0.735210 0.312369 0.004433
Si Si4 0.078911 0.086978 0.626922
Si Si5 0.628530 0.857967 0.945613
O O1 0.191448 0.116123 0.328801
O O2 0.560383 0.162764 0.493676
O O3 0.500000 0.000000 0.500000
O O4 0.315622 0.085440 0.153739
O O5 0.930668 0.658069 0.003937
O O6 0.767821 0.771968 0.050484
O O7 0.143699 0.723663 0.382023
O O8 0.606928 0.326412 0.762657
O O9 0.913751 0.385630 0.128331
O O10 0.309158 0.090135 0.867244
O O11 0.000000 0.000000 0.500000
#
# Coordination Sequence:
#
# PCOD9248981 Si02
#       5
#     4   4   4   4   4
#     4  10  22  45  67  96 135 177 224 282 343 402
#     4  11  22  42  69  94 132 177 231 275 332 414
#     4   9  23  41  67  91 131 178 222 270 337 403
#     4  11  23  41  65 102 136 171 221 283 340 398
#     4   9  22  43  66  91 136 175 226 267 335 413
#
# _framework density 21.666266
#
# number of rings (size 3 to 8) (size 9 to 14) (size 15 to 20)
#    1.200    0.800    0.000    3.600    2.800    0.800 
#    3.600    5.000    0.000    0.000    0.000    0.000 
#    0.000    0.000    0.000    0.000    0.000    0.000 
#
# Total GULP energy -111430.370031 kJ/mol
# GULP energy per Si atom -5571.518502 kJ/mol
# Density = 2.161695 g / cm^3
# Si number density = 21.666266 Si / 1000 Ang^3
#
#
#
# Elastic Constant Matrix: (Units=GPa)
#
#
# Indices 1 2 3 4 5 6 
#
# 1 70.4392 4.6251 25.2385 0.0000 3.7445 0.0000
# 2 4.6251 80.5291 53.2378 0.0000 0.6375 0.0000
# 3 25.2385 53.2378 162.2860 0.0000 5.0352 0.0000
# 4 0.0000 0.0000 0.0000 35.1597 0.0000 -1.2295
# 5 3.7445 0.6375 5.0352 0.0000 30.1384 0.0000
# 6 0.0000 0.0000 0.0000 -1.2295 0.0000 24.6941
#
#
#
# Elastic Compliance Matrix: (Units=1/GPa)
#
#
# Indices 1 2 3 4 5 6 
#
# 1 0.015147 0.000854 -0.002590 0.000000 -0.001467 0.000000
# 2 0.000854 0.015914 -0.005367 0.000000 0.000454 0.000000
# 3 -0.002590 -0.005367 0.008355 0.000000 -0.000961 0.000000
# 4 0.000000 0.000000 0.000000 0.028491 0.000000 0.001419
# 5 -0.001467 0.000454 -0.000961 0.000000 0.033513 0.000000
# 6 0.000000 0.000000 0.000000 0.001419 0.000000 0.040566
#
#
# Mechanical properties :
#
#
# Convention : Reuss Voigt Hill
#
# Bulk Modulus (GPa) = 39.66907 53.27302 46.47105
# Shear Modulus (GPa) = 30.37735 33.34195 31.85965
#
# Velocity S-wave (km/s) = 3.74847 3.92712 3.83883
# Velocity P-wave (km/s) = 6.08963 6.72342 6.41436
#
# Compressibility (1/GPa) = 0.02520856
#
# Stress axis : x y z
#
# Youngs Moduli (GPa) = 66.02121 62.83941 119.68381
#
# Poissons Ratio (x) = -0.05367 0.31001
# Poissons Ratio (y) = -0.05639 0.64238
# Poissons Ratio (z) = 0.17101 0.33728
#
# Static dielectric constant tensor:
#      x y z
#    x 1.831750 0.000000 0.015610 
#    y 0.000000 1.707480 0.000000 
#    z 0.015610 0.000000 1.860520 
# 
# From -- ./inp_files/9553.got.cif
#   From: 2010.05.17/outbox.cif.g08.bks.cpg/sg14_5_cif.got.tgz:9553.got - 2010.06.03 17:49:19.
