data_PCOD9248271
_publ_section_title
;
Structure prediction by ZEFSAII (Michael W. Deem and Ramdas Pophale) SiO2 
 PCOD9248271
Probable space group: P 21/C
;
_chemical_formula_sum "Si O2"
_cell_formula_units_Z 30
_cell_length_a 15.078590
_cell_length_b 11.914818
_cell_length_c 8.580052
_cell_angle_alpha 90.000000
_cell_angle_beta 48.437002
_cell_angle_gamma 90.000000
_cell_volume 1153.376951
_symmetry_space_group_name_H-M "P 21/C"
_symmetry_group_IT_number 14
_symmetry_cell_setting 'monoclinic'
loop_
_space_group_symop_operation_xyz
x,y,z
-x,1/2+y,1/2-z
-x,-y,-z
x,1/2-y,1/2+z
loop_
_atom_site_type_symbol
_atom_site_label
_atom_site_fract_x
_atom_site_fract_y
_atom_site_fract_z
Si Si1 0.173610 0.575993 0.072106
Si Si2 0.000000 0.000000 0.500000
Si Si3 0.882648 0.876936 0.150745
Si Si4 0.526877 0.335479 0.593950
Si Si5 0.627171 0.392154 0.954556
Si Si6 0.981405 0.228832 0.721769
Si Si7 0.368378 0.473577 0.345607
Si Si8 0.351625 0.233836 0.037530
O O1 0.122301 0.503355 0.279597
O O2 0.311603 0.569800 0.955775
O O3 0.141953 0.707183 0.117755
O O4 0.114766 0.524441 0.987225
O O5 0.981639 0.124489 0.603961
O O6 0.965959 0.815620 0.179507
O O7 0.752373 0.820713 0.308634
O O8 0.936599 0.835245 0.925830
O O9 0.623300 0.241108 0.439857
O O10 0.594647 0.448208 0.554469
O O11 0.459280 0.299962 0.831295
O O12 0.417711 0.328124 0.601652
O O13 0.680389 0.452461 0.739601
O O14 0.489394 0.422030 0.135489
O O15 0.299992 0.365772 0.489349
#
# Coordination Sequence:
#
# PCOD9248271 Si02
#       8
#     4   2   4   4   4   4   4   4
#     4  11  24  44  72  97 140 185 229 298 356 413
#     4  10  24  48  66 102 138 178 240 294 338 426
#     4  11  24  41  70 100 127 183 233 287 350 417
#     4  11  21  42  63  99 138 183 223 288 340 432
#     4  10  23  40  67  98 139 179 224 286 354 413
#     4  11  23  47  66  97 139 174 234 292 349 410
#     4  10  22  42  62 100 141 179 231 283 343 431
#     4  11  23  39  69  95 140 177 234 284 349 412
#
# _framework density 26.010577000000001
#
# number of rings (size 3 to 8) (size 9 to 14) (size 15 to 20)
#    0.000    1.333    2.667    2.400    5.600    2.133 
#    2.400    0.000    0.000    0.000    0.000    0.000 
#    0.000    0.000    0.000    0.000    0.000    0.000 
#
# Total GULP energy -167304.699388 kJ/mol
# GULP energy per Si atom -5576.823313 kJ/mol
# Density = 2.595138 g / cm^3
# Si number density = 26.010577 Si / 1000 Ang^3
#
#
#
# Elastic Constant Matrix: (Units=GPa)
#
#
# Indices 1 2 3 4 5 6 
#
# 1 144.4988 27.1505 12.6516 0.0000 27.3088 0.0000
# 2 27.1505 133.1840 0.0769 0.0000 8.7720 0.0000
# 3 12.6516 0.0769 22.7716 0.0000 5.5600 0.0000
# 4 0.0000 0.0000 0.0000 19.5359 0.0000 6.4901
# 5 27.3088 8.7720 5.5600 0.0000 22.2938 0.0000
# 6 0.0000 0.0000 0.0000 6.4901 0.0000 33.3849
#
#
#
# Elastic Compliance Matrix: (Units=1/GPa)
#
#
# Indices 1 2 3 4 5 6 
#
# 1 0.009326 -0.001223 -0.002668 0.000000 -0.010278 0.000000
# 2 -0.001223 0.007881 0.001112 0.000000 -0.001880 0.000000
# 3 -0.002668 0.001112 0.047600 0.000000 -0.009041 0.000000
# 4 0.000000 0.000000 0.000000 0.054722 0.000000 -0.010638
# 5 -0.010278 -0.001880 -0.009041 0.000000 0.060440 0.000000
# 6 0.000000 0.000000 0.000000 -0.010638 0.000000 0.032022
#
#
# Mechanical properties :
#
#
# Convention : Reuss Voigt Hill
#
# Bulk Modulus (GPa) = 16.87774 42.24583 29.56178
# Shear Modulus (GPa) = 21.07055 32.41462 26.74258
#
# Velocity S-wave (km/s) = 2.84927 3.53400 3.20994
# Velocity P-wave (km/s) = 4.16261 5.73840 5.01281
#
# Compressibility (1/GPa) = 0.05924965
#
# Stress axis : x y z
#
# Youngs Moduli (GPa) = 107.22524 126.88933 21.00827
#
# Poissons Ratio (x) = 0.15515 0.05605
# Poissons Ratio (y) = 0.13111 -0.02336
# Poissons Ratio (z) = 0.28607 -0.14108
#
# Static dielectric constant tensor:
#      x y z
#    x 2.075890 0.000000 0.031610 
#    y 0.000000 2.054300 0.000000 
#    z 0.031610 0.000000 2.115920 
# 
# From -- ./inp_files/15734.got.cif
#   From: 2010.05.17/outbox.cif.g08.bks.cpg/sg14_8_cif.got.tgz:15734.got - 2010.06.03 17:49:19.
