data_PCOD9248774
_publ_section_title
;
Structure prediction by ZEFSAII (Michael W. Deem and Ramdas Pophale) SiO2 
 PCOD9248774
Probable space group: P 21/C
;
_chemical_formula_sum "Si O2"
_cell_formula_units_Z 20
_cell_length_a 9.200373
_cell_length_b 7.533450
_cell_length_c 26.192191
_cell_angle_alpha 90.000000
_cell_angle_beta 24.704223
_cell_angle_gamma 90.000000
_cell_volume 758.715425
_symmetry_space_group_name_H-M "P 21/C"
_symmetry_group_IT_number 14
_symmetry_cell_setting 'monoclinic'
loop_
_space_group_symop_operation_xyz
x,y,z
-x,1/2+y,1/2-z
-x,-y,-z
x,1/2-y,1/2+z
loop_
_atom_site_type_symbol
_atom_site_label
_atom_site_fract_x
_atom_site_fract_y
_atom_site_fract_z
Si Si1 0.441661 0.108565 0.827245
Si Si2 0.838127 0.695031 0.941914
Si Si3 0.369145 0.995130 0.339075
Si Si4 0.523007 0.524036 0.410050
Si Si5 0.676572 0.579241 0.851653
O O1 0.264803 0.299464 0.877491
O O2 0.368337 0.005096 0.902229
O O3 0.862051 0.152349 0.694575
O O4 0.401120 0.009673 0.786272
O O5 0.700028 0.893942 0.983531
O O6 0.503323 0.569870 0.055722
O O7 0.057377 0.635127 0.922547
O O8 0.547465 0.937502 0.334117
O O9 0.552613 0.730679 0.411992
O O10 0.913885 0.449340 0.283197
#
# Coordination Sequence:
#
# PCOD9248774 Si02
#       5
#     4   4   4   4   4
#     4  10  23  42  68 100 135 172 224 277 320 403
#     4  10  25  44  69  99 134 178 225 264 347 389
#     4  10  22  44  65 101 133 172 224 276 320 401
#     4  12  24  45  69  97 137 179 222 275 338 391
#     4  12  23  44  70  95 138 177 219 281 325 400
#
# _framework density 26.360344000000001
#
# number of rings (size 3 to 8) (size 9 to 14) (size 15 to 20)
#    1.200    0.000    4.000    1.800    0.000    3.200 
#    0.000    2.000    0.000    0.000    0.000    0.000 
#    0.000    0.000    0.000    0.000    0.000    0.000 
#
# Total GULP energy -111965.609116 kJ/mol
# GULP energy per Si atom -5598.280456 kJ/mol
# Density = 2.630035 g / cm^3
# Si number density = 26.360344 Si / 1000 Ang^3
#
#
#
# Elastic Constant Matrix: (Units=GPa)
#
#
# Indices 1 2 3 4 5 6 
#
# 1 92.6352 -15.0349 -5.3710 0.0000 -0.0800 0.0000
# 2 -15.0349 140.9338 6.0460 0.0000 -8.2256 0.0000
# 3 -5.3710 6.0460 78.4746 0.0000 -23.9521 0.0000
# 4 0.0000 0.0000 0.0000 39.9050 0.0000 -6.9554
# 5 -0.0800 -8.2256 -23.9521 0.0000 47.1532 0.0000
# 6 0.0000 0.0000 0.0000 -6.9554 0.0000 25.7302
#
#
#
# Elastic Compliance Matrix: (Units=1/GPa)
#
#
# Indices 1 2 3 4 5 6 
#
# 1 0.011037 0.001179 0.000868 0.000000 0.000665 0.000000
# 2 0.001179 0.007297 -0.000109 0.000000 0.001219 0.000000
# 3 0.000868 -0.000109 0.015155 0.000000 0.007681 0.000000
# 4 0.000000 0.000000 0.000000 0.026299 0.000000 0.007109
# 5 0.000665 0.001219 0.007681 0.000000 0.025323 0.000000
# 6 0.000000 0.000000 0.000000 0.007109 0.000000 0.040787
#
#
# Mechanical properties :
#
#
# Convention : Reuss Voigt Hill
#
# Bulk Modulus (GPa) = 26.76361 31.48043 29.12202
# Shear Modulus (GPa) = 37.18093 44.31792 40.74942
#
# Velocity S-wave (km/s) = 3.75972 4.10473 3.93601
# Velocity P-wave (km/s) = 5.38724 5.86800 5.63275
#
# Compressibility (1/GPa) = 0.03736417
#
# Stress axis : x y z
#
# Youngs Moduli (GPa) = 90.60209 137.03932 65.98459
#
# Poissons Ratio (x) = -0.16158 -0.05725
# Poissons Ratio (y) = -0.10683 0.00721
# Poissons Ratio (z) = -0.07860 0.01498
#
# Static dielectric constant tensor:
#      x y z
#    x 2.078960 0.000000 -0.035160 
#    y 0.000000 2.008930 0.000000 
#    z -0.035160 0.000000 2.095220 
# 
# From -- ./inp_files/79333.got.cif
#   From: 2010.05.17/outbox.cif.g08.bks.cpg/sg14_40_cif.got.tgz:79333.got - 2010.06.03 17:49:19.
