data_PCOD9248196
_publ_section_title
;
Structure prediction by ZEFSAII (Michael W. Deem and Ramdas Pophale) SiO2 
 PCOD9248196
Probable space group: P 21/C
;
_chemical_formula_sum "Si O2"
_cell_formula_units_Z 28
_cell_length_a 8.270836
_cell_length_b 14.119862
_cell_length_c 18.570678
_cell_angle_alpha 90.000000
_cell_angle_beta 32.282294
_cell_angle_gamma 90.000000
_cell_volume 1158.305115
_symmetry_space_group_name_H-M "P 21/C"
_symmetry_group_IT_number 14
_symmetry_cell_setting 'monoclinic'
loop_
_space_group_symop_operation_xyz
x,y,z
-x,1/2+y,1/2-z
-x,-y,-z
x,1/2-y,1/2+z
loop_
_atom_site_type_symbol
_atom_site_label
_atom_site_fract_x
_atom_site_fract_y
_atom_site_fract_z
Si Si1 0.250131 0.845194 0.165620
Si Si2 0.974837 0.966602 0.786969
Si Si3 0.022122 0.459910 0.887255
Si Si4 0.328976 0.268788 0.594204
Si Si5 0.432647 0.076964 0.354035
Si Si6 0.721788 0.223677 0.574275
Si Si7 0.374613 0.296591 0.349948
O O1 0.479499 0.862785 0.144545
O O2 0.922518 0.811718 0.316266
O O3 0.390666 0.760382 0.065460
O O4 0.204972 0.936483 0.133109
O O5 0.001355 0.964172 0.689638
O O6 0.284242 0.971420 0.714730
O O7 0.822853 0.868660 0.866810
O O8 0.347229 0.453540 0.804723
O O9 0.850112 0.547436 0.989443
O O10 0.853824 0.365110 0.979707
O O11 0.468524 0.272531 0.620814
O O12 0.466427 0.189612 0.338882
O O13 0.546582 0.188287 0.710530
O O14 0.010773 0.290750 0.481804
#
# Coordination Sequence:
#
# PCOD9248196 Si02
#       7
#     4   4   4   4   4   4   4
#     4  12  27  44  76 102 146 188 241 296 366 429
#     4  12  25  44  71 107 147 185 243 296 371 420
#     4  10  23  41  73 105 137 185 249 294 363 428
#     4  12  25  48  69 107 143 194 239 298 359 434
#     4  10  22  41  68  99 142 179 239 297 353 431
#     4  11  24  45  71 103 141 186 240 302 356 430
#     4  11  24  43  69 101 138 188 236 296 363 424
#
# _framework density 24.173251
#
# number of rings (size 3 to 8) (size 9 to 14) (size 15 to 20)
#    0.000    0.857    1.429    6.000    8.000    0.000 
#    0.000    0.714    0.000    0.000    0.000    0.000 
#    0.000    0.000    0.000    0.000    0.000    0.000 
#
# Total GULP energy -156784.300826 kJ/mol
# GULP energy per Si atom -5599.439315 kJ/mol
# Density = 2.411823 g / cm^3
# Si number density = 24.173251 Si / 1000 Ang^3
#
#
#
# Elastic Constant Matrix: (Units=GPa)
#
#
# Indices 1 2 3 4 5 6 
#
# 1 135.2871 10.8394 37.5792 0.0000 -15.7936 0.0000
# 2 10.8394 61.3910 7.0272 0.0000 -20.9445 0.0000
# 3 37.5792 7.0272 41.0193 0.0000 -10.4710 0.0000
# 4 0.0000 0.0000 0.0000 32.7506 0.0000 -0.0173
# 5 -15.7936 -20.9445 -10.4710 0.0000 34.7753 0.0000
# 6 0.0000 0.0000 0.0000 -0.0173 0.0000 37.4929
#
#
#
# Elastic Compliance Matrix: (Units=1/GPa)
#
#
# Indices 1 2 3 4 5 6 
#
# 1 0.010035 -0.000145 -0.008696 0.000000 0.001852 0.000000
# 2 -0.000145 0.020510 -0.000265 0.000000 0.012207 0.000000
# 3 -0.008696 -0.000265 0.033951 0.000000 0.006114 0.000000
# 4 0.000000 0.000000 0.000000 0.030534 0.000000 0.000014
# 5 0.001852 0.012207 0.006114 0.000000 0.038790 0.000000
# 6 0.000000 0.000000 0.000000 0.000014 0.000000 0.026672
#
#
# Mechanical properties :
#
#
# Convention : Reuss Voigt Hill
#
# Bulk Modulus (GPa) = 21.60527 38.73210 30.16869
# Shear Modulus (GPa) = 25.75583 33.15387 29.45485
#
# Velocity S-wave (km/s) = 3.26769 3.70741 3.49447
# Velocity P-wave (km/s) = 4.81603 5.86379 5.36555
#
# Compressibility (1/GPa) = 0.04628500
#
# Stress axis : x y z
#
# Youngs Moduli (GPa) = 99.65175 48.75779 29.45386
#
# Poissons Ratio (x) = 0.00705 0.25613
# Poissons Ratio (y) = 0.01440 0.00781
# Poissons Ratio (z) = 0.86655 0.01293
#
# Static dielectric constant tensor:
#      x y z
#    x 1.930990 0.000000 0.009420 
#    y 0.000000 1.933540 0.000000 
#    z 0.009420 0.000000 1.958860 
# 
# From -- ./inp_files/65807.got.cif
#   From: 2010.05.17/outbox.cif.g08.bks.cpg/sg14_33_cif.got.tgz:65807.got - 2010.06.03 17:49:19.
