data_PCOD9248124
_publ_section_title
;
Structure prediction by ZEFSAII (Michael W. Deem and Ramdas Pophale) SiO2 
 PCOD9248124
Probable space group: P 21/C
;
_chemical_formula_sum "Si O2"
_cell_formula_units_Z 32
_cell_length_a 12.123844
_cell_length_b 8.299504
_cell_length_c 26.131881
_cell_angle_alpha 90.000000
_cell_angle_beta 27.185623
_cell_angle_gamma 90.000000
_cell_volume 1201.324384
_symmetry_space_group_name_H-M "P 21/C"
_symmetry_group_IT_number 14
_symmetry_cell_setting 'monoclinic'
loop_
_space_group_symop_operation_xyz
x,y,z
-x,1/2+y,1/2-z
-x,-y,-z
x,1/2-y,1/2+z
loop_
_atom_site_type_symbol
_atom_site_label
_atom_site_fract_x
_atom_site_fract_y
_atom_site_fract_z
Si Si1 0.251412 0.090754 0.906824
Si Si2 0.942756 0.388819 0.731697
Si Si3 0.909916 0.977135 0.643404
Si Si4 0.248366 0.565860 0.085622
Si Si5 0.431779 0.175541 0.068899
Si Si6 0.292729 0.351978 0.233271
Si Si7 0.366548 0.037855 0.330733
Si Si8 0.446080 0.628538 0.626219
O O1 0.309363 0.276294 0.866676
O O2 0.434882 0.981382 0.796935
O O3 0.305382 0.106747 0.945269
O O4 0.000000 0.000000 0.000000
O O5 0.938377 0.459869 0.791475
O O6 0.898712 0.513571 0.704756
O O7 0.201447 0.300578 0.626173
O O8 0.691575 0.289168 0.833373
O O9 0.834252 0.789478 0.681831
O O10 0.868234 0.030346 0.602752
O O11 0.735953 0.071868 0.753512
O O12 0.165322 0.997082 0.565076
O O13 0.500000 0.500000 0.000000
O O14 0.312580 0.753516 0.053350
O O15 0.374449 0.269670 0.146136
O O16 0.454037 0.991635 0.075713
O O17 0.513594 0.435404 0.172952
#
# Coordination Sequence:
#
# PCOD9248124 Si02
#       8
#     4   4   4   4   4   4   4   4
#     4  11  25  46  72 104 148 190 243 305 358 441
#     4  12  22  43  67  99 137 178 233 286 360 423
#     4  10  23  43  69  96 138 185 227 293 355 418
#     4  12  24  42  68  98 136 179 234 288 353 432
#     4  11  24  40  66  95 137 181 230 291 353 423
#     4  11  21  43  71  95 138 187 229 291 358 424
#     4  11  23  47  73 103 142 195 242 298 373 430
#     4  10  22  41  65  95 136 181 224 289 353 415
#
# _framework density 26.637269
#
# number of rings (size 3 to 8) (size 9 to 14) (size 15 to 20)
#    0.000    1.000    6.250    1.500    1.750    0.500 
#    2.250    3.750    0.000    0.000    0.000    0.000 
#    0.000    0.000    0.000    0.000    0.000    0.000 
#
# Total GULP energy -178929.256552 kJ/mol
# GULP energy per Si atom -5591.539267 kJ/mol
# Density = 2.657664 g / cm^3
# Si number density = 26.637269 Si / 1000 Ang^3
#
#
#
# Elastic Constant Matrix: (Units=GPa)
#
#
# Indices 1 2 3 4 5 6 
#
# 1 211.9949 43.0932 45.2829 0.0000 -45.4166 0.0000
# 2 43.0932 90.1763 21.1983 0.0000 -15.0350 0.0000
# 3 45.2829 21.1983 69.8231 0.0000 -17.1219 0.0000
# 4 0.0000 0.0000 0.0000 29.5355 0.0000 -10.8887
# 5 -45.4166 -15.0350 -17.1219 0.0000 53.7002 0.0000
# 6 0.0000 0.0000 0.0000 -10.8887 0.0000 44.6029
#
#
#
# Elastic Compliance Matrix: (Units=1/GPa)
#
#
# Indices 1 2 3 4 5 6 
#
# 1 0.006551 -0.001805 -0.002675 0.000000 0.004183 0.000000
# 2 -0.001805 0.012724 -0.002379 0.000000 0.001278 0.000000
# 3 -0.002675 -0.002379 0.017423 0.000000 0.002626 0.000000
# 4 0.000000 0.000000 0.000000 0.037206 0.000000 0.009083
# 5 0.004183 0.001278 0.002626 0.000000 0.023354 0.000000
# 6 0.000000 0.000000 0.000000 0.009083 0.000000 0.024637
#
#
# Mechanical properties :
#
#
# Convention : Reuss Voigt Hill
#
# Bulk Modulus (GPa) = 43.51542 65.68257 54.59900
# Shear Modulus (GPa) = 34.89777 43.06238 38.98008
#
# Velocity S-wave (km/s) = 3.62347 4.02509 3.82955
# Velocity P-wave (km/s) = 5.82047 6.80540 6.33211
#
# Compressibility (1/GPa) = 0.02298036
#
# Stress axis : x y z
#
# Youngs Moduli (GPa) = 152.63860 78.59107 57.39402
#
# Poissons Ratio (x) = 0.14182 0.15355
# Poissons Ratio (y) = 0.27544 0.13657
# Poissons Ratio (z) = 0.40836 0.18700
#
# Static dielectric constant tensor:
#      x y z
#    x 2.193010 0.000000 -0.027160 
#    y 0.000000 2.201730 0.000000 
#    z -0.027160 0.000000 2.171610 
# 
# From -- ./inp_files/79988.got.cif
#   From: 2010.05.17/outbox.cif.g08.bks.cpg/sg14_40_cif.got.tgz:79988.got - 2010.06.03 17:49:19.
