data_PCOD9248049
_publ_section_title
;
Structure prediction by ZEFSAII (Michael W. Deem and Ramdas Pophale) SiO2 
 PCOD9248049
Probable space group: P 21/C
;
_chemical_formula_sum "Si O2"
_cell_formula_units_Z 30
_cell_length_a 6.681287
_cell_length_b 11.549014
_cell_length_c 16.859737
_cell_angle_alpha 90.000000
_cell_angle_beta 114.057775
_cell_angle_gamma 90.000000
_cell_volume 1187.929730
_symmetry_space_group_name_H-M "P 21/C"
_symmetry_group_IT_number 14
_symmetry_cell_setting 'monoclinic'
loop_
_space_group_symop_operation_xyz
x,y,z
-x,1/2+y,1/2-z
-x,-y,-z
x,1/2-y,1/2+z
loop_
_atom_site_type_symbol
_atom_site_label
_atom_site_fract_x
_atom_site_fract_y
_atom_site_fract_z
Si Si1 0.230471 0.115187 0.990833
Si Si2 0.039665 0.307978 0.756364
Si Si3 0.500000 0.500000 0.000000
Si Si4 0.898041 0.001519 0.613847
Si Si5 0.498199 0.252737 0.913844
Si Si6 0.234803 0.935421 0.128348
Si Si7 0.839183 0.726368 0.887093
Si Si8 0.362993 0.868110 0.306979
O O1 0.112508 0.215263 0.022380
O O2 0.297808 0.024213 0.069290
O O3 0.432331 0.167417 0.975690
O O4 0.029318 0.065033 0.907196
O O5 0.997380 0.422461 0.801743
O O6 0.269513 0.264199 0.829174
O O7 0.077137 0.313074 0.668436
O O8 0.845701 0.215457 0.734946
O O9 0.244930 0.441167 0.975674
O O10 0.569236 0.376968 0.957529
O O11 0.668169 0.059098 0.616039
O O12 0.049877 0.104547 0.614030
O O13 0.669123 0.188126 0.884776
O O14 0.347919 0.956015 0.231349
O O15 0.580170 0.705526 0.840848
#
# Coordination Sequence:
#
# PCOD9248049 Si02
#       8
#     4   4   2   4   4   4   4   4
#     4  11  24  40  64  97 127 166 216 273 320 392
#     4  10  22  41  63  90 130 170 216 267 325 392
#     4  10  22  42  66  92 132 174 210 268 328 386
#     4  10  23  41  64  95 132 174 219 274 325 392
#     4  11  21  43  63  94 128 171 212 266 329 389
#     4  11  23  41  66  94 130 169 215 268 329 384
#     4  11  23  42  64  96 129 168 222 270 325 390
#     4  11  22  42  64  94 129 173 221 272 324 401
#
# _framework density 25.254017000000001
#
# number of rings (size 3 to 8) (size 9 to 14) (size 15 to 20)
#    0.000    1.333    2.667    2.800    0.000    3.200 
#    2.400    4.000    0.000    0.000    0.000    0.000 
#    0.000    0.000    0.000    0.000    0.000    0.000 
#
# Total GULP energy -167611.341513 kJ/mol
# GULP energy per Si atom -5587.044717 kJ/mol
# Density = 2.519654 g / cm^3
# Si number density = 25.254017 Si / 1000 Ang^3
#
#
#
# Elastic Constant Matrix: (Units=GPa)
#
#
# Indices 1 2 3 4 5 6 
#
# 1 70.0226 24.3090 29.2676 0.0000 -0.6296 0.0000
# 2 24.3090 101.6124 18.7581 0.0000 -3.7608 0.0000
# 3 29.2676 18.7581 99.3066 0.0000 2.2475 0.0000
# 4 0.0000 0.0000 0.0000 43.9056 0.0000 0.9627
# 5 -0.6296 -3.7608 2.2475 0.0000 36.6227 0.0000
# 6 0.0000 0.0000 0.0000 0.9627 0.0000 31.2797
#
#
#
# Elastic Compliance Matrix: (Units=1/GPa)
#
#
# Indices 1 2 3 4 5 6 
#
# 1 0.017303 -0.003304 -0.004481 0.000000 0.000233 0.000000
# 2 -0.003304 0.010878 -0.001107 0.000000 0.001128 0.000000
# 3 -0.004481 -0.001107 0.011620 0.000000 -0.000904 0.000000
# 4 0.000000 0.000000 0.000000 0.022791 0.000000 -0.000701
# 5 0.000233 0.001128 -0.000904 0.000000 0.027481 0.000000
# 6 0.000000 0.000000 0.000000 -0.000701 0.000000 0.031991
#
#
# Mechanical properties :
#
#
# Convention : Reuss Voigt Hill
#
# Bulk Modulus (GPa) = 45.41626 46.17898 45.79762
# Shear Modulus (GPa) = 33.97076 35.60208 34.78642
#
# Velocity S-wave (km/s) = 3.67162 3.75875 3.71544
# Velocity P-wave (km/s) = 5.99977 6.09615 6.04815
#
# Compressibility (1/GPa) = 0.02201855
#
# Stress axis : x y z
#
# Youngs Moduli (GPa) = 57.79367 91.93132 86.05950
#
# Poissons Ratio (x) = 0.30371 0.38561
# Poissons Ratio (y) = 0.19093 0.09523
# Poissons Ratio (z) = 0.25896 0.10173
#
# Static dielectric constant tensor:
#      x y z
#    x 2.005610 0.000000 -0.033980 
#    y 0.000000 2.038980 0.000000 
#    z -0.033980 0.000000 2.143530 
# 
# From -- ./inp_files/63496.got.cif
#   From: 2010.05.17/outbox.cif.g08.bks.cpg/sg14_32_cif.got.tgz:63496.got - 2010.06.03 17:49:19.
