data_PCOD9248574
_publ_section_title
;
Structure prediction by ZEFSAII (Michael W. Deem and Ramdas Pophale) SiO2 
 PCOD9248574
Probable space group: P 21/C
;
_chemical_formula_sum "Si O2"
_cell_formula_units_Z 32
_cell_length_a 7.745755
_cell_length_b 12.111058
_cell_length_c 15.292591
_cell_angle_alpha 90.000000
_cell_angle_beta 78.132127
_cell_angle_gamma 90.000000
_cell_volume 1403.921993
_symmetry_space_group_name_H-M "P 21/C"
_symmetry_group_IT_number 14
_symmetry_cell_setting 'monoclinic'
loop_
_space_group_symop_operation_xyz
x,y,z
-x,1/2+y,1/2-z
-x,-y,-z
x,1/2-y,1/2+z
loop_
_atom_site_type_symbol
_atom_site_label
_atom_site_fract_x
_atom_site_fract_y
_atom_site_fract_z
Si Si1 0.158822 0.911478 0.975467
Si Si2 0.988612 0.694383 0.908520
Si Si3 0.344150 0.100396 0.859599
Si Si4 0.290783 0.803687 0.135806
Si Si5 0.782933 0.668437 0.096188
Si Si6 0.972337 0.677685 0.259662
Si Si7 0.565988 0.425934 0.914532
Si Si8 0.880705 0.542184 0.780475
O O1 0.114056 0.793954 0.931141
O O2 0.308524 0.983021 0.909409
O O3 0.207196 0.879320 0.069819
O O4 0.000000 0.000000 0.000000
O O5 0.017188 0.593573 0.836922
O O6 0.871397 0.764168 0.849928
O O7 0.902734 0.638107 0.001506
O O8 0.550491 0.132455 0.831915
O O9 0.266512 0.204276 0.921459
O O10 0.229502 0.106411 0.782344
O O11 0.148707 0.749008 0.216718
O O12 0.367343 0.697899 0.074468
O O13 0.607789 0.596584 0.124321
O O14 0.879989 0.666872 0.177085
O O15 0.023834 0.555227 0.281450
O O16 0.725793 0.487388 0.852715
O O17 0.500000 0.500000 0.000000
#
# Coordination Sequence:
#
# PCOD9248574 Si02
#       8
#     4   4   4   4   4   4   4   4
#     4  12  23  43  69  96 130 175 226 278 335 395
#     4  12  23  40  72  99 129 179 224 276 339 394
#     4  11  22  44  64  95 139 171 222 280 335 400
#     4  10  24  42  64  95 132 174 218 282 331 396
#     4  11  22  43  69  96 132 176 221 280 330 402
#     4  11  23  43  64  98 135 171 229 275 334 400
#     4  10  22  43  64  94 133 174 218 266 340 405
#     4  11  24  42  64  98 139 175 221 280 334 405
#
# _framework density 22.793288
#
# number of rings (size 3 to 8) (size 9 to 14) (size 15 to 20)
#    0.000    1.000    6.250    0.375    0.000    1.500 
#    6.750    0.000    0.000    0.000    0.000    0.000 
#    0.000    0.000    0.000    0.000    0.000    0.000 
#
# Total GULP energy -178261.723337 kJ/mol
# GULP energy per Si atom -5570.678854 kJ/mol
# Density = 2.274141 g / cm^3
# Si number density = 22.793288 Si / 1000 Ang^3
#
#
#
# Elastic Constant Matrix: (Units=GPa)
#
#
# Indices 1 2 3 4 5 6 
#
# 1 73.4327 32.5187 12.2699 0.0000 15.2009 0.0000
# 2 32.5187 81.6939 17.1883 0.0000 3.2927 0.0000
# 3 12.2699 17.1883 71.2703 0.0000 22.6886 0.0000
# 4 0.0000 0.0000 0.0000 28.1670 0.0000 14.4600
# 5 15.2009 3.2927 22.6886 0.0000 22.7364 0.0000
# 6 0.0000 0.0000 0.0000 14.4600 0.0000 34.8847
#
#
#
# Elastic Compliance Matrix: (Units=1/GPa)
#
#
# Indices 1 2 3 4 5 6 
#
# 1 0.019787 -0.007979 0.003461 0.000000 -0.015527 0.000000
# 2 -0.007979 0.016163 -0.005097 0.000000 0.008079 0.000000
# 3 0.003461 -0.005097 0.022227 0.000000 -0.023756 0.000000
# 4 0.000000 0.000000 0.000000 0.045099 0.000000 -0.018694
# 5 -0.015527 0.008079 -0.023756 0.000000 0.076899 0.000000
# 6 0.000000 0.000000 0.000000 -0.018694 0.000000 0.036415
#
#
# Mechanical properties :
#
#
# Convention : Reuss Voigt Hill
#
# Bulk Modulus (GPa) = 25.67498 38.92786 32.30142
# Shear Modulus (GPa) = 20.09621 28.11895 24.10758
#
# Velocity S-wave (km/s) = 2.97252 3.51615 3.25570
# Velocity P-wave (km/s) = 4.80311 5.79656 5.32306
#
# Compressibility (1/GPa) = 0.03894843
#
# Stress axis : x y z
#
# Youngs Moduli (GPa) = 50.53804 61.86813 44.99014
#
# Poissons Ratio (x) = 0.49362 -0.15569
# Poissons Ratio (y) = 0.40322 0.22930
# Poissons Ratio (z) = -0.17489 0.31532
#
# Static dielectric constant tensor:
#      x y z
#    x 1.895640 0.000000 -0.018720 
#    y 0.000000 2.036280 0.000000 
#    z -0.018720 0.000000 1.842000 
# 
# From -- ./inp_files/40306.got.cif
#   From: 2010.05.17/outbox.cif.g08.bks.cpg/sg14_21_cif.got.tgz:40306.got - 2010.06.03 17:49:19.
