data_PCOD9248465
_publ_section_title
;
Structure prediction by ZEFSAII (Michael W. Deem and Ramdas Pophale) SiO2 
 PCOD9248465
Probable space group: P 21/C
;
_chemical_formula_sum "Si O2"
_cell_formula_units_Z 30
_cell_length_a 13.760834
_cell_length_b 21.498995
_cell_length_c 8.741566
_cell_angle_alpha 90.000000
_cell_angle_beta 150.600038
_cell_angle_gamma 90.000000
_cell_volume 1269.544701
_symmetry_space_group_name_H-M "P 21/C"
_symmetry_group_IT_number 14
_symmetry_cell_setting 'monoclinic'
loop_
_space_group_symop_operation_xyz
x,y,z
-x,1/2+y,1/2-z
-x,-y,-z
x,1/2-y,1/2+z
loop_
_atom_site_type_symbol
_atom_site_label
_atom_site_fract_x
_atom_site_fract_y
_atom_site_fract_z
Si Si1 0.875926 0.276553 0.731884
Si Si2 0.456068 0.679454 0.208792
Si Si3 0.843169 0.780040 0.115739
Si Si4 0.695091 0.100544 0.935218
Si Si5 0.000000 0.500000 0.000000
Si Si6 0.273035 0.558097 0.837509
Si Si7 0.851713 0.962632 0.612710
Si Si8 0.622133 0.656869 0.767050
O O1 0.684988 0.237550 0.519458
O O2 0.810691 0.335852 0.542956
O O3 0.026226 0.229830 0.854483
O O4 0.000284 0.301859 0.044157
O O5 0.647660 0.678498 0.360917
O O6 0.530857 0.684308 0.485984
O O7 0.335207 0.616763 0.022457
O O8 0.753782 0.710943 0.022883
O O9 0.841076 0.052990 0.219719
O O10 0.619496 0.066703 0.678173
O O11 0.535178 0.128714 0.831366
O O12 0.917142 0.493163 0.064379
O O13 0.296907 0.497527 0.975349
O O14 0.042060 0.557757 0.472438
O O15 0.755481 0.902105 0.405116
#
# Coordination Sequence:
#
# PCOD9248465 Si02
#       8
#     4   4   4   4   2   4   4   4
#     4  12  25  46  69 100 148 188 229 301 357 430
#     4  12  26  44  71 107 143 183 243 294 359 435
#     4  12  26  42  70 103 137 189 234 285 368 425
#     4  11  24  43  73  98 145 186 239 301 359 423
#     4  10  22  42  70 100 132 192 236 292 358 424
#     4  10  24  45  70 103 142 191 229 302 356 426
#     4  10  23  48  72 100 146 188 246 290 370 431
#     4  12  25  46  70 105 139 187 239 302 353 439
#
# _framework density 23.630517000000001
#
# number of rings (size 3 to 8) (size 9 to 14) (size 15 to 20)
#    0.000    0.800    2.667    4.800    3.733    2.667 
#    0.000    2.667    0.000    0.000    0.000    0.000 
#    0.000    0.000    0.000    0.000    0.000    0.000 
#
# Total GULP energy -167243.799995 kJ/mol
# GULP energy per Si atom -5574.793333 kJ/mol
# Density = 2.357673 g / cm^3
# Si number density = 23.630517 Si / 1000 Ang^3
#
#
#
# Elastic Constant Matrix: (Units=GPa)
#
#
# Indices 1 2 3 4 5 6 
#
# 1 68.7769 -20.2666 24.2334 0.0000 1.3105 0.0000
# 2 -20.2666 51.2801 29.6102 0.0000 -6.7181 0.0000
# 3 24.2334 29.6102 60.9772 0.0000 2.2101 0.0000
# 4 0.0000 0.0000 0.0000 32.4770 0.0000 -9.6555
# 5 1.3105 -6.7181 2.2101 0.0000 26.7353 0.0000
# 6 0.0000 0.0000 0.0000 -9.6555 0.0000 25.1018
#
#
#
# Elastic Compliance Matrix: (Units=1/GPa)
#
#
# Indices 1 2 3 4 5 6 
#
# 1 0.033631 0.030993 -0.028724 0.000000 0.008514 0.000000
# 2 0.030993 0.057443 -0.040801 0.000000 0.016288 0.000000
# 3 -0.028724 -0.040801 0.048093 0.000000 -0.012820 0.000000
# 4 0.000000 0.000000 0.000000 0.034767 0.000000 0.013373
# 5 0.008514 0.016288 -0.012820 0.000000 0.042139 0.000000
# 6 0.000000 0.000000 0.000000 0.013373 0.000000 0.044982
#
#
# Mechanical properties :
#
#
# Convention : Reuss Voigt Hill
#
# Bulk Modulus (GPa) = 16.10270 27.57645 21.83957
# Shear Modulus (GPa) = 13.93454 26.69331 20.31392
#
# Velocity S-wave (km/s) = 2.43098 3.36462 2.93516
# Velocity P-wave (km/s) = 3.83519 5.17584 4.55511
#
# Compressibility (1/GPa) = 0.06210139
#
# Stress axis : x y z
#
# Youngs Moduli (GPa) = 29.73431 17.40854 20.79320
#
# Poissons Ratio (x) = -0.53954 0.59727
# Poissons Ratio (y) = -0.92155 0.84839
# Poissons Ratio (z) = 0.85409 0.71029
#
# Static dielectric constant tensor:
#      x y z
#    x 1.976050 0.000000 0.050020 
#    y 0.000000 1.862200 0.000000 
#    z 0.050020 0.000000 1.877220 
# 
# From -- ./inp_files/16953.got.cif
#   From: 2010.05.17/outbox.cif.g08.bks.cpg/sg14_9_cif.got.tgz:16953.got - 2010.06.03 17:49:19.
