data_PCOD9248892
_publ_section_title
;
Structure prediction by ZEFSAII (Michael W. Deem and Ramdas Pophale) SiO2 
 PCOD9248892
Probable space group: P 21/C
;
_chemical_formula_sum "Si O2"
_cell_formula_units_Z 32
_cell_length_a 18.302846
_cell_length_b 13.295324
_cell_length_c 11.837257
_cell_angle_alpha 90.000000
_cell_angle_beta 150.318137
_cell_angle_gamma 90.000000
_cell_volume 1426.379041
_symmetry_space_group_name_H-M "P 21/C"
_symmetry_group_IT_number 14
_symmetry_cell_setting 'monoclinic'
loop_
_space_group_symop_operation_xyz
x,y,z
-x,1/2+y,1/2-z
-x,-y,-z
x,1/2-y,1/2+z
loop_
_atom_site_type_symbol
_atom_site_label
_atom_site_fract_x
_atom_site_fract_y
_atom_site_fract_z
Si Si1 0.473411 0.273084 0.482014
Si Si2 0.358780 0.933841 0.289932
Si Si3 0.729788 0.373834 0.556941
Si Si4 0.606529 0.793067 0.379788
Si Si5 0.913236 0.529299 0.492318
Si Si6 0.732038 0.424912 0.810213
Si Si7 0.150395 0.105076 0.407703
Si Si8 0.044398 0.778836 0.252607
O O1 0.593611 0.181754 0.639234
O O2 0.387558 0.256069 0.246173
O O3 0.389499 0.262986 0.491473
O O4 0.571120 0.374554 0.612945
O O5 0.500000 0.000000 0.500000
O O6 0.286605 0.949250 0.070086
O O7 0.241583 0.974662 0.219726
O O8 0.562098 0.332667 0.344634
O O9 0.769793 0.422109 0.728974
O O10 0.847497 0.287962 0.681184
O O11 0.743978 0.870261 0.557397
O O12 0.000000 0.500000 0.500000
O O13 0.013349 0.471311 0.717550
O O14 0.933138 0.646221 0.539906
O O15 0.743640 0.539495 0.868586
O O16 0.845037 0.348415 0.025282
O O17 0.062598 0.205214 0.322718
#
# Coordination Sequence:
#
# PCOD9248892 Si02
#       8
#     4   4   4   4   4   4   4   4
#     4  10  22  44  71  98 140 188 240 295 372 422
#     4  11  24  45  67 101 138 179 246 294 358 439
#     4  10  22  44  70  95 137 188 240 285 367 432
#     4  10  23  42  67 100 137 182 236 296 351 434
#     4  11  27  42  69 101 139 190 234 301 362 432
#     4  10  22  45  74  95 142 197 231 302 363 445
#     4  11  25  44  66 105 144 177 249 295 369 432
#     4  11  23  45  67 102 143 185 239 298 363 437
#
# _framework density 22.434429999999999
#
# number of rings (size 3 to 8) (size 9 to 14) (size 15 to 20)
#    0.000    1.500    3.750    0.000   10.500    2.500 
#    2.250    0.000    0.000    0.000    0.000    0.000 
#    0.000    0.000    0.000    0.000    0.000    0.000 
#
# Total GULP energy -178222.153410 kJ/mol
# GULP energy per Si atom -5569.442294 kJ/mol
# Density = 2.238337 g / cm^3
# Si number density = 22.434430 Si / 1000 Ang^3
#
#
#
# Elastic Constant Matrix: (Units=GPa)
#
#
# Indices 1 2 3 4 5 6 
#
# 1 127.6111 21.0789 27.7075 0.0000 -4.7023 0.0000
# 2 21.0789 62.1643 15.0391 0.0000 -0.5172 0.0000
# 3 27.7075 15.0391 67.0184 0.0000 8.4237 0.0000
# 4 0.0000 0.0000 0.0000 18.7061 0.0000 1.1524
# 5 -4.7023 -0.5172 8.4237 0.0000 52.1536 0.0000
# 6 0.0000 0.0000 0.0000 1.1524 0.0000 34.5591
#
#
#
# Elastic Compliance Matrix: (Units=1/GPa)
#
#
# Indices 1 2 3 4 5 6 
#
# 1 0.008987 -0.002217 -0.003386 0.000000 0.001335 0.000000
# 2 -0.002217 0.017590 -0.003090 0.000000 0.000474 0.000000
# 3 -0.003386 -0.003090 0.017410 0.000000 -0.003148 0.000000
# 4 0.000000 0.000000 0.000000 0.053569 0.000000 -0.001786
# 5 0.001335 0.000474 -0.003148 0.000000 0.019808 0.000000
# 6 0.000000 0.000000 0.000000 -0.001786 0.000000 0.028996
#
#
# Mechanical properties :
#
#
# Convention : Reuss Voigt Hill
#
# Bulk Modulus (GPa) = 37.59280 42.71608 40.15444
# Shear Modulus (GPa) = 28.96683 33.94832 31.45757
#
# Velocity S-wave (km/s) = 3.59719 3.89424 3.74866
# Velocity P-wave (km/s) = 5.83491 6.26912 6.05591
#
# Compressibility (1/GPa) = 0.02660084
#
# Stress axis : x y z
#
# Youngs Moduli (GPa) = 111.27365 56.85146 57.43773
#
# Poissons Ratio (x) = 0.12604 0.19447
# Poissons Ratio (y) = 0.24670 0.17749
# Poissons Ratio (z) = 0.37674 0.17568
#
# Static dielectric constant tensor:
#      x y z
#    x 1.844350 0.000000 -0.031300 
#    y 0.000000 1.838170 0.000000 
#    z -0.031300 0.000000 1.854450 
# 
# From -- ./inp_files/34241.got.cif
#   From: 2010.05.17/outbox.cif.g08.bks.cpg/sg14_18_cif.got.tgz:34241.got - 2010.06.03 17:49:19.
