data_PCOD9248867
_publ_section_title
;
Structure prediction by ZEFSAII (Michael W. Deem and Ramdas Pophale) SiO2 
 PCOD9248867
Probable space group: P 21/C
;
_chemical_formula_sum "Si O2"
_cell_formula_units_Z 18
_cell_length_a 16.727637
_cell_length_b 9.732553
_cell_length_c 11.613991
_cell_angle_alpha 90.000000
_cell_angle_beta 23.859679
_cell_angle_gamma 90.000000
_cell_volume 764.820180
_symmetry_space_group_name_H-M "P 21/C"
_symmetry_group_IT_number 14
_symmetry_cell_setting 'monoclinic'
loop_
_space_group_symop_operation_xyz
x,y,z
-x,1/2+y,1/2-z
-x,-y,-z
x,1/2-y,1/2+z
loop_
_atom_site_type_symbol
_atom_site_label
_atom_site_fract_x
_atom_site_fract_y
_atom_site_fract_z
Si Si1 0.500000 0.000000 0.000000
Si Si2 0.079991 0.612059 0.305163
Si Si3 0.525294 0.003606 0.658621
Si Si4 0.818487 0.399040 0.222356
Si Si5 0.325448 0.305181 0.239744
O O1 0.298594 0.907898 0.241703
O O2 0.364629 0.144525 0.175218
O O3 0.112974 0.748881 0.335000
O O4 0.000000 0.500000 0.500000
O O5 0.906278 0.650341 0.445025
O O6 0.298254 0.553609 0.990245
O O7 0.443758 0.130189 0.691098
O O8 0.597691 0.886966 0.474750
O O9 0.354003 0.946409 0.963370
O O10 0.000000 0.500000 0.000000
#
# Coordination Sequence:
#
# PCOD9248867 Si02
#       5
#     2   4   4   4   4
#     4  12  24  40  70 102 144 174 230 284 342 412
#     4  10  22  44  69  98 134 179 228 281 342 408
#     4  10  24  44  69  94 142 181 228 279 344 408
#     4  12  26  44  65 105 142 182 230 283 341 414
#     4  10  22  45  69 103 131 182 230 282 344 407
#
# _framework density 23.534945
#
# number of rings (size 3 to 8) (size 9 to 14) (size 15 to 20)
#    0.000    1.333    4.444    0.000    3.111    1.778 
#    0.000    0.000    0.000    0.000    0.000    0.000 
#    0.000    0.000    0.000    0.000    0.000    0.000 
#
# Total GULP energy -100242.681348 kJ/mol
# GULP energy per Si atom -5569.037853 kJ/mol
# Density = 2.348138 g / cm^3
# Si number density = 23.534945 Si / 1000 Ang^3
#
#
#
# Elastic Constant Matrix: (Units=GPa)
#
#
# Indices 1 2 3 4 5 6 
#
# 1 88.4924 -1.2824 46.7792 0.0000 -8.9800 0.0000
# 2 -1.2824 145.9648 43.4006 0.0000 5.4780 0.0000
# 3 46.7792 43.4006 131.3978 0.0000 -37.8064 0.0000
# 4 0.0000 0.0000 0.0000 41.7830 0.0000 -26.9444
# 5 -8.9800 5.4780 -37.8064 0.0000 42.2970 0.0000
# 6 0.0000 0.0000 0.0000 -26.9444 0.0000 16.8263
#
#
#
# Elastic Compliance Matrix: (Units=1/GPa)
#
#
# Indices 1 2 3 4 5 6 
#
# 1 0.014677 0.002334 -0.006982 0.000000 -0.003427 0.000000
# 2 0.002334 0.008611 -0.005188 0.000000 -0.005257 0.000000
# 3 -0.006982 -0.005188 0.015584 0.000000 0.013119 0.000000
# 4 0.000000 0.000000 0.000000 -0.733128 0.000000 -1.173982
# 5 -0.003427 -0.005257 0.013119 0.000000 0.035322 0.000000
# 6 0.000000 0.000000 0.000000 -1.173982 0.000000 -1.820505
#
#
# Mechanical properties :
#
#
# Convention : Reuss Voigt Hill
#
# Bulk Modulus (GPa) = 52.08096 60.40553 56.24325
# Shear Modulus (GPa) = -2.03802 38.64508 18.30353
#
# Velocity S-wave (km/s) = -0.93158 4.05659 2.79178
# Velocity P-wave (km/s) = 4.58477 6.90386 5.86018
#
# Compressibility (1/GPa) = 0.01920087
#
# Stress axis : x y z
#
# Youngs Moduli (GPa) = 68.13202 116.12806 64.16675
#
# Poissons Ratio (x) = -0.27100 0.44802
# Poissons Ratio (y) = -0.15899 0.33287
# Poissons Ratio (z) = 0.47571 0.60242
#
# Static dielectric constant tensor:
#      x y z
#    x 2.065370 0.000000 0.071330 
#    y 0.000000 1.794810 0.000000 
#    z 0.071330 0.000000 1.969180 
# 
# From -- ./inp_files/49920.got.cif
#   From: 2010.05.17/outbox.cif.g08.bks.cpg/sg14_25_cif.got.tgz:49920.got - 2010.06.03 17:49:19.
