data_PCOD9248541
_publ_section_title
;
Structure prediction by ZEFSAII (Michael W. Deem and Ramdas Pophale) SiO2 
 PCOD9248541
Probable space group: P 21/C
;
_chemical_formula_sum "Si O2"
_cell_formula_units_Z 20
_cell_length_a 9.681472
_cell_length_b 8.510540
_cell_length_c 20.256119
_cell_angle_alpha 90.000000
_cell_angle_beta 25.611915
_cell_angle_gamma 90.000000
_cell_volume 721.461471
_symmetry_space_group_name_H-M "P 21/C"
_symmetry_group_IT_number 14
_symmetry_cell_setting 'monoclinic'
loop_
_space_group_symop_operation_xyz
x,y,z
-x,1/2+y,1/2-z
-x,-y,-z
x,1/2-y,1/2+z
loop_
_atom_site_type_symbol
_atom_site_label
_atom_site_fract_x
_atom_site_fract_y
_atom_site_fract_z
Si Si1 0.523659 0.744757 0.113566
Si Si2 0.355110 0.034849 0.761321
Si Si3 0.141896 0.017937 0.238650
Si Si4 0.635217 0.223550 0.958466
Si Si5 0.105064 0.718492 0.464666
O O1 0.342851 0.584081 0.206519
O O2 0.601403 0.748436 0.002635
O O3 0.284666 0.891513 0.228119
O O4 0.818013 0.755545 0.036239
O O5 0.318042 0.918682 0.840240
O O6 0.680984 0.130013 0.619242
O O7 0.065129 0.155656 0.896006
O O8 0.421141 0.147148 0.106856
O O9 0.827900 0.117549 0.388213
O O10 0.140687 0.910968 0.172216
#
# Coordination Sequence:
#
# PCOD9248541 Si02
#       5
#     4   4   4   4   4
#     4  10  22  42  77 103 154 198 236 308 379 433
#     4  11  24  44  76 108 155 192 252 311 368 447
#     4   9  21  42  73 111 152 185 251 302 367 448
#     4   9  21  41  73 110 149 186 243 310 358 457
#     4  11  24  45  74 112 151 192 253 308 370 453
#
# _framework density 27.721508
#
# number of rings (size 3 to 8) (size 9 to 14) (size 15 to 20)
#    1.200    0.800    2.000    0.600    2.800    0.800 
#    0.000    8.000    4.400    0.000    0.000    0.000 
#    0.000    0.000    0.000    0.000    0.000    0.000 
#
# Total GULP energy -112151.008469 kJ/mol
# GULP energy per Si atom -5607.550423 kJ/mol
# Density = 2.765841 g / cm^3
# Si number density = 27.721508 Si / 1000 Ang^3
#
#
#
# Elastic Constant Matrix: (Units=GPa)
#
#
# Indices 1 2 3 4 5 6 
#
# 1 76.1308 51.7825 46.1275 0.0000 -4.8802 0.0000
# 2 51.7825 176.0105 113.3486 0.0000 -14.8270 0.0000
# 3 46.1275 113.3486 120.6608 0.0000 -9.7076 0.0000
# 4 0.0000 0.0000 0.0000 84.4161 0.0000 -1.1289
# 5 -4.8802 -14.8270 -9.7076 0.0000 35.8622 0.0000
# 6 0.0000 0.0000 0.0000 -1.1289 0.0000 57.5434
#
#
#
# Elastic Compliance Matrix: (Units=1/GPa)
#
#
# Indices 1 2 3 4 5 6 
#
# 1 0.017402 -0.002095 -0.004665 0.000000 0.000239 0.000000
# 2 -0.002095 0.014829 -0.012941 0.000000 0.002343 0.000000
# 3 -0.004665 -0.012941 0.022230 0.000000 0.000032 0.000000
# 4 0.000000 0.000000 0.000000 0.011849 0.000000 0.000232
# 5 0.000239 0.002343 0.000032 0.000000 0.028894 0.000000
# 6 0.000000 0.000000 0.000000 0.000232 0.000000 0.017383
#
#
# Mechanical properties :
#
#
# Convention : Reuss Voigt Hill
#
# Bulk Modulus (GPa) = 66.40515 88.36879 77.38697
# Shear Modulus (GPa) = 31.84495 46.33393 39.08944
#
# Velocity S-wave (km/s) = 3.39299 4.09272 3.75917
# Velocity P-wave (km/s) = 6.27346 7.36752 6.84239
#
# Compressibility (1/GPa) = 0.01505907
#
# Stress axis : x y z
#
# Youngs Moduli (GPa) = 57.46320 67.43517 44.98347
#
# Poissons Ratio (x) = 0.14130 0.20986
# Poissons Ratio (y) = 0.12041 0.58212
# Poissons Ratio (z) = 0.26808 0.87267
#
# Static dielectric constant tensor:
#      x y z
#    x 2.216360 0.000000 0.001230 
#    y 0.000000 2.145830 0.000000 
#    z 0.001230 0.000000 2.145790 
# 
# From -- ./inp_files/51799.got.cif
#   From: 2010.05.17/outbox.cif.g08.bks.cpg/sg14_26_cif.got.tgz:51799.got - 2010.06.03 17:49:19.
