data_PCOD9248146
_publ_section_title
;
Structure prediction by ZEFSAII (Michael W. Deem and Ramdas Pophale) SiO2 
 PCOD9248146
Probable space group: P 21/C
;
_chemical_formula_sum "Si O2"
_cell_formula_units_Z 28
_cell_length_a 18.149018
_cell_length_b 5.098057
_cell_length_c 14.665743
_cell_angle_alpha 90.000000
_cell_angle_beta 124.813133
_cell_angle_gamma 90.000000
_cell_volume 1114.075860
_symmetry_space_group_name_H-M "P 21/C"
_symmetry_group_IT_number 14
_symmetry_cell_setting 'monoclinic'
loop_
_space_group_symop_operation_xyz
x,y,z
-x,1/2+y,1/2-z
-x,-y,-z
x,1/2-y,1/2+z
loop_
_atom_site_type_symbol
_atom_site_label
_atom_site_fract_x
_atom_site_fract_y
_atom_site_fract_z
Si Si1 0.118643 0.625043 0.340693
Si Si2 0.537393 0.113961 0.379289
Si Si3 0.421620 0.771911 0.905328
Si Si4 0.057056 0.124107 0.398384
Si Si5 0.229424 0.625782 0.778709
Si Si6 0.636713 0.636179 0.797597
Si Si7 0.176081 0.354481 0.140765
O O1 0.111202 0.337157 0.376281
O O2 0.208788 0.733291 0.359708
O O3 0.044945 0.649946 0.206938
O O4 0.088187 0.832474 0.395067
O O5 0.558961 0.322087 0.474624
O O6 0.448216 0.168928 0.255948
O O7 0.505382 0.867019 0.416777
O O8 0.618843 0.058315 0.369189
O O9 0.335328 0.578113 0.845151
O O10 0.384217 0.997917 0.813967
O O11 0.084370 0.174118 0.521173
O O12 0.180122 0.351083 0.726504
O O13 0.196740 0.846278 0.683253
O O14 0.738836 0.728910 0.863257
#
# Coordination Sequence:
#
# PCOD9248146 Si02
#       7
#     4   4   4   4   4   4   4
#     4  10  22  41  66  92 130 162 212 252 317 384
#     4  11  21  40  61  84 121 169 210 262 320 368
#     4  10  23  39  59  86 124 161 217 261 314 376
#     4  10  22  42  64  95 125 167 206 261 308 389
#     4  11  23  42  61  95 127 165 208 268 313 383
#     4  11  22  40  60  90 123 166 215 266 316 383
#     4  11  24  40  65  92 132 160 213 264 318 374
#
# _framework density 25.132939
#
# number of rings (size 3 to 8) (size 9 to 14) (size 15 to 20)
#    0.000    1.429    2.857    2.143    2.000    1.143 
#    2.571    0.000    0.000    0.000    0.000    0.000 
#    0.000    0.000    0.000    0.000    0.000    0.000 
#
# Total GULP energy -156513.998601 kJ/mol
# GULP energy per Si atom -5589.785664 kJ/mol
# Density = 2.507574 g / cm^3
# Si number density = 25.132939 Si / 1000 Ang^3
#
#
#
# Elastic Constant Matrix: (Units=GPa)
#
#
# Indices 1 2 3 4 5 6 
#
# 1 67.6273 3.4800 7.1894 0.0000 -10.4421 0.0000
# 2 3.4800 73.7844 22.3594 0.0000 5.3079 0.0000
# 3 7.1894 22.3594 98.9491 0.0000 4.5847 0.0000
# 4 0.0000 0.0000 0.0000 20.1973 0.0000 3.8599
# 5 -10.4421 5.3079 4.5847 0.0000 22.1497 0.0000
# 6 0.0000 0.0000 0.0000 3.8599 0.0000 24.8296
#
#
#
# Elastic Compliance Matrix: (Units=1/GPa)
#
#
# Indices 1 2 3 4 5 6 
#
# 1 0.016238 -0.000946 -0.001344 0.000000 0.008160 0.000000
# 2 -0.000946 0.014783 -0.003117 0.000000 -0.003343 0.000000
# 3 -0.001344 -0.003117 0.011009 0.000000 -0.002165 0.000000
# 4 0.000000 0.000000 0.000000 0.051028 0.000000 -0.007932
# 5 0.008160 -0.003343 -0.002165 0.000000 0.050244 0.000000
# 6 0.000000 0.000000 0.000000 -0.007932 0.000000 0.041508
#
#
# Mechanical properties :
#
#
# Convention : Reuss Voigt Hill
#
# Bulk Modulus (GPa) = 32.03453 34.04650 33.04051
# Shear Modulus (GPa) = 24.26865 27.25745 25.76305
#
# Velocity S-wave (km/s) = 3.11080 3.29679 3.20515
# Velocity P-wave (km/s) = 5.06720 5.29790 5.18383
#
# Compressibility (1/GPa) = 0.03121632
#
# Stress axis : x y z
#
# Youngs Moduli (GPa) = 61.58217 67.64715 90.83880
#
# Poissons Ratio (x) = 0.06396 0.12211
# Poissons Ratio (y) = 0.05823 0.28313
# Poissons Ratio (z) = 0.08278 0.21084
#
# Static dielectric constant tensor:
#      x y z
#    x 2.023320 0.000000 -0.013250 
#    y 0.000000 2.013550 0.000000 
#    z -0.013250 0.000000 1.997430 
# 
# From -- ./inp_files/48211.got.cif
#   From: 2010.05.17/outbox.cif.g08.bks.cpg/sg14_25_cif.got.tgz:48211.got - 2010.06.03 17:49:19.
