data_PCOD9248385
_publ_section_title
;
Structure prediction by ZEFSAII (Michael W. Deem and Ramdas Pophale) SiO2 
 PCOD9248385
Probable space group: P 21/C
;
_chemical_formula_sum "Si O2"
_cell_formula_units_Z 28
_cell_length_a 5.036627
_cell_length_b 32.966721
_cell_length_c 7.295620
_cell_angle_alpha 90.000000
_cell_angle_beta 108.576568
_cell_angle_gamma 90.000000
_cell_volume 1148.258605
_symmetry_space_group_name_H-M "P 21/C"
_symmetry_group_IT_number 14
_symmetry_cell_setting 'monoclinic'
loop_
_space_group_symop_operation_xyz
x,y,z
-x,1/2+y,1/2-z
-x,-y,-z
x,1/2-y,1/2+z
loop_
_atom_site_type_symbol
_atom_site_label
_atom_site_fract_x
_atom_site_fract_y
_atom_site_fract_z
Si Si1 0.011078 0.669116 0.432322
Si Si2 0.424749 0.707856 0.920757
Si Si3 0.715280 0.524762 0.924525
Si Si4 0.515028 0.060799 0.978004
Si Si5 0.011648 0.754065 0.555794
Si Si6 0.387461 0.148676 0.834532
Si Si7 0.860778 0.917063 0.766039
O O1 0.962839 0.716853 0.396101
O O2 0.343099 0.663319 0.489401
O O3 0.874928 0.632106 0.288148
O O4 0.888509 0.660727 0.612168
O O5 0.238072 0.731367 0.730369
O O6 0.191439 0.706755 0.028317
O O7 0.556788 0.669097 0.848927
O O8 0.693359 0.734737 0.029137
O O9 0.593357 0.527588 0.690819
O O10 0.500000 0.500000 0.000000
O O11 0.000000 0.500000 0.000000
O O12 0.783113 0.566497 0.049132
O O13 0.421460 0.101018 0.846062
O O14 0.157650 0.934823 0.904441
O O15 0.359133 0.065171 0.136507
#
# Coordination Sequence:
#
# PCOD9248385 Si02
#       7
#     4   4   4   4   4   4   4
#     4   9  18  36  61  81 112 162 204 249 299 367
#     4  11  21  36  56  83 119 155 200 254 309 364
#     4  12  26  42  64 100 134 158 206 268 312 382
#     4  10  22  42  67  91 124 171 214 252 318 378
#     4  11  21  36  56  83 119 155 200 254 309 364
#     4   9  18  36  61  81 112 162 204 249 299 367
#     4  10  22  42  67  91 124 171 214 252 318 378
#
# _framework density 24.38475
#
# number of rings (size 3 to 8) (size 9 to 14) (size 15 to 20)
#    0.000    1.714    0.000    6.000    0.000    3.429 
#    5.143    0.000    0.000    0.000    0.000    0.000 
#    0.000    0.000    0.000    0.000    0.000    0.000 
#
# Total GULP energy -156226.844524 kJ/mol
# GULP energy per Si atom -5579.530162 kJ/mol
# Density = 2.432925 g / cm^3
# Si number density = 24.384750 Si / 1000 Ang^3
#
#
#
# Elastic Constant Matrix: (Units=GPa)
#
#
# Indices 1 2 3 4 5 6 
#
# 1 129.0645 9.6335 2.7948 0.0000 20.5015 0.0000
# 2 9.6335 43.1118 7.5767 0.0000 10.4379 0.0000
# 3 2.7948 7.5767 108.1069 0.0000 27.3391 0.0000
# 4 0.0000 0.0000 0.0000 18.2251 0.0000 -1.2672
# 5 20.5015 10.4379 27.3391 0.0000 15.2600 0.0000
# 6 0.0000 0.0000 0.0000 -1.2672 0.0000 25.7092
#
#
#
# Elastic Compliance Matrix: (Units=1/GPa)
#
#
# Indices 1 2 3 4 5 6 
#
# 1 0.012720 0.004045 0.008061 0.000000 -0.034297 0.000000
# 2 0.004045 0.030802 0.008116 0.000000 -0.041043 0.000000
# 3 0.008061 0.008116 0.023066 0.000000 -0.057705 0.000000
# 4 0.000000 0.000000 0.000000 0.055058 0.000000 0.002714
# 5 -0.034297 -0.041043 -0.057705 0.000000 0.243062 0.000000
# 6 0.000000 0.000000 0.000000 0.002714 0.000000 0.039030
#
#
# Mechanical properties :
#
#
# Convention : Reuss Voigt Hill
#
# Bulk Modulus (GPa) = 9.34308 35.58814 22.46561
# Shear Modulus (GPa) = 12.53222 29.19074 20.86148
#
# Velocity S-wave (km/s) = 2.26948 3.46365 2.92809
# Velocity P-wave (km/s) = 3.27219 5.53371 4.54583
#
# Compressibility (1/GPa) = 0.10703105
#
# Stress axis : x y z
#
# Youngs Moduli (GPa) = 78.61944 32.46500 43.35423
#
# Poissons Ratio (x) = -0.13131 -0.34948
# Poissons Ratio (y) = -0.31799 -0.35186
# Poissons Ratio (z) = -0.63375 -0.26349
#
# Static dielectric constant tensor:
#      x y z
#    x 1.923590 0.000000 -0.119980 
#    y 0.000000 2.046610 0.000000 
#    z -0.119980 0.000000 2.100430 
# 
# From -- ./inp_files/6811.got.cif
#   From: 2010.05.17/outbox.cif.g08.bks.cpg/sg14_4_cif.got.tgz:6811.got - 2010.06.03 17:49:19.
