data_PCOD9248272
_publ_section_title
;
Structure prediction by ZEFSAII (Michael W. Deem and Ramdas Pophale) SiO2 
 PCOD9248272
Probable space group: P 21/C
;
_chemical_formula_sum "Si O2"
_cell_formula_units_Z 20
_cell_length_a 12.999978
_cell_length_b 8.317703
_cell_length_c 22.166831
_cell_angle_alpha 90.000000
_cell_angle_beta 161.057114
_cell_angle_gamma 90.000000
_cell_volume 778.094299
_symmetry_space_group_name_H-M "P 21/C"
_symmetry_group_IT_number 14
_symmetry_cell_setting 'monoclinic'
loop_
_space_group_symop_operation_xyz
x,y,z
-x,1/2+y,1/2-z
-x,-y,-z
x,1/2-y,1/2+z
loop_
_atom_site_type_symbol
_atom_site_label
_atom_site_fract_x
_atom_site_fract_y
_atom_site_fract_z
Si Si1 0.082874 0.579108 0.319090
Si Si2 0.143780 0.877293 0.653025
Si Si3 0.393451 0.849434 0.104565
Si Si4 0.466632 0.258160 0.528996
Si Si5 0.547602 0.042881 0.295698
O O1 0.112913 0.659718 0.401458
O O2 0.199895 0.396830 0.391364
O O3 0.330005 0.670893 0.413015
O O4 0.738505 0.602342 0.099590
O O5 0.227713 0.863836 0.629075
O O6 0.325812 0.044305 0.770018
O O7 0.298646 0.750223 0.783527
O O8 0.771486 0.907788 0.450056
O O9 0.532345 0.679492 0.201835
O O10 0.310124 0.956610 0.117838
#
# Coordination Sequence:
#
# PCOD9248272 Si02
#       5
#     4   4   4   4   4
#     4  10  23  38  65  88 124 157 205 243 305 351
#     4   8  19  37  59  81 117 150 200 233 303 357
#     4   9  19  35  58  85 113 152 195 243 291 360
#     4  10  22  42  62  89 121 164 194 255 298 356
#     4   9  18  36  58  81 116 151 193 242 296 349
#
# _framework density 25.703824999999998
#
# number of rings (size 3 to 8) (size 9 to 14) (size 15 to 20)
#    1.200    1.600    0.000    0.000    8.400    2.400 
#    0.000    1.000    0.000    0.000    0.000    0.000 
#    0.000    0.000    0.000    0.000    0.000    0.000 
#
# Total GULP energy -111653.700327 kJ/mol
# GULP energy per Si atom -5582.685016 kJ/mol
# Density = 2.564532 g / cm^3
# Si number density = 25.703825 Si / 1000 Ang^3
#
#
#
# Elastic Constant Matrix: (Units=GPa)
#
#
# Indices 1 2 3 4 5 6 
#
# 1 52.8290 27.3626 37.6596 0.0000 -11.9486 0.0000
# 2 27.3626 44.6693 29.2558 0.0000 4.4263 0.0000
# 3 37.6596 29.2558 125.6034 0.0000 -40.7164 0.0000
# 4 0.0000 0.0000 0.0000 39.2016 0.0000 8.5830
# 5 -11.9486 4.4263 -40.7164 0.0000 34.3522 0.0000
# 6 0.0000 0.0000 0.0000 8.5830 0.0000 28.8899
#
#
#
# Elastic Compliance Matrix: (Units=1/GPa)
#
#
# Indices 1 2 3 4 5 6 
#
# 1 0.033653 -0.021593 -0.000591 0.000000 0.013787 0.000000
# 2 -0.021593 0.048689 -0.015159 0.000000 -0.031752 0.000000
# 3 -0.000591 -0.015159 0.019871 0.000000 0.025301 0.000000
# 4 0.000000 0.000000 0.000000 0.027284 0.000000 -0.008106
# 5 0.013787 -0.031752 0.025301 0.000000 0.067985 0.000000
# 6 0.000000 0.000000 0.000000 -0.008106 0.000000 0.037022
#
#
# Mechanical properties :
#
#
# Convention : Reuss Voigt Hill
#
# Bulk Modulus (GPa) = 36.33053 45.73975 41.03514
# Shear Modulus (GPa) = 15.70512 29.07699 22.39105
#
# Velocity S-wave (km/s) = 2.47453 3.36703 2.95467
# Velocity P-wave (km/s) = 4.72540 5.74016 5.25732
#
# Compressibility (1/GPa) = 0.02752506
#
# Stress axis : x y z
#
# Youngs Moduli (GPa) = 29.71509 20.53857 50.32343
#
# Poissons Ratio (x) = 0.44349 0.02976
# Poissons Ratio (y) = 0.64164 0.76288
# Poissons Ratio (z) = 0.01757 0.31135
#
# Static dielectric constant tensor:
#      x y z
#    x 2.029180 0.000000 0.003840 
#    y 0.000000 2.050590 0.000000 
#    z 0.003840 0.000000 2.052630 
# 
# From -- ./inp_files/73671.got.cif
#   From: 2010.05.17/outbox.cif.g08.bks.cpg/sg14_37_cif.got.tgz:73671.got - 2010.06.03 17:49:19.
