data_PCOD9248729
_publ_section_title
;
Structure prediction by ZEFSAII (Michael W. Deem and Ramdas Pophale) SiO2 
 PCOD9248729
Probable space group: P 21/C
;
_chemical_formula_sum "Si O2"
_cell_formula_units_Z 28
_cell_length_a 27.774599
_cell_length_b 7.446668
_cell_length_c 11.988922
_cell_angle_alpha 90.000000
_cell_angle_beta 154.218538
_cell_angle_gamma 90.000000
_cell_volume 1078.497279
_symmetry_space_group_name_H-M "P 21/C"
_symmetry_group_IT_number 14
_symmetry_cell_setting 'monoclinic'
loop_
_space_group_symop_operation_xyz
x,y,z
-x,1/2+y,1/2-z
-x,-y,-z
x,1/2-y,1/2+z
loop_
_atom_site_type_symbol
_atom_site_label
_atom_site_fract_x
_atom_site_fract_y
_atom_site_fract_z
Si Si1 0.109064 0.359501 0.163839
Si Si2 0.715113 0.806338 0.616998
Si Si3 0.713753 0.023910 0.829505
Si Si4 0.557981 0.415711 0.727604
Si Si5 0.967881 0.898691 0.820369
Si Si6 0.533159 0.998115 0.721134
Si Si7 0.107346 0.732647 0.414571
O O1 0.166176 0.243604 0.184536
O O2 0.204323 0.502908 0.394145
O O3 0.097149 0.263250 0.259069
O O4 0.983329 0.368825 0.855868
O O5 0.627669 0.651058 0.402815
O O6 0.709361 0.851373 0.736141
O O7 0.677016 0.989285 0.477996
O O8 0.584295 0.055346 0.581389
O O9 0.773006 0.174808 0.878100
O O10 0.500000 0.500000 0.500000
O O11 0.495384 0.490544 0.706631
O O12 0.561102 0.202545 0.748454
O O13 0.904518 0.053083 0.620058
O O14 0.068010 0.827630 0.954290
O O15 0.000000 0.000000 0.000000
#
# Coordination Sequence:
#
# PCOD9248729 Si02
#       7
#     4   4   4   4   4   4   4
#     4  11  23  44  71 105 146 196 247 319 380 455
#     4  11  25  47  71 104 154 197 258 317 383 459
#     4  11  23  43  70 103 144 190 256 310 383 455
#     4  11  23  45  75 104 149 198 256 315 383 452
#     4  10  22  43  72 100 153 190 249 313 379 451
#     4  11  24  49  71 109 154 201 257 326 377 462
#     4  11  23  45  72 106 145 196 249 310 384 465
#
# _framework density 25.962052
#
# number of rings (size 3 to 8) (size 9 to 14) (size 15 to 20)
#    0.000    1.143    2.857    4.714    0.000    3.429 
#   18.000    0.000    0.000    0.000    0.000    0.000 
#    0.000    0.000    0.000    0.000    0.000    0.000 
#
# Total GULP energy -156602.886347 kJ/mol
# GULP energy per Si atom -5592.960227 kJ/mol
# Density = 2.590296 g / cm^3
# Si number density = 25.962052 Si / 1000 Ang^3
#
#
#
# Elastic Constant Matrix: (Units=GPa)
#
#
# Indices 1 2 3 4 5 6 
#
# 1 97.0552 57.9278 15.0603 0.0000 -0.4065 0.0000
# 2 57.9278 152.8704 38.3847 0.0000 16.3478 0.0000
# 3 15.0603 38.3847 117.3754 0.0000 6.8479 0.0000
# 4 0.0000 0.0000 0.0000 41.5529 0.0000 -2.5420
# 5 -0.4065 16.3478 6.8479 0.0000 52.0330 0.0000
# 6 0.0000 0.0000 0.0000 -2.5420 0.0000 36.3600
#
#
#
# Elastic Compliance Matrix: (Units=1/GPa)
#
#
# Indices 1 2 3 4 5 6 
#
# 1 0.013472 -0.005267 -0.000110 0.000000 0.001774 0.000000
# 2 -0.005267 0.009387 -0.002237 0.000000 -0.002696 0.000000
# 3 -0.000110 -0.002237 0.009296 0.000000 -0.000521 0.000000
# 4 0.000000 0.000000 0.000000 0.024169 0.000000 0.001690
# 5 0.001774 -0.002696 -0.000521 0.000000 0.020148 0.000000
# 6 0.000000 0.000000 0.000000 0.001690 0.000000 0.027621
#
#
# Mechanical properties :
#
#
# Convention : Reuss Voigt Hill
#
# Bulk Modulus (GPa) = 59.07504 65.56074 62.31789
# Shear Modulus (GPa) = 40.01217 43.05105 41.53161
#
# Velocity S-wave (km/s) = 3.93004 4.07655 4.00397
# Velocity P-wave (km/s) = 6.58767 6.88949 6.74027
#
# Compressibility (1/GPa) = 0.01692762
#
# Stress axis : x y z
#
# Youngs Moduli (GPa) = 74.23066 106.52665 107.57728
#
# Poissons Ratio (x) = 0.56108 0.01179
# Poissons Ratio (y) = 0.39098 0.24063
# Poissons Ratio (z) = 0.00813 0.23828
#
# Static dielectric constant tensor:
#      x y z
#    x 2.039710 0.000000 -0.045290 
#    y 0.000000 2.199550 0.000000 
#    z -0.045290 0.000000 2.110140 
# 
# From -- ./inp_files/36189.got.cif
#   From: 2010.05.17/outbox.cif.g08.bks.cpg/sg14_19_cif.got.tgz:36189.got - 2010.06.03 17:49:19.
