data_PCOD9248811
_publ_section_title
;
Structure prediction by ZEFSAII (Michael W. Deem and Ramdas Pophale) SiO2 
 PCOD9248811
Probable space group: P 21/C
;
_chemical_formula_sum "Si O2"
_cell_formula_units_Z 32
_cell_length_a 16.467811
_cell_length_b 18.632379
_cell_length_c 13.066657
_cell_angle_alpha 90.000000
_cell_angle_beta 20.344072
_cell_angle_gamma 90.000000
_cell_volume 1393.861495
_symmetry_space_group_name_H-M "P 21/C"
_symmetry_group_IT_number 14
_symmetry_cell_setting 'monoclinic'
loop_
_space_group_symop_operation_xyz
x,y,z
-x,1/2+y,1/2-z
-x,-y,-z
x,1/2-y,1/2+z
loop_
_atom_site_type_symbol
_atom_site_label
_atom_site_fract_x
_atom_site_fract_y
_atom_site_fract_z
Si Si1 0.143873 0.807935 0.128093
Si Si2 0.052201 0.316662 0.359823
Si Si3 0.670601 0.950528 0.860763
Si Si4 0.346282 0.069045 0.797965
Si Si5 0.140334 0.969064 0.175128
Si Si6 0.394527 0.706962 0.982672
Si Si7 0.680873 0.710117 0.313625
Si Si8 0.237566 0.042761 0.698697
O O1 0.065974 0.790407 0.105162
O O2 0.223971 0.891200 0.038292
O O3 0.913258 0.801124 0.470465
O O4 0.326738 0.754976 0.965670
O O5 0.233363 0.261758 0.196788
O O6 0.178774 0.392773 0.191136
O O7 0.842750 0.327541 0.689815
O O8 0.600765 0.867511 0.947572
O O9 0.910962 0.955079 0.512804
O O10 0.696677 0.987602 0.939256
O O11 0.500000 0.000000 0.000000
O O12 0.417208 0.145006 0.760803
O O13 0.316298 0.079837 0.712317
O O14 0.558091 0.013192 0.566292
O O15 0.121231 0.026357 0.105924
O O16 0.495008 0.755894 0.955668
O O17 0.000000 0.000000 0.000000
#
# Coordination Sequence:
#
# PCOD9248811 Si02
#       8
#     4   4   4   4   4   4   4   4
#     4  10  24  42  66  92 130 178 218 272 337 400
#     4  11  23  42  65  94 134 177 216 274 336 398
#     4  10  22  44  67  92 124 173 225 284 327 384
#     4  11  24  39  67  98 133 173 216 276 327 403
#     4  10  23  42  64  96 128 168 227 271 330 397
#     4  11  23  43  64  98 133 169 226 273 329 403
#     4  10  23  43  64  92 131 170 223 280 331 399
#     4  11  22  40  63  95 136 170 216 263 331 402
#
# _framework density 22.957805
#
# number of rings (size 3 to 8) (size 9 to 14) (size 15 to 20)
#    0.000    1.500    2.500    1.500    1.750    8.000 
#    0.000    0.000    0.000    0.000    0.000    0.000 
#    0.000    0.000    0.000    0.000    0.000    0.000 
#
# Total GULP energy -178976.341748 kJ/mol
# GULP energy per Si atom -5593.010680 kJ/mol
# Density = 2.290555 g / cm^3
# Si number density = 22.957805 Si / 1000 Ang^3
#
#
#
# Elastic Constant Matrix: (Units=GPa)
#
#
# Indices 1 2 3 4 5 6 
#
# 1 133.0455 67.8247 9.4943 0.0000 -13.1384 0.0000
# 2 67.8247 133.5670 5.7666 0.0000 -26.6409 0.0000
# 3 9.4943 5.7666 35.5625 0.0000 -3.2843 0.0000
# 4 0.0000 0.0000 0.0000 28.0400 0.0000 -1.6673
# 5 -13.1384 -26.6409 -3.2843 0.0000 30.8898 0.0000
# 6 0.0000 0.0000 0.0000 -1.6673 0.0000 36.9020
#
#
#
# Elastic Compliance Matrix: (Units=1/GPa)
#
#
# Indices 1 2 3 4 5 6 
#
# 1 0.010271 -0.005196 -0.001929 0.000000 -0.000317 0.000000
# 2 -0.005196 0.011691 0.000221 0.000000 0.007896 0.000000
# 3 -0.001929 0.000221 0.028824 0.000000 0.002434 0.000000
# 4 0.000000 0.000000 0.000000 0.035759 0.000000 0.001616
# 5 -0.000317 0.007896 0.002434 0.000000 0.039307 0.000000
# 6 0.000000 0.000000 0.000000 0.001616 0.000000 0.027172
#
#
# Mechanical properties :
#
#
# Convention : Reuss Voigt Hill
#
# Bulk Modulus (GPa) = 27.04356 52.03847 39.54101
# Shear Modulus (GPa) = 27.90841 33.77234 30.84038
#
# Velocity S-wave (km/s) = 3.49038 3.83960 3.66915
# Velocity P-wave (km/s) = 5.29613 6.50945 5.93388
#
# Compressibility (1/GPa) = 0.03697738
#
# Stress axis : x y z
#
# Youngs Moduli (GPa) = 97.35931 85.53836 34.69386
#
# Poissons Ratio (x) = 0.44443 0.06692
# Poissons Ratio (y) = 0.50585 -0.00766
# Poissons Ratio (z) = 0.18780 -0.01888
#
# Static dielectric constant tensor:
#      x y z
#    x 1.720260 0.000000 0.021410 
#    y 0.000000 1.743570 0.000000 
#    z 0.021410 0.000000 1.895850 
# 
# From -- ./inp_files/49265.got.cif
#   From: 2010.05.17/outbox.cif.g08.bks.cpg/sg14_25_cif.got.tgz:49265.got - 2010.06.03 17:49:19.
