data_PCOD9248263
_publ_section_title
;
Structure prediction by ZEFSAII (Michael W. Deem and Ramdas Pophale) SiO2 
 PCOD9248263
Probable space group: P 21/C
;
_chemical_formula_sum "Si O2"
_cell_formula_units_Z 28
_cell_length_a 7.477285
_cell_length_b 4.978367
_cell_length_c 30.625557
_cell_angle_alpha 90.000000
_cell_angle_beta 87.055932
_cell_angle_gamma 90.000000
_cell_volume 1138.521554
_symmetry_space_group_name_H-M "P 21/C"
_symmetry_group_IT_number 14
_symmetry_cell_setting 'monoclinic'
loop_
_space_group_symop_operation_xyz
x,y,z
-x,1/2+y,1/2-z
-x,-y,-z
x,1/2-y,1/2+z
loop_
_atom_site_type_symbol
_atom_site_label
_atom_site_fract_x
_atom_site_fract_y
_atom_site_fract_z
Si Si1 0.492391 0.733494 0.420048
Si Si2 0.775580 0.707410 0.980346
Si Si3 0.024641 0.801458 0.053450
Si Si4 0.168091 0.955000 0.380523
Si Si5 0.965251 0.117259 0.194768
Si Si6 0.810065 0.379199 0.786510
Si Si7 0.475070 0.707505 0.139023
O O1 0.574052 0.744273 0.467153
O O2 0.285685 0.819694 0.417964
O O3 0.524550 0.466529 0.391827
O O4 0.593356 0.966441 0.391226
O O5 0.839919 0.402906 0.972745
O O6 0.842198 0.801926 0.026872
O O7 0.889765 0.905879 0.947056
O O8 0.977357 0.655661 0.098669
O O9 0.099784 0.722405 0.350507
O O10 0.320229 0.127268 0.353922
O O11 0.130825 0.315360 0.205007
O O12 0.816167 0.159939 0.234341
O O13 0.033579 0.814916 0.197169
O O14 0.637120 0.291369 0.815538
#
# Coordination Sequence:
#
# PCOD9248263 Si02
#       7
#     4   4   4   4   4   4   4
#     4  10  23  39  59  92 124 164 203 243 315 371
#     4  10  22  42  61  93 119 171 203 251 311 363
#     4  10  23  39  66  89 127 157 213 256 300 364
#     4  10  26  39  62  98 122 162 203 261 306 364
#     4  10  23  40  66  91 120 159 213 255 301 366
#     4  10  22  43  62  90 122 165 205 252 309 367
#     4  10  23  40  58  93 123 164 198 249 312 370
#
# _framework density 24.593297
#
# number of rings (size 3 to 8) (size 9 to 14) (size 15 to 20)
#    0.857    1.143    0.000    1.714   10.000    0.571 
#    2.571    0.714    0.000    0.000    0.000    0.000 
#    0.000    0.000    0.000    0.000    0.000    0.000 
#
# Total GULP energy -156634.905852 kJ/mol
# GULP energy per Si atom -5594.103780 kJ/mol
# Density = 2.453732 g / cm^3
# Si number density = 24.593297 Si / 1000 Ang^3
#
#
#
# Elastic Constant Matrix: (Units=GPa)
#
#
# Indices 1 2 3 4 5 6 
#
# 1 36.7684 -1.7722 22.0351 0.0000 -5.7183 0.0000
# 2 -1.7722 113.7421 8.0313 0.0000 -16.1424 0.0000
# 3 22.0351 8.0313 65.1190 0.0000 -3.1492 0.0000
# 4 0.0000 0.0000 0.0000 34.0349 0.0000 -4.1420
# 5 -5.7183 -16.1424 -3.1492 0.0000 37.6974 0.0000
# 6 0.0000 0.0000 0.0000 -4.1420 0.0000 7.2684
#
#
#
# Elastic Compliance Matrix: (Units=1/GPa)
#
#
# Indices 1 2 3 4 5 6 
#
# 1 0.035280 0.002141 -0.011947 0.000000 0.005270 0.000000
# 2 0.002141 0.009551 -0.001696 0.000000 0.004273 0.000000
# 3 -0.011947 -0.001696 0.019565 0.000000 -0.000904 0.000000
# 4 0.000000 0.000000 0.000000 0.031571 0.000000 0.017991
# 5 0.005270 0.004273 -0.000904 0.000000 0.029081 0.000000
# 6 0.000000 0.000000 0.000000 0.017991 0.000000 0.147835
#
#
# Mechanical properties :
#
#
# Convention : Reuss Voigt Hill
#
# Bulk Modulus (GPa) = 24.15916 30.24645 27.20281
# Shear Modulus (GPa) = 16.14544 28.28915 22.21730
#
# Velocity S-wave (km/s) = 2.56500 3.39526 3.00890
# Velocity P-wave (km/s) = 4.31475 5.26267 4.81211
#
# Compressibility (1/GPa) = 0.04139216
#
# Stress axis : x y z
#
# Youngs Moduli (GPa) = 28.34460 104.69704 51.11240
#
# Poissons Ratio (x) = -0.22418 0.61066
# Poissons Ratio (y) = -0.06069 0.08668
# Poissons Ratio (z) = 0.33864 0.17756
#
# Static dielectric constant tensor:
#      x y z
#    x 1.972740 0.000000 0.013560 
#    y 0.000000 1.922390 0.000000 
#    z 0.013560 0.000000 1.992930 
# 
# From -- ./inp_files/79027.got.cif
#   From: 2010.05.17/outbox.cif.g08.bks.cpg/sg14_40_cif.got.tgz:79027.got - 2010.06.03 17:49:19.
