data_PCOD9248749
_publ_section_title
;
Structure prediction by ZEFSAII (Michael W. Deem and Ramdas Pophale) SiO2 
 PCOD9248749
Probable space group: P 21/C
;
_chemical_formula_sum "Si O2"
_cell_formula_units_Z 24
_cell_length_a 9.668685
_cell_length_b 16.840895
_cell_length_c 15.271416
_cell_angle_alpha 90.000000
_cell_angle_beta 154.661971
_cell_angle_gamma 90.000000
_cell_volume 1064.174556
_symmetry_space_group_name_H-M "P 21/C"
_symmetry_group_IT_number 14
_symmetry_cell_setting 'monoclinic'
loop_
_space_group_symop_operation_xyz
x,y,z
-x,1/2+y,1/2-z
-x,-y,-z
x,1/2-y,1/2+z
loop_
_atom_site_type_symbol
_atom_site_label
_atom_site_fract_x
_atom_site_fract_y
_atom_site_fract_z
Si Si1 0.000289 0.243933 0.452458
Si Si2 0.542591 0.129583 0.292292
Si Si3 0.341478 0.577778 0.948002
Si Si4 0.305837 0.995121 0.743453
Si Si5 0.599126 0.785229 0.482039
Si Si6 0.399703 0.393426 0.447468
O O1 0.277625 0.300904 0.647600
O O2 0.106870 0.213753 0.417230
O O3 0.856065 0.174400 0.430053
O O4 0.694103 0.297270 0.253720
O O5 0.616481 0.088880 0.425115
O O6 0.447978 0.057281 0.173994
O O7 0.545983 0.648611 0.022486
O O8 0.953936 0.582862 0.715997
O O9 0.500000 0.500000 0.000000
O O10 0.400352 0.077685 0.845824
O O11 0.314076 0.939162 0.836040
O O12 0.000000 0.000000 0.500000
O O13 0.586479 0.699854 0.522866
#
# Coordination Sequence:
#
# PCOD9248749 Si02
#       6
#     4   4   4   4   4   4
#     4  10  22  43  74 103 142 187 249 307 357 457
#     4  11  24  45  72 110 145 195 257 300 380 441
#     4  12  28  46  70 108 153 194 251 315 376 445
#     4  11  22  41  74 104 147 188 248 305 361 451
#     4  11  22  45  74 102 146 191 247 303 379 446
#     4  11  24  45  71 108 147 198 245 302 383 441
#
# _framework density 22.552689999999998
#
# number of rings (size 3 to 8) (size 9 to 14) (size 15 to 20)
#    0.000    1.000    6.667    0.000    4.667    0.000 
#    0.000    6.667    0.000    0.000    0.000    0.000 
#    0.000    0.000    0.000    0.000    0.000    0.000 
#
# Total GULP energy -133711.626682 kJ/mol
# GULP energy per Si atom -5571.317778 kJ/mol
# Density = 2.250136 g / cm^3
# Si number density = 22.552690 Si / 1000 Ang^3
#
#
#
# Elastic Constant Matrix: (Units=GPa)
#
#
# Indices 1 2 3 4 5 6 
#
# 1 113.3364 64.2121 44.4119 0.0000 -23.9738 0.0000
# 2 64.2121 154.6744 50.0980 0.0000 -5.8270 0.0000
# 3 44.4119 50.0980 111.2231 0.0000 -20.2751 0.0000
# 4 0.0000 0.0000 0.0000 29.4736 0.0000 -6.2908
# 5 -23.9738 -5.8270 -20.2751 0.0000 48.7248 0.0000
# 6 0.0000 0.0000 0.0000 -6.2908 0.0000 51.0204
#
#
#
# Elastic Compliance Matrix: (Units=1/GPa)
#
#
# Indices 1 2 3 4 5 6 
#
# 1 0.013442 -0.004625 -0.002358 0.000000 0.005080 0.000000
# 2 -0.004625 0.009175 -0.002706 0.000000 -0.002304 0.000000
# 3 -0.002358 -0.002706 0.011774 0.000000 0.003415 0.000000
# 4 0.000000 0.000000 0.000000 0.034846 0.000000 0.004296
# 5 0.005080 -0.002304 0.003415 0.000000 0.024168 0.000000
# 6 0.000000 0.000000 0.000000 0.004296 0.000000 0.020130
#
#
# Mechanical properties :
#
#
# Convention : Reuss Voigt Hill
#
# Bulk Modulus (GPa) = 66.61127 77.40866 72.00996
# Shear Modulus (GPa) = 36.25339 40.54455 38.39897
#
# Velocity S-wave (km/s) = 4.01371 4.24461 4.13077
# Velocity P-wave (km/s) = 7.14701 7.64332 7.39933
#
# Compressibility (1/GPa) = 0.01501248
#
# Stress axis : x y z
#
# Youngs Moduli (GPa) = 74.39148 108.99237 84.93303
#
# Poissons Ratio (x) = 0.50413 0.20029
# Poissons Ratio (y) = 0.34409 0.22981
# Poissons Ratio (z) = 0.17544 0.29491
#
# Static dielectric constant tensor:
#      x y z
#    x 1.922530 0.000000 -0.017830 
#    y 0.000000 1.861830 0.000000 
#    z -0.017830 0.000000 2.011780 
# 
# From -- ./inp_files/41859.got.cif
#   From: 2010.05.17/outbox.cif.g08.bks.cpg/sg14_21_cif.got.tgz:41859.got - 2010.06.03 17:49:19.
