data_PCOD9248186
_publ_section_title
;
Structure prediction by ZEFSAII (Michael W. Deem and Ramdas Pophale) SiO2 
 PCOD9248186
Probable space group: P 21/C
;
_chemical_formula_sum "Si O2"
_cell_formula_units_Z 30
_cell_length_a 9.432918
_cell_length_b 10.695422
_cell_length_c 13.445647
_cell_angle_alpha 90.000000
_cell_angle_beta 115.639126
_cell_angle_gamma 90.000000
_cell_volume 1222.951875
_symmetry_space_group_name_H-M "P 21/C"
_symmetry_group_IT_number 14
_symmetry_cell_setting 'monoclinic'
loop_
_space_group_symop_operation_xyz
x,y,z
-x,1/2+y,1/2-z
-x,-y,-z
x,1/2-y,1/2+z
loop_
_atom_site_type_symbol
_atom_site_label
_atom_site_fract_x
_atom_site_fract_y
_atom_site_fract_z
Si Si1 0.194156 0.174079 0.668970
Si Si2 0.956231 0.166565 0.435335
Si Si3 0.001778 0.139140 0.223341
Si Si4 0.829596 0.417855 0.348376
Si Si5 0.500000 0.500000 0.000000
Si Si6 0.336235 0.744167 0.876665
Si Si7 0.610500 0.609073 0.358007
Si Si8 0.361467 0.968043 0.647846
O O1 0.273167 0.277528 0.623874
O O2 0.058713 0.119529 0.557493
O O3 0.114565 0.242239 0.736211
O O4 0.318722 0.065196 0.723264
O O5 0.006176 0.117002 0.342499
O O6 0.949586 0.317620 0.429844
O O7 0.776912 0.128698 0.396484
O O8 0.824313 0.182849 0.142096
O O9 0.074617 0.023904 0.183939
O O10 0.722398 0.339649 0.236783
O O11 0.717035 0.484728 0.395406
O O12 0.406716 0.638658 0.970498
O O13 0.613206 0.544542 0.944227
O O14 0.471135 0.844357 0.887435
O O15 0.526962 0.592284 0.224373
#
# Coordination Sequence:
#
# PCOD9248186 Si02
#       8
#     4   4   4   4   2   4   4   4
#     4  11  25  43  68 103 134 184 239 290 350 428
#     4  11  25  43  71 103 141 188 245 288 355 424
#     4  10  24  40  70  98 148 184 233 287 362 420
#     4  10  22  41  68  93 143 189 225 287 360 414
#     4  12  24  40  74  98 140 172 244 302 338 418
#     4  11  22  41  65 105 135 184 233 288 351 415
#     4  11  21  42  66  98 138 183 224 286 358 415
#     4  12  24  41  72 103 138 182 238 298 353 414
#
# _framework density 24.530811
#
# number of rings (size 3 to 8) (size 9 to 14) (size 15 to 20)
#    0.000    1.067    5.333    1.200    5.600    2.133 
#    0.000    0.000    2.933    3.200    0.000    0.000 
#    0.000    0.000    0.000    0.000    0.000    0.000 
#
# Total GULP energy -167162.443924 kJ/mol
# GULP energy per Si atom -5572.081464 kJ/mol
# Density = 2.447498 g / cm^3
# Si number density = 24.530811 Si / 1000 Ang^3
#
#
#
# Elastic Constant Matrix: (Units=GPa)
#
#
# Indices 1 2 3 4 5 6 
#
# 1 135.2488 50.0879 16.4992 0.0000 -21.6877 0.0000
# 2 50.0879 109.3525 20.9674 0.0000 -5.2326 0.0000
# 3 16.4992 20.9674 39.2032 0.0000 -1.8915 0.0000
# 4 0.0000 0.0000 0.0000 28.2951 0.0000 -0.9187
# 5 -21.6877 -5.2326 -1.8915 0.0000 32.0857 0.0000
# 6 0.0000 0.0000 0.0000 -0.9187 0.0000 16.5617
#
#
#
# Elastic Compliance Matrix: (Units=1/GPa)
#
#
# Indices 1 2 3 4 5 6 
#
# 1 0.010054 -0.003967 -0.001818 0.000000 0.006041 0.000000
# 2 -0.003967 0.011813 -0.004698 0.000000 -0.001032 0.000000
# 3 -0.001818 -0.004698 0.028772 0.000000 -0.000299 0.000000
# 4 0.000000 0.000000 0.000000 0.035406 0.000000 0.001964
# 5 0.006041 -0.001032 -0.000299 0.000000 0.035064 0.000000
# 6 0.000000 0.000000 0.000000 0.001964 0.000000 0.060489
#
#
# Mechanical properties :
#
#
# Convention : Reuss Voigt Hill
#
# Bulk Modulus (GPa) = 33.70226 50.99038 42.34632
# Shear Modulus (GPa) = 23.53441 28.47184 26.00313
#
# Velocity S-wave (km/s) = 3.10075 3.41054 3.25933
# Velocity P-wave (km/s) = 5.15636 6.02830 5.60930
#
# Compressibility (1/GPa) = 0.02967160
#
# Stress axis : x y z
#
# Youngs Moduli (GPa) = 99.46757 84.64962 34.75647
#
# Poissons Ratio (x) = 0.33583 0.06318
# Poissons Ratio (y) = 0.39462 0.16330
# Poissons Ratio (z) = 0.18082 0.39771
#
# Static dielectric constant tensor:
#      x y z
#    x 1.915910 0.000000 -0.010250 
#    y 0.000000 1.811710 0.000000 
#    z -0.010250 0.000000 2.025250 
# 
# From -- ./inp_files/40373.got.cif
#   From: 2010.05.17/outbox.cif.g08.bks.cpg/sg14_21_cif.got.tgz:40373.got - 2010.06.03 17:49:19.
