data_PCOD9248755
_publ_section_title
;
Structure prediction by ZEFSAII (Michael W. Deem and Ramdas Pophale) SiO2 
 PCOD9248755
Probable space group: P 21/C
;
_chemical_formula_sum "Si O2"
_cell_formula_units_Z 30
_cell_length_a 14.806856
_cell_length_b 5.022356
_cell_length_c 16.463507
_cell_angle_alpha 90.000000
_cell_angle_beta 100.466397
_cell_angle_gamma 90.000000
_cell_volume 1203.943071
_symmetry_space_group_name_H-M "P 21/C"
_symmetry_group_IT_number 14
_symmetry_cell_setting 'monoclinic'
loop_
_space_group_symop_operation_xyz
x,y,z
-x,1/2+y,1/2-z
-x,-y,-z
x,1/2-y,1/2+z
loop_
_atom_site_type_symbol
_atom_site_label
_atom_site_fract_x
_atom_site_fract_y
_atom_site_fract_z
Si Si1 0.340348 0.712795 0.353985
Si Si2 0.260067 0.219083 0.556009
Si Si3 0.175034 0.027749 0.386830
Si Si4 0.014029 0.943901 0.701630
Si Si5 0.500000 0.500000 0.500000
Si Si6 0.372050 0.702143 0.582449
Si Si7 0.449335 0.029012 0.255383
Si Si8 0.211155 0.151525 0.726501
O O1 0.425291 0.567557 0.411502
O O2 0.384685 0.977456 0.321163
O O3 0.290304 0.537384 0.276188
O O4 0.254879 0.803442 0.397152
O O5 0.192681 0.212307 0.468181
O O6 0.343534 0.410914 0.543744
O O7 0.232201 0.294411 0.643688
O O8 0.295363 0.919823 0.569874
O O9 0.187587 0.161690 0.299833
O O10 0.067570 0.954278 0.370120
O O11 0.998916 0.636313 0.722034
O O12 0.118371 0.986250 0.692252
O O13 0.459524 0.760554 0.542631
O O14 0.401905 0.635384 0.676261
O O15 0.536236 0.826026 0.275565
#
# Coordination Sequence:
#
# PCOD9248755 Si02
#       8
#     4   4   4   4   2   4   4   4
#     4  12  24  43  70  99 140 194 237 296 365 428
#     4  12  27  45  74 105 148 190 245 305 363 444
#     4  11  25  45  75 106 147 191 246 303 369 437
#     4  10  22  43  75 107 144 188 242 300 369 443
#     4  12  26  42  70 100 142 184 246 294 356 424
#     4  12  26  46  65 104 142 190 244 298 358 432
#     4  12  26  43  66  95 135 183 239 293 351 424
#     4  11  25  46  74 104 147 194 241 301 378 433
#
# _framework density 24.918123000000001
#
# number of rings (size 3 to 8) (size 9 to 14) (size 15 to 20)
#    0.000    0.533    5.333    2.400    1.867    2.133 
#    0.000    0.000    0.000    5.600    0.000    0.000 
#    0.000    0.000    0.000    0.000    0.000    0.000 
#
# Total GULP energy -167006.118367 kJ/mol
# GULP energy per Si atom -5566.870612 kJ/mol
# Density = 2.486141 g / cm^3
# Si number density = 24.918123 Si / 1000 Ang^3
#
#
#
# Elastic Constant Matrix: (Units=GPa)
#
#
# Indices 1 2 3 4 5 6 
#
# 1 69.2757 26.0748 29.6532 0.0000 14.9028 0.0000
# 2 26.0748 65.9694 16.5645 0.0000 6.3685 0.0000
# 3 29.6532 16.5645 121.1380 0.0000 -2.8005 0.0000
# 4 0.0000 0.0000 0.0000 28.4281 0.0000 1.9745
# 5 14.9028 6.3685 -2.8005 0.0000 33.4641 0.0000
# 6 0.0000 0.0000 0.0000 1.9745 0.0000 5.3098
#
#
#
# Elastic Compliance Matrix: (Units=1/GPa)
#
#
# Indices 1 2 3 4 5 6 
#
# 1 0.020396 -0.006173 -0.004340 0.000000 -0.008271 0.000000
# 2 -0.006173 0.017910 -0.000955 0.000000 -0.000739 0.000000
# 3 -0.004340 -0.000955 0.009515 0.000000 0.002911 0.000000
# 4 0.000000 0.000000 0.000000 0.036109 0.000000 -0.013428
# 5 -0.008271 -0.000739 0.002911 0.000000 0.033950 0.000000
# 6 0.000000 0.000000 0.000000 -0.013428 0.000000 0.193325
#
#
# Mechanical properties :
#
#
# Convention : Reuss Voigt Hill
#
# Bulk Modulus (GPa) = 40.18540 44.55201 42.36871
# Shear Modulus (GPa) = 14.60128 25.71311 20.15720
#
# Velocity S-wave (km/s) = 2.42331 3.21581 2.84727
# Velocity P-wave (km/s) = 4.89815 5.63088 5.27725
#
# Compressibility (1/GPa) = 0.02488466
#
# Stress axis : x y z
#
# Youngs Moduli (GPa) = 49.03028 55.83558 105.09487
#
# Poissons Ratio (x) = 0.34469 0.45608
# Poissons Ratio (y) = 0.30268 0.10036
# Poissons Ratio (z) = 0.21278 0.05332
#
# Static dielectric constant tensor:
#      x y z
#    x 1.620750 0.000000 0.012680 
#    y 0.000000 1.953540 0.000000 
#    z 0.012680 0.000000 2.052530 
# 
# From -- ./inp_files/58631.got.cif
#   From: 2010.05.17/outbox.cif.g08.bks.cpg/sg14_30_cif.got.tgz:58631.got - 2010.06.03 17:49:19.
