data_PCOD9248378
_publ_section_title
;
Structure prediction by ZEFSAII (Michael W. Deem and Ramdas Pophale) SiO2 
 PCOD9248378
Probable space group: P 21/C
;
_chemical_formula_sum "Si O2"
_cell_formula_units_Z 20
_cell_length_a 5.597638
_cell_length_b 9.063369
_cell_length_c 18.546325
_cell_angle_alpha 90.000000
_cell_angle_beta 67.402945
_cell_angle_gamma 90.000000
_cell_volume 868.684816
_symmetry_space_group_name_H-M "P 21/C"
_symmetry_group_IT_number 14
_symmetry_cell_setting 'monoclinic'
loop_
_space_group_symop_operation_xyz
x,y,z
-x,1/2+y,1/2-z
-x,-y,-z
x,1/2-y,1/2+z
loop_
_atom_site_type_symbol
_atom_site_label
_atom_site_fract_x
_atom_site_fract_y
_atom_site_fract_z
Si Si1 0.744251 0.829969 0.580055
Si Si2 0.140925 0.046016 0.577775
Si Si3 0.686424 0.504721 0.547605
Si Si4 0.305278 0.778835 0.833598
Si Si5 0.642007 0.508535 0.787988
O O1 0.679398 0.891821 0.507481
O O2 0.664296 0.662012 0.588903
O O3 0.603576 0.911880 0.660846
O O4 0.035244 0.888836 0.559853
O O5 0.923494 0.174819 0.610694
O O6 0.222773 0.026858 0.650628
O O7 0.500000 0.500000 0.500000
O O8 0.599367 0.372666 0.609390
O O9 0.000000 0.500000 0.500000
O O10 0.526990 0.667205 0.779326
O O11 0.217922 0.904984 0.786618
#
# Coordination Sequence:
#
# PCOD9248378 Si02
#       5
#     4   4   4   4   4
#     4  10  22  42  67 102 129 182 236 284 352 416
#     4  10  22  42  69  95 136 177 232 287 351 421
#     4  12  26  45  72 104 143 184 235 291 348 421
#     4  11  25  43  64 102 134 181 237 285 359 416
#     4  11  24  43  68  95 140 183 231 297 352 420
#
# _framework density 23.023311
#
# number of rings (size 3 to 8) (size 9 to 14) (size 15 to 20)
#    0.000    1.200    2.000    3.000    2.800    4.800 
#    0.000    0.000    0.000    0.000    0.000    0.000 
#    0.000    0.000    0.000    0.000    0.000    0.000 
#
# Total GULP energy -111527.476117 kJ/mol
# GULP energy per Si atom -5576.373806 kJ/mol
# Density = 2.297091 g / cm^3
# Si number density = 23.023311 Si / 1000 Ang^3
#
#
#
# Elastic Constant Matrix: (Units=GPa)
#
#
# Indices 1 2 3 4 5 6 
#
# 1 47.1866 21.5215 14.2888 0.0000 15.6965 0.0000
# 2 21.5215 153.2468 37.7527 0.0000 10.9718 0.0000
# 3 14.2888 37.7527 99.3422 0.0000 21.1664 0.0000
# 4 0.0000 0.0000 0.0000 53.1349 0.0000 14.9196
# 5 15.6965 10.9718 21.1664 0.0000 29.2339 0.0000
# 6 0.0000 0.0000 0.0000 14.9196 0.0000 6.8770
#
#
#
# Elastic Compliance Matrix: (Units=1/GPa)
#
#
# Indices 1 2 3 4 5 6 
#
# 1 0.026940 -0.002837 0.000069 0.000000 -0.013450 0.000000
# 2 -0.002837 0.007516 -0.002568 0.000000 0.000562 0.000000
# 3 0.000069 -0.002568 0.012811 0.000000 -0.008349 0.000000
# 4 0.000000 0.000000 0.000000 0.048153 0.000000 -0.104467
# 5 -0.013450 0.000562 -0.008349 0.000000 0.047263 0.000000
# 6 0.000000 0.000000 0.000000 -0.104467 0.000000 0.372050
#
#
# Mechanical properties :
#
#
# Convention : Reuss Voigt Hill
#
# Bulk Modulus (GPa) = 27.32650 49.65575 38.49113
# Shear Modulus (GPa) = 9.30053 32.93000 21.11527
#
# Velocity S-wave (km/s) = 2.01206 3.78602 3.03169
# Velocity P-wave (km/s) = 4.15845 6.38172 5.38605
#
# Compressibility (1/GPa) = 0.03659452
#
# Stress axis : x y z
#
# Youngs Moduli (GPa) = 37.11990 133.04406 78.05760
#
# Poissons Ratio (x) = 0.37750 -0.00540
# Poissons Ratio (y) = 0.10532 0.20045
# Poissons Ratio (z) = -0.00257 0.34166
#
# Static dielectric constant tensor:
#      x y z
#    x 2.056990 0.000000 0.004520 
#    y 0.000000 1.881650 0.000000 
#    z 0.004520 0.000000 1.876900 
# 
# From -- ./inp_files/52521.got.cif
#   From: 2010.05.17/outbox.cif.g08.bks.cpg/sg14_27_cif.got.tgz:52521.got - 2010.06.03 17:49:19.
