data_PCOD9248261
_publ_section_title
;
Structure prediction by ZEFSAII (Michael W. Deem and Ramdas Pophale) SiO2 
 PCOD9248261
Probable space group: P 21/C
;
_chemical_formula_sum "Si O2"
_cell_formula_units_Z 28
_cell_length_a 17.282620
_cell_length_b 7.506218
_cell_length_c 14.594812
_cell_angle_alpha 90.000000
_cell_angle_beta 32.714717
_cell_angle_gamma 90.000000
_cell_volume 1023.269351
_symmetry_space_group_name_H-M "P 21/C"
_symmetry_group_IT_number 14
_symmetry_cell_setting 'monoclinic'
loop_
_space_group_symop_operation_xyz
x,y,z
-x,1/2+y,1/2-z
-x,-y,-z
x,1/2-y,1/2+z
loop_
_atom_site_type_symbol
_atom_site_label
_atom_site_fract_x
_atom_site_fract_y
_atom_site_fract_z
Si Si1 0.513638 0.568794 0.614455
Si Si2 0.447098 0.347059 0.220885
Si Si3 0.737246 0.768549 0.749914
Si Si4 0.902368 0.234422 0.711633
Si Si5 0.275086 0.460244 0.070436
Si Si6 0.185769 0.864435 0.397021
Si Si7 0.973610 0.039251 0.287594
O O1 0.581919 0.642400 0.641358
O O2 0.493566 0.357863 0.651932
O O3 0.615653 0.619384 0.428242
O O4 0.354155 0.647393 0.753469
O O5 0.324285 0.359228 0.267195
O O6 0.555001 0.513971 0.097997
O O7 0.788828 0.643301 0.779978
O O8 0.833951 0.922856 0.609183
O O9 0.757419 0.329390 0.887727
O O10 0.880382 0.225459 0.626082
O O11 0.010783 0.374025 0.653306
O O12 0.916084 0.054216 0.755429
O O13 0.169824 0.418413 0.090722
O O14 0.095836 0.812894 0.575704
#
# Coordination Sequence:
#
# PCOD9248261 Si02
#       7
#     4   4   4   4   4   4   4
#     4  11  22  37  65  95 137 171 213 253 323 386
#     4  11  21  40  59  97 131 172 208 262 309 395
#     4  11  24  36  66  95 131 171 214 253 324 390
#     4  10  23  42  68  87 123 165 216 270 322 374
#     4  10  22  42  61  91 129 165 215 265 318 378
#     4  11  22  43  65  95 129 168 210 267 326 383
#     4  10  24  44  67  91 127 165 217 271 326 371
#
# _framework density 27.363274000000001
#
# number of rings (size 3 to 8) (size 9 to 14) (size 15 to 20)
#    0.857    0.571    1.429    5.143    4.000    1.143 
#    0.000    2.857    0.000    0.000    0.000    0.000 
#    0.000    0.000    0.000    0.000    0.000    0.000 
#
# Total GULP energy -156175.893529 kJ/mol
# GULP energy per Si atom -5577.710483 kJ/mol
# Density = 2.730099 g / cm^3
# Si number density = 27.363274 Si / 1000 Ang^3
#
#
#
# Elastic Constant Matrix: (Units=GPa)
#
#
# Indices 1 2 3 4 5 6 
#
# 1 154.4547 27.3944 52.2039 0.0000 46.2875 0.0000
# 2 27.3944 49.3093 18.2985 0.0000 3.6012 0.0000
# 3 52.2039 18.2985 60.1737 0.0000 8.7759 0.0000
# 4 0.0000 0.0000 0.0000 29.5868 0.0000 18.9101
# 5 46.2875 3.6012 8.7759 0.0000 45.8353 0.0000
# 6 0.0000 0.0000 0.0000 18.9101 0.0000 48.0608
#
#
#
# Elastic Compliance Matrix: (Units=1/GPa)
#
#
# Indices 1 2 3 4 5 6 
#
# 1 0.013704 -0.003357 -0.009143 0.000000 -0.011825 0.000000
# 2 -0.003357 0.023692 -0.004645 0.000000 0.002418 0.000000
# 3 -0.009143 -0.004645 0.025269 0.000000 0.004760 0.000000
# 4 0.000000 0.000000 0.000000 0.045154 0.000000 -0.017766
# 5 -0.011825 0.002418 0.004760 0.000000 0.032657 0.000000
# 6 0.000000 0.000000 0.000000 -0.017766 0.000000 0.027797
#
#
# Mechanical properties :
#
#
# Convention : Reuss Voigt Hill
#
# Bulk Modulus (GPa) = 35.24275 51.08126 43.16200
# Shear Modulus (GPa) = 23.58239 35.76597 29.67418
#
# Velocity S-wave (km/s) = 2.93887 3.61928 3.29668
# Velocity P-wave (km/s) = 4.94201 6.01447 5.50443
#
# Compressibility (1/GPa) = 0.02837463
#
# Stress axis : x y z
#
# Youngs Moduli (GPa) = 72.97276 42.20797 39.57368
#
# Poissons Ratio (x) = 0.14167 0.36184
# Poissons Ratio (y) = 0.24494 0.18383
# Poissons Ratio (z) = 0.66722 0.19607
#
# Static dielectric constant tensor:
#      x y z
#    x 2.133340 0.000000 -0.096750 
#    y 0.000000 2.330710 0.000000 
#    z -0.096750 0.000000 2.260310 
# 
# From -- ./inp_files/48531.got.cif
#   From: 2010.05.17/outbox.cif.g08.bks.cpg/sg14_25_cif.got.tgz:48531.got - 2010.06.03 17:49:19.
