data_PCOD9248912
_publ_section_title
;
Structure prediction by ZEFSAII (Michael W. Deem and Ramdas Pophale) SiO2 
 PCOD9248912
Probable space group: P 21/C
;
_chemical_formula_sum "Si O2"
_cell_formula_units_Z 28
_cell_length_a 5.682967
_cell_length_b 12.178495
_cell_length_c 14.590292
_cell_angle_alpha 90.000000
_cell_angle_beta 75.240345
_cell_angle_gamma 90.000000
_cell_volume 976.473746
_symmetry_space_group_name_H-M "P 21/C"
_symmetry_group_IT_number 14
_symmetry_cell_setting 'monoclinic'
loop_
_space_group_symop_operation_xyz
x,y,z
-x,1/2+y,1/2-z
-x,-y,-z
x,1/2-y,1/2+z
loop_
_atom_site_type_symbol
_atom_site_label
_atom_site_fract_x
_atom_site_fract_y
_atom_site_fract_z
Si Si1 0.748193 0.615082 0.879133
Si Si2 0.524203 0.166613 0.314453
Si Si3 0.778487 0.465534 0.408104
Si Si4 0.954050 0.906342 0.608995
Si Si5 0.698409 0.254303 0.989264
Si Si6 0.000130 0.663821 0.316889
Si Si7 0.339918 0.094354 0.812887
O O1 0.565859 0.051672 0.852531
O O2 0.876720 0.513074 0.916654
O O3 0.655001 0.562949 0.793342
O O4 0.521398 0.682584 0.942109
O O5 0.683414 0.212118 0.383082
O O6 0.707038 0.146817 0.211650
O O7 0.371021 0.274858 0.307194
O O8 0.332537 0.084350 0.378162
O O9 0.302560 0.622356 0.506291
O O10 0.838391 0.595232 0.405431
O O11 0.060054 0.427833 0.367263
O O12 0.043381 0.814847 0.525366
O O13 0.936760 0.885834 0.722898
O O14 0.946614 0.791823 0.332319
#
# Coordination Sequence:
#
# PCOD9248912 Si02
#       7
#     4   4   4   4   4   4   4
#     4  12  24  44  70 107 140 180 243 290 359 422
#     4  10  22  44  71  99 145 181 241 287 358 414
#     4  11  24  45  75  98 144 189 233 290 364 417
#     4  11  22  43  69 101 136 188 225 297 343 417
#     4  10  24  45  66 104 147 183 225 294 364 425
#     4  11  25  41  70 107 131 189 242 293 340 425
#     4  11  22  44  71 104 133 189 240 289 338 429
#
# _framework density 28.674607000000002
#
# number of rings (size 3 to 8) (size 9 to 14) (size 15 to 20)
#    0.000    1.143    4.286    2.143    2.000    1.143 
#    5.143    0.000    0.000    6.000    0.000    0.000 
#    0.000    0.000    0.000    0.000    0.000    0.000 
#
# Total GULP energy -156417.163940 kJ/mol
# GULP energy per Si atom -5586.327284 kJ/mol
# Density = 2.860934 g / cm^3
# Si number density = 28.674607 Si / 1000 Ang^3
#
#
#
# Elastic Constant Matrix: (Units=GPa)
#
#
# Indices 1 2 3 4 5 6 
#
# 1 152.1774 39.5973 54.5066 0.0000 -29.7614 0.0000
# 2 39.5973 112.8949 19.7687 0.0000 -14.6511 0.0000
# 3 54.5066 19.7687 84.2084 0.0000 -16.9491 0.0000
# 4 0.0000 0.0000 0.0000 40.9006 0.0000 -19.3177
# 5 -29.7614 -14.6511 -16.9491 0.0000 65.2937 0.0000
# 6 0.0000 0.0000 0.0000 -19.3177 0.0000 48.2048
#
#
#
# Elastic Compliance Matrix: (Units=1/GPa)
#
#
# Indices 1 2 3 4 5 6 
#
# 1 0.009436 -0.002089 -0.005113 0.000000 0.002505 0.000000
# 2 -0.002089 0.009860 -0.000748 0.000000 0.001066 0.000000
# 3 -0.005113 -0.000748 0.015677 0.000000 0.001571 0.000000
# 4 0.000000 0.000000 0.000000 0.030158 0.000000 0.012085
# 5 0.002505 0.001066 0.001571 0.000000 0.017104 0.000000
# 6 0.000000 0.000000 0.000000 0.012085 0.000000 0.025588
#
#
# Mechanical properties :
#
#
# Convention : Reuss Voigt Hill
#
# Bulk Modulus (GPa) = 52.43208 64.11398 58.27303
# Shear Modulus (GPa) = 38.43765 46.57369 42.50567
#
# Velocity S-wave (km/s) = 3.66522 4.03453 3.85430
# Velocity P-wave (km/s) = 6.01969 6.64160 6.33828
#
# Compressibility (1/GPa) = 0.01907229
#
# Stress axis : x y z
#
# Youngs Moduli (GPa) = 105.97386 101.42109 63.78858
#
# Poissons Ratio (x) = 0.21190 0.32617
# Poissons Ratio (y) = 0.22141 0.04770
# Poissons Ratio (z) = 0.54187 0.07584
#
# Static dielectric constant tensor:
#      x y z
#    x 2.733000 0.000000 0.222230 
#    y 0.000000 2.470520 0.000000 
#    z 0.222230 0.000000 2.301820 
# 
# From -- ./inp_files/63480.got.cif
#   From: 2010.05.17/outbox.cif.g08.bks.cpg/sg14_32_cif.got.tgz:63480.got - 2010.06.03 17:49:19.
