data_PCOD9248237
_publ_section_title
;
Structure prediction by ZEFSAII (Michael W. Deem and Ramdas Pophale) SiO2 
 PCOD9248237
Probable space group: P 21/C
;
_chemical_formula_sum "Si O2"
_cell_formula_units_Z 28
_cell_length_a 8.356564
_cell_length_b 13.706880
_cell_length_c 20.334626
_cell_angle_alpha 90.000000
_cell_angle_beta 148.038363
_cell_angle_gamma 90.000000
_cell_volume 1232.953077
_symmetry_space_group_name_H-M "P 21/C"
_symmetry_group_IT_number 14
_symmetry_cell_setting 'monoclinic'
loop_
_space_group_symop_operation_xyz
x,y,z
-x,1/2+y,1/2-z
-x,-y,-z
x,1/2-y,1/2+z
loop_
_atom_site_type_symbol
_atom_site_label
_atom_site_fract_x
_atom_site_fract_y
_atom_site_fract_z
Si Si1 0.695940 0.804494 0.462376
Si Si2 0.689759 0.974113 0.161248
Si Si3 0.402521 0.000687 0.391571
Si Si4 0.296563 0.989998 0.148404
Si Si5 0.713391 0.658369 0.245594
Si Si6 0.587730 0.160108 0.038087
Si Si7 0.647549 0.223474 0.789050
O O1 0.599806 0.916894 0.426308
O O2 0.557683 0.753252 0.478622
O O3 0.539681 0.757222 0.343102
O O4 0.051623 0.786704 0.594350
O O5 0.044978 0.976393 0.268633
O O6 0.584088 0.983865 0.199682
O O7 0.552284 0.068961 0.076118
O O8 0.556038 0.878095 0.079627
O O9 0.500000 0.000000 0.500000
O O10 0.440123 0.104546 0.369342
O O11 0.306792 0.078844 0.202623
O O12 0.264305 0.889717 0.177313
O O13 0.000000 0.000000 0.000000
O O14 0.559294 0.753320 0.220516
O O15 0.059332 0.677120 0.349240
#
# Coordination Sequence:
#
# PCOD9248237 Si02
#       7
#     4   4   4   4   4   4   4
#     4  12  27  47  70 104 146 189 246 296 364 437
#     4  10  22  41  71  98 135 184 233 300 356 422
#     4  11  27  46  66  99 146 195 236 297 367 434
#     4  12  23  45  74 107 145 180 242 302 368 432
#     4  11  25  46  71 105 145 184 242 299 365 431
#     4  10  22  42  73 101 135 181 240 293 353 427
#     4  12  28  46  74 108 143 196 240 304 368 434
#
# _framework density 22.709705
#
# number of rings (size 3 to 8) (size 9 to 14) (size 15 to 20)
#    0.000    0.857    2.857    3.429   10.000    2.857 
#    0.000    0.000    0.000    0.000    0.000    0.000 
#    0.000    0.000    0.000    0.000    0.000    0.000 
#
# Total GULP energy -156773.344070 kJ/mol
# GULP energy per Si atom -5599.048002 kJ/mol
# Density = 2.265802 g / cm^3
# Si number density = 22.709705 Si / 1000 Ang^3
#
#
#
# Elastic Constant Matrix: (Units=GPa)
#
#
# Indices 1 2 3 4 5 6 
#
# 1 75.9850 -15.1470 4.1090 0.0000 -2.6538 0.0000
# 2 -15.1470 26.2058 -6.7173 0.0000 2.8302 0.0000
# 3 4.1090 -6.7173 74.3540 0.0000 -19.2076 0.0000
# 4 0.0000 0.0000 0.0000 20.2552 0.0000 -2.8988
# 5 -2.6538 2.8302 -19.2076 0.0000 37.1694 0.0000
# 6 0.0000 0.0000 0.0000 -2.8988 0.0000 47.1323
#
#
#
# Elastic Compliance Matrix: (Units=1/GPa)
#
#
# Indices 1 2 3 4 5 6 
#
# 1 0.014881 0.008570 0.000067 0.000000 0.000444 0.000000
# 2 0.008570 0.044057 0.003229 0.000000 -0.001074 0.000000
# 3 0.000067 0.003229 0.015782 0.000000 0.007914 0.000000
# 4 0.000000 0.000000 0.000000 0.049808 0.000000 0.003063
# 5 0.000444 -0.001074 0.007914 0.000000 0.031107 0.000000
# 6 0.000000 0.000000 0.000000 0.003063 0.000000 0.021405
#
#
# Mechanical properties :
#
#
# Convention : Reuss Voigt Hill
#
# Bulk Modulus (GPa) = 10.15732 15.67049 12.91390
# Shear Modulus (GPa) = 26.86366 33.86472 30.36419
#
# Velocity S-wave (km/s) = 3.44308 3.86580 3.66055
# Velocity P-wave (km/s) = 4.50431 5.18085 4.85438
#
# Compressibility (1/GPa) = 0.09845120
#
# Stress axis : x y z
#
# Youngs Moduli (GPa) = 67.20066 22.69798 63.36471
#
# Poissons Ratio (x) = -0.19453 -0.00422
# Poissons Ratio (y) = -0.57592 -0.20461
# Poissons Ratio (z) = -0.00448 -0.07329
#
# Static dielectric constant tensor:
#      x y z
#    x 1.767730 0.000000 -0.029760 
#    y 0.000000 1.819720 0.000000 
#    z -0.029760 0.000000 1.831640 
# 
# From -- ./inp_files/65943.got.cif
#   From: 2010.05.17/outbox.cif.g08.bks.cpg/sg14_33_cif.got.tgz:65943.got - 2010.06.03 17:49:19.
