data_PCOD9248202
_publ_section_title
;
Structure prediction by ZEFSAII (Michael W. Deem and Ramdas Pophale) SiO2 
 PCOD9248202
Probable space group: P 21/C
;
_chemical_formula_sum "Si O2"
_cell_formula_units_Z 30
_cell_length_a 8.598661
_cell_length_b 8.288497
_cell_length_c 25.683418
_cell_angle_alpha 90.000000
_cell_angle_beta 42.180142
_cell_angle_gamma 90.000000
_cell_volume 1229.085324
_symmetry_space_group_name_H-M "P 21/C"
_symmetry_group_IT_number 14
_symmetry_cell_setting 'monoclinic'
loop_
_space_group_symop_operation_xyz
x,y,z
-x,1/2+y,1/2-z
-x,-y,-z
x,1/2-y,1/2+z
loop_
_atom_site_type_symbol
_atom_site_label
_atom_site_fract_x
_atom_site_fract_y
_atom_site_fract_z
Si Si1 0.902261 0.044832 0.384540
Si Si2 0.872531 0.878789 0.993143
Si Si3 0.017306 0.904707 0.160095
Si Si4 0.345171 0.847598 0.236192
Si Si5 0.500000 0.500000 0.500000
Si Si6 0.757166 0.961171 0.535826
Si Si7 0.289993 0.965798 0.680570
Si Si8 0.317248 0.879827 0.828907
O O1 0.982817 0.229323 0.365731
O O2 0.741247 0.043701 0.373562
O O3 0.774535 0.000904 0.469969
O O4 0.112319 0.927597 0.317335
O O5 0.700747 0.965102 0.995357
O O6 0.728649 0.730462 0.051001
O O7 0.106021 0.797164 0.911568
O O8 0.000000 0.000000 0.000000
O O9 0.282463 0.965405 0.094546
O O10 0.840312 0.011348 0.170448
O O11 0.902642 0.921821 0.245431
O O12 0.282848 0.711017 0.209122
O O13 0.514781 0.998067 0.182021
O O14 0.449724 0.744436 0.258839
O O15 0.547196 0.039534 0.619939
O O16 0.000000 0.000000 0.500000
#
# Coordination Sequence:
#
# PCOD9248202 Si02
#       8
#     4   4   4   4   2   4   4   4
#     4  12  25  47  73 109 153 203 243 320 384 453
#     4  11  24  46  74 107 145 201 252 306 380 453
#     4  10  24  44  76 107 149 196 251 310 382 451
#     4  11  23  42  76 103 148 192 259 308 378 449
#     4  10  24  48  78 108 150 198 256 318 378 454
#     4  12  29  47  73 112 156 196 254 314 386 458
#     4  11  26  48  72 109 148 198 256 310 379 465
#     4  10  22  41  69 106 141 191 248 309 367 449
#
# _framework density 24.408396
#
# number of rings (size 3 to 8) (size 9 to 14) (size 15 to 20)
#    0.000    1.067    1.333    3.600    9.333    2.133 
#    2.400    0.000    0.000    0.000    0.000    0.000 
#    0.000    0.000    0.000    0.000    0.000    0.000 
#
# Total GULP energy -167041.628156 kJ/mol
# GULP energy per Si atom -5568.054272 kJ/mol
# Density = 2.435284 g / cm^3
# Si number density = 24.408396 Si / 1000 Ang^3
#
#
#
# Elastic Constant Matrix: (Units=GPa)
#
#
# Indices 1 2 3 4 5 6 
#
# 1 103.2286 25.3421 46.6139 0.0000 -10.4727 0.0000
# 2 25.3421 71.7062 40.4869 0.0000 -1.9651 0.0000
# 3 46.6139 40.4869 174.5272 0.0000 -30.7610 0.0000
# 4 0.0000 0.0000 0.0000 28.6607 0.0000 1.2716
# 5 -10.4727 -1.9651 -30.7610 0.0000 38.2164 0.0000
# 6 0.0000 0.0000 0.0000 1.2716 0.0000 34.0037
#
#
#
# Elastic Compliance Matrix: (Units=1/GPa)
#
#
# Indices 1 2 3 4 5 6 
#
# 1 0.011492 -0.002781 -0.002207 0.000000 0.001229 0.000000
# 2 -0.002781 0.016934 -0.003690 0.000000 -0.002861 0.000000
# 3 -0.002207 -0.003690 0.008198 0.000000 0.005804 0.000000
# 4 0.000000 0.000000 0.000000 0.034949 0.000000 -0.001307
# 5 0.001229 -0.002861 0.005804 0.000000 0.031029 0.000000
# 6 0.000000 0.000000 0.000000 -0.001307 0.000000 0.029457
#
#
# Mechanical properties :
#
#
# Convention : Reuss Voigt Hill
#
# Bulk Modulus (GPa) = 51.90308 63.81643 57.85975
# Shear Modulus (GPa) = 32.08473 35.97743 34.03108
#
# Velocity S-wave (km/s) = 3.62953 3.84341 3.73800
# Velocity P-wave (km/s) = 6.23500 6.77479 6.51049
#
# Compressibility (1/GPa) = 0.01926668
#
# Stress axis : x y z
#
# Youngs Moduli (GPa) = 87.02084 59.05398 121.97639
#
# Poissons Ratio (x) = 0.16425 0.26924
# Poissons Ratio (y) = 0.24203 0.45006
# Poissons Ratio (z) = 0.19209 0.21790
#
# Static dielectric constant tensor:
#      x y z
#    x 1.976500 0.000000 0.068170 
#    y 0.000000 1.625430 0.000000 
#    z 0.068170 0.000000 2.047790 
# 
# From -- ./inp_files/76466.got.cif
#   From: 2010.05.17/outbox.cif.g08.bks.cpg/sg14_39_cif.got.tgz:76466.got - 2010.06.03 17:49:19.
