data_PCOD9248189
_publ_section_title
;
Structure prediction by ZEFSAII (Michael W. Deem and Ramdas Pophale) SiO2 
 PCOD9248189
Probable space group: P 21/C
;
_chemical_formula_sum "Si O2"
_cell_formula_units_Z 24
_cell_length_a 8.245077
_cell_length_b 13.589829
_cell_length_c 9.432835
_cell_angle_alpha 90.000000
_cell_angle_beta 88.791571
_cell_angle_gamma 90.000000
_cell_volume 1056.706416
_symmetry_space_group_name_H-M "P 21/C"
_symmetry_group_IT_number 14
_symmetry_cell_setting 'monoclinic'
loop_
_space_group_symop_operation_xyz
x,y,z
-x,1/2+y,1/2-z
-x,-y,-z
x,1/2-y,1/2+z
loop_
_atom_site_type_symbol
_atom_site_label
_atom_site_fract_x
_atom_site_fract_y
_atom_site_fract_z
Si Si1 0.123060 0.220176 0.793830
Si Si2 0.827896 0.473856 0.150433
Si Si3 0.892616 0.095738 0.247016
Si Si4 0.684575 0.186516 0.478270
Si Si5 0.828619 0.396707 0.438187
Si Si6 0.312598 0.152280 0.516430
O O1 0.221070 0.169166 0.665950
O O2 0.243430 0.267381 0.906948
O O3 0.015514 0.311359 0.735830
O O4 0.995328 0.149839 0.874609
O O5 0.809389 0.365079 0.085949
O O6 0.767997 0.467444 0.314480
O O7 0.725663 0.547801 0.055982
O O8 0.008021 0.518103 0.160436
O O9 0.733722 0.135078 0.329364
O O10 0.855595 0.057604 0.091473
O O11 0.715047 0.301923 0.463674
O O12 0.504093 0.164274 0.529386
#
# Coordination Sequence:
#
# PCOD9248189 Si02
#       6
#     4   4   4   4   4   4
#     4  10  22  41  68  95 132 174 215 267 328 390
#     4  11  25  43  67  96 133 175 224 270 321 394
#     4  10  22  42  65  99 126 172 223 268 320 388
#     4  11  24  42  68  97 134 173 219 270 334 388
#     4  11  23  42  68  98 130 174 224 271 320 392
#     4  11  25  43  67  99 134 174 217 270 335 388
#
# _framework density 22.71208
#
# number of rings (size 3 to 8) (size 9 to 14) (size 15 to 20)
#    0.000    1.333    1.667    3.500   11.667    0.000 
#    0.000    0.833    0.000    0.000    0.000    0.000 
#    0.000    0.000    0.000    0.000    0.000    0.000 
#
# Total GULP energy -134383.886040 kJ/mol
# GULP energy per Si atom -5599.328585 kJ/mol
# Density = 2.266039 g / cm^3
# Si number density = 22.712080 Si / 1000 Ang^3
#
#
#
# Elastic Constant Matrix: (Units=GPa)
#
#
# Indices 1 2 3 4 5 6 
#
# 1 83.1213 29.1071 28.3896 0.0000 -28.2174 0.0000
# 2 29.1071 66.7604 8.7249 0.0000 -0.7423 0.0000
# 3 28.3896 8.7249 131.3453 0.0000 -4.6480 0.0000
# 4 0.0000 0.0000 0.0000 47.0518 0.0000 4.6277
# 5 -28.2174 -0.7423 -4.6480 0.0000 27.1693 0.0000
# 6 0.0000 0.0000 0.0000 4.6277 0.0000 21.8098
#
#
#
# Elastic Compliance Matrix: (Units=1/GPa)
#
#
# Indices 1 2 3 4 5 6 
#
# 1 0.025825 -0.010453 -0.003973 0.000000 0.025856 0.000000
# 2 -0.010453 0.019343 0.000613 0.000000 -0.010223 0.000000
# 3 -0.003973 0.000613 0.008337 0.000000 -0.002683 0.000000
# 4 0.000000 0.000000 0.000000 0.021706 0.000000 -0.004606
# 5 0.025856 -0.010223 -0.002683 0.000000 0.062922 0.000000
# 6 0.000000 0.000000 0.000000 -0.004606 0.000000 0.046828
#
#
# Mechanical properties :
#
#
# Convention : Reuss Voigt Hill
#
# Bulk Modulus (GPa) = 38.64194 45.96339 42.30266
# Shear Modulus (GPa) = 22.60267 33.53988 28.07128
#
# Velocity S-wave (km/s) = 3.15807 3.84701 3.51944
# Velocity P-wave (km/s) = 5.50896 6.32566 5.93139
#
# Compressibility (1/GPa) = 0.02587862
#
# Stress axis : x y z
#
# Youngs Moduli (GPa) = 38.72162 51.69925 119.95378
#
# Poissons Ratio (x) = 0.54041 0.47654
# Poissons Ratio (y) = 0.40476 -0.07350
# Poissons Ratio (z) = 0.15383 -0.03168
#
# Static dielectric constant tensor:
#      x y z
#    x 1.787790 0.000000 0.022410 
#    y 0.000000 1.889760 0.000000 
#    z 0.022410 0.000000 1.872180 
# 
# From -- ./inp_files/8454.got.cif
#   From: 2010.05.17/outbox.cif.g08.bks.cpg/sg14_5_cif.got.tgz:8454.got - 2010.06.03 17:49:19.
