data_PCOD9248710
_publ_section_title
;
Structure prediction by ZEFSAII (Michael W. Deem and Ramdas Pophale) SiO2 
 PCOD9248710
Probable space group: P 21/C
;
_chemical_formula_sum "Si O2"
_cell_formula_units_Z 20
_cell_length_a 8.285878
_cell_length_b 11.010029
_cell_length_c 8.943819
_cell_angle_alpha 90.000000
_cell_angle_beta 83.890238
_cell_angle_gamma 90.000000
_cell_volume 811.289952
_symmetry_space_group_name_H-M "P 21/C"
_symmetry_group_IT_number 14
_symmetry_cell_setting 'monoclinic'
loop_
_space_group_symop_operation_xyz
x,y,z
-x,1/2+y,1/2-z
-x,-y,-z
x,1/2-y,1/2+z
loop_
_atom_site_type_symbol
_atom_site_label
_atom_site_fract_x
_atom_site_fract_y
_atom_site_fract_z
Si Si1 0.248969 0.691955 0.006711
Si Si2 0.395923 0.898060 0.177794
Si Si3 0.918750 0.523719 0.346670
Si Si4 0.936698 0.799897 0.364500
Si Si5 0.645239 0.961439 0.372441
O O1 0.364602 0.795677 0.059173
O O2 0.250442 0.583254 0.125876
O O3 0.323118 0.655165 0.839841
O O4 0.062635 0.718340 0.987825
O O5 0.275899 0.004021 0.139021
O O6 0.572929 0.937482 0.215539
O O7 0.934536 0.664448 0.299143
O O8 0.000000 0.500000 0.500000
O O9 0.990565 0.413307 0.238341
O O10 0.755771 0.849769 0.416659
O O11 0.500000 0.000000 0.500000
#
# Coordination Sequence:
#
# PCOD9248710 Si02
#       5
#     4   4   4   4   4
#     4  10  22  43  70  97 142 189 242 304 363 439
#     4  10  23  44  66 101 144 184 246 303 369 430
#     4  11  25  45  72 111 143 194 255 306 365 446
#     4  11  25  45  76 104 149 194 251 306 370 444
#     4  10  24  44  71 102 143 197 239 300 379 441
#
# _framework density 24.652097999999999
#
# number of rings (size 3 to 8) (size 9 to 14) (size 15 to 20)
#    0.000    1.600    2.000    0.600    8.400    4.800 
#    3.600    2.000    0.000    0.000    0.000    0.000 
#    0.000    0.000    0.000    0.000    0.000    0.000 
#
# Total GULP energy -111635.190050 kJ/mol
# GULP energy per Si atom -5581.759502 kJ/mol
# Density = 2.459599 g / cm^3
# Si number density = 24.652098 Si / 1000 Ang^3
#
#
#
# Elastic Constant Matrix: (Units=GPa)
#
#
# Indices 1 2 3 4 5 6 
#
# 1 47.2550 9.6791 16.5364 0.0000 13.6457 0.0000
# 2 9.6791 162.9115 14.0670 0.0000 -6.4152 0.0000
# 3 16.5364 14.0670 71.1870 0.0000 16.1562 0.0000
# 4 0.0000 0.0000 0.0000 43.0618 0.0000 19.2370
# 5 13.6457 -6.4152 16.1562 0.0000 40.1713 0.0000
# 6 0.0000 0.0000 0.0000 19.2370 0.0000 35.4798
#
#
#
# Elastic Compliance Matrix: (Units=1/GPa)
#
#
# Indices 1 2 3 4 5 6 
#
# 1 0.024865 -0.001422 -0.003881 0.000000 -0.007113 0.000000
# 2 -0.001422 0.006426 -0.001411 0.000000 0.002077 0.000000
# 3 -0.003881 -0.001411 0.016484 0.000000 -0.005537 0.000000
# 4 0.000000 0.000000 0.000000 0.030645 0.000000 -0.016616
# 5 -0.007113 0.002077 -0.005537 0.000000 0.029868 0.000000
# 6 0.000000 0.000000 0.000000 -0.016616 0.000000 0.037194
#
#
# Mechanical properties :
#
#
# Convention : Reuss Voigt Hill
#
# Bulk Modulus (GPa) = 29.11370 40.21317 34.66344
# Shear Modulus (GPa) = 29.34960 39.81398 34.58179
#
# Velocity S-wave (km/s) = 3.45418 4.02311 3.74945
# Velocity P-wave (km/s) = 5.26725 6.15859 5.73028
#
# Compressibility (1/GPa) = 0.03434809
#
# Stress axis : x y z
#
# Youngs Moduli (GPa) = 40.21711 155.60785 60.66350
#
# Poissons Ratio (x) = 0.22132 0.23542
# Poissons Ratio (y) = 0.05720 0.08559
# Poissons Ratio (z) = 0.15607 0.21954
#
# Static dielectric constant tensor:
#      x y z
#    x 2.180690 0.000000 -0.054290 
#    y 0.000000 1.976770 0.000000 
#    z -0.054290 0.000000 1.956990 
# 
# From -- ./inp_files/23521.got.cif
#   From: 2010.05.17/outbox.cif.g08.bks.cpg/sg14_12_cif.got.tgz:23521.got - 2010.06.03 17:49:19.
