data_PCOD9248151
_publ_section_title
;
Structure prediction by ZEFSAII (Michael W. Deem and Ramdas Pophale) SiO2 
 PCOD9248151
Probable space group: P 21/C
;
_chemical_formula_sum "Si O2"
_cell_formula_units_Z 28
_cell_length_a 7.478775
_cell_length_b 13.110017
_cell_length_c 18.763188
_cell_angle_alpha 90.000000
_cell_angle_beta 138.333092
_cell_angle_gamma 90.000000
_cell_volume 1223.011999
_symmetry_space_group_name_H-M "P 21/C"
_symmetry_group_IT_number 14
_symmetry_cell_setting 'monoclinic'
loop_
_space_group_symop_operation_xyz
x,y,z
-x,1/2+y,1/2-z
-x,-y,-z
x,1/2-y,1/2+z
loop_
_atom_site_type_symbol
_atom_site_label
_atom_site_fract_x
_atom_site_fract_y
_atom_site_fract_z
Si Si1 0.663134 0.920938 0.445330
Si Si2 0.078058 0.262634 0.733784
Si Si3 0.509498 0.298644 0.596883
Si Si4 0.607279 0.511566 0.354570
Si Si5 0.871095 0.997132 0.787048
Si Si6 0.940144 0.572051 0.874691
Si Si7 0.579912 0.883852 0.081289
O O1 0.640954 0.805614 0.464949
O O2 0.838558 0.911538 0.425050
O O3 0.372042 0.960792 0.333896
O O4 0.803229 0.998948 0.541174
O O5 0.129856 0.375209 0.720648
O O6 0.017486 0.177950 0.654636
O O7 0.330644 0.218542 0.851778
O O8 0.816859 0.270631 0.706709
O O9 0.380261 0.370976 0.617811
O O10 0.523473 0.360644 0.527569
O O11 0.799298 0.479439 0.347779
O O12 0.304024 0.487397 0.236784
O O13 0.630711 0.442491 0.431849
O O14 0.147043 0.049809 0.845392
#
# Coordination Sequence:
#
# PCOD9248151 Si02
#       7
#     4   4   4   4   4   4   4
#     4  10  22  41  66  95 125 169 215 261 321 376
#     4  11  24  41  65  94 129 165 215 264 319 375
#     4  12  24  39  66  95 130 167 215 262 320 380
#     4  10  23  44  66  91 134 166 214 265 311 382
#     4  11  23  44  69  91 128 174 211 262 323 371
#     4   9  22  43  63  95 130 164 215 267 313 382
#     4  11  25  44  61  96 131 166 214 267 314 383
#
# _framework density 22.894296000000001
#
# number of rings (size 3 to 8) (size 9 to 14) (size 15 to 20)
#    0.000    1.429    2.857    1.286    4.000    1.143 
#    2.571    0.000    0.000    0.000    0.000    0.000 
#    0.000    0.000    0.000    0.000    0.000    0.000 
#
# Total GULP energy -156722.127011 kJ/mol
# GULP energy per Si atom -5597.218822 kJ/mol
# Density = 2.284219 g / cm^3
# Si number density = 22.894296 Si / 1000 Ang^3
#
#
#
# Elastic Constant Matrix: (Units=GPa)
#
#
# Indices 1 2 3 4 5 6 
#
# 1 75.4456 22.8038 15.8960 0.0000 -11.2920 0.0000
# 2 22.8038 105.0709 5.5864 0.0000 -4.5617 0.0000
# 3 15.8960 5.5864 47.8940 0.0000 0.7752 0.0000
# 4 0.0000 0.0000 0.0000 24.9228 0.0000 -2.9901
# 5 -11.2920 -4.5617 0.7752 0.0000 31.6087 0.0000
# 6 0.0000 0.0000 0.0000 -2.9901 0.0000 32.0176
#
#
#
# Elastic Compliance Matrix: (Units=1/GPa)
#
#
# Indices 1 2 3 4 5 6 
#
# 1 0.016032 -0.002975 -0.005062 0.000000 0.005422 0.000000
# 2 -0.002975 0.010192 -0.000208 0.000000 0.000413 0.000000
# 3 -0.005062 -0.000208 0.022622 0.000000 -0.002393 0.000000
# 4 0.000000 0.000000 0.000000 0.040579 0.000000 0.003790
# 5 0.005422 0.000413 -0.002393 0.000000 0.033692 0.000000
# 6 0.000000 0.000000 0.000000 0.003790 0.000000 0.031587
#
#
# Mechanical properties :
#
#
# Convention : Reuss Voigt Hill
#
# Bulk Modulus (GPa) = 30.90541 35.22032 33.06286
# Shear Modulus (GPa) = 27.47573 29.98476 28.73024
#
# Velocity S-wave (km/s) = 3.46802 3.62291 3.54631
# Velocity P-wave (km/s) = 5.43734 5.73741 5.58939
#
# Compressibility (1/GPa) = 0.03235679
#
# Stress axis : x y z
#
# Youngs Moduli (GPa) = 62.37626 98.11580 44.20389
#
# Poissons Ratio (x) = 0.29188 0.22375
# Poissons Ratio (y) = 0.18556 0.00920
# Poissons Ratio (z) = 0.31573 0.02042
#
# Static dielectric constant tensor:
#      x y z
#    x 1.837760 0.000000 0.007700 
#    y 0.000000 1.842540 0.000000 
#    z 0.007700 0.000000 1.853760 
# 
# From -- ./inp_files/65629.got.cif
#   From: 2010.05.17/outbox.cif.g08.bks.cpg/sg14_33_cif.got.tgz:65629.got - 2010.06.03 17:49:19.
