data_PCOD9248290
_publ_section_title
;
Structure prediction by ZEFSAII (Michael W. Deem and Ramdas Pophale) SiO2 
 PCOD9248290
Probable space group: P 21/C
;
_chemical_formula_sum "Si O2"
_cell_formula_units_Z 28
_cell_length_a 19.490647
_cell_length_b 7.914025
_cell_length_c 8.966379
_cell_angle_alpha 90.000000
_cell_angle_beta 128.948284
_cell_angle_gamma 90.000000
_cell_volume 1075.624048
_symmetry_space_group_name_H-M "P 21/C"
_symmetry_group_IT_number 14
_symmetry_cell_setting 'monoclinic'
loop_
_space_group_symop_operation_xyz
x,y,z
-x,1/2+y,1/2-z
-x,-y,-z
x,1/2-y,1/2+z
loop_
_atom_site_type_symbol
_atom_site_label
_atom_site_fract_x
_atom_site_fract_y
_atom_site_fract_z
Si Si1 0.520728 0.075399 0.689499
Si Si2 0.805172 0.733901 0.330824
Si Si3 0.902454 0.385738 0.435462
Si Si4 0.992503 0.642704 0.117874
Si Si5 0.626102 0.405475 0.866845
Si Si6 0.294806 0.069159 0.055632
Si Si7 0.733341 0.247777 0.290259
O O1 0.433652 0.062731 0.670683
O O2 0.605633 0.966661 0.858967
O O3 0.500000 0.000000 0.500000
O O4 0.555777 0.263646 0.722477
O O5 0.845026 0.553958 0.325481
O O6 0.724488 0.686549 0.328557
O O7 0.890893 0.820999 0.519993
O O8 0.767461 0.852756 0.152644
O O9 0.967519 0.314913 0.399379
O O10 0.952301 0.402996 0.660780
O O11 0.830318 0.236719 0.359013
O O12 0.000000 0.500000 0.000000
O O13 0.693322 0.412553 0.821023
O O14 0.671553 0.330411 0.078697
O O15 0.262652 0.886978 0.072044
#
# Coordination Sequence:
#
# PCOD9248290 Si02
#       7
#     4   4   4   4   4   4   4
#     4  11  24  45  69 101 139 177 224 288 343 415
#     4  11  24  44  69  99 134 181 229 280 343 408
#     4  11  24  43  69  97 137 180 236 275 340 403
#     4  12  24  43  69 101 142 182 224 287 338 405
#     4  11  22  42  70  94 141 171 225 277 347 404
#     4  10  23  42  66  95 137 171 227 283 341 406
#     4  10  22  42  63  99 132 176 219 288 329 408
#
# _framework density 26.031400000000001
#
# number of rings (size 3 to 8) (size 9 to 14) (size 15 to 20)
#    0.000    1.143    2.857    4.714    2.000    2.857 
#    0.000    7.143    0.000    0.000    0.000    0.000 
#    0.000    0.000    0.000    0.000    0.000    0.000 
#
# Total GULP energy -156884.476735 kJ/mol
# GULP energy per Si atom -5603.017026 kJ/mol
# Density = 2.597215 g / cm^3
# Si number density = 26.031400 Si / 1000 Ang^3
#
#
#
# Elastic Constant Matrix: (Units=GPa)
#
#
# Indices 1 2 3 4 5 6 
#
# 1 99.9610 -7.4544 6.7020 0.0000 9.9050 0.0000
# 2 -7.4544 79.6809 18.9602 0.0000 -11.5843 0.0000
# 3 6.7020 18.9602 108.7909 0.0000 -6.5484 0.0000
# 4 0.0000 0.0000 0.0000 42.6799 0.0000 2.7958
# 5 9.9050 -11.5843 -6.5484 0.0000 27.8844 0.0000
# 6 0.0000 0.0000 0.0000 2.7958 0.0000 41.4169
#
#
#
# Elastic Compliance Matrix: (Units=1/GPa)
#
#
# Indices 1 2 3 4 5 6 
#
# 1 0.010485 0.000681 -0.000986 0.000000 -0.003673 0.000000
# 2 0.000681 0.013855 -0.002155 0.000000 0.005008 0.000000
# 3 -0.000986 -0.002155 0.009733 0.000000 0.001741 0.000000
# 4 0.000000 0.000000 0.000000 0.023534 0.000000 -0.001589
# 5 -0.003673 0.005008 0.001741 0.000000 0.039656 0.000000
# 6 0.000000 0.000000 0.000000 -0.001589 0.000000 0.024252
#
#
# Mechanical properties :
#
#
# Convention : Reuss Voigt Hill
#
# Bulk Modulus (GPa) = 34.30111 36.09427 35.19769
# Shear Modulus (GPa) = 36.72378 40.41124 38.56751
#
# Velocity S-wave (km/s) = 3.76007 3.94433 3.85330
# Velocity P-wave (km/s) = 5.66182 5.88553 5.77476
#
# Compressibility (1/GPa) = 0.02915357
#
# Stress axis : x y z
#
# Youngs Moduli (GPa) = 95.37674 72.17789 102.74275
#
# Poissons Ratio (x) = -0.04919 0.10128
# Poissons Ratio (y) = -0.06500 0.22143
# Poissons Ratio (z) = 0.09402 0.15556
#
# Static dielectric constant tensor:
#      x y z
#    x 2.116870 0.000000 0.013830 
#    y 0.000000 2.197160 0.000000 
#    z 0.013830 0.000000 1.993240 
# 
# From -- ./inp_files/18693.got.cif
#   From: 2010.05.17/outbox.cif.g08.bks.cpg/sg14_10_cif.got.tgz:18693.got - 2010.06.03 17:49:19.
