data_PCOD9248341
_publ_section_title
;
Structure prediction by ZEFSAII (Michael W. Deem and Ramdas Pophale) SiO2 
 PCOD9248341
Probable space group: P 21/C
;
_chemical_formula_sum "Si O2"
_cell_formula_units_Z 32
_cell_length_a 21.490223
_cell_length_b 5.383408
_cell_length_c 26.823154
_cell_angle_alpha 90.000000
_cell_angle_beta 24.256120
_cell_angle_gamma 90.000000
_cell_volume 1274.839946
_symmetry_space_group_name_H-M "P 21/C"
_symmetry_group_IT_number 14
_symmetry_cell_setting 'monoclinic'
loop_
_space_group_symop_operation_xyz
x,y,z
-x,1/2+y,1/2-z
-x,-y,-z
x,1/2-y,1/2+z
loop_
_atom_site_type_symbol
_atom_site_label
_atom_site_fract_x
_atom_site_fract_y
_atom_site_fract_z
Si Si1 0.687961 0.078370 0.908575
Si Si2 0.243853 0.312750 0.062489
Si Si3 0.288123 0.508501 0.355408
Si Si4 0.245576 0.893139 0.249954
Si Si5 0.032412 0.596761 0.284089
Si Si6 0.532613 0.681778 0.347850
Si Si7 0.573018 0.693038 0.651648
Si Si8 0.056424 0.392449 0.374557
O O1 0.864543 0.164451 0.778888
O O2 0.687535 0.820431 0.939090
O O3 0.656443 0.090829 0.873023
O O4 0.576974 0.244812 0.024829
O O5 0.121111 0.501855 0.171281
O O6 0.139062 0.129562 0.106224
O O7 0.365124 0.394571 0.933474
O O8 0.351540 0.380034 0.259341
O O9 0.322871 0.321122 0.376039
O O10 0.401083 0.730969 0.288378
O O11 0.113137 0.578781 0.480583
O O12 0.360591 0.956607 0.209965
O O13 0.130290 0.127633 0.332862
O O14 0.158767 0.630869 0.315634
O O15 0.044750 0.421758 0.323038
O O16 0.436217 0.557283 0.374088
#
# Coordination Sequence:
#
# PCOD9248341 Si02
#       8
#     4   4   4   4   4   4   4   4
#     4  10  22  42  66 101 136 180 237 293 360 424
#     4  11  20  36  63  96 138 175 231 288 360 426
#     4  12  25  46  70  99 145 188 244 296 359 433
#     4  11  26  50  73 106 143 187 247 296 359 428
#     4  11  20  37  63 101 136 179 227 295 358 422
#     4  11  26  46  71 100 139 193 238 296 361 428
#     4  11  25  43  65 102 136 183 235 296 358 423
#     4  11  27  46  75 103 143 193 237 300 356 423
#
# _framework density 25.101191
#
# number of rings (size 3 to 8) (size 9 to 14) (size 15 to 20)
#    0.000    1.000    5.000    1.125    3.500    1.000 
#    2.250    1.875    0.000    0.000    0.000    0.000 
#    0.000    0.000    0.000    0.000    0.000    0.000 
#
# Total GULP energy -178910.525160 kJ/mol
# GULP energy per Si atom -5590.953911 kJ/mol
# Density = 2.504406 g / cm^3
# Si number density = 25.101191 Si / 1000 Ang^3
#
#
#
# Elastic Constant Matrix: (Units=GPa)
#
#
# Indices 1 2 3 4 5 6 
#
# 1 92.9898 11.5667 22.8006 0.0000 8.0867 0.0000
# 2 11.5667 71.8796 30.1073 0.0000 6.2609 0.0000
# 3 22.8006 30.1073 167.7347 0.0000 -3.0491 0.0000
# 4 0.0000 0.0000 0.0000 37.9007 0.0000 -1.2222
# 5 8.0867 6.2609 -3.0491 0.0000 28.5556 0.0000
# 6 0.0000 0.0000 0.0000 -1.2222 0.0000 30.0932
#
#
#
# Elastic Compliance Matrix: (Units=1/GPa)
#
#
# Indices 1 2 3 4 5 6 
#
# 1 0.011508 -0.000966 -0.001449 0.000000 -0.003202 0.000000
# 2 -0.000966 0.015501 -0.002713 0.000000 -0.003415 0.000000
# 3 -0.001449 -0.002713 0.006677 0.000000 0.001718 0.000000
# 4 0.000000 0.000000 0.000000 0.026419 0.000000 0.001073
# 5 -0.003202 -0.003415 0.001718 0.000000 0.036858 0.000000
# 6 0.000000 0.000000 0.000000 0.001073 0.000000 0.033274
#
#
# Mechanical properties :
#
#
# Convention : Reuss Voigt Hill
#
# Bulk Modulus (GPa) = 42.68075 51.28371 46.98223
# Shear Modulus (GPa) = 33.71453 37.18521 35.44987
#
# Velocity S-wave (km/s) = 3.66887 3.85309 3.76211
# Velocity P-wave (km/s) = 5.91505 6.34588 6.13425
#
# Compressibility (1/GPa) = 0.02342977
#
# Stress axis : x y z
#
# Youngs Moduli (GPa) = 86.89780 64.51002 149.76773
#
# Poissons Ratio (x) = 0.06231 0.21703
# Poissons Ratio (y) = 0.08394 0.40635
# Poissons Ratio (z) = 0.12592 0.17503
#
# Static dielectric constant tensor:
#      x y z
#    x 2.049130 0.000000 0.000440 
#    y 0.000000 2.066450 0.000000 
#    z 0.000440 0.000000 2.007080 
# 
# From -- ./inp_files/37839.got.cif
#   From: 2010.05.17/outbox.cif.g08.bks.cpg/sg14_19_cif.got.tgz:37839.got - 2010.06.03 17:49:19.
