data_PCOD9248767
_publ_section_title
;
Structure prediction by ZEFSAII (Michael W. Deem and Ramdas Pophale) SiO2 
 PCOD9248767
Probable space group: P 21/C
;
_chemical_formula_sum "Si O2"
_cell_formula_units_Z 28
_cell_length_a 5.736896
_cell_length_b 30.560545
_cell_length_c 7.520535
_cell_angle_alpha 90.000000
_cell_angle_beta 61.726922
_cell_angle_gamma 90.000000
_cell_volume 1161.220822
_symmetry_space_group_name_H-M "P 21/C"
_symmetry_group_IT_number 14
_symmetry_cell_setting 'monoclinic'
loop_
_space_group_symop_operation_xyz
x,y,z
-x,1/2+y,1/2-z
-x,-y,-z
x,1/2-y,1/2+z
loop_
_atom_site_type_symbol
_atom_site_label
_atom_site_fract_x
_atom_site_fract_y
_atom_site_fract_z
Si Si1 0.736340 0.188410 0.044905
Si Si2 0.950509 0.941648 0.687861
Si Si3 0.604470 0.097021 0.986058
Si Si4 0.732700 0.811762 0.371696
Si Si5 0.499015 0.754878 0.163060
Si Si6 0.909321 0.963237 0.282749
Si Si7 0.538021 0.398182 0.101712
O O1 0.737222 0.219898 0.215519
O O2 0.658705 0.138240 0.092713
O O3 0.527441 0.212523 0.991941
O O4 0.003091 0.188821 0.836811
O O5 0.916665 0.953924 0.492100
O O6 0.188660 0.906915 0.597484
O O7 0.046134 0.985283 0.754644
O O8 0.673611 0.924780 0.863297
O O9 0.850199 0.063473 0.894140
O O10 0.589548 0.114659 0.787996
O O11 0.524150 0.787375 0.319016
O O12 0.735036 0.780206 0.541653
O O13 0.640376 0.861412 0.427365
O O14 0.629618 0.943261 0.323931
#
# Coordination Sequence:
#
# PCOD9248767 Si02
#       7
#     4   4   4   4   4   4   4
#     4  11  22  41  61  89 121 157 203 246 304 359
#     4  10  24  41  64  93 122 163 207 249 311 370
#     4  11  23  39  63  93 125 158 204 255 298 368
#     4  11  22  42  62  90 123 160 202 251 305 357
#     4  10  24  40  61  89 118 161 201 252 300 361
#     4  10  22  44  64  88 125 164 204 255 308 361
#     4  11  23  39  63  92 128 158 201 257 299 364
#
# _framework density 24.112556000000001
#
# number of rings (size 3 to 8) (size 9 to 14) (size 15 to 20)
#    0.000    1.429    2.857    1.714    2.000    2.857 
#   10.286    0.000    0.000    0.000    0.000    0.000 
#    0.000    0.000    0.000    0.000    0.000    0.000 
#
# Total GULP energy -156543.327379 kJ/mol
# GULP energy per Si atom -5590.833121 kJ/mol
# Density = 2.405767 g / cm^3
# Si number density = 24.112556 Si / 1000 Ang^3
#
#
#
# Elastic Constant Matrix: (Units=GPa)
#
#
# Indices 1 2 3 4 5 6 
#
# 1 24.3173 -8.0141 18.5617 0.0000 -4.8788 0.0000
# 2 -8.0141 86.1025 39.9058 0.0000 6.9528 0.0000
# 3 18.5617 39.9058 110.3111 0.0000 -13.8153 0.0000
# 4 0.0000 0.0000 0.0000 -2.0028 0.0000 -53.0229
# 5 -4.8788 6.9528 -13.8153 0.0000 33.1498 0.0000
# 6 0.0000 0.0000 0.0000 -53.0229 0.0000 -22.5976
#
#
#
# Elastic Compliance Matrix: (Units=1/GPa)
#
#
# Indices 1 2 3 4 5 6 
#
# 1 0.055046 0.011283 -0.013321 0.000000 0.000183 0.000000
# 2 0.011283 0.017211 -0.008830 0.000000 -0.005629 0.000000
# 3 -0.013321 -0.008830 0.015285 0.000000 0.006262 0.000000
# 4 0.000000 0.000000 0.000000 0.008169 0.000000 -0.019168
# 5 0.000183 -0.005629 0.006262 0.000000 0.033983 0.000000
# 6 0.000000 0.000000 0.000000 -0.019168 0.000000 0.000724
#
#
# Mechanical properties :
#
#
# Convention : Reuss Voigt Hill
#
# Bulk Modulus (GPa) = 15.19616 35.73751 25.46684
# Shear Modulus (GPa) = 28.72068 13.06173 20.89120
#
# Velocity S-wave (km/s) = 3.45499 2.32997 2.94667
# Velocity P-wave (km/s) = 4.71506 4.70017 4.70762
#
# Compressibility (1/GPa) = 0.06580610
#
# Stress axis : x y z
#
# Youngs Moduli (GPa) = 18.16657 58.10217 65.42292
#
# Poissons Ratio (x) = -0.65554 0.87150
# Poissons Ratio (y) = -0.20497 0.57766
# Poissons Ratio (z) = 0.24200 0.51302
#
# Static dielectric constant tensor:
#      x y z
#    x 1.960680 0.000000 0.052840 
#    y 0.000000 1.869090 0.000000 
#    z 0.052840 0.000000 1.997330 
# 
# From -- ./inp_files/6718.got.cif
#   From: 2010.05.17/outbox.cif.g08.bks.cpg/sg14_4_cif.got.tgz:6718.got - 2010.06.03 17:49:19.
