data_PCOD9248709
_publ_section_title
;
Structure prediction by ZEFSAII (Michael W. Deem and Ramdas Pophale) SiO2 
 PCOD9248709
Probable space group: P 21/C
;
_chemical_formula_sum "Si O2"
_cell_formula_units_Z 26
_cell_length_a 13.216034
_cell_length_b 5.064747
_cell_length_c 15.016844
_cell_angle_alpha 90.000000
_cell_angle_beta 86.137123
_cell_angle_gamma 90.000000
_cell_volume 1002.881899
_symmetry_space_group_name_H-M "P 21/C"
_symmetry_group_IT_number 14
_symmetry_cell_setting 'monoclinic'
loop_
_space_group_symop_operation_xyz
x,y,z
-x,1/2+y,1/2-z
-x,-y,-z
x,1/2-y,1/2+z
loop_
_atom_site_type_symbol
_atom_site_label
_atom_site_fract_x
_atom_site_fract_y
_atom_site_fract_z
Si Si1 0.000000 0.500000 0.000000
Si Si2 0.443589 0.747501 0.045013
Si Si3 0.877335 0.283180 0.656979
Si Si4 0.249872 0.283808 0.859886
Si Si5 0.339409 0.033075 0.691780
Si Si6 0.728580 0.916380 0.948138
Si Si7 0.124911 0.747437 0.154071
O O1 0.061926 0.593927 0.085751
O O2 0.936115 0.290561 0.065211
O O3 0.328320 0.813096 0.021852
O O4 0.500000 0.500000 0.000000
O O5 0.425300 0.666849 0.150414
O O6 0.500000 0.000000 0.000000
O O7 0.845901 0.589002 0.650758
O O8 0.929179 0.220408 0.748048
O O9 0.780313 0.080776 0.662241
O O10 0.335075 0.154880 0.790902
O O11 0.267224 0.253724 0.963522
O O12 0.338606 0.277680 0.623279
O O13 0.229374 0.900684 0.678094
O O14 0.834398 0.986480 0.895595
#
# Coordination Sequence:
#
# PCOD9248709 Si02
#       7
#     2   4   4   4   4   4   4
#     4  12  24  46  70 104 150 188 248 312 382 422
#     4  11  23  41  70 102 139 179 221 287 356 421
#     4  11  25  44  66 101 142 186 244 303 363 425
#     4  11  24  43  71  99 136 187 242 289 352 433
#     4  10  22  43  70  97 139 184 236 284 357 430
#     4  11  21  43  73  99 137 189 238 282 357 437
#     4  10  23  43  67 102 137 193 240 300 357 434
#
# _framework density 25.925283
#
# number of rings (size 3 to 8) (size 9 to 14) (size 15 to 20)
#    0.000    1.231    4.615    0.923    2.154    3.077 
#    5.538    1.538    0.000    0.000    0.000    0.000 
#    0.000    0.000    0.000    0.000    0.000    0.000 
#
# Total GULP energy -144820.326791 kJ/mol
# GULP energy per Si atom -5570.012569 kJ/mol
# Density = 2.586628 g / cm^3
# Si number density = 25.925283 Si / 1000 Ang^3
#
#
#
# Elastic Constant Matrix: (Units=GPa)
#
#
# Indices 1 2 3 4 5 6 
#
# 1 22.7425 15.5742 12.3578 0.0000 -3.8758 0.0000
# 2 15.5742 113.5050 8.4613 0.0000 2.9962 0.0000
# 3 12.3578 8.4613 144.5023 0.0000 10.2057 0.0000
# 4 0.0000 0.0000 0.0000 22.2523 0.0000 -3.3953
# 5 -3.8758 2.9962 10.2057 0.0000 25.3366 0.0000
# 6 0.0000 0.0000 0.0000 -3.3953 0.0000 48.5813
#
#
#
# Elastic Compliance Matrix: (Units=1/GPa)
#
#
# Indices 1 2 3 4 5 6 
#
# 1 0.053504 -0.007265 -0.004929 0.000000 0.011029 0.000000
# 2 -0.007265 0.009854 0.000211 0.000000 -0.002362 0.000000
# 3 -0.004929 0.000211 0.007601 0.000000 -0.003841 0.000000
# 4 0.000000 0.000000 0.000000 0.045424 0.000000 0.003175
# 5 0.011029 -0.002362 -0.003841 0.000000 0.042982 0.000000
# 6 0.000000 0.000000 0.000000 0.003175 0.000000 0.020806
#
#
# Mechanical properties :
#
#
# Convention : Reuss Voigt Hill
#
# Bulk Modulus (GPa) = 21.28029 39.28183 30.28106
# Shear Modulus (GPa) = 22.74801 35.52449 29.13625
#
# Velocity S-wave (km/s) = 2.96538 3.70572 3.35603
# Velocity P-wave (km/s) = 4.46663 5.78746 5.16940
#
# Compressibility (1/GPa) = 0.04699184
#
# Stress axis : x y z
#
# Youngs Moduli (GPa) = 18.69034 101.48550 131.56631
#
# Poissons Ratio (x) = 0.73729 0.64851
# Poissons Ratio (y) = 0.13579 -0.02778
# Poissons Ratio (z) = 0.09213 -0.02143
#
# Static dielectric constant tensor:
#      x y z
#    x 2.168650 0.000000 -0.063680 
#    y 0.000000 2.031560 0.000000 
#    z -0.063680 0.000000 2.081580 
# 
# From -- ./inp_files/45852.got.cif
#   From: 2010.05.17/outbox.cif.g08.bks.cpg/sg14_23_cif.got.tgz:45852.got - 2010.06.03 17:49:19.
