data_PCOD9248676
_publ_section_title
;
Structure prediction by ZEFSAII (Michael W. Deem and Ramdas Pophale) SiO2 
 PCOD9248676
Probable space group: P 21/C
;
_chemical_formula_sum "Si O2"
_cell_formula_units_Z 28
_cell_length_a 6.919343
_cell_length_b 17.213774
_cell_length_c 10.223565
_cell_angle_alpha 90.000000
_cell_angle_beta 110.942519
_cell_angle_gamma 90.000000
_cell_volume 1137.265998
_symmetry_space_group_name_H-M "P 21/C"
_symmetry_group_IT_number 14
_symmetry_cell_setting 'monoclinic'
loop_
_space_group_symop_operation_xyz
x,y,z
-x,1/2+y,1/2-z
-x,-y,-z
x,1/2-y,1/2+z
loop_
_atom_site_type_symbol
_atom_site_label
_atom_site_fract_x
_atom_site_fract_y
_atom_site_fract_z
Si Si1 0.166578 0.822176 0.589390
Si Si2 0.879678 0.609965 0.827564
Si Si3 0.217562 0.223433 0.405637
Si Si4 0.657564 0.011498 0.918323
Si Si5 0.623322 0.486280 0.897379
Si Si6 0.990272 0.610339 0.577111
Si Si7 0.547002 0.726179 0.769153
O O1 0.297943 0.898942 0.598031
O O2 0.316612 0.754050 0.678798
O O3 0.813298 0.954615 0.415598
O O4 0.976401 0.834558 0.642261
O O5 0.993806 0.578161 0.728008
O O6 0.656006 0.648273 0.738092
O O7 0.026444 0.678337 0.921956
O O8 0.096478 0.303003 0.419623
O O9 0.393384 0.218863 0.562843
O O10 0.320713 0.215949 0.289973
O O11 0.533105 0.002187 0.756715
O O12 0.818023 0.940691 0.965499
O O13 0.795756 0.090155 0.943417
O O14 0.500000 0.000000 0.000000
O O15 0.500000 0.500000 0.000000
#
# Coordination Sequence:
#
# PCOD9248676 Si02
#       7
#     4   4   4   4   4   4   4
#     4  11  25  42  70 101 136 180 228 291 347 411
#     4  10  23  47  69 104 142 184 236 293 356 430
#     4  10  24  43  67  99 133 177 230 285 342 424
#     4  11  23  41  68 102 137 184 231 286 354 420
#     4  12  26  43  73 101 143 189 237 295 355 420
#     4  10  22  43  69 100 140 179 232 289 353 418
#     4  10  24  44  69  99 137 173 231 282 352 417
#
# _framework density 24.620450000000002
#
# number of rings (size 3 to 8) (size 9 to 14) (size 15 to 20)
#    0.000    1.429    1.429    2.143    6.000    4.571 
#    0.000    0.000    0.000    0.000    0.000    0.000 
#    0.000    0.000    0.000    0.000    0.000    0.000 
#
# Total GULP energy -156096.764940 kJ/mol
# GULP energy per Si atom -5574.884462 kJ/mol
# Density = 2.456441 g / cm^3
# Si number density = 24.620450 Si / 1000 Ang^3
#
#
#
# Elastic Constant Matrix: (Units=GPa)
#
#
# Indices 1 2 3 4 5 6 
#
# 1 112.1689 18.8313 58.1327 0.0000 13.1692 0.0000
# 2 18.8313 65.7135 6.8410 0.0000 14.9829 0.0000
# 3 58.1327 6.8410 107.3793 0.0000 8.6038 0.0000
# 4 0.0000 0.0000 0.0000 29.3725 0.0000 6.2727
# 5 13.1692 14.9829 8.6038 0.0000 52.1352 0.0000
# 6 0.0000 0.0000 0.0000 6.2727 0.0000 37.7261
#
#
#
# Elastic Compliance Matrix: (Units=1/GPa)
#
#
# Indices 1 2 3 4 5 6 
#
# 1 0.013048 -0.002715 -0.006779 0.000000 -0.001397 0.000000
# 2 -0.002715 0.016897 0.000737 0.000000 -0.004292 0.000000
# 3 -0.006779 0.000737 0.012987 0.000000 -0.000643 0.000000
# 4 0.000000 0.000000 0.000000 0.035299 0.000000 -0.005869
# 5 -0.001397 -0.004292 -0.000643 0.000000 0.020873 0.000000
# 6 0.000000 0.000000 0.000000 -0.005869 0.000000 0.027483
#
#
# Mechanical properties :
#
#
# Convention : Reuss Voigt Hill
#
# Bulk Modulus (GPa) = 39.34020 50.31906 44.82963
# Shear Modulus (GPa) = 32.77081 37.27722 35.02401
#
# Velocity S-wave (km/s) = 3.65230 3.89533 3.77577
# Velocity P-wave (km/s) = 5.81370 6.38074 6.10380
#
# Compressibility (1/GPa) = 0.02541929
#
# Stress axis : x y z
#
# Youngs Moduli (GPa) = 76.63838 59.18065 76.99781
#
# Poissons Ratio (x) = 0.16067 0.52198
# Poissons Ratio (y) = 0.20807 -0.05676
# Poissons Ratio (z) = 0.51954 -0.04363
#
# Static dielectric constant tensor:
#      x y z
#    x 1.954780 0.000000 -0.020780 
#    y 0.000000 2.182610 0.000000 
#    z -0.020780 0.000000 2.006590 
# 
# From -- ./inp_files/21608.got.cif
#   From: 2010.05.17/outbox.cif.g08.bks.cpg/sg14_11_cif.got.tgz:21608.got - 2010.06.03 17:49:19.
