data_PCOD9248055
_publ_section_title
;
Structure prediction by ZEFSAII (Michael W. Deem and Ramdas Pophale) SiO2 
 PCOD9248055
Probable space group: P 21/C
;
_chemical_formula_sum "Si O2"
_cell_formula_units_Z 28
_cell_length_a 8.720096
_cell_length_b 11.715794
_cell_length_c 17.060830
_cell_angle_alpha 90.000000
_cell_angle_beta 121.979469
_cell_angle_gamma 90.000000
_cell_volume 1478.464282
_symmetry_space_group_name_H-M "P 21/C"
_symmetry_group_IT_number 14
_symmetry_cell_setting 'monoclinic'
loop_
_space_group_symop_operation_xyz
x,y,z
-x,1/2+y,1/2-z
-x,-y,-z
x,1/2-y,1/2+z
loop_
_atom_site_type_symbol
_atom_site_label
_atom_site_fract_x
_atom_site_fract_y
_atom_site_fract_z
Si Si1 0.436791 0.578708 0.411863
Si Si2 0.400280 0.399499 0.263974
Si Si3 0.049280 0.385770 0.060171
Si Si4 0.873086 0.240668 0.649387
Si Si5 0.378024 0.572092 0.827516
Si Si6 0.733456 0.810699 0.681772
Si Si7 0.692003 0.786294 0.486333
O O1 0.500000 0.500000 0.500000
O O2 0.403202 0.499875 0.327967
O O3 0.264058 0.653491 0.390688
O O4 0.590358 0.671299 0.434743
O O5 0.215492 0.410755 0.164141
O O6 0.561973 0.404462 0.245385
O O7 0.393507 0.279182 0.307326
O O8 0.129404 0.301604 0.016441
O O9 0.899056 0.326214 0.074009
O O10 0.000000 0.500000 0.000000
O O11 0.786222 0.150427 0.686704
O O12 0.066491 0.286419 0.730583
O O13 0.328749 0.440150 0.822938
O O14 0.551765 0.611556 0.926499
O O15 0.728987 0.785916 0.588200
#
# Coordination Sequence:
#
# PCOD9248055 Si02
#       7
#     4   4   4   4   4   4   4
#     4  11  23  44  62  89 135 168 211 256 314 397
#     4  10  24  40  64  93 123 175 208 255 323 378
#     4  10  22  43  64  96 128 158 218 269 316 371
#     4  10  25  40  65  97 126 166 212 264 323 371
#     4  10  23  41  64  90 127 161 216 262 314 382
#     4  11  22  40  67  92 128 161 215 267 318 371
#     4  10  22  41  63  93 122 169 212 256 322 378
#
# _framework density 18.938569999999999
#
# number of rings (size 3 to 8) (size 9 to 14) (size 15 to 20)
#    0.000    1.714    1.429    1.286   14.000    3.429 
#    2.571    0.714    0.000    0.000    0.000    0.000 
#    0.000    0.000    0.000    0.000    0.000    0.000 
#
# Total GULP energy -156388.679754 kJ/mol
# GULP energy per Si atom -5585.309991 kJ/mol
# Density = 1.889547 g / cm^3
# Si number density = 18.938570 Si / 1000 Ang^3
#
#
#
# Elastic Constant Matrix: (Units=GPa)
#
#
# Indices 1 2 3 4 5 6 
#
# 1 82.7801 49.4288 15.7148 0.0000 -28.4876 0.0000
# 2 49.4288 145.6247 46.5236 0.0000 -10.9929 0.0000
# 3 15.7148 46.5236 92.9476 0.0000 -27.1808 0.0000
# 4 0.0000 0.0000 0.0000 34.9330 0.0000 -7.4126
# 5 -28.4876 -10.9929 -27.1808 0.0000 23.8847 0.0000
# 6 0.0000 0.0000 0.0000 -7.4126 0.0000 18.1467
#
#
#
# Elastic Compliance Matrix: (Units=1/GPa)
#
#
# Indices 1 2 3 4 5 6 
#
# 1 0.036580 -0.013647 0.017338 0.000000 0.057080 0.000000
# 2 -0.013647 0.013294 -0.010967 0.000000 -0.022638 0.000000
# 3 0.017338 -0.010967 0.026810 0.000000 0.046141 0.000000
# 4 0.000000 0.000000 0.000000 0.031343 0.000000 0.012803
# 5 0.057080 -0.022638 0.046141 0.000000 0.152037 0.000000
# 6 0.000000 0.000000 0.000000 0.012803 0.000000 0.060336
#
#
# Mechanical properties :
#
#
# Convention : Reuss Voigt Hill
#
# Bulk Modulus (GPa) = 16.09459 60.52073 38.30766
# Shear Modulus (GPa) = 14.05828 29.37190 21.71509
#
# Velocity S-wave (km/s) = 2.72749 3.94242 3.38983
# Velocity P-wave (km/s) = 4.29368 7.26287 5.96595
#
# Compressibility (1/GPa) = 0.06213268
#
# Stress axis : x y z
#
# Youngs Moduli (GPa) = 27.33702 75.22364 37.29961
#
# Poissons Ratio (x) = 1.02654 -0.64669
# Poissons Ratio (y) = 0.37306 0.40906
# Poissons Ratio (z) = -0.47396 0.82497
#
# Static dielectric constant tensor:
#      x y z
#    x 1.671540 0.000000 0.002940 
#    y 0.000000 1.637090 0.000000 
#    z 0.002940 0.000000 1.643810 
# 
# From -- ./inp_files/40119.got.cif
#   From: 2010.05.17/outbox.cif.g08.bks.cpg/sg14_21_cif.got.tgz:40119.got - 2010.06.03 17:49:19.
