data_PCOD9248035
_publ_section_title
;
Structure prediction by ZEFSAII (Michael W. Deem and Ramdas Pophale) SiO2 
 PCOD9248035
Probable space group: P 21/C
;
_chemical_formula_sum "Si O2"
_cell_formula_units_Z 32
_cell_length_a 16.232648
_cell_length_b 8.035644
_cell_length_c 24.455503
_cell_angle_alpha 90.000000
_cell_angle_beta 155.474789
_cell_angle_gamma 90.000000
_cell_volume 1324.136312
_symmetry_space_group_name_H-M "P 21/C"
_symmetry_group_IT_number 14
_symmetry_cell_setting 'monoclinic'
loop_
_space_group_symop_operation_xyz
x,y,z
-x,1/2+y,1/2-z
-x,-y,-z
x,1/2-y,1/2+z
loop_
_atom_site_type_symbol
_atom_site_label
_atom_site_fract_x
_atom_site_fract_y
_atom_site_fract_z
Si Si1 0.124254 0.909255 0.761172
Si Si2 0.056661 0.358497 0.427877
Si Si3 0.461092 0.888631 0.893037
Si Si4 0.745107 0.799273 0.292048
Si Si5 0.301281 0.586358 0.723902
Si Si6 0.380377 0.351622 0.160489
Si Si7 0.126426 0.645132 0.954667
Si Si8 0.841400 0.418385 0.599145
O O1 0.024931 0.798052 0.654352
O O2 0.356963 0.879751 0.889489
O O3 0.073480 0.859734 0.791946
O O4 0.026071 0.083991 0.685371
O O5 0.930685 0.377207 0.406572
O O6 0.284602 0.318712 0.578369
O O7 0.014473 0.503028 0.359007
O O8 0.412688 0.718023 0.831423
O O9 0.352573 0.050978 0.801785
O O10 0.690175 0.937023 0.026966
O O11 0.675126 0.606804 0.245293
O O12 0.691637 0.851501 0.321345
O O13 0.977223 0.803523 0.413505
O O14 0.391471 0.629675 0.719073
O O15 0.274583 0.506477 0.066671
O O16 0.253781 0.779776 0.997607
#
# Coordination Sequence:
#
# PCOD9248035 Si02
#       8
#     4   4   4   4   4   4   4   4
#     4   9  21  38  64  89 128 168 215 269 334 388
#     4  10  22  41  62  95 129 165 222 272 322 401
#     4  10  23  41  63  95 130 167 221 272 317 400
#     4  11  24  44  65  93 133 174 215 270 330 389
#     4  11  23  43  63  93 134 168 217 271 322 388
#     4  11  24  43  65  93 130 175 219 271 331 390
#     4  10  22  41  64  95 128 167 221 274 322 402
#     4  12  19  39  65  92 125 173 212 272 339 382
#
# _framework density 24.166695000000001
#
# number of rings (size 3 to 8) (size 9 to 14) (size 15 to 20)
#    0.000    1.500    2.500    3.000    1.750    0.500 
#    4.500    0.000    0.000    6.000    0.000    0.000 
#    0.000    0.000    0.000    0.000    0.000    0.000 
#
# Total GULP energy -178512.617672 kJ/mol
# GULP energy per Si atom -5578.519302 kJ/mol
# Density = 2.411169 g / cm^3
# Si number density = 24.166695 Si / 1000 Ang^3
#
#
#
# Elastic Constant Matrix: (Units=GPa)
#
#
# Indices 1 2 3 4 5 6 
#
# 1 179.3006 28.2417 21.5917 0.0000 11.7325 0.0000
# 2 28.2417 106.1753 9.6992 0.0000 1.1403 0.0000
# 3 21.5917 9.6992 31.0630 0.0000 16.6573 0.0000
# 4 0.0000 0.0000 0.0000 22.3321 0.0000 -0.0767
# 5 11.7325 1.1403 16.6573 0.0000 30.6969 0.0000
# 6 0.0000 0.0000 0.0000 -0.0767 0.0000 42.4989
#
#
#
# Elastic Compliance Matrix: (Units=1/GPa)
#
#
# Indices 1 2 3 4 5 6 
#
# 1 0.006259 -0.001316 -0.003784 0.000000 -0.000290 0.000000
# 2 -0.001316 0.010043 -0.003231 0.000000 0.001883 0.000000
# 3 -0.003784 -0.003231 0.049353 0.000000 -0.025215 0.000000
# 4 0.000000 0.000000 0.000000 0.044779 0.000000 0.000081
# 5 -0.000290 0.001883 -0.025215 0.000000 0.046300 0.000000
# 6 0.000000 0.000000 0.000000 0.000081 0.000000 0.023530
#
#
# Mechanical properties :
#
#
# Convention : Reuss Voigt Hill
#
# Bulk Modulus (GPa) = 20.41117 48.40043 34.40580
# Shear Modulus (GPa) = 23.44573 36.23934 29.84254
#
# Velocity S-wave (km/s) = 3.11813 3.87661 3.51787
# Velocity P-wave (km/s) = 4.62904 6.33314 5.54692
#
# Compressibility (1/GPa) = 0.04899278
#
# Stress axis : x y z
#
# Youngs Moduli (GPa) = 159.76457 99.56804 20.26213
#
# Poissons Ratio (x) = 0.13104 0.07668
# Poissons Ratio (y) = 0.21026 0.06547
# Poissons Ratio (z) = 0.60461 0.32171
#
# Static dielectric constant tensor:
#      x y z
#    x 1.929310 0.000000 0.039720 
#    y 0.000000 2.106150 0.000000 
#    z 0.039720 0.000000 1.981630 
# 
# From -- ./inp_files/51405.got.cif
#   From: 2010.05.17/outbox.cif.g08.bks.cpg/sg14_26_cif.got.tgz:51405.got - 2010.06.03 17:49:19.
