data_PCOD9248348
_publ_section_title
;
Structure prediction by ZEFSAII (Michael W. Deem and Ramdas Pophale) SiO2 
 PCOD9248348
Probable space group: P 21/C
;
_chemical_formula_sum "Si O2"
_cell_formula_units_Z 28
_cell_length_a 5.866329
_cell_length_b 12.534118
_cell_length_c 18.206448
_cell_angle_alpha 90.000000
_cell_angle_beta 113.130643
_cell_angle_gamma 90.000000
_cell_volume 1231.090075
_symmetry_space_group_name_H-M "P 21/C"
_symmetry_group_IT_number 14
_symmetry_cell_setting 'monoclinic'
loop_
_space_group_symop_operation_xyz
x,y,z
-x,1/2+y,1/2-z
-x,-y,-z
x,1/2-y,1/2+z
loop_
_atom_site_type_symbol
_atom_site_label
_atom_site_fract_x
_atom_site_fract_y
_atom_site_fract_z
Si Si1 0.949545 0.612996 0.765216
Si Si2 0.412435 0.180258 0.033540
Si Si3 0.162640 0.370009 0.092176
Si Si4 0.057411 0.659652 0.621977
Si Si5 0.586700 0.956833 0.667455
Si Si6 0.537670 0.525260 0.325019
Si Si7 0.693456 0.311365 0.958628
O O1 0.020197 0.681692 0.703401
O O2 0.175167 0.531925 0.810498
O O3 0.887162 0.673607 0.832054
O O4 0.711129 0.544079 0.712682
O O5 0.302828 0.284618 0.059958
O O6 0.477647 0.099816 0.106432
O O7 0.633793 0.219302 0.009683
O O8 0.198357 0.137048 0.952644
O O9 0.341327 0.470423 0.125326
O O10 0.894633 0.387871 0.021920
O O11 0.235224 0.557283 0.638684
O O12 0.185808 0.757668 0.597189
O O13 0.576467 0.917882 0.750681
O O14 0.555712 0.868131 0.600953
#
# Coordination Sequence:
#
# PCOD9248348 Si02
#       7
#     4   4   4   4   4   4   4
#     4  10  22  42  66  88 122 164 206 256 304 362
#     4  11  24  40  64  94 125 162 205 253 307 367
#     4  10  23  42  63  90 124 162 204 255 308 364
#     4  10  23  42  63  90 124 162 204 255 308 364
#     4  10  23  42  62  88 123 163 204 252 309 365
#     4  10  23  42  62  88 123 163 204 252 309 365
#     4  11  24  40  64  94 125 162 205 253 307 367
#
# _framework density 22.744069
#
# number of rings (size 3 to 8) (size 9 to 14) (size 15 to 20)
#    0.000    1.714    0.000    2.571    0.000   19.429 
#    0.000    2.857    0.000    0.000    0.000    0.000 
#    0.000    0.000    0.000    0.000    0.000    0.000 
#
# Total GULP energy -156641.967538 kJ/mol
# GULP energy per Si atom -5594.355983 kJ/mol
# Density = 2.269230 g / cm^3
# Si number density = 22.744069 Si / 1000 Ang^3
#
#
#
# Elastic Constant Matrix: (Units=GPa)
#
#
# Indices 1 2 3 4 5 6 
#
# 1 51.7768 -3.6244 8.6120 0.0000 -5.4782 0.0000
# 2 -3.6244 20.6612 34.5247 0.0000 1.3169 0.0000
# 3 8.6120 34.5247 100.7579 0.0000 -5.6889 0.0000
# 4 0.0000 0.0000 0.0000 13.2985 0.0000 1.0599
# 5 -5.4782 1.3169 -5.6889 0.0000 51.8849 0.0000
# 6 0.0000 0.0000 0.0000 1.0599 0.0000 14.9164
#
#
#
# Elastic Compliance Matrix: (Units=1/GPa)
#
#
# Indices 1 2 3 4 5 6 
#
# 1 0.021732 0.015772 -0.007199 0.000000 0.001105 0.000000
# 2 0.015772 0.127396 -0.045370 0.000000 -0.006543 0.000000
# 3 -0.007199 -0.045370 0.026271 0.000000 0.003272 0.000000
# 4 0.000000 0.000000 0.000000 0.075625 0.000000 -0.005374
# 5 0.001105 -0.006543 0.003272 0.000000 0.019915 0.000000
# 6 0.000000 0.000000 0.000000 -0.005374 0.000000 0.067422
#
#
# Mechanical properties :
#
#
# Convention : Reuss Voigt Hill
#
# Bulk Modulus (GPa) = 9.82277 28.02452 18.92364
# Shear Modulus (GPa) = 11.21355 24.93222 18.07288
#
# Velocity S-wave (km/s) = 2.22284 3.31449 2.82196
# Velocity P-wave (km/s) = 3.30397 5.19579 4.35388
#
# Compressibility (1/GPa) = 0.10180423
#
# Stress axis : x y z
#
# Youngs Moduli (GPa) = 46.01498 7.84956 38.06510
#
# Poissons Ratio (x) = -0.12380 0.27404
# Poissons Ratio (y) = -0.72574 1.72700
# Poissons Ratio (z) = 0.33128 0.35613
#
# Static dielectric constant tensor:
#      x y z
#    x 1.840540 0.000000 -0.007670 
#    y 0.000000 1.838950 0.000000 
#    z -0.007670 0.000000 1.832600 
# 
# From -- ./inp_files/53528.got.cif
#   From: 2010.05.17/outbox.cif.g08.bks.cpg/sg14_27_cif.got.tgz:53528.got - 2010.06.03 17:49:19.
