data_PCOD9248492
_publ_section_title
;
Structure prediction by ZEFSAII (Michael W. Deem and Ramdas Pophale) SiO2 
 PCOD9248492
Probable space group: P 21/C
;
_chemical_formula_sum "Si O2"
_cell_formula_units_Z 20
_cell_length_a 20.803689
_cell_length_b 7.669931
_cell_length_c 12.252324
_cell_angle_alpha 90.000000
_cell_angle_beta 27.355822
_cell_angle_gamma 90.000000
_cell_volume 898.359297
_symmetry_space_group_name_H-M "P 21/C"
_symmetry_group_IT_number 14
_symmetry_cell_setting 'monoclinic'
loop_
_space_group_symop_operation_xyz
x,y,z
-x,1/2+y,1/2-z
-x,-y,-z
x,1/2-y,1/2+z
loop_
_atom_site_type_symbol
_atom_site_label
_atom_site_fract_x
_atom_site_fract_y
_atom_site_fract_z
Si Si1 0.165643 0.955819 0.963586
Si Si2 0.596847 0.523019 0.250246
Si Si3 0.866613 0.806164 0.378078
Si Si4 0.375639 0.734564 0.991128
Si Si5 0.840102 0.495810 0.280371
O O1 0.297269 0.889863 0.696591
O O2 0.171743 0.904567 0.082424
O O3 0.023234 0.874092 0.131731
O O4 0.148352 0.165418 0.001441
O O5 0.500000 0.500000 0.500000
O O6 0.599631 0.372289 0.156616
O O7 0.523627 0.692062 0.306838
O O8 0.753488 0.545013 0.058674
O O9 0.818523 0.697851 0.343818
O O10 0.269578 0.897028 0.129874
O O11 0.000000 0.500000 0.000000
#
# Coordination Sequence:
#
# PCOD9248492 Si02
#       5
#     4   4   4   4   4
#     4  10  24  43  73 100 136 175 238 280 343 404
#     4  12  30  45  72 101 144 184 231 281 350 412
#     4  10  25  44  70 100 136 179 227 289 334 410
#     4  12  25  47  70 100 141 186 227 286 343 415
#     4  10  22  42  71 101 136 172 229 282 341 402
#
# _framework density 22.262806999999999
#
# number of rings (size 3 to 8) (size 9 to 14) (size 15 to 20)
#    1.200    0.000    2.000    2.400   11.200    3.200 
#    0.000    0.000    0.000    0.000    0.000    0.000 
#    0.000    0.000    0.000    0.000    0.000    0.000 
#
# Total GULP energy -111611.682778 kJ/mol
# GULP energy per Si atom -5580.584139 kJ/mol
# Density = 2.221214 g / cm^3
# Si number density = 22.262807 Si / 1000 Ang^3
#
#
#
# Elastic Constant Matrix: (Units=GPa)
#
#
# Indices 1 2 3 4 5 6 
#
# 1 61.9699 19.7165 30.2773 0.0000 12.4823 0.0000
# 2 19.7165 42.2046 -2.4272 0.0000 -1.9826 0.0000
# 3 30.2773 -2.4272 86.6056 0.0000 -3.2978 0.0000
# 4 0.0000 0.0000 0.0000 32.7435 0.0000 -17.9293
# 5 12.4823 -1.9826 -3.2978 0.0000 40.4672 0.0000
# 6 0.0000 0.0000 0.0000 -17.9293 0.0000 35.8924
#
#
#
# Elastic Compliance Matrix: (Units=1/GPa)
#
#
# Indices 1 2 3 4 5 6 
#
# 1 0.027766 -0.014049 -0.010485 0.000000 -0.010107 0.000000
# 2 -0.014049 0.030901 0.006019 0.000000 0.006338 0.000000
# 3 -0.010485 0.006019 0.015564 0.000000 0.004798 0.000000
# 4 0.000000 0.000000 0.000000 0.042039 0.000000 0.021000
# 5 -0.010107 0.006338 0.004798 0.000000 0.028530 0.000000
# 6 0.000000 0.000000 0.000000 0.021000 0.000000 0.038351
#
#
# Mechanical properties :
#
#
# Convention : Reuss Voigt Hill
#
# Bulk Modulus (GPa) = 26.88217 31.76814 29.32515
# Shear Modulus (GPa) = 21.49782 31.36819 26.43301
#
# Velocity S-wave (km/s) = 3.11084 3.75773 3.44948
# Velocity P-wave (km/s) = 5.00043 5.75569 5.39130
#
# Compressibility (1/GPa) = 0.03719938
#
# Stress axis : x y z
#
# Youngs Moduli (GPa) = 36.01585 32.36132 64.25218
#
# Poissons Ratio (x) = 0.45464 0.67371
# Poissons Ratio (y) = 0.50598 -0.38672
# Poissons Ratio (z) = 0.37764 -0.19478
#
# Static dielectric constant tensor:
#      x y z
#    x 1.549390 0.000000 -0.148230 
#    y 0.000000 1.876470 0.000000 
#    z -0.148230 0.000000 1.668500 
# 
# From -- ./inp_files/51061.got.cif
#   From: 2010.05.17/outbox.cif.g08.bks.cpg/sg14_26_cif.got.tgz:51061.got - 2010.06.03 17:49:19.
