data_PCOD9248346
_publ_section_title
;
Structure prediction by ZEFSAII (Michael W. Deem and Ramdas Pophale) SiO2 
 PCOD9248346
Probable space group: P 21/C
;
_chemical_formula_sum "Si O2"
_cell_formula_units_Z 28
_cell_length_a 10.995535
_cell_length_b 6.756757
_cell_length_c 19.355337
_cell_angle_alpha 90.000000
_cell_angle_beta 112.899606
_cell_angle_gamma 90.000000
_cell_volume 1324.657837
_symmetry_space_group_name_H-M "P 21/C"
_symmetry_group_IT_number 14
_symmetry_cell_setting 'monoclinic'
loop_
_space_group_symop_operation_xyz
x,y,z
-x,1/2+y,1/2-z
-x,-y,-z
x,1/2-y,1/2+z
loop_
_atom_site_type_symbol
_atom_site_label
_atom_site_fract_x
_atom_site_fract_y
_atom_site_fract_z
Si Si1 0.342886 0.235105 0.778451
Si Si2 0.310634 0.484095 0.654751
Si Si3 0.182327 0.851180 0.701646
Si Si4 0.492147 0.549074 0.417041
Si Si5 0.927780 0.694322 0.459464
Si Si6 0.093237 0.029715 0.427449
Si Si7 0.729209 0.378423 0.153852
O O1 0.404862 0.357451 0.727169
O O2 0.281282 0.419633 0.805211
O O3 0.253592 0.061312 0.726888
O O4 0.424517 0.122183 0.855355
O O5 0.272921 0.702442 0.674591
O O6 0.367309 0.457327 0.590622
O O7 0.171515 0.371536 0.621791
O O8 0.179043 0.758661 0.777631
O O9 0.035818 0.878458 0.639183
O O10 0.500000 0.500000 0.500000
O O11 0.405316 0.750276 0.386906
O O12 0.858217 0.807985 0.507336
O O13 0.000000 0.500000 0.500000
O O14 0.036837 0.844501 0.456708
O O15 0.203505 0.944938 0.401692
#
# Coordination Sequence:
#
# PCOD9248346 Si02
#       7
#     4   4   4   4   4   4   4
#     4  10  24  46  68  98 134 180 230 282 347 411
#     4  11  24  44  71  95 136 181 239 282 341 422
#     4  10  22  42  66 103 128 182 223 276 349 410
#     4  11  28  46  69 101 138 183 234 292 347 407
#     4  11  24  41  66  98 133 183 222 282 348 405
#     4  11  24  41  65 100 140 169 227 278 344 425
#     4  10  26  43  66 101 136 178 224 280 353 410
#
# _framework density 21.137533999999999
#
# number of rings (size 3 to 8) (size 9 to 14) (size 15 to 20)
#    0.000    1.429    2.857    0.000   12.000    1.714 
#    0.000    0.000    0.000    0.000    0.000    0.000 
#    0.000    0.000    0.000    0.000    0.000    0.000 
#
# Total GULP energy -156075.864441 kJ/mol
# GULP energy per Si atom -5574.138016 kJ/mol
# Density = 2.108942 g / cm^3
# Si number density = 21.137534 Si / 1000 Ang^3
#
#
#
# Elastic Constant Matrix: (Units=GPa)
#
#
# Indices 1 2 3 4 5 6 
#
# 1 41.0368 29.1450 7.7334 0.0000 -23.1021 0.0000
# 2 29.1450 151.4866 42.2363 0.0000 -1.9717 0.0000
# 3 7.7334 42.2363 76.4765 0.0000 -10.1595 0.0000
# 4 0.0000 0.0000 0.0000 46.3677 0.0000 1.9270
# 5 -23.1021 -1.9717 -10.1595 0.0000 43.5789 0.0000
# 6 0.0000 0.0000 0.0000 1.9270 0.0000 15.8115
#
#
#
# Elastic Compliance Matrix: (Units=1/GPa)
#
#
# Indices 1 2 3 4 5 6 
#
# 1 0.043276 -0.009064 0.003739 0.000000 0.023403 0.000000
# 2 -0.009064 0.009720 -0.005192 0.000000 -0.005576 0.000000
# 3 0.003739 -0.005192 0.016302 0.000000 0.005548 0.000000
# 4 0.000000 0.000000 0.000000 0.021677 0.000000 -0.002642
# 5 0.023403 -0.005576 0.005548 0.000000 0.036394 0.000000
# 6 0.000000 0.000000 0.000000 -0.002642 0.000000 0.063567
#
#
# Mechanical properties :
#
#
# Convention : Reuss Voigt Hill
#
# Bulk Modulus (GPa) = 20.71959 47.46992 34.09476
# Shear Modulus (GPa) = 21.92410 33.81063 27.86737
#
# Velocity S-wave (km/s) = 3.22407 4.00378 3.63489
# Velocity P-wave (km/s) = 4.86653 6.62420 5.81219
#
# Compressibility (1/GPa) = 0.04826350
#
# Stress axis : x y z
#
# Youngs Moduli (GPa) = 23.10749 102.87863 61.34033
#
# Poissons Ratio (x) = 0.93247 -0.22933
# Poissons Ratio (y) = 0.20944 0.31850
# Poissons Ratio (z) = -0.08639 0.53419
#
# Static dielectric constant tensor:
#      x y z
#    x 1.820910 0.000000 -0.007520 
#    y 0.000000 1.765790 0.000000 
#    z -0.007520 0.000000 1.827540 
# 
# From -- ./inp_files/66516.got.cif
#   From: 2010.05.17/outbox.cif.g08.bks.cpg/sg14_34_cif.got.tgz:66516.got - 2010.06.03 17:49:19.
