data_PCOD9248198
_publ_section_title
;
Structure prediction by ZEFSAII (Michael W. Deem and Ramdas Pophale) SiO2 
 PCOD9248198
Probable space group: P 21/C
;
_chemical_formula_sum "Si O2"
_cell_formula_units_Z 24
_cell_length_a 14.971905
_cell_length_b 10.406691
_cell_length_c 9.531608
_cell_angle_alpha 90.000000
_cell_angle_beta 35.962853
_cell_angle_gamma 90.000000
_cell_volume 872.141132
_symmetry_space_group_name_H-M "P 21/C"
_symmetry_group_IT_number 14
_symmetry_cell_setting 'monoclinic'
loop_
_space_group_symop_operation_xyz
x,y,z
-x,1/2+y,1/2-z
-x,-y,-z
x,1/2-y,1/2+z
loop_
_atom_site_type_symbol
_atom_site_label
_atom_site_fract_x
_atom_site_fract_y
_atom_site_fract_z
Si Si1 0.053050 0.557477 0.750267
Si Si2 0.321350 0.972063 0.120464
Si Si3 0.964866 0.628262 0.460127
Si Si4 0.772714 0.291979 0.709587
Si Si5 0.509883 0.573763 0.840203
Si Si6 0.264964 0.284184 0.845094
O O1 0.016948 0.419137 0.722295
O O2 0.175934 0.627363 0.490173
O O3 0.846857 0.482436 0.240287
O O4 0.899446 0.644204 0.917569
O O5 0.307618 0.841120 0.222852
O O6 0.355150 0.097183 0.168219
O O7 0.439783 0.976307 0.843283
O O8 0.081590 0.729012 0.375815
O O9 0.000000 0.500000 0.500000
O O10 0.796089 0.681554 0.692778
O O11 0.656730 0.367057 0.957823
O O12 0.633266 0.691363 0.687788
O O13 0.500000 0.500000 0.000000
#
# Coordination Sequence:
#
# PCOD9248198 Si02
#       6
#     4   4   4   4   4   4
#     4  11  24  46  73 109 147 187 247 308 352 434
#     4  12  27  44  76 106 147 190 246 304 362 437
#     4  10  22  41  69 101 138 189 234 293 354 422
#     4  11  26  46  73 103 150 189 244 297 375 426
#     4  12  27  51  71 105 152 194 235 309 371 435
#     4  12  27  43  76 106 139 191 251 292 370 431
#
# _framework density 27.518481000000001
#
# number of rings (size 3 to 8) (size 9 to 14) (size 15 to 20)
#    0.000    0.667    5.000    1.500    9.333    2.000 
#    0.000    0.000    0.000    0.000    0.000    0.000 
#    0.000    0.000    0.000    0.000    0.000    0.000 
#
# Total GULP energy -134210.997183 kJ/mol
# GULP energy per Si atom -5592.124883 kJ/mol
# Density = 2.745585 g / cm^3
# Si number density = 27.518481 Si / 1000 Ang^3
#
#
#
# Elastic Constant Matrix: (Units=GPa)
#
#
# Indices 1 2 3 4 5 6 
#
# 1 85.3261 2.4891 1.7653 0.0000 -9.1939 0.0000
# 2 2.4891 124.3077 13.4165 0.0000 14.0699 0.0000
# 3 1.7653 13.4165 112.1206 0.0000 -10.8591 0.0000
# 4 0.0000 0.0000 0.0000 56.1649 0.0000 -4.6684
# 5 -9.1939 14.0699 -10.8591 0.0000 29.2714 0.0000
# 6 0.0000 0.0000 0.0000 -4.6684 0.0000 36.0366
#
#
#
# Elastic Compliance Matrix: (Units=1/GPa)
#
#
# Indices 1 2 3 4 5 6 
#
# 1 0.012201 -0.000767 0.000318 0.000000 0.004319 0.000000
# 2 -0.000767 0.008795 -0.001528 0.000000 -0.005035 0.000000
# 3 0.000318 -0.001528 0.009520 0.000000 0.004366 0.000000
# 4 0.000000 0.000000 0.000000 0.017999 0.000000 0.002332
# 5 0.004319 -0.005035 0.004366 0.000000 0.039560 0.000000
# 6 0.000000 0.000000 0.000000 0.002332 0.000000 0.028052
#
#
# Mechanical properties :
#
#
# Convention : Reuss Voigt Hill
#
# Bulk Modulus (GPa) = 37.64990 39.67735 38.66362
# Shear Modulus (GPa) = 38.77966 44.56680 41.67323
#
# Velocity S-wave (km/s) = 3.75803 4.02870 3.89572
# Velocity P-wave (km/s) = 5.70454 6.00752 5.85799
#
# Compressibility (1/GPa) = 0.02656050
#
# Stress axis : x y z
#
# Youngs Moduli (GPa) = 81.96091 113.70397 105.04583
#
# Poissons Ratio (x) = 0.08727 -0.03341
# Poissons Ratio (y) = 0.06290 0.16051
# Poissons Ratio (z) = -0.02607 0.17374
#
# Static dielectric constant tensor:
#      x y z
#    x 2.168650 0.000000 -0.012700 
#    y 0.000000 2.246630 0.000000 
#    z -0.012700 0.000000 2.167720 
# 
# From -- ./inp_files/35035.got.cif
#   From: 2010.05.17/outbox.cif.g08.bks.cpg/sg14_18_cif.got.tgz:35035.got - 2010.06.03 17:49:19.
