data_PCOD9248971
_publ_section_title
;
Structure prediction by ZEFSAII (Michael W. Deem and Ramdas Pophale) SiO2 
 PCOD9248971
Probable space group: P 21/C
;
_chemical_formula_sum "Si O2"
_cell_formula_units_Z 28
_cell_length_a 12.179649
_cell_length_b 7.352808
_cell_length_c 26.870570
_cell_angle_alpha 90.000000
_cell_angle_beta 28.107408
_cell_angle_gamma 90.000000
_cell_volume 1133.709762
_symmetry_space_group_name_H-M "P 21/C"
_symmetry_group_IT_number 14
_symmetry_cell_setting 'monoclinic'
loop_
_space_group_symop_operation_xyz
x,y,z
-x,1/2+y,1/2-z
-x,-y,-z
x,1/2-y,1/2+z
loop_
_atom_site_type_symbol
_atom_site_label
_atom_site_fract_x
_atom_site_fract_y
_atom_site_fract_z
Si Si1 0.497109 0.079966 0.186785
Si Si2 0.138305 0.518027 0.745655
Si Si3 0.420591 0.012344 0.737012
Si Si4 0.693478 0.422475 0.820890
Si Si5 0.130193 0.533695 0.538131
Si Si6 0.204274 0.006483 0.112673
Si Si7 0.686690 0.148234 0.469747
O O1 0.514301 0.295910 0.181453
O O2 0.290116 0.035340 0.232163
O O3 0.456909 0.029243 0.260046
O O4 0.725288 0.997851 0.069209
O O5 0.189729 0.729072 0.714505
O O6 0.217887 0.419233 0.663044
O O7 0.875615 0.472365 0.865328
O O8 0.143875 0.015385 0.859700
O O9 0.431466 0.893025 0.682741
O O10 0.925297 0.549044 0.722251
O O11 0.516744 0.521652 0.928398
O O12 0.218209 0.412475 0.550834
O O13 0.195549 0.737350 0.531734
O O14 0.363708 0.824136 0.045424
#
# Coordination Sequence:
#
# PCOD9248971 Si02
#       7
#     4   4   4   4   4   4   4
#     4  12  23  42  68  93 134 174 219 272 332 389
#     4  12  24  39  64 102 135 170 220 271 327 394
#     4  11  22  43  65  96 128 174 220 270 328 389
#     4  11  23  43  68  97 136 175 218 274 333 384
#     4   9  21  43  67  91 127 172 216 268 324 386
#     4   9  22  41  66  94 131 176 218 270 321 389
#     4  10  22  45  66  96 133 175 217 271 324 394
#
# _framework density 24.697679999999998
#
# number of rings (size 3 to 8) (size 9 to 14) (size 15 to 20)
#    0.857    0.571    2.857    2.143    0.000    5.143 
#    0.000    5.714    0.000    0.000    0.000    0.000 
#    0.000    0.000    0.000    0.000    0.000    0.000 
#
# Total GULP energy -156317.204117 kJ/mol
# GULP energy per Si atom -5582.757290 kJ/mol
# Density = 2.464147 g / cm^3
# Si number density = 24.697680 Si / 1000 Ang^3
#
#
#
# Elastic Constant Matrix: (Units=GPa)
#
#
# Indices 1 2 3 4 5 6 
#
# 1 138.7278 19.0602 -21.3753 0.0000 -26.9477 0.0000
# 2 19.0602 45.9711 12.9587 0.0000 52.0987 0.0000
# 3 -21.3753 12.9587 61.2908 0.0000 -43.5721 0.0000
# 4 0.0000 0.0000 0.0000 32.1274 0.0000 7.9248
# 5 -26.9477 52.0987 -43.5721 0.0000 -88.4359 0.0000
# 6 0.0000 0.0000 0.0000 7.9248 0.0000 18.2154
#
#
#
# Elastic Compliance Matrix: (Units=1/GPa)
#
#
# Indices 1 2 3 4 5 6 
#
# 1 0.006845 -0.000178 0.000642 0.000000 -0.002507 0.000000
# 2 -0.000178 0.013390 0.002039 0.000000 0.006938 0.000000
# 3 0.000642 0.002039 0.012459 0.000000 -0.005133 0.000000
# 4 0.000000 0.000000 0.000000 0.034868 0.000000 -0.015170
# 5 -0.002507 0.006938 -0.005133 0.000000 -0.003928 0.000000
# 6 0.000000 0.000000 0.000000 -0.015170 0.000000 0.061498
#
#
# Mechanical properties :
#
#
# Convention : Reuss Voigt Hill
#
# Bulk Modulus (GPa) = 26.52458 29.69742 28.11100
# Shear Modulus (GPa) = 37.68119 8.07112 22.87616
#
# Velocity S-wave (km/s) = 3.91026 1.80971 3.04673
# Velocity P-wave (km/s) = 5.58120 4.05182 4.87684
#
# Compressibility (1/GPa) = 0.03770088
#
# Stress axis : x y z
#
# Youngs Moduli (GPa) = 146.09621 74.68531 80.26101
#
# Poissons Ratio (x) = 0.01328 -0.05157
# Poissons Ratio (y) = 0.02598 -0.16365
# Poissons Ratio (z) = -0.09386 -0.15228
#
# Static dielectric constant tensor:
#      x y z
#    x 2.073470 0.000000 0.000400 
#    y 0.000000 2.033030 0.000000 
#    z 0.000400 0.000000 1.982320 
# 
# From -- ./inp_files/77111.got.cif
#   From: 2010.05.17/outbox.cif.g08.bks.cpg/sg14_39_cif.got.tgz:77111.got - 2010.06.03 17:49:19.
