data_PCOD9248583
_publ_section_title
;
Structure prediction by ZEFSAII (Michael W. Deem and Ramdas Pophale) SiO2 
 PCOD9248583
Probable space group: P 21/C
;
_chemical_formula_sum "Si O2"
_cell_formula_units_Z 20
_cell_length_a 7.066328
_cell_length_b 18.239931
_cell_length_c 8.989323
_cell_angle_alpha 90.000000
_cell_angle_beta 130.874082
_cell_angle_gamma 90.000000
_cell_volume 876.095958
_symmetry_space_group_name_H-M "P 21/C"
_symmetry_group_IT_number 14
_symmetry_cell_setting 'monoclinic'
loop_
_space_group_symop_operation_xyz
x,y,z
-x,1/2+y,1/2-z
-x,-y,-z
x,1/2-y,1/2+z
loop_
_atom_site_type_symbol
_atom_site_label
_atom_site_fract_x
_atom_site_fract_y
_atom_site_fract_z
Si Si1 0.285047 0.666428 0.982033
Si Si2 0.266659 0.087471 0.457517
Si Si3 0.228051 0.677956 0.294387
Si Si4 0.360484 0.558564 0.598289
Si Si5 0.007781 0.053824 0.821718
O O1 0.258095 0.743032 0.883606
O O2 0.036936 0.619050 0.816076
O O3 0.512369 0.619600 0.030397
O O4 0.327210 0.677739 0.177694
O O5 0.391754 0.061557 0.675859
O O6 0.058445 0.150045 0.365790
O O7 0.140202 0.016719 0.318535
O O8 0.354947 0.619475 0.469229
O O9 0.132261 0.576366 0.597517
O O10 0.280147 0.478835 0.495940
#
# Coordination Sequence:
#
# PCOD9248583 Si02
#       5
#     4   4   4   4   4
#     4  11  22  41  63  89 125 161 205 256 303 362
#     4  10  22  43  65  90 124 163 202 249 311 365
#     4  11  25  40  61  91 124 162 206 253 303 365
#     4   9  18  38  61  88 122 156 198 246 297 359
#     4   9  19  39  66  91 124 163 199 252 308 360
#
# _framework density 22.828548000000001
#
# number of rings (size 3 to 8) (size 9 to 14) (size 15 to 20)
#    0.000    2.000    0.000    4.800    0.000    6.400 
#    0.000   21.000    0.000    0.000    0.000    0.000 
#    0.000    0.000    0.000    0.000    0.000    0.000 
#
# Total GULP energy -111970.932495 kJ/mol
# GULP energy per Si atom -5598.546625 kJ/mol
# Density = 2.277659 g / cm^3
# Si number density = 22.828548 Si / 1000 Ang^3
#
#
#
# Elastic Constant Matrix: (Units=GPa)
#
#
# Indices 1 2 3 4 5 6 
#
# 1 71.6186 40.0003 44.9040 0.0000 -5.6723 0.0000
# 2 40.0003 122.7883 59.8647 0.0000 -26.4952 0.0000
# 3 44.9040 59.8647 180.8583 0.0000 -25.0456 0.0000
# 4 0.0000 0.0000 0.0000 34.6355 0.0000 -11.1812
# 5 -5.6723 -26.4952 -25.0456 0.0000 32.2974 0.0000
# 6 0.0000 0.0000 0.0000 -11.1812 0.0000 15.5766
#
#
#
# Elastic Compliance Matrix: (Units=1/GPa)
#
#
# Indices 1 2 3 4 5 6 
#
# 1 0.018740 -0.005220 -0.003431 0.000000 -0.003651 0.000000
# 2 -0.005220 0.012386 -0.001707 0.000000 0.007920 0.000000
# 3 -0.003431 -0.001707 0.007471 0.000000 0.003791 0.000000
# 4 0.000000 0.000000 0.000000 0.037581 0.000000 0.026976
# 5 -0.003651 0.007920 0.003791 0.000000 0.039758 0.000000
# 6 0.000000 0.000000 0.000000 0.026976 0.000000 0.083563
#
#
# Mechanical properties :
#
#
# Convention : Reuss Voigt Hill
#
# Bulk Modulus (GPa) = 55.92360 73.86701 64.89530
# Shear Modulus (GPa) = 22.10683 31.86833 26.98758
#
# Velocity S-wave (km/s) = 3.11526 3.74034 3.44202
# Velocity P-wave (km/s) = 6.12293 7.14710 6.65475
#
# Compressibility (1/GPa) = 0.01788154
#
# Stress axis : x y z
#
# Youngs Moduli (GPa) = 53.36113 80.73699 133.85330
#
# Poissons Ratio (x) = 0.42147 0.45920
# Poissons Ratio (y) = 0.27856 0.22847
# Poissons Ratio (z) = 0.18306 0.13780
#
# Static dielectric constant tensor:
#      x y z
#    x 1.916600 0.000000 0.008660 
#    y 0.000000 1.794050 0.000000 
#    z 0.008660 0.000000 1.859910 
# 
# From -- ./inp_files/8965.got.cif
#   From: 2010.05.17/outbox.cif.g08.bks.cpg/sg14_5_cif.got.tgz:8965.got - 2010.06.03 17:49:19.
