data_PCOD9248537
_publ_section_title
;
Structure prediction by ZEFSAII (Michael W. Deem and Ramdas Pophale) SiO2 
 PCOD9248537
Probable space group: P 21/C
;
_chemical_formula_sum "Si O2"
_cell_formula_units_Z 24
_cell_length_a 8.826375
_cell_length_b 11.666571
_cell_length_c 10.229676
_cell_angle_alpha 90.000000
_cell_angle_beta 104.604082
_cell_angle_gamma 90.000000
_cell_volume 1019.352232
_symmetry_space_group_name_H-M "P 21/C"
_symmetry_group_IT_number 14
_symmetry_cell_setting 'monoclinic'
loop_
_space_group_symop_operation_xyz
x,y,z
-x,1/2+y,1/2-z
-x,-y,-z
x,1/2-y,1/2+z
loop_
_atom_site_type_symbol
_atom_site_label
_atom_site_fract_x
_atom_site_fract_y
_atom_site_fract_z
Si Si1 0.841033 0.183044 0.007614
Si Si2 0.292702 0.412654 0.873172
Si Si3 0.514614 0.869050 0.835315
Si Si4 0.959797 0.768689 0.202410
Si Si5 0.710432 0.957053 0.115017
Si Si6 0.608460 0.341569 0.077420
O O1 0.693302 0.268244 0.983951
O O2 0.953054 0.229097 0.148185
O O3 0.787284 0.056206 0.040737
O O4 0.926686 0.190196 0.888638
O O5 0.354078 0.373700 0.744767
O O6 0.138798 0.341251 0.870227
O O7 0.284325 0.549665 0.868495
O O8 0.436377 0.383385 0.000019
O O9 0.420819 0.750940 0.816505
O O10 0.393650 0.975118 0.801469
O O11 0.596865 0.885569 0.994486
O O12 0.837859 0.871743 0.200335
#
# Coordination Sequence:
#
# PCOD9248537 Si02
#       6
#     4   4   4   4   4   4
#     4  11  28  44  70  99 142 183 230 278 344 408
#     4  11  25  41  71  99 138 175 229 286 342 403
#     4  10  22  42  74  98 129 178 235 287 332 401
#     4  12  26  45  68 102 141 183 226 279 345 408
#     4  10  23  44  69 100 131 185 232 280 333 415
#     4  10  25  44  64 102 133 179 227 287 340 404
#
# _framework density 23.544366
#
# number of rings (size 3 to 8) (size 9 to 14) (size 15 to 20)
#    0.000    1.333    1.667    1.500   11.667    2.000 
#    0.000    0.000    0.000    0.000    0.000    0.000 
#    0.000    0.000    0.000    0.000    0.000    0.000 
#
# Total GULP energy -134397.954728 kJ/mol
# GULP energy per Si atom -5599.914780 kJ/mol
# Density = 2.349078 g / cm^3
# Si number density = 23.544366 Si / 1000 Ang^3
#
#
#
# Elastic Constant Matrix: (Units=GPa)
#
#
# Indices 1 2 3 4 5 6 
#
# 1 79.9953 31.6411 22.1121 0.0000 8.5386 0.0000
# 2 31.6411 143.6777 9.8024 0.0000 5.3295 0.0000
# 3 22.1121 9.8024 54.2990 0.0000 14.1680 0.0000
# 4 0.0000 0.0000 0.0000 -3.3859 0.0000 6.4372
# 5 8.5386 5.3295 14.1680 0.0000 18.4584 0.0000
# 6 0.0000 0.0000 0.0000 6.4372 0.0000 47.8562
#
#
#
# Elastic Compliance Matrix: (Units=1/GPa)
#
#
# Indices 1 2 3 4 5 6 
#
# 1 0.015322 -0.002940 -0.005103 0.000000 -0.002322 0.000000
# 2 -0.002940 0.007637 0.000049 0.000000 -0.000882 0.000000
# 3 -0.005103 0.000049 0.024851 0.000000 -0.016728 0.000000
# 4 0.000000 0.000000 0.000000 -0.235197 0.000000 0.031637
# 5 -0.002322 -0.000882 -0.016728 0.000000 0.068345 0.000000
# 6 0.000000 0.000000 0.000000 0.031637 0.000000 0.016640
#
#
# Mechanical properties :
#
#
# Convention : Reuss Voigt Hill
#
# Bulk Modulus (GPa) = 31.42547 45.00926 38.21736
# Shear Modulus (GPa) = -65.95649 26.88017 -19.53816
#
# Velocity S-wave (km/s) = -5.29854 3.38254 -2.88383
# Velocity P-wave (km/s) = 4.90473 5.86632 2.27567
#
# Compressibility (1/GPa) = 0.03182132
#
# Stress axis : x y z
#
# Youngs Moduli (GPa) = 65.26568 130.94363 40.24053
#
# Poissons Ratio (x) = 0.38497 0.20534
# Poissons Ratio (y) = 0.19188 -0.00197
# Poissons Ratio (z) = 0.33305 -0.00640
#
# Static dielectric constant tensor:
#      x y z
#    x 1.897040 0.000000 0.036270 
#    y 0.000000 1.895200 0.000000 
#    z 0.036270 0.000000 1.867390 
# 
# From -- ./inp_files/24168.got.cif
#   From: 2010.05.17/outbox.cif.g08.bks.cpg/sg14_13_cif.got.tgz:24168.got - 2010.06.03 17:49:19.
