data_PCOD9248668
_publ_section_title
;
Structure prediction by ZEFSAII (Michael W. Deem and Ramdas Pophale) SiO2 
 PCOD9248668
Probable space group: P 21/C
;
_chemical_formula_sum "Si O2"
_cell_formula_units_Z 28
_cell_length_a 8.271178
_cell_length_b 8.905156
_cell_length_c 28.018206
_cell_angle_alpha 90.000000
_cell_angle_beta 39.443097
_cell_angle_gamma 90.000000
_cell_volume 1311.100518
_symmetry_space_group_name_H-M "P 21/C"
_symmetry_group_IT_number 14
_symmetry_cell_setting 'monoclinic'
loop_
_space_group_symop_operation_xyz
x,y,z
-x,1/2+y,1/2-z
-x,-y,-z
x,1/2-y,1/2+z
loop_
_atom_site_type_symbol
_atom_site_label
_atom_site_fract_x
_atom_site_fract_y
_atom_site_fract_z
Si Si1 0.000793 0.158795 0.526156
Si Si2 0.806101 0.168539 0.818148
Si Si3 0.257910 0.108035 0.557568
Si Si4 0.902437 0.840820 0.667435
Si Si5 0.582903 0.165580 0.153197
Si Si6 0.205462 0.322384 0.657046
Si Si7 0.749197 0.658104 0.607402
O O1 0.230192 0.167142 0.510547
O O2 0.040872 0.286676 0.477876
O O3 0.757647 0.188762 0.615009
O O4 0.000000 0.000000 0.500000
O O5 0.527203 0.181309 0.856320
O O6 0.881632 0.265141 0.847735
O O7 0.000210 0.222957 0.732653
O O8 0.864861 0.997913 0.821851
O O9 0.255341 0.245610 0.595039
O O10 0.500000 0.000000 0.500000
O O11 0.023419 0.998504 0.624642
O O12 0.651269 0.850440 0.757522
O O13 0.810269 0.750562 0.641580
O O14 0.463606 0.181186 0.128165
O O15 0.751433 0.017098 0.119403
#
# Coordination Sequence:
#
# PCOD9248668 Si02
#       7
#     4   4   4   4   4   4   4
#     4  12  25  43  66  99 135 182 228 287 352 413
#     4  10  23  43  69 102 133 180 224 291 344 418
#     4  12  25  44  68  98 139 183 237 288 354 425
#     4  11  25  44  72 103 135 185 235 289 356 417
#     4  10  25  44  67 102 136 179 229 290 351 423
#     4  10  22  43  68  97 137 174 229 285 351 413
#     4  11  24  44  68  97 144 174 233 286 346 418
#
# _framework density 21.356102
#
# number of rings (size 3 to 8) (size 9 to 14) (size 15 to 20)
#    0.000    1.143    1.429    4.714    6.000    2.286 
#    0.000    2.143    0.000    0.000    0.000    0.000 
#    0.000    0.000    0.000    0.000    0.000    0.000 
#
# Total GULP energy -156229.397158 kJ/mol
# GULP energy per Si atom -5579.621327 kJ/mol
# Density = 2.130749 g / cm^3
# Si number density = 21.356102 Si / 1000 Ang^3
#
#
#
# Elastic Constant Matrix: (Units=GPa)
#
#
# Indices 1 2 3 4 5 6 
#
# 1 76.6705 21.3467 27.3078 0.0000 30.6820 0.0000
# 2 21.3467 56.0724 30.6996 0.0000 8.9658 0.0000
# 3 27.3078 30.6996 93.8741 0.0000 5.4523 0.0000
# 4 0.0000 0.0000 0.0000 36.8409 0.0000 3.1497
# 5 30.6820 8.9658 5.4523 0.0000 39.8378 0.0000
# 6 0.0000 0.0000 0.0000 3.1497 0.0000 43.4455
#
#
#
# Elastic Compliance Matrix: (Units=1/GPa)
#
#
# Indices 1 2 3 4 5 6 
#
# 1 0.021659 -0.003452 -0.004282 0.000000 -0.015318 0.000000
# 2 -0.003452 0.022908 -0.006393 0.000000 -0.001622 0.000000
# 3 -0.004282 -0.006393 0.013824 0.000000 0.002845 0.000000
# 4 0.000000 0.000000 0.000000 0.027313 0.000000 -0.001980
# 5 -0.015318 -0.001622 0.002845 0.000000 0.036875 0.000000
# 6 0.000000 0.000000 0.000000 -0.001980 0.000000 0.023161
#
#
# Mechanical properties :
#
#
# Convention : Reuss Voigt Hill
#
# Bulk Modulus (GPa) = 33.18224 42.81390 37.99807
# Shear Modulus (GPa) = 27.16806 33.84236 30.50521
#
# Velocity S-wave (km/s) = 3.57058 3.98511 3.78353
# Velocity P-wave (km/s) = 5.70702 6.42386 6.07602
#
# Compressibility (1/GPa) = 0.03013660
#
# Stress axis : x y z
#
# Youngs Moduli (GPa) = 46.16989 43.65318 72.33935
#
# Poissons Ratio (x) = 0.15068 0.30976
# Poissons Ratio (y) = 0.15937 0.46248
# Poissons Ratio (z) = 0.19770 0.27908
#
# Static dielectric constant tensor:
#      x y z
#    x 1.867350 0.000000 -0.023300 
#    y 0.000000 1.937920 0.000000 
#    z -0.023300 0.000000 1.793650 
# 
# From -- ./inp_files/76438.got.cif
#   From: 2010.05.17/outbox.cif.g08.bks.cpg/sg14_39_cif.got.tgz:76438.got - 2010.06.03 17:49:19.
