data_PCOD9248687
_publ_section_title
;
Structure prediction by ZEFSAII (Michael W. Deem and Ramdas Pophale) SiO2 
 PCOD9248687
Probable space group: P 21/C
;
_chemical_formula_sum "Si O2"
_cell_formula_units_Z 16
_cell_length_a 7.791866
_cell_length_b 18.159134
_cell_length_c 7.632411
_cell_angle_alpha 90.000000
_cell_angle_beta 35.971214
_cell_angle_gamma 90.000000
_cell_volume 634.331919
_symmetry_space_group_name_H-M "P 21/C"
_symmetry_group_IT_number 14
_symmetry_cell_setting 'monoclinic'
loop_
_space_group_symop_operation_xyz
x,y,z
-x,1/2+y,1/2-z
-x,-y,-z
x,1/2-y,1/2+z
loop_
_atom_site_type_symbol
_atom_site_label
_atom_site_fract_x
_atom_site_fract_y
_atom_site_fract_z
Si Si1 0.396513 0.293542 0.321401
Si Si2 0.207655 0.824027 0.817363
Si Si3 0.180911 0.409096 0.777882
Si Si4 0.799994 0.059776 0.899742
O O1 0.574453 0.222607 0.238914
O O2 0.298588 0.342804 0.565608
O O3 0.088916 0.279921 0.478388
O O4 0.613068 0.335372 0.009342
O O5 0.118715 0.897991 0.991763
O O6 0.099335 0.476334 0.715531
O O7 0.451037 0.438455 0.671236
O O8 0.927305 0.395871 0.127049
#
# Coordination Sequence:
#
# PCOD9248687 Si02
#       4
#     4   4   4   4
#     4  12  26  43  66  97 136 176 220 272 326 392
#     4  12  26  43  66  97 136 176 220 272 326 392
#     4  10  22  43  69  96 130 171 216 269 330 391
#     4  10  22  43  69  96 130 171 216 269 330 391
#
# _framework density 25.223388
#
# number of rings (size 3 to 8) (size 9 to 14) (size 15 to 20)
#    0.000    1.000    0.000    6.000    0.000    6.000 
#    0.000    0.000    0.000    0.000    0.000    0.000 
#    0.000    0.000    0.000    0.000    0.000    0.000 
#
# Total GULP energy -89690.974028 kJ/mol
# GULP energy per Si atom -5605.685877 kJ/mol
# Density = 2.516598 g / cm^3
# Si number density = 25.223388 Si / 1000 Ang^3
#
#
#
# Elastic Constant Matrix: (Units=GPa)
#
#
# Indices 1 2 3 4 5 6 
#
# 1 78.4220 -2.9520 25.8114 0.0000 -18.9336 0.0000
# 2 -2.9520 34.1267 12.6497 0.0000 7.5525 0.0000
# 3 25.8114 12.6497 156.5350 0.0000 0.8375 0.0000
# 4 0.0000 0.0000 0.0000 32.8857 0.0000 5.7008
# 5 -18.9336 7.5525 0.8375 0.0000 55.9116 0.0000
# 6 0.0000 0.0000 0.0000 5.7008 0.0000 18.6905
#
#
#
# Elastic Compliance Matrix: (Units=1/GPa)
#
#
# Indices 1 2 3 4 5 6 
#
# 1 0.014822 0.001147 -0.002563 0.000000 0.004903 0.000000
# 2 0.001147 0.031239 -0.002693 0.000000 -0.003791 0.000000
# 3 -0.002563 -0.002693 0.007032 0.000000 -0.000609 0.000000
# 4 0.000000 0.000000 0.000000 0.032106 0.000000 -0.009793
# 5 0.004903 -0.003791 -0.000609 0.000000 0.020067 0.000000
# 6 0.000000 0.000000 0.000000 -0.009793 0.000000 0.056490
#
#
# Mechanical properties :
#
#
# Convention : Reuss Voigt Hill
#
# Bulk Modulus (GPa) = 22.28433 37.78910 30.03672
# Shear Modulus (GPa) = 27.03697 37.06920 32.05308
#
# Velocity S-wave (km/s) = 3.27754 3.83774 3.56865
# Velocity P-wave (km/s) = 4.81425 5.88659 5.37722
#
# Compressibility (1/GPa) = 0.04487458
#
# Stress axis : x y z
#
# Youngs Moduli (GPa) = 67.46765 32.01118 142.20973
#
# Poissons Ratio (x) = -0.03672 0.36448
# Poissons Ratio (y) = -0.07739 0.38302
# Poissons Ratio (z) = 0.17292 0.08622
#
# Static dielectric constant tensor:
#      x y z
#    x 2.028590 0.000000 -0.009280 
#    y 0.000000 2.024970 0.000000 
#    z -0.009280 0.000000 1.914000 
# 
# From -- ./inp_files/9301.got.cif
#   From: 2010.05.17/outbox.cif.g08.bks.cpg/sg14_5_cif.got.tgz:9301.got - 2010.06.03 17:49:19.
