data_PCOD9248580
_publ_section_title
;
Structure prediction by ZEFSAII (Michael W. Deem and Ramdas Pophale) SiO2 
 PCOD9248580
Probable space group: P 21/C
;
_chemical_formula_sum "Si O2"
_cell_formula_units_Z 24
_cell_length_a 11.565330
_cell_length_b 5.012625
_cell_length_c 22.336463
_cell_angle_alpha 90.000000
_cell_angle_beta 43.524723
_cell_angle_gamma 90.000000
_cell_volume 891.758468
_symmetry_space_group_name_H-M "P 21/C"
_symmetry_group_IT_number 14
_symmetry_cell_setting 'monoclinic'
loop_
_space_group_symop_operation_xyz
x,y,z
-x,1/2+y,1/2-z
-x,-y,-z
x,1/2-y,1/2+z
loop_
_atom_site_type_symbol
_atom_site_label
_atom_site_fract_x
_atom_site_fract_y
_atom_site_fract_z
Si Si1 0.312100 0.421853 0.748471
Si Si2 0.229374 0.280671 0.454465
Si Si3 0.606822 0.190422 0.673773
Si Si4 0.111143 0.093365 0.207037
Si Si5 0.602639 0.747790 0.484933
Si Si6 0.858251 0.443162 0.628715
O O1 0.471309 0.231281 0.669051
O O2 0.466618 0.425737 0.757984
O O3 0.235993 0.502390 0.711952
O O4 0.170060 0.213036 0.827178
O O5 0.360527 0.281223 0.458327
O O6 0.247247 0.512894 0.395519
O O7 0.043139 0.347103 0.547979
O O8 0.245244 0.999441 0.416186
O O9 0.737093 0.208429 0.696678
O O10 0.214578 0.226867 0.114439
O O11 0.990028 0.331194 0.274793
O O12 0.500000 0.500000 0.500000
O O13 0.500000 0.000000 0.500000
#
# Coordination Sequence:
#
# PCOD9248580 Si02
#       6
#     4   4   4   4   4   4
#     4  11  24  39  71  99 140 176 236 289 357 424
#     4  10  24  41  69  95 135 175 229 285 352 422
#     4  11  22  40  67 101 130 176 221 298 352 411
#     4  12  29  50  74 108 148 201 245 298 359 439
#     4  12  28  49  74 107 144 197 245 298 357 434
#     4  10  22  43  65 101 130 174 223 292 356 411
#
# _framework density 26.913117
#
# number of rings (size 3 to 8) (size 9 to 14) (size 15 to 20)
#    0.000    1.000    1.667    3.500    9.333    0.000 
#    0.000    0.000    0.000    0.000    0.000    0.000 
#    0.000    0.000    0.000    0.000    0.000    0.000 
#
# Total GULP energy -134068.308532 kJ/mol
# GULP energy per Si atom -5586.179522 kJ/mol
# Density = 2.685186 g / cm^3
# Si number density = 26.913117 Si / 1000 Ang^3
#
#
#
# Elastic Constant Matrix: (Units=GPa)
#
#
# Indices 1 2 3 4 5 6 
#
# 1 162.4907 57.4810 15.4085 0.0000 7.9229 0.0000
# 2 57.4810 207.7598 25.5024 0.0000 -0.0648 0.0000
# 3 15.4085 25.5024 95.5903 0.0000 -26.9868 0.0000
# 4 0.0000 0.0000 0.0000 49.1962 0.0000 -1.7557
# 5 7.9229 -0.0648 -26.9868 0.0000 47.2841 0.0000
# 6 0.0000 0.0000 0.0000 -1.7557 0.0000 42.1962
#
#
#
# Elastic Compliance Matrix: (Units=1/GPa)
#
#
# Indices 1 2 3 4 5 6 
#
# 1 0.006988 -0.001791 -0.001168 0.000000 -0.001840 0.000000
# 2 -0.001791 0.005467 -0.001291 0.000000 -0.000429 0.000000
# 3 -0.001168 -0.001291 0.013171 0.000000 0.007711 0.000000
# 4 0.000000 0.000000 0.000000 0.020357 0.000000 0.000847
# 5 -0.001840 -0.000429 0.007711 0.000000 0.025858 0.000000
# 6 0.000000 0.000000 0.000000 0.000847 0.000000 0.023734
#
#
# Mechanical properties :
#
#
# Convention : Reuss Voigt Hill
#
# Bulk Modulus (GPa) = 58.38959 73.62495 66.00727
# Shear Modulus (GPa) = 45.54418 52.23188 48.88803
#
# Velocity S-wave (km/s) = 4.11818 4.41018 4.26668
# Velocity P-wave (km/s) = 6.65997 7.30403 6.98942
#
# Compressibility (1/GPa) = 0.01712634
#
# Stress axis : x y z
#
# Youngs Moduli (GPa) = 143.10004 182.91562 75.92390
#
# Poissons Ratio (x) = 0.32753 0.08870
# Poissons Ratio (y) = 0.25623 0.09803
# Poissons Ratio (z) = 0.16717 0.23617
#
# Static dielectric constant tensor:
#      x y z
#    x 2.556660 0.000000 0.039930 
#    y 0.000000 1.962030 0.000000 
#    z 0.039930 0.000000 2.153470 
# 
# From -- ./inp_files/79764.got.cif
#   From: 2010.05.17/outbox.cif.g08.bks.cpg/sg14_40_cif.got.tgz:79764.got - 2010.06.03 17:49:19.
