data_PCOD9248495
_publ_section_title
;
Structure prediction by ZEFSAII (Michael W. Deem and Ramdas Pophale) SiO2 
 PCOD9248495
Probable space group: P 21/C
;
_chemical_formula_sum "Si O2"
_cell_formula_units_Z 28
_cell_length_a 13.917833
_cell_length_b 8.314283
_cell_length_c 13.508421
_cell_angle_alpha 90.000000
_cell_angle_beta 133.254044
_cell_angle_gamma 90.000000
_cell_volume 1138.478417
_symmetry_space_group_name_H-M "P 21/C"
_symmetry_group_IT_number 14
_symmetry_cell_setting 'monoclinic'
loop_
_space_group_symop_operation_xyz
x,y,z
-x,1/2+y,1/2-z
-x,-y,-z
x,1/2-y,1/2+z
loop_
_atom_site_type_symbol
_atom_site_label
_atom_site_fract_x
_atom_site_fract_y
_atom_site_fract_z
Si Si1 0.642632 0.226745 0.783316
Si Si2 0.119352 0.307969 0.522052
Si Si3 0.707710 0.921145 0.690434
Si Si4 0.424126 0.361784 0.507807
Si Si5 0.093607 0.640849 0.028777
Si Si6 0.086157 0.043580 0.341131
Si Si7 0.199840 0.929354 0.934673
O O1 0.504396 0.312493 0.664201
O O2 0.755952 0.354967 0.833788
O O3 0.658047 0.073485 0.720061
O O4 0.689178 0.178509 0.928125
O O5 0.220258 0.301928 0.682528
O O6 0.147570 0.172596 0.460325
O O7 0.135764 0.475084 0.480279
O O8 0.976142 0.289569 0.468376
O O9 0.597664 0.807974 0.563204
O O10 0.818303 0.969286 0.685945
O O11 0.500000 0.500000 0.500000
O O12 0.284999 0.443131 0.433318
O O13 0.084490 0.621410 0.903874
O O14 0.000000 0.500000 0.000000
O O15 0.934775 0.101905 0.221491
#
# Coordination Sequence:
#
# PCOD9248495 Si02
#       7
#     4   4   4   4   4   4   4
#     4  11  27  47  72 108 149 205 248 311 380 461
#     4  10  22  42  71 103 147 183 243 311 378 429
#     4  11  24  49  76 109 152 195 255 315 381 452
#     4  12  29  47  74 105 153 205 257 305 381 465
#     4  10  23  40  71 109 148 183 247 308 382 439
#     4  11  23  40  77 108 145 189 244 318 383 440
#     4  11  25  45  72 108 145 194 252 303 385 448
#
# _framework density 24.594228999999999
#
# number of rings (size 3 to 8) (size 9 to 14) (size 15 to 20)
#    0.000    1.143    1.429    3.000   10.000    6.857 
#    0.000    0.000    0.000    0.000    0.000    0.000 
#    0.000    0.000    0.000    0.000    0.000    0.000 
#
# Total GULP energy -156282.214545 kJ/mol
# GULP energy per Si atom -5581.507662 kJ/mol
# Density = 2.453825 g / cm^3
# Si number density = 24.594229 Si / 1000 Ang^3
#
#
#
# Elastic Constant Matrix: (Units=GPa)
#
#
# Indices 1 2 3 4 5 6 
#
# 1 58.1820 21.5263 0.0016 0.0000 -3.2297 0.0000
# 2 21.5263 22.8683 3.8325 0.0000 -3.0882 0.0000
# 3 0.0016 3.8325 118.9547 0.0000 -5.3459 0.0000
# 4 0.0000 0.0000 0.0000 46.5209 0.0000 -7.4642
# 5 -3.2297 -3.0882 -5.3459 0.0000 29.3529 0.0000
# 6 0.0000 0.0000 0.0000 -7.4642 0.0000 46.1328
#
#
#
# Elastic Compliance Matrix: (Units=1/GPa)
#
#
# Indices 1 2 3 4 5 6 
#
# 1 0.026454 -0.024981 0.000824 0.000000 0.000432 0.000000
# 2 -0.024981 0.068129 -0.002012 0.000000 0.004053 0.000000
# 3 0.000824 -0.002012 0.008536 0.000000 0.001433 0.000000
# 4 0.000000 0.000000 0.000000 0.022069 0.000000 0.003571
# 5 0.000432 0.004053 0.001433 0.000000 0.034803 0.000000
# 6 0.000000 0.000000 0.000000 0.003571 0.000000 0.022254
#
#
# Mechanical properties :
#
#
# Convention : Reuss Voigt Hill
#
# Bulk Modulus (GPa) = 19.69331 27.85841 23.77586
# Shear Modulus (GPa) = 19.87989 36.04430 27.96210
#
# Velocity S-wave (km/s) = 2.84617 3.83242 3.37551
# Velocity P-wave (km/s) = 4.33885 5.56193 4.98802
#
# Compressibility (1/GPa) = 0.05077865
#
# Stress axis : x y z
#
# Youngs Moduli (GPa) = 37.80139 14.67814 117.15350
#
# Poissons Ratio (x) = 0.36668 -0.09653
# Poissons Ratio (y) = 0.94433 0.23577
# Poissons Ratio (z) = -0.03115 0.02954
#
# Static dielectric constant tensor:
#      x y z
#    x 1.994160 0.000000 -0.010830 
#    y 0.000000 2.178610 0.000000 
#    z -0.010830 0.000000 2.072800 
# 
# From -- ./inp_files/46765.got.cif
#   From: 2010.05.17/outbox.cif.g08.bks.cpg/sg14_24_cif.got.tgz:46765.got - 2010.06.03 17:49:19.
