data_PCOD9248012
_publ_section_title
;
Structure prediction by ZEFSAII (Michael W. Deem and Ramdas Pophale) SiO2 
 PCOD9248012
Probable space group: P 21/C
;
_chemical_formula_sum "Si O2"
_cell_formula_units_Z 20
_cell_length_a 5.017284
_cell_length_b 7.944899
_cell_length_c 19.253990
_cell_angle_alpha 90.000000
_cell_angle_beta 77.515146
_cell_angle_gamma 90.000000
_cell_volume 749.350076
_symmetry_space_group_name_H-M "P 21/C"
_symmetry_group_IT_number 14
_symmetry_cell_setting 'monoclinic'
loop_
_space_group_symop_operation_xyz
x,y,z
-x,1/2+y,1/2-z
-x,-y,-z
x,1/2-y,1/2+z
loop_
_atom_site_type_symbol
_atom_site_label
_atom_site_fract_x
_atom_site_fract_y
_atom_site_fract_z
Si Si1 0.480086 0.262932 0.873115
Si Si2 0.941488 0.345230 0.453078
Si Si3 0.727938 0.054616 0.236719
Si Si4 0.725844 0.790734 0.823685
Si Si5 0.356446 0.598909 0.946042
O O1 0.664268 0.180218 0.923998
O O2 0.682290 0.304552 0.799647
O O3 0.342822 0.450466 0.891082
O O4 0.199282 0.162067 0.887213
O O5 0.910451 0.188584 0.509211
O O6 0.000000 0.500000 0.500000
O O7 0.453968 0.073561 0.207571
O O8 0.984130 0.126089 0.179899
O O9 0.758071 0.876773 0.274119
O O10 0.558537 0.736272 0.901062
O O11 0.500000 0.500000 0.000000
#
# Coordination Sequence:
#
# PCOD9248012 Si02
#       5
#     4   4   4   4   4
#     4  10  22  41  61  83 125 166 202 252 315 389
#     4  11  22  37  62  94 122 158 207 264 313 364
#     4  11  24  42  63  93 124 168 213 260 323 381
#     4  11  24  42  67  94 130 169 215 268 322 387
#     4   9  22  42  64  90 124 169 214 256 317 389
#
# _framework density 26.689793999999999
#
# number of rings (size 3 to 8) (size 9 to 14) (size 15 to 20)
#    0.000    1.600    0.000    3.600    0.000   16.000 
#    0.000    0.000    0.000    0.000    0.000    0.000 
#    0.000    0.000    0.000    0.000    0.000    0.000 
#
# Total GULP energy -111957.059912 kJ/mol
# GULP energy per Si atom -5597.852996 kJ/mol
# Density = 2.662905 g / cm^3
# Si number density = 26.689794 Si / 1000 Ang^3
#
#
#
# Elastic Constant Matrix: (Units=GPa)
#
#
# Indices 1 2 3 4 5 6 
#
# 1 122.5161 53.4363 16.9789 0.0000 -11.4168 0.0000
# 2 53.4363 155.1118 21.0830 0.0000 -5.1521 0.0000
# 3 16.9789 21.0830 69.3452 0.0000 -17.4772 0.0000
# 4 0.0000 0.0000 0.0000 46.8736 0.0000 -2.6262
# 5 -11.4168 -5.1521 -17.4772 0.0000 42.1367 0.0000
# 6 0.0000 0.0000 0.0000 -2.6262 0.0000 55.8986
#
#
#
# Elastic Compliance Matrix: (Units=1/GPa)
#
#
# Indices 1 2 3 4 5 6 
#
# 1 0.009870 -0.003206 -0.000968 0.000000 0.001881 0.000000
# 2 -0.003206 0.007766 -0.001737 0.000000 -0.000640 0.000000
# 3 -0.000968 -0.001737 0.016825 0.000000 0.006504 0.000000
# 4 0.000000 0.000000 0.000000 0.021390 0.000000 0.001005
# 5 0.001881 -0.000640 0.006504 0.000000 0.026861 0.000000
# 6 0.000000 0.000000 0.000000 0.001005 0.000000 0.017937
#
#
# Mechanical properties :
#
#
# Convention : Reuss Voigt Hill
#
# Bulk Modulus (GPa) = 44.17258 58.88551 51.52904
# Shear Modulus (GPa) = 41.66012 46.01344 43.83678
#
# Velocity S-wave (km/s) = 3.95511 4.15662 4.05712
# Velocity P-wave (km/s) = 6.11911 6.71919 6.42616
#
# Compressibility (1/GPa) = 0.02263848
#
# Stress axis : x y z
#
# Youngs Moduli (GPa) = 101.31717 128.75956 59.43531
#
# Poissons Ratio (x) = 0.41283 0.05752
# Poissons Ratio (y) = 0.32484 0.10327
# Poissons Ratio (z) = 0.09806 0.22371
#
# Static dielectric constant tensor:
#      x y z
#    x 1.987830 0.000000 0.043340 
#    y 0.000000 2.208450 0.000000 
#    z 0.043340 0.000000 2.191980 
# 
# From -- ./inp_files/62890.got.cif
#   From: 2010.05.17/outbox.cif.g08.bks.cpg/sg14_32_cif.got.tgz:62890.got - 2010.06.03 17:49:19.
