data_PCOD9248339
_publ_section_title
;
Structure prediction by ZEFSAII (Michael W. Deem and Ramdas Pophale) SiO2 
 PCOD9248339
Probable space group: P 21/C
;
_chemical_formula_sum "Si O2"
_cell_formula_units_Z 16
_cell_length_a 5.122221
_cell_length_b 13.809231
_cell_length_c 8.730007
_cell_angle_alpha 90.000000
_cell_angle_beta 85.453968
_cell_angle_gamma 90.000000
_cell_volume 615.565037
_symmetry_space_group_name_H-M "P 21/C"
_symmetry_group_IT_number 14
_symmetry_cell_setting 'monoclinic'
loop_
_space_group_symop_operation_xyz
x,y,z
-x,1/2+y,1/2-z
-x,-y,-z
x,1/2-y,1/2+z
loop_
_atom_site_type_symbol
_atom_site_label
_atom_site_fract_x
_atom_site_fract_y
_atom_site_fract_z
Si Si1 0.710508 0.136305 0.773145
Si Si2 0.061234 0.606436 0.433383
Si Si3 0.750266 0.789271 0.409670
Si Si4 0.864738 0.941506 0.641527
O O1 0.487574 0.191464 0.692468
O O2 0.987827 0.172273 0.690604
O O3 0.686924 0.021240 0.735612
O O4 0.732617 0.148326 0.954881
O O5 0.818023 0.679911 0.449851
O O6 0.087645 0.593983 0.250064
O O7 0.000000 0.500000 0.500000
O O8 0.722758 0.853159 0.564861
O O9 0.000000 0.000000 0.500000
#
# Coordination Sequence:
#
# PCOD9248339 Si02
#       4
#     4   4   4   4
#     4  10  23  42  65  97 133 175 226 280 339 402
#     4  10  22  42  66 100 138 179 228 284 344 412
#     4  11  22  42  67  96 132 178 225 277 338 406
#     4   9  20  42  69  99 136 178 225 283 345 410
#
# _framework density 25.992380000000001
#
# number of rings (size 3 to 8) (size 9 to 14) (size 15 to 20)
#    0.000    2.000    0.000    2.250    0.000    4.000 
#    0.000   46.250    0.000    0.000    0.000    0.000 
#    0.000    0.000    0.000    0.000    0.000    0.000 
#
# Total GULP energy -89564.053469 kJ/mol
# GULP energy per Si atom -5597.753342 kJ/mol
# Density = 2.593322 g / cm^3
# Si number density = 25.992380 Si / 1000 Ang^3
#
#
#
# Elastic Constant Matrix: (Units=GPa)
#
#
# Indices 1 2 3 4 5 6 
#
# 1 125.6237 40.6262 72.5047 0.0000 40.5939 0.0000
# 2 40.6262 140.4716 72.4848 0.0000 25.5703 0.0000
# 3 72.5047 72.4848 267.5239 0.0000 60.9459 0.0000
# 4 0.0000 0.0000 0.0000 47.9980 0.0000 8.9025
# 5 40.5939 25.5703 60.9459 0.0000 41.1754 0.0000
# 6 0.0000 0.0000 0.0000 8.9025 0.0000 11.5223
#
#
#
# Elastic Compliance Matrix: (Units=1/GPa)
#
#
# Indices 1 2 3 4 5 6 
#
# 1 0.012005 -0.001324 -0.000582 0.000000 -0.010151 0.000000
# 2 -0.001324 0.008633 -0.001594 0.000000 -0.001697 0.000000
# 3 -0.000582 -0.001594 0.005992 0.000000 -0.007305 0.000000
# 4 0.000000 0.000000 0.000000 0.024319 0.000000 -0.018790
# 5 -0.010151 -0.001697 -0.007305 0.000000 0.046161 0.000000
# 6 0.000000 0.000000 0.000000 -0.018790 0.000000 0.101306
#
#
# Mechanical properties :
#
#
# Convention : Reuss Voigt Hill
#
# Bulk Modulus (GPa) = 50.94139 100.53895 75.74017
# Shear Modulus (GPa) = 23.58953 43.33935 33.46444
#
# Velocity S-wave (km/s) = 3.01583 4.08779 3.59203
# Velocity P-wave (km/s) = 5.63632 7.81308 6.81221
#
# Compressibility (1/GPa) = 0.01963040
#
# Stress axis : x y z
#
# Youngs Moduli (GPa) = 83.30086 115.83448 166.89500
#
# Poissons Ratio (x) = 0.15332 0.09718
# Poissons Ratio (y) = 0.11025 0.26598
# Poissons Ratio (z) = 0.04851 0.18460
#
# Static dielectric constant tensor:
#      x y z
#    x 1.956300 0.000000 -0.067270 
#    y 0.000000 2.093660 0.000000 
#    z -0.067270 0.000000 2.054350 
# 
# From -- ./inp_files/5108.got.cif
#   From: 2010.05.17/outbox.cif.g08.bks.cpg/sg14_3_cif.got.tgz:5108.got - 2010.06.03 17:49:19.
