data_PCOD9248734
_publ_section_title
;
Structure prediction by ZEFSAII (Michael W. Deem and Ramdas Pophale) SiO2 
 PCOD9248734
Probable space group: P 21/C
;
_chemical_formula_sum "Si O2"
_cell_formula_units_Z 20
_cell_length_a 8.901759
_cell_length_b 7.471904
_cell_length_c 22.273189
_cell_angle_alpha 90.000000
_cell_angle_beta 35.628441
_cell_angle_gamma 90.000000
_cell_volume 862.988909
_symmetry_space_group_name_H-M "P 21/C"
_symmetry_group_IT_number 14
_symmetry_cell_setting 'monoclinic'
loop_
_space_group_symop_operation_xyz
x,y,z
-x,1/2+y,1/2-z
-x,-y,-z
x,1/2-y,1/2+z
loop_
_atom_site_type_symbol
_atom_site_label
_atom_site_fract_x
_atom_site_fract_y
_atom_site_fract_z
Si Si1 0.961613 0.336337 0.059034
Si Si2 0.389940 0.195215 0.520443
Si Si3 0.581793 0.559597 0.249671
Si Si4 0.475018 0.465890 0.589806
Si Si5 0.072645 0.115863 0.908360
O O1 0.153290 0.337342 0.052812
O O2 0.689295 0.392959 0.176050
O O3 0.048359 0.178018 0.985674
O O4 0.000000 0.500000 0.000000
O O5 0.330665 0.309297 0.599936
O O6 0.565413 0.338540 0.426226
O O7 0.500000 0.000000 0.500000
O O8 0.585141 0.532967 0.320353
O O9 0.783647 0.717209 0.170074
O O10 0.275476 0.545971 0.332872
O O11 0.780741 0.416948 0.482114
#
# Coordination Sequence:
#
# PCOD9248734 Si02
#       5
#     4   4   4   4   4
#     4  10  22  43  72 104 140 185 245 304 356 423
#     4  11  24  47  73 101 152 192 235 304 370 435
#     4  11  23  42  72 108 136 192 245 300 372 433
#     4  11  25  47  71 105 149 192 239 303 366 440
#     4  11  23  43  74 105 145 183 250 307 364 428
#
# _framework density 23.175267000000002
#
# number of rings (size 3 to 8) (size 9 to 14) (size 15 to 20)
#    0.000    1.200    2.000    4.200    2.800    1.600 
#   10.800    0.000    4.400    0.000    0.000    0.000 
#    0.000    0.000    0.000    0.000    0.000    0.000 
#
# Total GULP energy -111517.755678 kJ/mol
# GULP energy per Si atom -5575.887784 kJ/mol
# Density = 2.312252 g / cm^3
# Si number density = 23.175267 Si / 1000 Ang^3
#
#
#
# Elastic Constant Matrix: (Units=GPa)
#
#
# Indices 1 2 3 4 5 6 
#
# 1 118.3762 2.0560 50.0851 0.0000 -5.3170 0.0000
# 2 2.0560 121.2603 52.5104 0.0000 1.1561 0.0000
# 3 50.0851 52.5104 143.9357 0.0000 27.0489 0.0000
# 4 0.0000 0.0000 0.0000 28.7448 0.0000 2.6151
# 5 -5.3170 1.1561 27.0489 0.0000 27.6216 0.0000
# 6 0.0000 0.0000 0.0000 2.6151 0.0000 39.8005
#
#
#
# Elastic Compliance Matrix: (Units=1/GPa)
#
#
# Indices 1 2 3 4 5 6 
#
# 1 0.011566 0.002566 -0.006568 0.000000 0.008550 0.000000
# 2 0.002566 0.010697 -0.005888 0.000000 0.005812 0.000000
# 3 -0.006568 -0.005888 0.014182 0.000000 -0.014906 0.000000
# 4 0.000000 0.000000 0.000000 0.034998 0.000000 -0.002300
# 5 0.008550 0.005812 -0.014906 0.000000 0.052203 0.000000
# 6 0.000000 0.000000 0.000000 -0.002300 0.000000 0.025276
#
#
# Mechanical properties :
#
#
# Convention : Reuss Voigt Hill
#
# Bulk Modulus (GPa) = 59.99825 65.87500 62.93662
# Shear Modulus (GPa) = 28.69323 37.82810 33.26067
#
# Velocity S-wave (km/s) = 3.52248 4.04451 3.79249
# Velocity P-wave (km/s) = 6.51835 7.09205 6.81124
#
# Compressibility (1/GPa) = 0.01666715
#
# Stress axis : x y z
#
# Youngs Moduli (GPa) = 86.46078 93.47987 70.51145
#
# Poissons Ratio (x) = -0.23991 0.46310
# Poissons Ratio (y) = -0.22190 0.41517
# Poissons Ratio (z) = 0.56785 0.55040
#
# Static dielectric constant tensor:
#      x y z
#    x 1.835500 0.000000 -0.000230 
#    y 0.000000 2.192970 0.000000 
#    z -0.000230 0.000000 1.808230 
# 
# From -- ./inp_files/72051.got.cif
#   From: 2010.05.17/outbox.cif.g08.bks.cpg/sg14_37_cif.got.tgz:72051.got - 2010.06.03 17:49:19.
