data_PCOD9248648
_publ_section_title
;
Structure prediction by ZEFSAII (Michael W. Deem and Ramdas Pophale) SiO2 
 PCOD9248648
Probable space group: P 21/C
;
_chemical_formula_sum "Si O2"
_cell_formula_units_Z 20
_cell_length_a 26.268860
_cell_length_b 8.448287
_cell_length_c 9.700256
_cell_angle_alpha 90.000000
_cell_angle_beta 23.592472
_cell_angle_gamma 90.000000
_cell_volume 861.591157
_symmetry_space_group_name_H-M "P 21/C"
_symmetry_group_IT_number 14
_symmetry_cell_setting 'monoclinic'
loop_
_space_group_symop_operation_xyz
x,y,z
-x,1/2+y,1/2-z
-x,-y,-z
x,1/2-y,1/2+z
loop_
_atom_site_type_symbol
_atom_site_label
_atom_site_fract_x
_atom_site_fract_y
_atom_site_fract_z
Si Si1 0.490785 0.631648 0.407093
Si Si2 0.601202 0.540197 0.631851
Si Si3 0.757239 0.163597 0.924750
Si Si4 0.980577 0.857909 0.160548
Si Si5 0.112146 0.403263 0.793072
O O1 0.500000 0.500000 0.500000
O O2 0.464646 0.531295 0.337204
O O3 0.600198 0.767637 0.129785
O O4 0.360320 0.725597 0.757195
O O5 0.724846 0.431273 0.362114
O O6 0.500000 0.500000 0.000000
O O7 0.886416 0.265032 0.630211
O O8 0.766809 0.016934 0.007428
O O9 0.926189 0.884014 0.450513
O O10 0.884794 0.750329 0.307925
O O11 0.000000 0.000000 0.000000
O O12 0.000000 0.500000 0.000000
#
# Coordination Sequence:
#
# PCOD9248648 Si02
#       5
#     4   4   4   4   4
#     4  11  24  46  73 100 139 180 233 294 352 428
#     4  10  22  43  68 102 135 175 234 288 347 420
#     4  10  24  42  70  97 141 187 231 286 357 418
#     4  11  23  42  70 102 142 189 241 297 355 423
#     4  10  23  43  65 101 143 179 240 296 345 431
#
# _framework density 23.212865000000001
#
# number of rings (size 3 to 8) (size 9 to 14) (size 15 to 20)
#    0.000    1.600    0.000    4.800    8.400    1.600 
#    7.200    0.000    0.000    0.000    0.000    0.000 
#    0.000    0.000    0.000    0.000    0.000    0.000 
#
# Total GULP energy -111404.598681 kJ/mol
# GULP energy per Si atom -5570.229934 kJ/mol
# Density = 2.316003 g / cm^3
# Si number density = 23.212865 Si / 1000 Ang^3
#
#
#
# Elastic Constant Matrix: (Units=GPa)
#
#
# Indices 1 2 3 4 5 6 
#
# 1 208.3337 97.1542 59.9323 0.0000 24.8229 0.0000
# 2 97.1542 178.2674 50.3825 0.0000 4.6356 0.0000
# 3 59.9323 50.3825 86.5587 0.0000 -11.7517 0.0000
# 4 0.0000 0.0000 0.0000 33.5331 0.0000 -17.4945
# 5 24.8229 4.6356 -11.7517 0.0000 39.9917 0.0000
# 6 0.0000 0.0000 0.0000 -17.4945 0.0000 66.6831
#
#
#
# Elastic Compliance Matrix: (Units=1/GPa)
#
#
# Indices 1 2 3 4 5 6 
#
# 1 0.008357 -0.003010 -0.004886 0.000000 -0.006274 0.000000
# 2 -0.003010 0.007957 -0.002519 0.000000 0.000206 0.000000
# 3 -0.004886 -0.002519 0.017554 0.000000 0.008483 0.000000
# 4 0.000000 0.000000 0.000000 0.034550 0.000000 0.009064
# 5 -0.006274 0.000206 0.008483 0.000000 0.031368 0.000000
# 6 0.000000 0.000000 0.000000 0.009064 0.000000 0.017374
#
#
# Mechanical properties :
#
#
# Convention : Reuss Voigt Hill
#
# Bulk Modulus (GPa) = 76.70515 98.67752 87.69134
# Shear Modulus (GPa) = 35.12814 45.75429 40.44122
#
# Velocity S-wave (km/s) = 3.89434 4.44450 4.17848
# Velocity P-wave (km/s) = 7.30323 8.30302 7.81912
#
# Compressibility (1/GPa) = 0.01303693
#
# Stress axis : x y z
#
# Youngs Moduli (GPa) = 119.66104 125.67874 56.96863
#
# Poissons Ratio (x) = 0.37836 0.27833
# Poissons Ratio (y) = 0.36024 0.14350
# Poissons Ratio (z) = 0.58463 0.31658
#
# Static dielectric constant tensor:
#      x y z
#    x 1.531970 0.000000 -0.336940 
#    y 0.000000 2.615860 0.000000 
#    z -0.336940 0.000000 1.632600 
# 
# From -- ./inp_files/19344.got.cif
#   From: 2010.05.17/outbox.cif.g08.bks.cpg/sg14_10_cif.got.tgz:19344.got - 2010.06.03 17:49:19.
