data_PCOD9248175
_publ_section_title
;
Structure prediction by ZEFSAII (Michael W. Deem and Ramdas Pophale) SiO2 
 PCOD9248175
Probable space group: P 21/C
;
_chemical_formula_sum "Si O2"
_cell_formula_units_Z 28
_cell_length_a 5.402351
_cell_length_b 21.232988
_cell_length_c 11.536993
_cell_angle_alpha 90.000000
_cell_angle_beta 102.870387
_cell_angle_gamma 90.000000
_cell_volume 1290.137860
_symmetry_space_group_name_H-M "P 21/C"
_symmetry_group_IT_number 14
_symmetry_cell_setting 'monoclinic'
loop_
_space_group_symop_operation_xyz
x,y,z
-x,1/2+y,1/2-z
-x,-y,-z
x,1/2-y,1/2+z
loop_
_atom_site_type_symbol
_atom_site_label
_atom_site_fract_x
_atom_site_fract_y
_atom_site_fract_z
Si Si1 0.488344 0.232194 0.504112
Si Si2 0.430644 0.888220 0.323653
Si Si3 0.874975 0.086213 0.921481
Si Si4 0.055045 0.686770 0.106651
Si Si5 0.322747 0.856725 0.860404
Si Si6 0.665554 0.956678 0.934139
Si Si7 0.978323 0.933871 0.433559
O O1 0.523046 0.175966 0.601144
O O2 0.709323 0.221771 0.431599
O O3 0.529326 0.296985 0.574966
O O4 0.205404 0.226018 0.423818
O O5 0.295457 0.876733 0.186690
O O6 0.701453 0.923776 0.345478
O O7 0.215304 0.926429 0.371646
O O8 0.826745 0.011523 0.889901
O O9 0.805026 0.109289 0.043009
O O10 0.177683 0.087914 0.961318
O O11 0.132450 0.667031 0.243472
O O12 0.005523 0.623140 0.028210
O O13 0.512035 0.911077 0.833973
O O14 0.500000 0.000000 0.000000
O O15 0.000000 0.000000 0.500000
#
# Coordination Sequence:
#
# PCOD9248175 Si02
#       7
#     4   4   4   4   4   4   4
#     4  10  25  45  63  98 131 173 225 270 329 393
#     4  10  23  41  65  94 135 170 215 274 324 398
#     4  10  23  41  65  99 133 173 220 273 344 392
#     4  10  25  45  64  97 135 168 227 272 325 404
#     4  11  25  40  72  92 132 179 219 279 335 395
#     4   9  22  41  59  99 132 167 221 269 329 398
#     4  10  22  41  67  96 127 175 217 268 331 386
#
# _framework density 21.703105999999998
#
# number of rings (size 3 to 8) (size 9 to 14) (size 15 to 20)
#    0.000    2.000    0.000    0.429   12.000    2.286 
#    2.571    0.000    0.000    0.000    0.000    0.000 
#    0.000    0.000    0.000    0.000    0.000    0.000 
#
# Total GULP energy -156273.647483 kJ/mol
# GULP energy per Si atom -5581.201696 kJ/mol
# Density = 2.165371 g / cm^3
# Si number density = 21.703106 Si / 1000 Ang^3
#
#
#
# Elastic Constant Matrix: (Units=GPa)
#
#
# Indices 1 2 3 4 5 6 
#
# 1 108.1985 28.6366 34.8408 0.0000 31.0560 0.0000
# 2 28.6366 51.8245 16.4997 0.0000 6.5989 0.0000
# 3 34.8408 16.4997 124.3272 0.0000 28.9243 0.0000
# 4 0.0000 0.0000 0.0000 12.9148 0.0000 8.9917
# 5 31.0560 6.5989 28.9243 0.0000 31.2038 0.0000
# 6 0.0000 0.0000 0.0000 8.9917 0.0000 14.8713
#
#
#
# Elastic Compliance Matrix: (Units=1/GPa)
#
#
# Indices 1 2 3 4 5 6 
#
# 1 0.014791 -0.006425 -0.000234 0.000000 -0.013145 0.000000
# 2 -0.006425 0.023065 -0.002057 0.000000 0.003423 0.000000
# 3 -0.000234 -0.002057 0.010488 0.000000 -0.009054 0.000000
# 4 0.000000 0.000000 0.000000 0.133724 0.000000 -0.080854
# 5 -0.013145 0.003423 -0.009054 0.000000 0.052799 0.000000
# 6 0.000000 0.000000 0.000000 -0.080854 0.000000 0.116131
#
#
# Mechanical properties :
#
#
# Convention : Reuss Voigt Hill
#
# Bulk Modulus (GPa) = 32.34915 49.36715 40.85815
# Shear Modulus (GPa) = 13.20184 25.42284 19.31234
#
# Velocity S-wave (km/s) = 2.46903 3.42627 2.98626
# Velocity P-wave (km/s) = 4.80269 6.20068 5.54591
#
# Compressibility (1/GPa) = 0.03091271
#
# Stress axis : x y z
#
# Youngs Moduli (GPa) = 67.60775 43.35567 95.34442
#
# Poissons Ratio (x) = 0.27855 0.02232
# Poissons Ratio (y) = 0.43437 0.19612
# Poissons Ratio (z) = 0.01583 0.08918
#
# Static dielectric constant tensor:
#      x y z
#    x 1.911880 0.000000 0.007530 
#    y 0.000000 0.618670 0.000000 
#    z 0.007530 0.000000 1.794110 
# 
# From -- ./inp_files/21614.got.cif
#   From: 2010.05.17/outbox.cif.g08.bks.cpg/sg14_11_cif.got.tgz:21614.got - 2010.06.03 17:49:19.
