data_PCOD9248405
_publ_section_title
;
Structure prediction by ZEFSAII (Michael W. Deem and Ramdas Pophale) SiO2 
 PCOD9248405
Probable space group: P 21/C
;
_chemical_formula_sum "Si O2"
_cell_formula_units_Z 32
_cell_length_a 12.290654
_cell_length_b 13.866276
_cell_length_c 14.835590
_cell_angle_alpha 90.000000
_cell_angle_beta 145.898400
_cell_angle_gamma 90.000000
_cell_volume 1417.558104
_symmetry_space_group_name_H-M "P 21/C"
_symmetry_group_IT_number 14
_symmetry_cell_setting 'monoclinic'
loop_
_space_group_symop_operation_xyz
x,y,z
-x,1/2+y,1/2-z
-x,-y,-z
x,1/2-y,1/2+z
loop_
_atom_site_type_symbol
_atom_site_label
_atom_site_fract_x
_atom_site_fract_y
_atom_site_fract_z
Si Si1 0.933163 0.501593 0.661356
Si Si2 0.668821 0.802321 0.629311
Si Si3 0.504379 0.957074 0.902666
Si Si4 0.721954 0.262141 0.720846
Si Si5 0.644773 0.844379 0.272039
Si Si6 0.073944 0.342287 0.867610
Si Si7 0.198504 0.998797 0.195012
Si Si8 0.270194 0.855359 0.109599
O O1 0.731614 0.557989 0.532912
O O2 0.865007 0.406071 0.556809
O O3 0.015792 0.453735 0.807959
O O4 0.109757 0.546957 0.725966
O O5 0.451792 0.799512 0.441334
O O6 0.691867 0.711499 0.712201
O O7 0.805822 0.803586 0.635265
O O8 0.714566 0.899058 0.717164
O O9 0.382517 0.860144 0.818250
O O10 0.408746 0.043588 0.780598
O O11 0.500000 0.000000 0.000000
O O12 0.818189 0.214316 0.875445
O O13 0.876378 0.286323 0.750824
O O14 0.804627 0.834148 0.457900
O O15 0.444757 0.804310 0.178010
O O16 0.339989 0.941529 0.225158
O O17 0.000000 0.000000 0.000000
#
# Coordination Sequence:
#
# PCOD9248405 Si02
#       8
#     4   4   4   4   4   4   4   4
#     4   9  20  42  68  92 137 179 225 290 343 415
#     4  11  24  46  71 101 143 189 230 292 356 426
#     4  11  21  43  67  94 137 188 229 279 358 417
#     4  12  24  42  70 101 138 184 232 288 355 417
#     4  11  24  43  71  98 143 177 234 292 342 423
#     4  11  24  42  67 103 139 177 237 293 348 419
#     4   9  21  40  70  97 131 179 231 276 353 412
#     4  10  22  42  67  99 133 178 230 285 348 419
#
# _framework density 22.57403
#
# number of rings (size 3 to 8) (size 9 to 14) (size 15 to 20)
#    0.000    1.500    3.750    0.750    5.250    5.000 
#    0.000    0.000    0.000    0.000    0.000    0.000 
#    0.000    0.000    0.000    0.000    0.000    0.000 
#
# Total GULP energy -178611.001669 kJ/mol
# GULP energy per Si atom -5581.593802 kJ/mol
# Density = 2.252265 g / cm^3
# Si number density = 22.574030 Si / 1000 Ang^3
#
#
#
# Elastic Constant Matrix: (Units=GPa)
#
#
# Indices 1 2 3 4 5 6 
#
# 1 110.6900 25.1120 41.9772 0.0000 10.6926 0.0000
# 2 25.1120 58.5092 14.6869 0.0000 -4.3981 0.0000
# 3 41.9772 14.6869 79.5103 0.0000 -2.5845 0.0000
# 4 0.0000 0.0000 0.0000 28.1452 0.0000 -10.5615
# 5 10.6926 -4.3981 -2.5845 0.0000 35.3212 0.0000
# 6 0.0000 0.0000 0.0000 -10.5615 0.0000 38.8466
#
#
#
# Elastic Compliance Matrix: (Units=1/GPa)
#
#
# Indices 1 2 3 4 5 6 
#
# 1 0.012806 -0.004326 -0.006120 0.000000 -0.004863 0.000000
# 2 -0.004326 0.019525 -0.001204 0.000000 0.003653 0.000000
# 3 -0.006120 -0.001204 0.016124 0.000000 0.002883 0.000000
# 4 0.000000 0.000000 0.000000 0.039567 0.000000 0.010757
# 5 -0.004863 0.003653 0.002883 0.000000 0.030450 0.000000
# 6 0.000000 0.000000 0.000000 0.010757 0.000000 0.028667
#
#
# Mechanical properties :
#
#
# Convention : Reuss Voigt Hill
#
# Bulk Modulus (GPa) = 39.75285 45.80686 42.77985
# Shear Modulus (GPa) = 27.96053 31.59149 29.77601
#
# Velocity S-wave (km/s) = 3.52321 3.74500 3.63580
# Velocity P-wave (km/s) = 5.84799 6.24787 6.05123
#
# Compressibility (1/GPa) = 0.02515543
#
# Stress axis : x y z
#
# Youngs Moduli (GPa) = 78.08631 51.21705 62.01866
#
# Poissons Ratio (x) = 0.22155 0.37956
# Poissons Ratio (y) = 0.33778 0.07467
# Poissons Ratio (z) = 0.47790 0.06167
#
# Static dielectric constant tensor:
#      x y z
#    x 1.869420 0.000000 0.013170 
#    y 0.000000 1.906770 0.000000 
#    z 0.013170 0.000000 1.835010 
# 
# From -- ./inp_files/45107.got.cif
#   From: 2010.05.17/outbox.cif.g08.bks.cpg/sg14_23_cif.got.tgz:45107.got - 2010.06.03 17:49:19.
