data_PCOD9248001
_publ_section_title
;
Structure prediction by ZEFSAII (Michael W. Deem and Ramdas Pophale) SiO2 
 PCOD9248001
Probable space group: P 21/C
;
_chemical_formula_sum "Si O2"
_cell_formula_units_Z 16
_cell_length_a 9.436366
_cell_length_b 11.914750
_cell_length_c 8.786858
_cell_angle_alpha 90.000000
_cell_angle_beta 135.139402
_cell_angle_gamma 90.000000
_cell_volume 696.865714
_symmetry_space_group_name_H-M "P 21/C"
_symmetry_group_IT_number 14
_symmetry_cell_setting 'monoclinic'
loop_
_space_group_symop_operation_xyz
x,y,z
-x,1/2+y,1/2-z
-x,-y,-z
x,1/2-y,1/2+z
loop_
_atom_site_type_symbol
_atom_site_label
_atom_site_fract_x
_atom_site_fract_y
_atom_site_fract_z
Si Si1 0.387027 0.715222 0.342156
Si Si2 0.204421 0.163579 0.720810
Si Si3 0.170539 0.877991 0.386473
Si Si4 0.262764 0.120507 0.425789
O O1 0.561044 0.646138 0.561300
O O2 0.219290 0.770493 0.320628
O O3 0.295025 0.645384 0.135668
O O4 0.519075 0.822196 0.385772
O O5 0.164389 0.130444 0.517924
O O6 0.170820 0.297036 0.727983
O O7 0.058221 0.108342 0.732963
O O8 0.249669 0.991857 0.371759
#
# Coordination Sequence:
#
# PCOD9248001 Si02
#       4
#     4   4   4   4
#     4  10  22  41  59  92 123 152 211 243 286 376
#     4  10  22  42  58  93 124 150 211 249 279 378
#     4  12  22  41  66  85 125 167 187 253 313 334
#     4  10  22  43  61  89 126 154 201 252 296 357
#
# _framework density 22.959948000000001
#
# number of rings (size 3 to 8) (size 9 to 14) (size 15 to 20)
#    1.500    0.000    2.500    3.000    0.000    1.000 
#    4.500    2.500    0.000    0.000    0.000    0.000 
#    0.000    0.000    0.000    0.000    0.000    0.000 
#
# Total GULP energy -89242.501844 kJ/mol
# GULP energy per Si atom -5577.656365 kJ/mol
# Density = 2.290769 g / cm^3
# Si number density = 22.959948 Si / 1000 Ang^3
#
#
#
# Elastic Constant Matrix: (Units=GPa)
#
#
# Indices 1 2 3 4 5 6 
#
# 1 44.6082 -7.4004 0.6767 0.0000 -37.1242 0.0000
# 2 -7.4004 69.3334 17.5079 0.0000 15.4395 0.0000
# 3 0.6767 17.5079 27.8624 0.0000 25.8834 0.0000
# 4 0.0000 0.0000 0.0000 26.6184 0.0000 -0.7844
# 5 -37.1242 15.4395 25.8834 0.0000 -57.3688 0.0000
# 6 0.0000 0.0000 0.0000 -0.7844 0.0000 20.9115
#
#
#
# Elastic Compliance Matrix: (Units=1/GPa)
#
#
# Indices 1 2 3 4 5 6 
#
# 1 0.016354 0.002086 0.005356 0.000000 -0.007605 0.000000
# 2 0.002086 0.017407 -0.009926 0.000000 -0.001144 0.000000
# 3 0.005356 -0.009926 0.033612 0.000000 0.009027 0.000000
# 4 0.000000 0.000000 0.000000 0.037610 0.000000 0.001411
# 5 -0.007605 -0.001144 0.009027 0.000000 -0.008745 0.000000
# 6 0.000000 0.000000 0.000000 0.001411 0.000000 0.047873
#
#
# Mechanical properties :
#
#
# Convention : Reuss Voigt Hill
#
# Bulk Modulus (GPa) = 16.02429 18.15248 17.08839
# Shear Modulus (GPa) = 29.43273 6.76687 18.09980
#
# Velocity S-wave (km/s) = 3.58427 1.71862 2.81075
# Velocity P-wave (km/s) = 4.91159 3.44405 4.24177
#
# Compressibility (1/GPa) = 0.06240526
#
# Stress axis : x y z
#
# Youngs Moduli (GPa) = 61.14873 57.44820 29.75159
#
# Poissons Ratio (x) = -0.11986 -0.15936
# Poissons Ratio (y) = -0.12758 0.29532
# Poissons Ratio (z) = -0.32752 0.57023
#
# Static dielectric constant tensor:
#      x y z
#    x 1.906290 0.000000 0.034260 
#    y 0.000000 1.844970 0.000000 
#    z 0.034260 0.000000 1.830580 
# 
# From -- ./inp_files/5098.got.cif
#   From: 2010.05.17/outbox.cif.g08.bks.cpg/sg14_3_cif.got.tgz:5098.got - 2010.06.03 17:49:19.
