data_PCOD9248157
_publ_section_title
;
Structure prediction by ZEFSAII (Michael W. Deem and Ramdas Pophale) SiO2 
 PCOD9248157
Probable space group: P 21/C
;
_chemical_formula_sum "Si O2"
_cell_formula_units_Z 16
_cell_length_a 5.000776
_cell_length_b 7.644351
_cell_length_c 17.864471
_cell_angle_alpha 90.000000
_cell_angle_beta 114.486258
_cell_angle_gamma 90.000000
_cell_volume 621.496297
_symmetry_space_group_name_H-M "P 21/C"
_symmetry_group_IT_number 14
_symmetry_cell_setting 'monoclinic'
loop_
_space_group_symop_operation_xyz
x,y,z
-x,1/2+y,1/2-z
-x,-y,-z
x,1/2-y,1/2+z
loop_
_atom_site_type_symbol
_atom_site_label
_atom_site_fract_x
_atom_site_fract_y
_atom_site_fract_z
Si Si1 0.123393 0.542026 0.409964
Si Si2 0.455126 0.416074 0.311320
Si Si3 0.351358 0.960214 0.635597
Si Si4 0.161959 0.216259 0.508037
O O1 0.282061 0.538217 0.349049
O O2 0.265726 0.389553 0.478073
O O3 0.793880 0.472074 0.354648
O O4 0.060979 0.710608 0.453692
O O5 0.445925 0.211875 0.334088
O O6 0.347625 0.445390 0.214827
O O7 0.031159 0.891463 0.573127
O O8 0.407951 0.100604 0.576842
#
# Coordination Sequence:
#
# PCOD9248157 Si02
#       4
#     4   4   4   4
#     4  10  23  44  66  93 130 174 222 277 333 395
#     4  11  24  42  66  95 132 174 221 274 334 399
#     4  10  22  41  66  97 132 175 222 275 334 399
#     4   9  21  41  66  95 130 172 223 276 333 396
#
# _framework density 25.744320999999999
#
# number of rings (size 3 to 8) (size 9 to 14) (size 15 to 20)
#    0.000    2.000    0.000    1.500    0.000   18.000 
#    0.000   12.500    0.000    0.000    0.000    0.000 
#    0.000    0.000    0.000    0.000    0.000    0.000 
#
# Total GULP energy -89629.897054 kJ/mol
# GULP energy per Si atom -5601.868566 kJ/mol
# Density = 2.568573 g / cm^3
# Si number density = 25.744321 Si / 1000 Ang^3
#
#
#
# Elastic Constant Matrix: (Units=GPa)
#
#
# Indices 1 2 3 4 5 6 
#
# 1 86.1487 26.9405 37.9988 0.0000 -11.4233 0.0000
# 2 26.9405 138.6866 63.2228 0.0000 19.7415 0.0000
# 3 37.9988 63.2228 197.5936 0.0000 9.7096 0.0000
# 4 0.0000 0.0000 0.0000 53.8147 0.0000 8.4643
# 5 -11.4233 19.7415 9.7096 0.0000 11.9636 0.0000
# 6 0.0000 0.0000 0.0000 8.4643 0.0000 15.4516
#
#
#
# Elastic Compliance Matrix: (Units=1/GPa)
#
#
# Indices 1 2 3 4 5 6 
#
# 1 0.019534 -0.007044 -0.003115 0.000000 0.032804 0.000000
# 2 -0.007044 0.013137 -0.001513 0.000000 -0.027176 0.000000
# 3 -0.003115 -0.001513 0.006424 0.000000 -0.005690 0.000000
# 4 0.000000 0.000000 0.000000 0.020334 0.000000 -0.011139
# 5 0.032804 -0.027176 -0.005690 0.000000 0.164373 0.000000
# 6 0.000000 0.000000 0.000000 -0.011139 0.000000 0.070820
#
#
# Mechanical properties :
#
#
# Convention : Reuss Voigt Hill
#
# Bulk Modulus (GPa) = 63.48944 75.41701 69.45323
# Shear Modulus (GPa) = 15.46946 35.86376 25.66661
#
# Velocity S-wave (km/s) = 2.45396 3.73644 3.16093
# Velocity P-wave (km/s) = 5.72226 6.92624 6.35284
#
# Compressibility (1/GPa) = 0.01575065
#
# Stress axis : x y z
#
# Youngs Moduli (GPa) = 51.19162 76.11956 155.67360
#
# Poissons Ratio (x) = 0.53621 0.48487
# Poissons Ratio (y) = 0.36061 0.23558
# Poissons Ratio (z) = 0.15945 0.11519
#
# Static dielectric constant tensor:
#      x y z
#    x 2.004680 0.000000 0.038560 
#    y 0.000000 2.124190 0.000000 
#    z 0.038560 0.000000 1.980880 
# 
# From -- ./inp_files/36611.got.cif
#   From: 2010.05.17/outbox.cif.g08.bks.cpg/sg14_19_cif.got.tgz:36611.got - 2010.06.03 17:49:19.
