data_PCOD9248552
_publ_section_title
;
Structure prediction by ZEFSAII (Michael W. Deem and Ramdas Pophale) SiO2 
 PCOD9248552
Probable space group: P 21/C
;
_chemical_formula_sum "Si O2"
_cell_formula_units_Z 28
_cell_length_a 10.816263
_cell_length_b 7.647353
_cell_length_c 18.925784
_cell_angle_alpha 90.000000
_cell_angle_beta 134.761432
_cell_angle_gamma 90.000000
_cell_volume 1111.547594
_symmetry_space_group_name_H-M "P 21/C"
_symmetry_group_IT_number 14
_symmetry_cell_setting 'monoclinic'
loop_
_space_group_symop_operation_xyz
x,y,z
-x,1/2+y,1/2-z
-x,-y,-z
x,1/2-y,1/2+z
loop_
_atom_site_type_symbol
_atom_site_label
_atom_site_fract_x
_atom_site_fract_y
_atom_site_fract_z
Si Si1 0.874828 0.241385 0.397278
Si Si2 0.647376 0.693689 0.160037
Si Si3 0.565489 0.698084 0.470491
Si Si4 0.196328 0.697506 0.791845
Si Si5 0.284830 0.532512 0.049206
Si Si6 0.822122 0.511497 0.488021
Si Si7 0.009805 0.280286 0.154458
O O1 0.840059 0.236865 0.301086
O O2 0.803408 0.073808 0.410620
O O3 0.785032 0.405970 0.401713
O O4 0.075280 0.307283 0.486503
O O5 0.740690 0.503545 0.187775
O O6 0.453006 0.660827 0.110322
O O7 0.782481 0.798211 0.263718
O O8 0.632768 0.772376 0.076016
O O9 0.359157 0.697692 0.388704
O O10 0.653139 0.538124 0.466642
O O11 0.627107 0.857929 0.444969
O O12 0.039259 0.723175 0.782558
O O13 0.123395 0.579084 0.932274
O O14 0.950761 0.393307 0.588072
#
# Coordination Sequence:
#
# PCOD9248552 Si02
#       7
#     4   4   4   4   4   4   4
#     4  10  22  43  62  91 132 169 211 258 333 386
#     4  11  21  39  68  95 126 169 215 269 321 376
#     4  11  22  39  67  94 129 161 221 271 317 370
#     4  11  21  41  65  94 129 171 213 268 323 380
#     4  10  22  43  66  93 127 172 212 265 318 391
#     4  10  23  41  66  92 128 170 209 271 326 383
#     4  11  21  41  70  92 126 172 215 257 327 381
#
# _framework density 25.190104999999999
#
# number of rings (size 3 to 8) (size 9 to 14) (size 15 to 20)
#    0.000    1.429    4.286    1.714    0.000    3.429 
#    0.000    0.000    3.143    0.000    0.000    0.000 
#    0.000    0.000    0.000    0.000    0.000    0.000 
#
# Total GULP energy -156657.152174 kJ/mol
# GULP energy per Si atom -5594.898292 kJ/mol
# Density = 2.513277 g / cm^3
# Si number density = 25.190105 Si / 1000 Ang^3
#
#
#
# Elastic Constant Matrix: (Units=GPa)
#
#
# Indices 1 2 3 4 5 6 
#
# 1 94.4750 25.0032 24.7252 0.0000 -15.0639 0.0000
# 2 25.0032 75.2273 17.2030 0.0000 -1.7798 0.0000
# 3 24.7252 17.2030 115.9416 0.0000 -10.6040 0.0000
# 4 0.0000 0.0000 0.0000 9.1142 0.0000 -5.5614
# 5 -15.0639 -1.7798 -10.6040 0.0000 49.2617 0.0000
# 6 0.0000 0.0000 0.0000 -5.5614 0.0000 47.0644
#
#
#
# Elastic Compliance Matrix: (Units=1/GPa)
#
#
# Indices 1 2 3 4 5 6 
#
# 1 0.012566 -0.003680 -0.001831 0.000000 0.003316 0.000000
# 2 -0.003680 0.014838 -0.001500 0.000000 -0.000912 0.000000
# 3 -0.001831 -0.001500 0.009366 0.000000 0.001402 0.000000
# 4 0.000000 0.000000 0.000000 0.118245 0.000000 0.013972
# 5 0.003316 -0.000912 0.001402 0.000000 0.021583 0.000000
# 6 0.000000 0.000000 0.000000 0.013972 0.000000 0.022899
#
#
# Mechanical properties :
#
#
# Convention : Reuss Voigt Hill
#
# Bulk Modulus (GPa) = 43.95757 46.61187 45.28472
# Shear Modulus (GPa) = 22.61419 35.66888 29.14154
#
# Velocity S-wave (km/s) = 2.99948 3.76704 3.40496
# Velocity P-wave (km/s) = 5.42992 6.12087 5.78572
#
# Compressibility (1/GPa) = 0.02274921
#
# Stress axis : x y z
#
# Youngs Moduli (GPa) = 79.57712 67.39659 106.76605
#
# Poissons Ratio (x) = 0.24799 0.19545
# Poissons Ratio (y) = 0.29281 0.16018
# Poissons Ratio (z) = 0.14568 0.10111
#
# Static dielectric constant tensor:
#      x y z
#    x 1.925450 0.000000 0.016630 
#    y 0.000000 2.146910 0.000000 
#    z 0.016630 0.000000 1.943180 
# 
# From -- ./inp_files/67074.got.cif
#   From: 2010.05.17/outbox.cif.g08.bks.cpg/sg14_34_cif.got.tgz:67074.got - 2010.06.03 17:49:19.
