data_PCOD9248128
_publ_section_title
;
Structure prediction by ZEFSAII (Michael W. Deem and Ramdas Pophale) SiO2 
 PCOD9248128
Probable space group: P 21/C
;
_chemical_formula_sum "Si O2"
_cell_formula_units_Z 24
_cell_length_a 13.227893
_cell_length_b 8.947551
_cell_length_c 8.947342
_cell_angle_alpha 90.000000
_cell_angle_beta 78.598884
_cell_angle_gamma 90.000000
_cell_volume 1038.086206
_symmetry_space_group_name_H-M "P 21/C"
_symmetry_group_IT_number 14
_symmetry_cell_setting 'monoclinic'
loop_
_space_group_symop_operation_xyz
x,y,z
-x,1/2+y,1/2-z
-x,-y,-z
x,1/2-y,1/2+z
loop_
_atom_site_type_symbol
_atom_site_label
_atom_site_fract_x
_atom_site_fract_y
_atom_site_fract_z
Si Si1 0.522799 0.050297 0.823248
Si Si2 0.646667 0.143665 0.230960
Si Si3 0.787465 0.213255 0.902138
Si Si4 0.984256 0.649716 0.593504
Si Si5 0.261124 0.074935 0.278731
Si Si6 0.841503 0.823877 0.403039
O O1 0.568155 0.217008 0.786159
O O2 0.420265 0.006110 0.762851
O O3 0.616728 0.943246 0.750995
O O4 0.500000 0.000000 0.000000
O O5 0.733028 0.150959 0.332746
O O6 0.711780 0.170474 0.060591
O O7 0.906234 0.229692 0.911074
O O8 0.783156 0.074048 0.787476
O O9 0.912582 0.741739 0.504296
O O10 0.923152 0.610344 0.762301
O O11 0.000000 0.500000 0.500000
O O12 0.225391 0.209990 0.180398
O O13 0.225390 0.083903 0.459970
#
# Coordination Sequence:
#
# PCOD9248128 Si02
#       6
#     4   4   4   4   4   4
#     4  11  24  46  70 101 143 180 236 296 352 419
#     4  11  24  45  72 100 141 188 231 298 353 415
#     4  11  23  44  64 102 140 178 232 288 350 426
#     4  11  22  44  69  98 138 181 230 287 352 425
#     4  10  22  41  65  96 137 172 234 286 341 422
#     4  10  23  42  67  98 129 186 231 283 355 411
#
# _framework density 23.119468999999999
#
# number of rings (size 3 to 8) (size 9 to 14) (size 15 to 20)
#    0.000    1.333    5.000    1.000    2.333    1.333 
#   12.000    0.000    0.000    0.000    0.000    0.000 
#    0.000    0.000    0.000    0.000    0.000    0.000 
#
# Total GULP energy -134161.566983 kJ/mol
# GULP energy per Si atom -5590.065291 kJ/mol
# Density = 2.306685 g / cm^3
# Si number density = 23.119469 Si / 1000 Ang^3
#
#
#
# Elastic Constant Matrix: (Units=GPa)
#
#
# Indices 1 2 3 4 5 6 
#
# 1 97.3423 15.6505 37.1352 0.0000 1.8071 0.0000
# 2 15.6505 48.6829 50.7589 0.0000 1.5378 0.0000
# 3 37.1352 50.7589 200.9999 0.0000 -20.7726 0.0000
# 4 0.0000 0.0000 0.0000 35.5765 0.0000 4.2588
# 5 1.8071 1.5378 -20.7726 0.0000 41.3957 0.0000
# 6 0.0000 0.0000 0.0000 4.2588 0.0000 35.3705
#
#
#
# Elastic Compliance Matrix: (Units=1/GPa)
#
#
# Indices 1 2 3 4 5 6 
#
# 1 0.011254 -0.001718 -0.001782 0.000000 -0.001322 0.000000
# 2 -0.001718 0.029087 -0.007522 0.000000 -0.004780 0.000000
# 3 -0.001782 -0.007522 0.007637 0.000000 0.004189 0.000000
# 4 0.000000 0.000000 0.000000 0.028519 0.000000 -0.003434
# 5 -0.001322 -0.004780 0.004189 0.000000 0.026495 0.000000
# 6 0.000000 0.000000 0.000000 -0.003434 0.000000 0.028686
#
#
# Mechanical properties :
#
#
# Convention : Reuss Voigt Hill
#
# Bulk Modulus (GPa) = 38.56018 61.56825 50.06421
# Shear Modulus (GPa) = 30.79464 38.70060 34.74762
#
# Velocity S-wave (km/s) = 3.65359 4.09582 3.88101
# Velocity P-wave (km/s) = 5.87479 7.00399 6.46410
#
# Compressibility (1/GPa) = 0.02593349
#
# Stress axis : x y z
#
# Youngs Moduli (GPa) = 88.86088 34.37934 130.94456
#
# Poissons Ratio (x) = 0.05907 0.23331
# Poissons Ratio (y) = 0.15269 0.98497
# Poissons Ratio (z) = 0.15833 0.25860
#
# Static dielectric constant tensor:
#      x y z
#    x 1.856540 0.000000 -0.000350 
#    y 0.000000 1.931970 0.000000 
#    z -0.000350 0.000000 1.864830 
# 
# From -- ./inp_files/12217.got.cif
#   From: 2010.05.17/outbox.cif.g08.bks.cpg/sg14_7_cif.got.tgz:12217.got - 2010.06.03 17:49:19.
