data_PCOD9248923
_publ_section_title
;
Structure prediction by ZEFSAII (Michael W. Deem and Ramdas Pophale) SiO2 
 PCOD9248923
Probable space group: P 21/C
;
_chemical_formula_sum "Si O2"
_cell_formula_units_Z 30
_cell_length_a 23.238787
_cell_length_b 10.395435
_cell_length_c 28.804049
_cell_angle_alpha 90.000000
_cell_angle_beta 168.990256
_cell_angle_gamma 90.000000
_cell_volume 1328.887768
_symmetry_space_group_name_H-M "P 21/C"
_symmetry_group_IT_number 14
_symmetry_cell_setting 'monoclinic'
loop_
_space_group_symop_operation_xyz
x,y,z
-x,1/2+y,1/2-z
-x,-y,-z
x,1/2-y,1/2+z
loop_
_atom_site_type_symbol
_atom_site_label
_atom_site_fract_x
_atom_site_fract_y
_atom_site_fract_z
Si Si1 0.357480 0.484041 0.279014
Si Si2 0.540747 0.303650 0.901312
Si Si3 0.771693 0.782819 0.084974
Si Si4 0.577370 0.166614 0.770550
Si Si5 0.177390 0.219107 0.765358
Si Si6 0.318449 0.109310 0.128610
Si Si7 0.500000 0.000000 0.000000
Si Si8 0.386354 0.878687 0.439171
O O1 0.448584 0.345569 0.331522
O O2 0.539893 0.597621 0.397669
O O3 0.471071 0.493204 0.421500
O O4 0.000000 0.500000 0.000000
O O5 0.485790 0.367675 0.907777
O O6 0.896415 0.312969 0.171305
O O7 0.358113 0.365215 0.714657
O O8 0.617562 0.674467 0.930707
O O9 0.814743 0.751403 0.173706
O O10 0.480246 0.281507 0.727389
O O11 0.546233 0.031485 0.771445
O O12 0.933278 0.193950 0.045977
O O13 0.157952 0.071019 0.736427
O O14 0.508533 0.251645 0.006180
O O15 0.970121 0.114009 0.839904
O O16 0.500000 0.000000 0.500000
#
# Coordination Sequence:
#
# PCOD9248923 Si02
#       8
#     4   4   4   4   4   4   2   4
#     4  11  26  46  75 109 147 192 254 315 369 453
#     4  12  28  47  75 110 150 201 253 311 388 461
#     4  11  27  44  78 106 151 192 249 310 382 446
#     4  12  27  49  73 110 148 197 251 315 373 448
#     4  11  24  46  74 108 146 192 246 309 367 447
#     4  12  30  46  77 109 152 199 256 311 380 454
#     4  10  22  44  72 106 142 190 242 300 368 430
#     4  12  27  48  73 104 154 194 245 309 382 446
#
# _framework density 22.575271000000001
#
# number of rings (size 3 to 8) (size 9 to 14) (size 15 to 20)
#    0.000    0.533    5.333    0.800    9.333    1.600 
#    0.000    0.000    0.000    0.000    0.000    0.000 
#    0.000    0.000    0.000    0.000    0.000    0.000 
#
# Total GULP energy -167341.395061 kJ/mol
# GULP energy per Si atom -5578.046502 kJ/mol
# Density = 2.252389 g / cm^3
# Si number density = 22.575271 Si / 1000 Ang^3
#
#
#
# Elastic Constant Matrix: (Units=GPa)
#
#
# Indices 1 2 3 4 5 6 
#
# 1 99.7417 11.6011 0.4235 0.0000 -2.0379 0.0000
# 2 11.6011 53.1329 25.1915 0.0000 14.3669 0.0000
# 3 0.4235 25.1915 40.4625 0.0000 2.4613 0.0000
# 4 0.0000 0.0000 0.0000 33.4336 0.0000 7.6331
# 5 -2.0379 14.3669 2.4613 0.0000 34.7080 0.0000
# 6 0.0000 0.0000 0.0000 7.6331 0.0000 28.5201
#
#
#
# Elastic Compliance Matrix: (Units=1/GPa)
#
#
# Indices 1 2 3 4 5 6 
#
# 1 0.010512 -0.003893 0.002188 0.000000 0.002074 0.000000
# 2 -0.003893 0.032039 -0.019169 0.000000 -0.012132 0.000000
# 3 0.002188 -0.019169 0.036292 0.000000 0.005489 0.000000
# 4 0.000000 0.000000 0.000000 0.031857 0.000000 -0.008526
# 5 0.002074 -0.012132 0.005489 0.000000 0.033566 0.000000
# 6 0.000000 0.000000 0.000000 -0.008526 0.000000 0.037345
#
#
# Mechanical properties :
#
#
# Convention : Reuss Voigt Hill
#
# Bulk Modulus (GPa) = 26.95812 29.75216 28.35514
# Shear Modulus (GPa) = 21.21134 29.74039 25.47587
#
# Velocity S-wave (km/s) = 3.06859 3.63352 3.36294
# Velocity P-wave (km/s) = 4.95200 5.55077 5.25991
#
# Compressibility (1/GPa) = 0.03709457
#
# Stress axis : x y z
#
# Youngs Moduli (GPa) = 95.13134 31.21167 27.55465
#
# Poissons Ratio (x) = 0.12151 -0.06028
# Poissons Ratio (y) = 0.37035 0.52818
# Poissons Ratio (z) = -0.20811 0.59828
#
# Static dielectric constant tensor:
#      x y z
#    x 1.782650 0.000000 0.013370 
#    y 0.000000 2.222720 0.000000 
#    z 0.013370 0.000000 1.821430 
# 
# From -- ./inp_files/80688.got.cif
#   From: 2010.05.17/outbox.cif.g08.bks.cpg/sg14_41_cif.got.tgz:80688.got - 2010.06.03 17:49:19.
