data_PCOD9248158
_publ_section_title
;
Structure prediction by ZEFSAII (Michael W. Deem and Ramdas Pophale) SiO2 
 PCOD9248158
Probable space group: P 21/C
;
_chemical_formula_sum "Si O2"
_cell_formula_units_Z 32
_cell_length_a 14.622736
_cell_length_b 9.516705
_cell_length_c 21.881978
_cell_angle_alpha 90.000000
_cell_angle_beta 148.931310
_cell_angle_gamma 90.000000
_cell_volume 1571.471504
_symmetry_space_group_name_H-M "P 21/C"
_symmetry_group_IT_number 14
_symmetry_cell_setting 'monoclinic'
loop_
_space_group_symop_operation_xyz
x,y,z
-x,1/2+y,1/2-z
-x,-y,-z
x,1/2-y,1/2+z
loop_
_atom_site_type_symbol
_atom_site_label
_atom_site_fract_x
_atom_site_fract_y
_atom_site_fract_z
Si Si1 0.555842 0.212471 0.902510
Si Si2 0.718900 0.617690 0.173783
Si Si3 0.450022 0.664502 0.909355
Si Si4 0.992291 0.550657 0.164299
Si Si5 0.647581 0.635682 0.896400
Si Si6 0.671457 0.062166 0.217054
Si Si7 0.430610 0.641075 0.216455
Si Si8 0.931109 0.246844 0.179220
O O1 0.398247 0.312087 0.839048
O O2 0.614864 0.269540 0.869929
O O3 0.472379 0.057959 0.854418
O O4 0.730519 0.213172 0.044309
O O5 0.704950 0.448648 0.169524
O O6 0.915393 0.677471 0.275968
O O7 0.599997 0.652787 0.046261
O O8 0.536813 0.625820 0.894818
O O9 0.392975 0.823680 0.868638
O O10 0.153671 0.503479 0.213682
O O11 0.032168 0.678836 0.233455
O O12 0.945304 0.415144 0.178731
O O13 0.842189 0.598493 0.030702
O O14 0.571880 0.517889 0.808027
O O15 0.610361 0.787256 0.845060
O O16 0.696711 0.139615 0.296886
#
# Coordination Sequence:
#
# PCOD9248158 Si02
#       8
#     4   4   4   4   4   4   4   4
#     4  12  24  45  68 101 140 180 232 288 348 417
#     4  11  22  42  68  97 140 183 220 282 355 417
#     4  10  22  41  66  97 133 183 222 282 347 413
#     4  12  26  46  67 109 138 185 228 291 348 424
#     4  11  22  44  69  91 137 180 234 283 345 401
#     4  11  26  43  70  98 138 184 236 280 348 416
#     4  11  23  44  67  96 128 189 228 287 334 406
#     4  12  27  41  71 107 144 176 230 289 353 418
#
# _framework density 20.363081999999999
#
# number of rings (size 3 to 8) (size 9 to 14) (size 15 to 20)
#    0.000    0.750    6.250    0.750    5.250    1.500 
#    2.250    0.000    0.000    3.750    0.000    0.000 
#    0.000    0.000    0.000    0.000    0.000    0.000 
#
# Total GULP energy -178561.118586 kJ/mol
# GULP energy per Si atom -5580.034956 kJ/mol
# Density = 2.031673 g / cm^3
# Si number density = 20.363082 Si / 1000 Ang^3
#
#
#
# Elastic Constant Matrix: (Units=GPa)
#
#
# Indices 1 2 3 4 5 6 
#
# 1 78.3384 32.4185 32.5955 0.0000 -2.7178 0.0000
# 2 32.4185 93.8455 45.5871 0.0000 -8.0710 0.0000
# 3 32.5955 45.5871 68.9409 0.0000 3.2688 0.0000
# 4 0.0000 0.0000 0.0000 25.5704 0.0000 -7.5341
# 5 -2.7178 -8.0710 3.2688 0.0000 34.2333 0.0000
# 6 0.0000 0.0000 0.0000 -7.5341 0.0000 40.7099
#
#
#
# Elastic Compliance Matrix: (Units=1/GPa)
#
#
# Indices 1 2 3 4 5 6 
#
# 1 0.016426 -0.002597 -0.006110 0.000000 0.001275 0.000000
# 2 -0.002597 0.016904 -0.010175 0.000000 0.004751 0.000000
# 3 -0.006110 -0.010175 0.024369 0.000000 -0.005211 0.000000
# 4 0.000000 0.000000 0.000000 0.041363 0.000000 0.007655
# 5 0.001275 0.004751 -0.005211 0.000000 0.030930 0.000000
# 6 0.000000 0.000000 0.000000 0.007655 0.000000 0.025981
#
#
# Mechanical properties :
#
#
# Convention : Reuss Voigt Hill
#
# Bulk Modulus (GPa) = 50.16034 51.36967 50.76500
# Shear Modulus (GPa) = 24.95217 28.80429 26.87823
#
# Velocity S-wave (km/s) = 3.50432 3.76511 3.63705
# Velocity P-wave (km/s) = 6.40782 6.64703 6.52852
#
# Compressibility (1/GPa) = 0.01993607
#
# Stress axis : x y z
#
# Youngs Moduli (GPa) = 60.87853 59.15634 41.03503
#
# Poissons Ratio (x) = 0.15362 0.25071
# Poissons Ratio (y) = 0.15809 0.41755
# Poissons Ratio (z) = 0.37195 0.60194
#
# Static dielectric constant tensor:
#      x y z
#    x 1.766370 0.000000 0.003450 
#    y 0.000000 1.770110 0.000000 
#    z 0.003450 0.000000 1.707710 
# 
# From -- ./inp_files/73764.got.cif
#   From: 2010.05.17/outbox.cif.g08.bks.cpg/sg14_37_cif.got.tgz:73764.got - 2010.06.03 17:49:19.
