data_PCOD9248827
_publ_section_title
;
Structure prediction by ZEFSAII (Michael W. Deem and Ramdas Pophale) SiO2 
 PCOD9248827
Probable space group: P 21/C
;
_chemical_formula_sum "Si O2"
_cell_formula_units_Z 32
_cell_length_a 33.162649
_cell_length_b 8.621137
_cell_length_c 13.099708
_cell_angle_alpha 90.000000
_cell_angle_beta 155.453415
_cell_angle_gamma 90.000000
_cell_volume 1555.880816
_symmetry_space_group_name_H-M "P 21/C"
_symmetry_group_IT_number 14
_symmetry_cell_setting 'monoclinic'
loop_
_space_group_symop_operation_xyz
x,y,z
-x,1/2+y,1/2-z
-x,-y,-z
x,1/2-y,1/2+z
loop_
_atom_site_type_symbol
_atom_site_label
_atom_site_fract_x
_atom_site_fract_y
_atom_site_fract_z
Si Si1 0.383537 0.985347 0.237816
Si Si2 0.928657 0.675336 0.453917
Si Si3 0.215856 0.576693 0.603552
Si Si4 0.593799 0.212199 0.528478
Si Si5 0.946011 0.340985 0.911320
Si Si6 0.738562 0.777145 0.904482
Si Si7 0.611789 0.545673 0.480374
Si Si8 0.055190 0.650935 0.398293
O O1 0.334558 0.119117 0.194720
O O2 0.348341 0.999043 0.040367
O O3 0.500000 0.000000 0.500000
O O4 0.371534 0.829310 0.276776
O O5 0.949753 0.508720 0.550773
O O6 0.994706 0.705461 0.507389
O O7 0.965015 0.807482 0.617145
O O8 0.819494 0.704518 0.164892
O O9 0.326135 0.632146 0.860185
O O10 0.160971 0.654320 0.381486
O O11 0.214193 0.395436 0.569536
O O12 0.150442 0.626465 0.547789
O O13 0.590371 0.390799 0.493639
O O14 0.488555 0.138036 0.267862
O O15 0.939756 0.297566 0.014411
O O16 0.000000 0.500000 0.000000
O O17 0.683297 0.649768 0.711516
#
# Coordination Sequence:
#
# PCOD9248827 Si02
#       8
#     4   4   4   4   4   4   4   4
#     4   9  21  43  67  97 135 180 229 277 341 409
#     4  11  25  42  68  97 135 173 232 280 340 418
#     4  10  23  41  65  96 137 170 223 279 339 405
#     4  10  22  44  67  99 136 181 231 287 333 417
#     4  11  22  45  67  93 136 172 217 291 333 405
#     4  11  24  42  68 100 139 178 231 287 342 416
#     4  11  23  44  70  96 139 186 226 288 356 400
#     4  11  25  43  69  98 132 181 224 274 358 406
#
# _framework density 20.567126999999999
#
# number of rings (size 3 to 8) (size 9 to 14) (size 15 to 20)
#    0.000    1.500    1.250    4.125    3.500    2.000 
#    2.250    3.125    0.000    0.000    0.000    0.000 
#    0.000    0.000    0.000    0.000    0.000    0.000 
#
# Total GULP energy -178632.722632 kJ/mol
# GULP energy per Si atom -5582.272582 kJ/mol
# Density = 2.052031 g / cm^3
# Si number density = 20.567127 Si / 1000 Ang^3
#
#
#
# Elastic Constant Matrix: (Units=GPa)
#
#
# Indices 1 2 3 4 5 6 
#
# 1 122.9689 69.4061 59.2864 0.0000 -22.5638 0.0000
# 2 69.4061 115.7114 56.5056 0.0000 -15.2472 0.0000
# 3 59.2864 56.5056 100.8885 0.0000 -8.0333 0.0000
# 4 0.0000 0.0000 0.0000 23.5423 0.0000 -12.6880
# 5 -22.5638 -15.2472 -8.0333 0.0000 23.3108 0.0000
# 6 0.0000 0.0000 0.0000 -12.6880 0.0000 27.1201
#
#
#
# Elastic Compliance Matrix: (Units=1/GPa)
#
#
# Indices 1 2 3 4 5 6 
#
# 1 0.015542 -0.005460 -0.005307 0.000000 0.009644 0.000000
# 2 -0.005460 0.014581 -0.004750 0.000000 0.002615 0.000000
# 3 -0.005307 -0.004750 0.015459 0.000000 -0.002917 0.000000
# 4 0.000000 0.000000 0.000000 0.056798 0.000000 0.026572
# 5 0.009644 0.002615 -0.002917 0.000000 0.052939 0.000000
# 6 0.000000 0.000000 0.000000 0.026572 0.000000 0.049305
#
#
# Mechanical properties :
#
#
# Convention : Reuss Voigt Hill
#
# Bulk Modulus (GPa) = 68.73853 78.88501 73.81177
# Shear Modulus (GPa) = 20.78933 25.08603 22.93768
#
# Velocity S-wave (km/s) = 3.18276 3.49623 3.34317
# Velocity P-wave (km/s) = 6.85571 7.39840 7.13222
#
# Compressibility (1/GPa) = 0.01454788
#
# Stress axis : x y z
#
# Youngs Moduli (GPa) = 64.34059 68.58031 64.68789
#
# Poissons Ratio (x) = 0.37445 0.34332
# Poissons Ratio (y) = 0.35130 0.30726
# Poissons Ratio (z) = 0.34148 0.32575
#
# Static dielectric constant tensor:
#      x y z
#    x 1.760970 0.000000 -0.002320 
#    y 0.000000 1.795060 0.000000 
#    z -0.002320 0.000000 1.748200 
# 
# From -- ./inp_files/36495.got.cif
#   From: 2010.05.17/outbox.cif.g08.bks.cpg/sg14_19_cif.got.tgz:36495.got - 2010.06.03 17:49:19.
