data_PCOD9248871
_publ_section_title
;
Structure prediction by ZEFSAII (Michael W. Deem and Ramdas Pophale) SiO2 
 PCOD9248871
Probable space group: P 21/C
;
_chemical_formula_sum "Si O2"
_cell_formula_units_Z 32
_cell_length_a 5.464739
_cell_length_b 21.506585
_cell_length_c 12.200075
_cell_angle_alpha 90.000000
_cell_angle_beta 113.423720
_cell_angle_gamma 90.000000
_cell_volume 1315.685577
_symmetry_space_group_name_H-M "P 21/C"
_symmetry_group_IT_number 14
_symmetry_cell_setting 'monoclinic'
loop_
_space_group_symop_operation_xyz
x,y,z
-x,1/2+y,1/2-z
-x,-y,-z
x,1/2-y,1/2+z
loop_
_atom_site_type_symbol
_atom_site_label
_atom_site_fract_x
_atom_site_fract_y
_atom_site_fract_z
Si Si1 0.827778 0.808905 0.758031
Si Si2 0.224561 0.417555 0.318424
Si Si3 0.697266 0.374513 0.112721
Si Si4 0.283357 0.745550 0.458350
Si Si5 0.646042 0.636839 0.439829
Si Si6 0.578043 0.302092 0.309567
Si Si7 0.735021 0.922331 0.606929
Si Si8 0.339194 0.954674 0.739126
O O1 0.585674 0.761366 0.722690
O O2 0.808723 0.850761 0.648766
O O3 0.818596 0.852616 0.862399
O O4 0.086198 0.768763 0.823581
O O5 0.203435 0.407032 0.445474
O O6 0.398618 0.357750 0.322361
O O7 0.370616 0.479748 0.306258
O O8 0.954538 0.411178 0.199915
O O9 0.633470 0.329696 0.202127
O O10 0.730605 0.320239 0.027317
O O11 0.458382 0.419209 0.032541
O O12 0.543478 0.703909 0.469730
O O13 0.201000 0.714118 0.560153
O O14 0.397282 0.598497 0.341482
O O15 0.546718 0.946178 0.674566
O O16 0.028051 0.951694 0.646448
#
# Coordination Sequence:
#
# PCOD9248871 Si02
#       8
#     4   4   4   4   4   4   4   4
#     4  11  20  41  65  99 137 179 229 288 362 422
#     4  11  26  44  68 102 135 187 241 295 346 415
#     4  12  25  42  68 101 140 184 232 292 356 428
#     4  11  21  39  64  98 136 172 228 292 353 421
#     4  10  22  44  69  99 135 182 235 294 359 407
#     4  11  24  40  64 100 138 176 231 291 357 418
#     4  11  27  46  75 100 139 194 232 286 355 423
#     4  11  26  50  73 101 142 190 246 288 345 422
#
# _framework density 24.321919000000001
#
# number of rings (size 3 to 8) (size 9 to 14) (size 15 to 20)
#    0.000    1.000    5.000    1.125    3.500    1.000 
#    2.250    1.875    0.000    0.000    0.000    0.000 
#    0.000    0.000    0.000    0.000    0.000    0.000 
#
# Total GULP energy -178555.228330 kJ/mol
# GULP energy per Si atom -5579.850885 kJ/mol
# Density = 2.426656 g / cm^3
# Si number density = 24.321919 Si / 1000 Ang^3
#
#
#
# Elastic Constant Matrix: (Units=GPa)
#
#
# Indices 1 2 3 4 5 6 
#
# 1 57.5697 0.4813 14.3693 0.0000 14.3409 0.0000
# 2 0.4813 116.5525 -13.9192 0.0000 11.6020 0.0000
# 3 14.3693 -13.9192 107.2156 0.0000 19.3865 0.0000
# 4 0.0000 0.0000 0.0000 34.2439 0.0000 22.3510
# 5 14.3409 11.6020 19.3865 0.0000 35.3271 0.0000
# 6 0.0000 0.0000 0.0000 22.3510 0.0000 42.7272
#
#
#
# Elastic Compliance Matrix: (Units=1/GPa)
#
#
# Indices 1 2 3 4 5 6 
#
# 1 0.019518 0.000515 -0.001205 0.000000 -0.007431 0.000000
# 2 0.000515 0.009232 0.001904 0.000000 -0.004286 0.000000
# 3 -0.001205 0.001904 0.010836 0.000000 -0.006082 0.000000
# 4 0.000000 0.000000 0.000000 0.044342 0.000000 -0.023196
# 5 -0.007431 -0.004286 -0.006082 0.000000 0.036069 0.000000
# 6 0.000000 0.000000 0.000000 -0.023196 0.000000 0.035538
#
#
# Mechanical properties :
#
#
# Convention : Reuss Voigt Hill
#
# Bulk Modulus (GPa) = 23.80160 31.46672 27.63416
# Shear Modulus (GPa) = 29.92026 41.15339 35.53683
#
# Velocity S-wave (km/s) = 3.51119 4.11789 3.82658
# Velocity P-wave (km/s) = 5.12301 5.96448 5.55969
#
# Compressibility (1/GPa) = 0.04201398
#
# Stress axis : x y z
#
# Youngs Moduli (GPa) = 51.23509 108.32124 92.28832
#
# Poissons Ratio (x) = -0.05580 0.11123
# Poissons Ratio (y) = -0.02639 -0.17576
# Poissons Ratio (z) = 0.06175 -0.20630
#
# Static dielectric constant tensor:
#      x y z
#    x 1.973310 0.000000 -0.011520 
#    y 0.000000 2.174520 0.000000 
#    z -0.011520 0.000000 2.177310 
# 
# From -- ./inp_files/22186.got.cif
#   From: 2010.05.17/outbox.cif.g08.bks.cpg/sg14_12_cif.got.tgz:22186.got - 2010.06.03 17:49:19.
