data_PCOD9248637
_publ_section_title
;
Structure prediction by ZEFSAII (Michael W. Deem and Ramdas Pophale) SiO2 
 PCOD9248637
Probable space group: P 21/C
;
_chemical_formula_sum "Si O2"
_cell_formula_units_Z 28
_cell_length_a 12.029282
_cell_length_b 10.332074
_cell_length_c 22.299537
_cell_angle_alpha 90.000000
_cell_angle_beta 28.399808
_cell_angle_gamma 90.000000
_cell_volume 1318.209146
_symmetry_space_group_name_H-M "P 21/C"
_symmetry_group_IT_number 14
_symmetry_cell_setting 'monoclinic'
loop_
_space_group_symop_operation_xyz
x,y,z
-x,1/2+y,1/2-z
-x,-y,-z
x,1/2-y,1/2+z
loop_
_atom_site_type_symbol
_atom_site_label
_atom_site_fract_x
_atom_site_fract_y
_atom_site_fract_z
Si Si1 0.338988 0.642649 0.762805
Si Si2 0.577526 0.144188 0.636567
Si Si3 0.606821 0.663654 0.979231
Si Si4 0.032404 0.970216 0.631932
Si Si5 0.746244 0.419037 0.757199
Si Si6 0.401419 0.321931 0.628166
Si Si7 0.292034 0.437507 0.505588
O O1 0.354193 0.644880 0.826754
O O2 0.288201 0.785882 0.762489
O O3 0.579102 0.590525 0.618949
O O4 0.133578 0.554351 0.832969
O O5 0.800634 0.115342 0.488869
O O6 0.458737 0.274752 0.668254
O O7 0.397948 0.028689 0.708431
O O8 0.814726 0.568336 0.900431
O O9 0.577978 0.695768 0.923307
O O10 0.657141 0.806475 0.981918
O O11 0.374847 0.608610 0.120960
O O12 0.856916 0.881132 0.752948
O O13 0.016318 0.454852 0.632956
O O14 0.582977 0.435841 0.526708
#
# Coordination Sequence:
#
# PCOD9248637 Si02
#       7
#     4   4   4   4   4   4   4
#     4  10  22  43  69  96 132 177 224 268 331 397
#     4  11  26  41  65 102 138 172 220 276 333 393
#     4  10  22  46  68  95 130 179 223 265 334 397
#     4  10  23  46  67  97 133 180 220 272 338 386
#     4  10  23  42  68  96 130 181 220 272 334 391
#     4  11  26  42  67 103 134 172 221 278 328 392
#     4  10  22  43  67  98 130 172 226 270 326 385
#
# _framework density 21.240939999999998
#
# number of rings (size 3 to 8) (size 9 to 14) (size 15 to 20)
#    0.000    1.714    1.429    0.857    6.000    6.286 
#    0.000    0.000    0.000    0.000    0.000    0.000 
#    0.000    0.000    0.000    0.000    0.000    0.000 
#
# Total GULP energy -156652.521108 kJ/mol
# GULP energy per Si atom -5594.732897 kJ/mol
# Density = 2.119259 g / cm^3
# Si number density = 21.240940 Si / 1000 Ang^3
#
#
#
# Elastic Constant Matrix: (Units=GPa)
#
#
# Indices 1 2 3 4 5 6 
#
# 1 109.6323 28.8410 69.2922 0.0000 12.9469 0.0000
# 2 28.8410 85.0693 36.7611 0.0000 1.1655 0.0000
# 3 69.2922 36.7611 136.8521 0.0000 -28.8202 0.0000
# 4 0.0000 0.0000 0.0000 24.1278 0.0000 -6.3874
# 5 12.9469 1.1655 -28.8202 0.0000 32.8718 0.0000
# 6 0.0000 0.0000 0.0000 -6.3874 0.0000 -39.0710
#
#
#
# Elastic Compliance Matrix: (Units=1/GPa)
#
#
# Indices 1 2 3 4 5 6 
#
# 1 0.021629 -0.000322 -0.015522 0.000000 -0.022116 0.000000
# 2 -0.000322 0.013849 -0.004456 0.000000 -0.004271 0.000000
# 3 -0.015522 -0.004456 0.021689 0.000000 0.025287 0.000000
# 4 0.000000 0.000000 0.000000 0.039727 0.000000 -0.006495
# 5 -0.022116 -0.004271 0.025287 0.000000 0.061454 0.000000
# 6 0.000000 0.000000 0.000000 -0.006495 0.000000 -0.024533
#
#
# Mechanical properties :
#
#
# Convention : Reuss Voigt Hill
#
# Bulk Modulus (GPa) = 60.36946 66.81580 63.59263
# Shear Modulus (GPa) = 27.78741 16.69634 22.24188
#
# Velocity S-wave (km/s) = 3.62083 2.80669 3.23944
# Velocity P-wave (km/s) = 6.77964 6.48288 6.63292
#
# Compressibility (1/GPa) = 0.01656467
#
# Stress axis : x y z
#
# Youngs Moduli (GPa) = 46.23487 72.20943 46.10627
#
# Poissons Ratio (x) = 0.02326 0.71568
# Poissons Ratio (y) = 0.01489 0.20547
# Poissons Ratio (z) = 0.71767 0.32180
#
# Static dielectric constant tensor:
#      x y z
#    x 1.757410 0.000000 0.021430 
#    y 0.000000 1.760310 0.000000 
#    z 0.021430 0.000000 1.759390 
# 
# From -- ./inp_files/67328.got.cif
#   From: 2010.05.17/outbox.cif.g08.bks.cpg/sg14_34_cif.got.tgz:67328.got - 2010.06.03 17:49:19.
