data_PCOD9248412
_publ_section_title
;
Structure prediction by ZEFSAII (Michael W. Deem and Ramdas Pophale) SiO2 
 PCOD9248412
Probable space group: P 21/C
;
_chemical_formula_sum "Si O2"
_cell_formula_units_Z 32
_cell_length_a 14.073219
_cell_length_b 17.851011
_cell_length_c 12.129775
_cell_angle_alpha 90.000000
_cell_angle_beta 150.139308
_cell_angle_gamma 90.000000
_cell_volume 1517.207316
_symmetry_space_group_name_H-M "P 21/C"
_symmetry_group_IT_number 14
_symmetry_cell_setting 'monoclinic'
loop_
_space_group_symop_operation_xyz
x,y,z
-x,1/2+y,1/2-z
-x,-y,-z
x,1/2-y,1/2+z
loop_
_atom_site_type_symbol
_atom_site_label
_atom_site_fract_x
_atom_site_fract_y
_atom_site_fract_z
Si Si1 0.996808 0.853393 0.785037
Si Si2 0.360120 0.047260 0.644906
Si Si3 0.101844 0.264115 0.621823
Si Si4 0.405041 0.874605 0.688601
Si Si5 0.431768 0.155762 0.906943
Si Si6 0.244670 0.754905 0.881093
Si Si7 0.638590 0.606183 0.215672
Si Si8 0.671052 0.065107 0.762316
O O1 0.134648 0.822753 0.829827
O O2 0.827576 0.906400 0.575847
O O3 0.908757 0.782164 0.759763
O O4 0.133821 0.896950 0.006862
O O5 0.424577 0.080205 0.827726
O O6 0.522955 0.062957 0.716560
O O7 0.321531 0.958626 0.606651
O O8 0.222387 0.190035 0.716515
O O9 0.217987 0.333171 0.686031
O O10 0.893440 0.263505 0.359178
O O11 0.274595 0.812219 0.498324
O O12 0.588913 0.880796 0.793048
O O13 0.465608 0.853192 0.872507
O O14 0.552214 0.215547 0.956685
O O15 0.707213 0.521123 0.266352
O O16 0.439650 0.607483 0.946977
#
# Coordination Sequence:
#
# PCOD9248412 Si02
#       8
#     4   4   4   4   4   4   4   4
#     4  12  25  41  72  98 137 182 224 286 344 409
#     4  11  24  48  69 102 136 186 233 279 344 410
#     4  12  26  40  67 102 135 176 230 282 347 408
#     4  11  26  45  74  97 139 184 232 282 343 409
#     4  12  26  48  69  97 143 186 227 287 338 413
#     4  12  26  45  67 104 136 180 233 283 346 406
#     4  10  22  42  68 103 134 176 227 284 344 410
#     4  10  22  43  69  99 140 176 221 286 349 402
#
# _framework density 21.091381999999999
#
# number of rings (size 3 to 8) (size 9 to 14) (size 15 to 20)
#    0.000    0.750    5.000    1.875    7.000    0.500 
#    0.000    0.625    0.000    0.000    0.000    0.000 
#    0.000    0.000    0.000    0.000    0.000    0.000 
#
# Total GULP energy -178992.802580 kJ/mol
# GULP energy per Si atom -5593.525081 kJ/mol
# Density = 2.104338 g / cm^3
# Si number density = 21.091382 Si / 1000 Ang^3
#
#
#
# Elastic Constant Matrix: (Units=GPa)
#
#
# Indices 1 2 3 4 5 6 
#
# 1 61.2230 10.7814 13.6825 0.0000 -8.4519 0.0000
# 2 10.7814 64.4098 20.5098 0.0000 -3.8927 0.0000
# 3 13.6825 20.5098 67.4964 0.0000 -13.2758 0.0000
# 4 0.0000 0.0000 0.0000 36.8728 0.0000 -3.9707
# 5 -8.4519 -3.8927 -13.2758 0.0000 33.1005 0.0000
# 6 0.0000 0.0000 0.0000 -3.9707 0.0000 28.2894
#
#
#
# Elastic Compliance Matrix: (Units=1/GPa)
#
#
# Indices 1 2 3 4 5 6 
#
# 1 0.017668 -0.002020 -0.002309 0.000000 0.003348 0.000000
# 2 -0.002020 0.017420 -0.004975 0.000000 -0.000462 0.000000
# 3 -0.002309 -0.004975 0.017983 0.000000 0.006038 0.000000
# 4 0.000000 0.000000 0.000000 0.027536 0.000000 0.003865
# 5 0.003348 -0.000462 0.006038 0.000000 0.033433 0.000000
# 6 0.000000 0.000000 0.000000 0.003865 0.000000 0.035891
#
#
# Mechanical properties :
#
#
# Convention : Reuss Voigt Hill
#
# Bulk Modulus (GPa) = 29.01680 31.45295 30.23487
# Shear Modulus (GPa) = 27.77368 29.52959 28.65163
#
# Velocity S-wave (km/s) = 3.63275 3.74582 3.68972
# Velocity P-wave (km/s) = 5.60208 5.80115 5.70248
#
# Compressibility (1/GPa) = 0.03446280
#
# Stress axis : x y z
#
# Youngs Moduli (GPa) = 56.60066 57.40586 55.60810
#
# Poissons Ratio (x) = 0.11594 0.12842
# Poissons Ratio (y) = 0.11431 0.27664
# Poissons Ratio (z) = 0.13071 0.28558
#
# Static dielectric constant tensor:
#      x y z
#    x 1.755330 0.000000 -0.020070 
#    y 0.000000 1.763720 0.000000 
#    z -0.020070 0.000000 1.734440 
# 
# From -- ./inp_files/33068.got.cif
#   From: 2010.05.17/outbox.cif.g08.bks.cpg/sg14_17_cif.got.tgz:33068.got - 2010.06.03 17:49:19.
