data_PCOD9248834
_publ_section_title
;
Structure prediction by ZEFSAII (Michael W. Deem and Ramdas Pophale) SiO2 
 PCOD9248834
Probable space group: P 21/C
;
_chemical_formula_sum "Si O2"
_cell_formula_units_Z 30
_cell_length_a 11.930273
_cell_length_b 10.916914
_cell_length_c 21.091807
_cell_angle_alpha 90.000000
_cell_angle_beta 152.516230
_cell_angle_gamma 90.000000
_cell_volume 1267.748939
_symmetry_space_group_name_H-M "P 21/C"
_symmetry_group_IT_number 14
_symmetry_cell_setting 'monoclinic'
loop_
_space_group_symop_operation_xyz
x,y,z
-x,1/2+y,1/2-z
-x,-y,-z
x,1/2-y,1/2+z
loop_
_atom_site_type_symbol
_atom_site_label
_atom_site_fract_x
_atom_site_fract_y
_atom_site_fract_z
Si Si1 0.131828 0.667638 0.508830
Si Si2 0.735097 0.337120 0.285498
Si Si3 0.410785 0.155451 0.419984
Si Si4 0.313989 0.056822 0.502116
Si Si5 0.500000 0.500000 0.500000
Si Si6 0.247062 0.925224 0.745218
Si Si7 0.034698 0.486640 0.349504
Si Si8 0.359026 0.194434 0.778356
O O1 0.141905 0.629642 0.586691
O O2 0.144427 0.557841 0.464783
O O3 0.387830 0.738037 0.625085
O O4 0.882101 0.737708 0.366963
O O5 0.500023 0.419269 0.152752
O O6 0.678541 0.194110 0.256217
O O7 0.916171 0.364737 0.317932
O O8 0.394431 0.152443 0.487098
O O9 0.397002 0.281828 0.373946
O O10 0.180401 0.074848 0.282749
O O11 0.636092 0.075527 0.506057
O O12 0.041727 0.071990 0.387824
O O13 0.621121 0.426435 0.621339
O O14 0.228448 0.473513 0.392841
O O15 0.317589 0.051781 0.746757
#
# Coordination Sequence:
#
# PCOD9248834 Si02
#       8
#     4   4   4   4   2   4   4   4
#     4  11  25  48  74 104 143 198 247 297 355 443
#     4  11  28  45  72 102 147 192 238 292 366 435
#     4   9  20  43  69  97 136 178 233 291 368 427
#     4  10  22  44  68 104 134 185 235 299 364 428
#     4  12  24  44  68 110 142 176 246 296 372 426
#     4  12  27  42  68 107 144 186 237 304 361 440
#     4  10  22  47  72 105 138 190 232 297 364 428
#     4  11  25  45  71 104 140 191 243 302 365 427
#
# _framework density 23.663990999999999
#
# number of rings (size 3 to 8) (size 9 to 14) (size 15 to 20)
#    0.000    1.333    2.667    1.200    5.600    0.533 
#    7.200    0.000    0.000    0.000    0.000    0.000 
#    0.000    0.000    0.000    0.000    0.000    0.000 
#
# Total GULP energy -167372.340339 kJ/mol
# GULP energy per Si atom -5579.078011 kJ/mol
# Density = 2.361013 g / cm^3
# Si number density = 23.663991 Si / 1000 Ang^3
#
#
#
# Elastic Constant Matrix: (Units=GPa)
#
#
# Indices 1 2 3 4 5 6 
#
# 1 52.3885 -10.5576 12.3666 0.0000 3.2148 0.0000
# 2 -10.5576 62.0736 2.6086 0.0000 -0.0037 0.0000
# 3 12.3666 2.6086 102.1082 0.0000 4.6052 0.0000
# 4 0.0000 0.0000 0.0000 14.3845 0.0000 -2.5045
# 5 3.2148 -0.0037 4.6052 0.0000 52.5521 0.0000
# 6 0.0000 0.0000 0.0000 -2.5045 0.0000 17.8759
#
#
#
# Elastic Compliance Matrix: (Units=1/GPa)
#
#
# Indices 1 2 3 4 5 6 
#
# 1 0.020470 0.003588 -0.002524 0.000000 -0.001031 0.000000
# 2 0.003588 0.016756 -0.000856 0.000000 -0.000143 0.000000
# 3 -0.002524 -0.000856 0.010154 0.000000 -0.000735 0.000000
# 4 0.000000 0.000000 0.000000 0.071258 0.000000 0.009983
# 5 -0.001031 -0.000143 -0.000735 0.000000 0.019156 0.000000
# 6 0.000000 0.000000 0.000000 0.009983 0.000000 0.057340
#
#
# Mechanical properties :
#
#
# Convention : Reuss Voigt Hill
#
# Bulk Modulus (GPa) = 20.92270 25.04506 22.98388
# Shear Modulus (GPa) = 23.73583 31.10600 27.42092
#
# Velocity S-wave (km/s) = 3.17051 3.62952 3.40775
# Velocity P-wave (km/s) = 4.71843 5.30765 5.02169
#
# Compressibility (1/GPa) = 0.04779499
#
# Stress axis : x y z
#
# Youngs Moduli (GPa) = 48.85128 59.67983 98.48035
#
# Poissons Ratio (x) = -0.21411 0.24860
# Poissons Ratio (y) = -0.17526 0.08431
# Poissons Ratio (z) = 0.12332 0.05109
#
# Static dielectric constant tensor:
#      x y z
#    x 1.924140 0.000000 -0.017870 
#    y 0.000000 2.002680 0.000000 
#    z -0.017870 0.000000 1.907870 
# 
# From -- ./inp_files/67374.got.cif
#   From: 2010.05.17/outbox.cif.g08.bks.cpg/sg14_34_cif.got.tgz:67374.got - 2010.06.03 17:49:19.
