data_PCOD9248898
_publ_section_title
;
Structure prediction by ZEFSAII (Michael W. Deem and Ramdas Pophale) SiO2 
 PCOD9248898
Probable space group: P 21/C
;
_chemical_formula_sum "Si O2"
_cell_formula_units_Z 28
_cell_length_a 8.387359
_cell_length_b 23.082011
_cell_length_c 9.050346
_cell_angle_alpha 90.000000
_cell_angle_beta 132.007841
_cell_angle_gamma 90.000000
_cell_volume 1301.919090
_symmetry_space_group_name_H-M "P 21/C"
_symmetry_group_IT_number 14
_symmetry_cell_setting 'monoclinic'
loop_
_space_group_symop_operation_xyz
x,y,z
-x,1/2+y,1/2-z
-x,-y,-z
x,1/2-y,1/2+z
loop_
_atom_site_type_symbol
_atom_site_label
_atom_site_fract_x
_atom_site_fract_y
_atom_site_fract_z
Si Si1 0.594033 0.016044 0.217140
Si Si2 0.731803 0.907765 0.470413
Si Si3 0.977026 0.799090 0.493380
Si Si4 0.397086 0.643387 0.224583
Si Si5 0.875313 0.680545 0.586735
Si Si6 0.214018 0.014886 0.220157
Si Si7 0.702919 0.111238 0.664096
O O1 0.688399 0.080816 0.271880
O O2 0.738284 0.962577 0.363260
O O3 0.399128 0.021597 0.213594
O O4 0.500000 0.000000 0.000000
O O5 0.483044 0.887063 0.329075
O O6 0.868179 0.853550 0.505666
O O7 0.794599 0.932522 0.670750
O O8 0.232898 0.806926 0.673350
O O9 0.892225 0.739244 0.504529
O O10 0.921805 0.805219 0.286499
O O11 0.640142 0.653212 0.424836
O O12 0.381346 0.640979 0.037051
O O13 0.067713 0.638242 0.654391
O O14 0.266498 0.957099 0.346103
O O15 0.000000 0.000000 0.000000
#
# Coordination Sequence:
#
# PCOD9248898 Si02
#       7
#     4   4   4   4   4   4   4
#     4  11  22  40  66 103 141 181 223 284 348 423
#     4  11  23  45  68 105 145 178 235 288 353 420
#     4  11  29  45  70 101 134 185 232 295 349 413
#     4  11  23  46  69  98 140 177 229 287 350 416
#     4  11  27  48  69  99 132 185 240 284 354 416
#     4  11  22  39  69 105 139 188 231 277 359 415
#     4  10  22  44  70  99 137 183 227 285 341 414
#
# _framework density 21.506713999999999
#
# number of rings (size 3 to 8) (size 9 to 14) (size 15 to 20)
#    0.000    1.143    2.857    2.571    6.000    2.857 
#    2.571    0.000    0.000    0.000    0.000    0.000 
#    0.000    0.000    0.000    0.000    0.000    0.000 
#
# Total GULP energy -156621.431929 kJ/mol
# GULP energy per Si atom -5593.622569 kJ/mol
# Density = 2.145776 g / cm^3
# Si number density = 21.506714 Si / 1000 Ang^3
#
#
#
# Elastic Constant Matrix: (Units=GPa)
#
#
# Indices 1 2 3 4 5 6 
#
# 1 61.3358 39.8461 33.6859 0.0000 11.2645 0.0000
# 2 39.8461 91.4393 10.6404 0.0000 -3.3693 0.0000
# 3 33.6859 10.6404 98.5892 0.0000 9.4957 0.0000
# 4 0.0000 0.0000 0.0000 27.9553 0.0000 5.3583
# 5 11.2645 -3.3693 9.4957 0.0000 38.3850 0.0000
# 6 0.0000 0.0000 0.0000 5.3583 0.0000 29.0545
#
#
#
# Elastic Compliance Matrix: (Units=1/GPa)
#
#
# Indices 1 2 3 4 5 6 
#
# 1 0.030548 -0.012641 -0.008301 0.000000 -0.008021 0.000000
# 2 -0.012641 0.016370 0.002107 0.000000 0.004625 0.000000
# 3 -0.008301 0.002107 0.012805 0.000000 -0.000547 0.000000
# 4 0.000000 0.000000 0.000000 0.037082 0.000000 -0.006839
# 5 -0.008021 0.004625 -0.000547 0.000000 0.028947 0.000000
# 6 0.000000 0.000000 0.000000 -0.006839 0.000000 0.035679
#
#
# Mechanical properties :
#
#
# Convention : Reuss Voigt Hill
#
# Bulk Modulus (GPa) = 45.34645 46.63434 45.99040
# Shear Modulus (GPa) = 24.21875 30.22508 27.22192
#
# Velocity S-wave (km/s) = 3.35938 3.75291 3.56158
# Velocity P-wave (km/s) = 6.01480 6.36473 6.19224
#
# Compressibility (1/GPa) = 0.02205244
#
# Stress axis : x y z
#
# Youngs Moduli (GPa) = 32.73564 61.08691 78.09746
#
# Poissons Ratio (x) = 0.77222 0.64826
# Poissons Ratio (y) = 0.41382 -0.16455
# Poissons Ratio (z) = 0.27173 -0.12871
#
# Static dielectric constant tensor:
#      x y z
#    x 1.775290 0.000000 0.017710 
#    y 0.000000 1.776980 0.000000 
#    z 0.017710 0.000000 1.781480 
# 
# From -- ./inp_files/10432.got.cif
#   From: 2010.05.17/outbox.cif.g08.bks.cpg/sg14_6_cif.got.tgz:10432.got - 2010.06.03 17:49:19.
