data_PCOD9248359
_publ_section_title
;
Structure prediction by ZEFSAII (Michael W. Deem and Ramdas Pophale) SiO2 
 PCOD9248359
Probable space group: P 21/C
;
_chemical_formula_sum "Si O2"
_cell_formula_units_Z 28
_cell_length_a 4.997534
_cell_length_b 10.928602
_cell_length_c 23.472466
_cell_angle_alpha 90.000000
_cell_angle_beta 119.445929
_cell_angle_gamma 90.000000
_cell_volume 1116.368283
_symmetry_space_group_name_H-M "P 21/C"
_symmetry_group_IT_number 14
_symmetry_cell_setting 'monoclinic'
loop_
_space_group_symop_operation_xyz
x,y,z
-x,1/2+y,1/2-z
-x,-y,-z
x,1/2-y,1/2+z
loop_
_atom_site_type_symbol
_atom_site_label
_atom_site_fract_x
_atom_site_fract_y
_atom_site_fract_z
Si Si1 0.278201 0.346823 0.260847
Si Si2 0.650994 0.533967 0.109463
Si Si3 0.270351 0.034449 0.924467
Si Si4 0.064180 0.748317 0.666700
Si Si5 0.170229 0.890816 0.485606
Si Si6 0.402166 0.442853 0.650744
Si Si7 0.332876 0.179653 0.639463
O O1 0.032543 0.319402 0.284276
O O2 0.436128 0.479640 0.283168
O O3 0.178588 0.330909 0.185356
O O4 0.571016 0.258364 0.302585
O O5 0.942418 0.613918 0.155668
O O6 0.702791 0.445724 0.060314
O O7 0.508159 0.445599 0.142030
O O8 0.422127 0.637862 0.058988
O O9 0.487084 0.014001 0.893217
O O10 0.967679 0.948693 0.886029
O O11 0.106191 0.167738 0.900588
O O12 0.500000 0.000000 0.000000
O O13 0.911746 0.799475 0.437293
O O14 0.000000 0.000000 0.500000
O O15 0.519608 0.304763 0.661120
#
# Coordination Sequence:
#
# PCOD9248359 Si02
#       7
#     4   4   4   4   4   4   4
#     4  10  25  45  63  99 128 183 222 275 333 401
#     4  10  23  41  66 100 133 177 221 283 346 406
#     4  10  22  42  66  95 126 175 213 273 329 390
#     4  10  24  43  67  93 135 171 229 270 333 405
#     4   9  22  41  61  99 131 169 224 270 345 403
#     4  10  24  42  63  96 134 164 229 265 328 404
#     4  11  25  40  69  96 133 179 219 287 337 397
#
# _framework density 25.081330000000001
#
# number of rings (size 3 to 8) (size 9 to 14) (size 15 to 20)
#    0.000    2.000    0.000    0.429   12.000    2.286 
#    2.571    0.000    0.000    0.000    0.000    0.000 
#    0.000    0.000    0.000    0.000    0.000    0.000 
#
# Total GULP energy -156448.569212 kJ/mol
# GULP energy per Si atom -5587.448900 kJ/mol
# Density = 2.502424 g / cm^3
# Si number density = 25.081330 Si / 1000 Ang^3
#
#
#
# Elastic Constant Matrix: (Units=GPa)
#
#
# Indices 1 2 3 4 5 6 
#
# 1 77.8820 -4.9213 16.0233 0.0000 0.6814 0.0000
# 2 -4.9213 90.7608 4.4519 0.0000 15.6543 0.0000
# 3 16.0233 4.4519 85.7695 0.0000 13.9126 0.0000
# 4 0.0000 0.0000 0.0000 15.3413 0.0000 -1.4683
# 5 0.6814 15.6543 13.9126 0.0000 44.7445 0.0000
# 6 0.0000 0.0000 0.0000 -1.4683 0.0000 26.0756
#
#
#
# Elastic Compliance Matrix: (Units=1/GPa)
#
#
# Indices 1 2 3 4 5 6 
#
# 1 0.013423 0.000799 -0.002602 0.000000 0.000325 0.000000
# 2 0.000799 0.011773 -0.000095 0.000000 -0.004102 0.000000
# 3 -0.002602 -0.000095 0.012783 0.000000 -0.003902 0.000000
# 4 0.000000 0.000000 0.000000 0.065537 0.000000 0.003690
# 5 0.000325 -0.004102 -0.003902 0.000000 0.024992 0.000000
# 6 0.000000 0.000000 0.000000 0.003690 0.000000 0.038558
#
#
# Mechanical properties :
#
#
# Convention : Reuss Voigt Hill
#
# Bulk Modulus (GPa) = 29.25317 31.72444 30.48880
# Shear Modulus (GPa) = 27.43389 33.15617 30.29503
#
# Velocity S-wave (km/s) = 3.31085 3.63980 3.47922
# Velocity P-wave (km/s) = 5.12877 5.50820 5.32187
#
# Compressibility (1/GPa) = 0.03418433
#
# Stress axis : x y z
#
# Youngs Moduli (GPa) = 74.49949 84.93696 78.22842
#
# Poissons Ratio (x) = -0.06790 0.20354
# Poissons Ratio (y) = -0.05956 0.00744
# Poissons Ratio (z) = 0.19384 0.00808
#
# Static dielectric constant tensor:
#      x y z
#    x 2.082600 0.000000 0.113360 
#    y 0.000000 1.982920 0.000000 
#    z 0.113360 0.000000 2.040240 
# 
# From -- ./inp_files/63360.got.cif
#   From: 2010.05.17/outbox.cif.g08.bks.cpg/sg14_32_cif.got.tgz:63360.got - 2010.06.03 17:49:19.
