data_PCOD9248318
_publ_section_title
;
Structure prediction by ZEFSAII (Michael W. Deem and Ramdas Pophale) SiO2 
 PCOD9248318
Probable space group: P 21/C
;
_chemical_formula_sum "Si O2"
_cell_formula_units_Z 32
_cell_length_a 9.616220
_cell_length_b 17.874698
_cell_length_c 13.822116
_cell_angle_alpha 90.000000
_cell_angle_beta 30.372441
_cell_angle_gamma 90.000000
_cell_volume 1201.270703
_symmetry_space_group_name_H-M "P 21/C"
_symmetry_group_IT_number 14
_symmetry_cell_setting 'monoclinic'
loop_
_space_group_symop_operation_xyz
x,y,z
-x,1/2+y,1/2-z
-x,-y,-z
x,1/2-y,1/2+z
loop_
_atom_site_type_symbol
_atom_site_label
_atom_site_fract_x
_atom_site_fract_y
_atom_site_fract_z
Si Si1 0.086373 0.046630 0.216260
Si Si2 0.498520 0.906755 0.188827
Si Si3 0.851094 0.642504 0.658639
Si Si4 0.217327 0.294349 0.703426
Si Si5 0.551548 0.350645 0.656790
Si Si6 0.408771 0.603687 0.088177
Si Si7 0.780884 0.959546 0.536672
Si Si8 0.567586 0.250039 0.329035
O O1 0.823248 0.046280 0.304154
O O2 0.057808 0.129292 0.281435
O O3 0.053434 0.980395 0.313205
O O4 0.350255 0.051066 0.989980
O O5 0.732030 0.876702 0.124703
O O6 0.338109 0.834813 0.243031
O O7 0.314983 0.962558 0.360209
O O8 0.894100 0.730982 0.657951
O O9 0.154904 0.610111 0.499739
O O10 0.618467 0.617878 0.874500
O O11 0.510376 0.319214 0.574416
O O12 0.284399 0.258468 0.559544
O O13 0.285597 0.401541 0.838525
O O14 0.529246 0.283890 0.746571
O O15 0.572276 0.571455 0.080975
O O16 0.287205 0.683918 0.197315
#
# Coordination Sequence:
#
# PCOD9248318 Si02
#       8
#     4   4   4   4   4   4   4   4
#     4  11  24  42  67  96 141 173 223 285 334 402
#     4  11  22  41  69 102 131 181 222 277 350 389
#     4  11  23  38  73  97 133 176 222 289 331 404
#     4  10  24  43  68  96 136 178 227 281 342 402
#     4  11  24  44  67 101 134 180 231 272 347 407
#     4  10  22  42  65 102 134 174 229 280 341 393
#     4  11  25  42  70  99 141 176 227 283 333 415
#     4   9  21  42  61  97 135 164 230 280 320 407
#
# _framework density 26.638458
#
# number of rings (size 3 to 8) (size 9 to 14) (size 15 to 20)
#    0.000    1.500    2.500    1.875    7.000    1.500 
#    2.250    2.500    0.000    0.000    0.000    0.000 
#    0.000    0.000    0.000    0.000    0.000    0.000 
#
# Total GULP energy -179047.884332 kJ/mol
# GULP energy per Si atom -5595.246385 kJ/mol
# Density = 2.657783 g / cm^3
# Si number density = 26.638458 Si / 1000 Ang^3
#
#
#
# Elastic Constant Matrix: (Units=GPa)
#
#
# Indices 1 2 3 4 5 6 
#
# 1 95.2718 4.1331 42.8530 0.0000 3.8012 0.0000
# 2 4.1331 61.7994 38.1807 0.0000 5.4268 0.0000
# 3 42.8530 38.1807 133.0542 0.0000 9.4279 0.0000
# 4 0.0000 0.0000 0.0000 45.3803 0.0000 13.6316
# 5 3.8012 5.4268 9.4279 0.0000 32.3530 0.0000
# 6 0.0000 0.0000 0.0000 13.6316 0.0000 37.8803
#
#
#
# Elastic Compliance Matrix: (Units=1/GPa)
#
#
# Indices 1 2 3 4 5 6 
#
# 1 0.012482 0.002030 -0.004569 0.000000 -0.000476 0.000000
# 2 0.002030 0.020089 -0.006293 0.000000 -0.001774 0.000000
# 3 -0.004569 -0.006293 0.010905 0.000000 -0.001586 0.000000
# 4 0.000000 0.000000 0.000000 0.024707 0.000000 -0.008891
# 5 -0.000476 -0.001774 -0.001586 0.000000 0.031725 0.000000
# 6 0.000000 0.000000 0.000000 -0.008891 0.000000 0.029598
#
#
# Mechanical properties :
#
#
# Convention : Reuss Voigt Hill
#
# Bulk Modulus (GPa) = 38.74014 51.16211 44.95113
# Shear Modulus (GPa) = 32.09763 36.78664 34.44213
#
# Velocity S-wave (km/s) = 3.47498 3.72016 3.59966
# Velocity P-wave (km/s) = 5.53852 6.14008 5.84704
#
# Compressibility (1/GPa) = 0.02581302
#
# Stress axis : x y z
#
# Youngs Moduli (GPa) = 80.11342 49.77798 91.69823
#
# Poissons Ratio (x) = -0.10104 0.41896
# Poissons Ratio (y) = -0.16261 0.57703
# Poissons Ratio (z) = 0.36603 0.31324
#
# Static dielectric constant tensor:
#      x y z
#    x 2.080850 0.000000 -0.036760 
#    y 0.000000 2.124250 0.000000 
#    z -0.036760 0.000000 2.041150 
# 
# From -- ./inp_files/45423.got.cif
#   From: 2010.05.17/outbox.cif.g08.bks.cpg/sg14_23_cif.got.tgz:45423.got - 2010.06.03 17:49:19.
