data_PCOD9248266
_publ_section_title
;
Structure prediction by ZEFSAII (Michael W. Deem and Ramdas Pophale) SiO2 
 PCOD9248266
Probable space group: P 21/C
;
_chemical_formula_sum "Si O2"
_cell_formula_units_Z 24
_cell_length_a 16.724942
_cell_length_b 7.432288
_cell_length_c 22.054747
_cell_angle_alpha 90.000000
_cell_angle_beta 159.834434
_cell_angle_gamma 90.000000
_cell_volume 945.090710
_symmetry_space_group_name_H-M "P 21/C"
_symmetry_group_IT_number 14
_symmetry_cell_setting 'monoclinic'
loop_
_space_group_symop_operation_xyz
x,y,z
-x,1/2+y,1/2-z
-x,-y,-z
x,1/2-y,1/2+z
loop_
_atom_site_type_symbol
_atom_site_label
_atom_site_fract_x
_atom_site_fract_y
_atom_site_fract_z
Si Si1 0.147171 0.728550 0.954744
Si Si2 0.563951 0.512184 0.630562
Si Si3 0.755503 0.631696 0.254842
Si Si4 0.951733 0.947154 0.208991
Si Si5 0.870556 0.263035 0.277263
Si Si6 0.678028 0.734983 0.821552
O O1 0.987904 0.762885 0.899434
O O2 0.092701 0.558868 0.872574
O O3 0.067957 0.889998 0.853145
O O4 0.418648 0.739987 0.161087
O O5 0.557111 0.718708 0.600536
O O6 0.316076 0.419800 0.462507
O O7 0.723899 0.400248 0.700072
O O8 0.670416 0.555886 0.773265
O O9 0.748555 0.443605 0.216768
O O10 0.736670 0.611222 0.313570
O O11 0.072667 0.798189 0.252310
O O12 0.123152 0.244040 0.488396
#
# Coordination Sequence:
#
# PCOD9248266 Si02
#       6
#     4   4   4   4   4   4
#     4  10  22  42  61  94 130 173 214 266 319 382
#     4   9  22  42  63  97 125 167 213 264 321 377
#     4   9  22  40  64  93 128 165 210 270 312 379
#     4  10  24  41  64  94 134 166 221 265 319 385
#     4  11  21  42  66  99 124 170 216 262 326 385
#     4   9  21  41  64  91 135 162 209 273 316 376
#
# _framework density 25.394386999999998
#
# number of rings (size 3 to 8) (size 9 to 14) (size 15 to 20)
#    1.000    1.333    0.000    1.000    2.333    4.667 
#    6.000    3.333    0.000    0.000    0.000    0.000 
#    0.000    0.000    0.000    0.000    0.000    0.000 
#
# Total GULP energy -134114.388631 kJ/mol
# GULP energy per Si atom -5588.099526 kJ/mol
# Density = 2.533659 g / cm^3
# Si number density = 25.394387 Si / 1000 Ang^3
#
#
#
# Elastic Constant Matrix: (Units=GPa)
#
#
# Indices 1 2 3 4 5 6 
#
# 1 102.3986 18.9202 38.9241 0.0000 34.5530 0.0000
# 2 18.9202 105.7084 38.0844 0.0000 7.7390 0.0000
# 3 38.9241 38.0844 109.4370 0.0000 32.1007 0.0000
# 4 0.0000 0.0000 0.0000 24.7137 0.0000 8.3101
# 5 34.5530 7.7390 32.1007 0.0000 23.7398 0.0000
# 6 0.0000 0.0000 0.0000 8.3101 0.0000 36.7529
#
#
#
# Elastic Compliance Matrix: (Units=1/GPa)
#
#
# Indices 1 2 3 4 5 6 
#
# 1 0.020046 -0.002388 0.003366 0.000000 -0.032950 0.000000
# 2 -0.002388 0.011198 -0.004966 0.000000 0.006541 0.000000
# 3 0.003366 -0.004966 0.017619 0.000000 -0.027105 0.000000
# 4 0.000000 0.000000 0.000000 0.043793 0.000000 -0.009902
# 5 -0.032950 0.006541 -0.027105 0.000000 0.124600 0.000000
# 6 0.000000 0.000000 0.000000 -0.009902 0.000000 0.029448
#
#
# Mechanical properties :
#
#
# Convention : Reuss Voigt Hill
#
# Bulk Modulus (GPa) = 24.45780 56.60015 40.52898
# Shear Modulus (GPa) = 18.63527 31.81564 25.22545
#
# Velocity S-wave (km/s) = 2.71188 3.54342 3.15516
# Velocity P-wave (km/s) = 4.41110 6.25123 5.40998
#
# Compressibility (1/GPa) = 0.04088674
#
# Stress axis : x y z
#
# Youngs Moduli (GPa) = 49.88557 89.30380 56.75643
#
# Poissons Ratio (x) = 0.21330 -0.19106
# Poissons Ratio (y) = 0.11915 0.28185
# Poissons Ratio (z) = -0.16793 0.44348
#
# Static dielectric constant tensor:
#      x y z
#    x 1.976120 0.000000 -0.054200 
#    y 0.000000 2.157160 0.000000 
#    z -0.054200 0.000000 2.000800 
# 
# From -- ./inp_files/74279.got.cif
#   From: 2010.05.17/outbox.cif.g08.bks.cpg/sg14_38_cif.got.tgz:74279.got - 2010.06.03 17:49:19.
