data_PCOD9248462
_publ_section_title
;
Structure prediction by ZEFSAII (Michael W. Deem and Ramdas Pophale) SiO2 
 PCOD9248462
Probable space group: P 21/C
;
_chemical_formula_sum "Si O2"
_cell_formula_units_Z 24
_cell_length_a 14.548871
_cell_length_b 12.128244
_cell_length_c 8.443661
_cell_angle_alpha 90.000000
_cell_angle_beta 140.064895
_cell_angle_gamma 90.000000
_cell_volume 956.397894
_symmetry_space_group_name_H-M "P 21/C"
_symmetry_group_IT_number 14
_symmetry_cell_setting 'monoclinic'
loop_
_space_group_symop_operation_xyz
x,y,z
-x,1/2+y,1/2-z
-x,-y,-z
x,1/2-y,1/2+z
loop_
_atom_site_type_symbol
_atom_site_label
_atom_site_fract_x
_atom_site_fract_y
_atom_site_fract_z
Si Si1 0.718820 0.837420 0.478415
Si Si2 0.241546 0.102188 0.051498
Si Si3 0.598054 0.206453 0.877312
Si Si4 0.713720 0.377874 0.207316
Si Si5 0.011621 0.375312 0.459001
Si Si6 0.663325 0.005757 0.153959
O O1 0.702825 0.726372 0.353388
O O2 0.562390 0.840689 0.351104
O O3 0.857306 0.821397 0.770828
O O4 0.744795 0.945864 0.405805
O O5 0.070300 0.117457 0.857480
O O6 0.284772 0.006014 0.235564
O O7 0.290451 0.060399 0.943958
O O8 0.682167 0.182681 0.829418
O O9 0.595946 0.333908 0.928091
O O10 0.674229 0.131826 0.113011
O O11 0.857404 0.335312 0.309941
O O12 0.000000 0.500000 0.500000
O O13 0.500000 0.000000 0.000000
#
# Coordination Sequence:
#
# PCOD9248462 Si02
#       6
#     4   4   4   4   4   4
#     4  11  23  42  72  98 135 181 230 281 347 417
#     4  10  22  42  69  99 136 180 230 278 342 412
#     4  10  24  42  67  97 138 178 229 286 345 409
#     4  10  24  46  62 101 137 178 229 287 350 399
#     4  10  24  45  65  99 136 181 229 280 340 414
#     4   9  21  43  63 101 135 172 222 284 343 401
#
# _framework density 25.094159000000001
#
# number of rings (size 3 to 8) (size 9 to 14) (size 15 to 20)
#    0.000    2.000    0.000    1.000    9.333    3.333 
#   12.000    4.167    0.000    0.000    0.000    0.000 
#    0.000    0.000    0.000    0.000    0.000    0.000 
#
# Total GULP energy -133852.461983 kJ/mol
# GULP energy per Si atom -5577.185916 kJ/mol
# Density = 2.503704 g / cm^3
# Si number density = 25.094159 Si / 1000 Ang^3
#
#
#
# Elastic Constant Matrix: (Units=GPa)
#
#
# Indices 1 2 3 4 5 6 
#
# 1 200.6554 33.5494 33.2531 0.0000 14.8148 0.0000
# 2 33.5494 102.0117 24.0231 0.0000 -4.0395 0.0000
# 3 33.2531 24.0231 72.1753 0.0000 8.8405 0.0000
# 4 0.0000 0.0000 0.0000 44.5550 0.0000 -9.7167
# 5 14.8148 -4.0395 8.8405 0.0000 25.5717 0.0000
# 6 0.0000 0.0000 0.0000 -9.7167 0.0000 43.7840
#
#
#
# Elastic Compliance Matrix: (Units=1/GPa)
#
#
# Indices 1 2 3 4 5 6 
#
# 1 0.005763 -0.001600 -0.001757 0.000000 -0.002984 0.000000
# 2 -0.001600 0.011311 -0.003509 0.000000 0.003926 0.000000
# 3 -0.001757 -0.003509 0.016473 0.000000 -0.005231 0.000000
# 4 0.000000 0.000000 0.000000 0.023586 0.000000 0.005234
# 5 -0.002984 0.003926 -0.005231 0.000000 0.043263 0.000000
# 6 0.000000 0.000000 0.000000 0.005234 0.000000 0.024001
#
#
# Mechanical properties :
#
#
# Convention : Reuss Voigt Hill
#
# Bulk Modulus (GPa) = 50.46453 61.83260 56.14857
# Shear Modulus (GPa) = 34.54658 41.71660 38.13159
#
# Velocity S-wave (km/s) = 3.71439 4.08168 3.90236
# Velocity P-wave (km/s) = 6.20881 6.84888 6.53669
#
# Compressibility (1/GPa) = 0.01981590
#
# Stress axis : x y z
#
# Youngs Moduli (GPa) = 173.53279 88.41269 60.70432
#
# Poissons Ratio (x) = 0.14142 0.10666
# Poissons Ratio (y) = 0.27757 0.21299
# Poissons Ratio (z) = 0.30492 0.31021
#
# Static dielectric constant tensor:
#      x y z
#    x 2.084950 0.000000 0.007890 
#    y 0.000000 2.013670 0.000000 
#    z 0.007890 0.000000 2.030690 
# 
# From -- ./inp_files/16345.got.cif
#   From: 2010.05.17/outbox.cif.g08.bks.cpg/sg14_9_cif.got.tgz:16345.got - 2010.06.03 17:49:19.
