data_PCOD9248018
_publ_section_title
;
Structure prediction by ZEFSAII (Michael W. Deem and Ramdas Pophale) SiO2 
 PCOD9248018
Probable space group: P 21/C
;
_chemical_formula_sum "Si O2"
_cell_formula_units_Z 32
_cell_length_a 9.103043
_cell_length_b 14.885041
_cell_length_c 25.199020
_cell_angle_alpha 90.000000
_cell_angle_beta 151.427828
_cell_angle_gamma 90.000000
_cell_volume 1633.011413
_symmetry_space_group_name_H-M "P 21/C"
_symmetry_group_IT_number 14
_symmetry_cell_setting 'monoclinic'
loop_
_space_group_symop_operation_xyz
x,y,z
-x,1/2+y,1/2-z
-x,-y,-z
x,1/2-y,1/2+z
loop_
_atom_site_type_symbol
_atom_site_label
_atom_site_fract_x
_atom_site_fract_y
_atom_site_fract_z
Si Si1 0.662350 0.029577 0.876303
Si Si2 0.692882 0.928814 0.524571
Si Si3 0.662068 0.618405 0.186651
Si Si4 0.051502 0.602350 0.935304
Si Si5 0.757958 0.317848 0.195060
Si Si6 0.433285 0.560594 0.778604
Si Si7 0.828335 0.118063 0.238812
Si Si8 0.747593 0.812706 0.236129
O O1 0.644590 0.038798 0.806892
O O2 0.558269 0.127900 0.863556
O O3 0.411187 0.958799 0.819765
O O4 0.000000 0.000000 0.000000
O O5 0.480203 0.869469 0.419272
O O6 0.918211 0.873972 0.634079
O O7 0.500000 0.000000 0.500000
O O8 0.899387 0.995679 0.555379
O O9 0.568650 0.532509 0.190693
O O10 0.709861 0.707737 0.236005
O O11 0.963123 0.596111 0.246888
O O12 0.373123 0.640315 0.057037
O O13 0.762959 0.610782 0.882526
O O14 0.952385 0.642612 0.847359
O O15 0.784441 0.372632 0.257931
O O16 0.674371 0.214399 0.179645
O O17 0.074152 0.317299 0.262751
#
# Coordination Sequence:
#
# PCOD9248018 Si02
#       8
#     4   4   4   4   4   4   4   4
#     4  11  25  44  59  82 129 178 198 250 334 386
#     4  12  18  39  71  87 125 169 210 259 314 368
#     4  11  22  37  66  95 121 158 215 269 299 369
#     4  11  21  38  64  93 123 165 201 257 324 362
#     4  11  23  37  66 100 121 159 217 270 305 370
#     4  11  23  39  61  95 121 155 217 264 311 373
#     4  11  23  41  63  91 127 167 212 255 317 379
#     4  10  22  41  61  90 128 165 212 253 316 375
#
# _framework density 19.595700000000001
#
# number of rings (size 3 to 8) (size 9 to 14) (size 15 to 20)
#    0.000    1.000    6.250    1.125    0.000    5.000 
#    0.000    5.000    0.000    0.000    0.000    0.000 
#    0.000    0.000    0.000    0.000    0.000    0.000 
#
# Total GULP energy -178616.120802 kJ/mol
# GULP energy per Si atom -5581.753775 kJ/mol
# Density = 1.955110 g / cm^3
# Si number density = 19.595700 Si / 1000 Ang^3
#
#
#
# Elastic Constant Matrix: (Units=GPa)
#
#
# Indices 1 2 3 4 5 6 
#
# 1 88.1610 41.8650 14.7632 0.0000 2.0723 0.0000
# 2 41.8650 80.7388 12.5173 0.0000 -2.6538 0.0000
# 3 14.7632 12.5173 59.3575 0.0000 6.0697 0.0000
# 4 0.0000 0.0000 0.0000 31.9014 0.0000 -0.3944
# 5 2.0723 -2.6538 6.0697 0.0000 18.4269 0.0000
# 6 0.0000 0.0000 0.0000 -0.3944 0.0000 22.6903
#
#
#
# Elastic Compliance Matrix: (Units=1/GPa)
#
#
# Indices 1 2 3 4 5 6 
#
# 1 0.015408 -0.007756 -0.001972 0.000000 -0.002200 0.000000
# 2 -0.007756 0.016853 -0.002031 0.000000 0.003968 0.000000
# 3 -0.001972 -0.002031 0.018392 0.000000 -0.006129 0.000000
# 4 0.000000 0.000000 0.000000 0.031353 0.000000 0.000545
# 5 -0.002200 0.003968 -0.006129 0.000000 0.057106 0.000000
# 6 0.000000 0.000000 0.000000 0.000545 0.000000 0.044081
#
#
# Mechanical properties :
#
#
# Convention : Reuss Voigt Hill
#
# Bulk Modulus (GPa) = 36.85090 40.72761 38.78926
# Shear Modulus (GPa) = 23.17439 25.21117 24.19278
#
# Velocity S-wave (km/s) = 3.44266 3.59077 3.51749
# Velocity P-wave (km/s) = 5.88634 6.16608 6.02783
#
# Compressibility (1/GPa) = 0.02713638
#
# Stress axis : x y z
#
# Youngs Moduli (GPa) = 64.90197 59.33825 54.37034
#
# Poissons Ratio (x) = 0.46023 0.10720
# Poissons Ratio (y) = 0.50338 0.11040
# Poissons Ratio (z) = 0.12796 0.12049
#
# Static dielectric constant tensor:
#      x y z
#    x 1.725690 0.000000 0.005570 
#    y 0.000000 1.689600 0.000000 
#    z 0.005570 0.000000 1.697800 
# 
# From -- ./inp_files/72497.got.cif
#   From: 2010.05.17/outbox.cif.g08.bks.cpg/sg14_37_cif.got.tgz:72497.got - 2010.06.03 17:49:19.
