data_PCOD9248244
_publ_section_title
;
Structure prediction by ZEFSAII (Michael W. Deem and Ramdas Pophale) SiO2 
 PCOD9248244
Probable space group: P 21/C
;
_chemical_formula_sum "Si O2"
_cell_formula_units_Z 24
_cell_length_a 5.283235
_cell_length_b 10.760074
_cell_length_c 16.831864
_cell_angle_alpha 90.000000
_cell_angle_beta 79.003523
_cell_angle_gamma 90.000000
_cell_volume 939.288849
_symmetry_space_group_name_H-M "P 21/C"
_symmetry_group_IT_number 14
_symmetry_cell_setting 'monoclinic'
loop_
_space_group_symop_operation_xyz
x,y,z
-x,1/2+y,1/2-z
-x,-y,-z
x,1/2-y,1/2+z
loop_
_atom_site_type_symbol
_atom_site_label
_atom_site_fract_x
_atom_site_fract_y
_atom_site_fract_z
Si Si1 0.890675 0.609425 0.314824
Si Si2 0.313472 0.588600 0.422330
Si Si3 0.727771 0.863828 0.300441
Si Si4 0.533003 0.683767 0.560206
Si Si5 0.236096 0.075861 0.520357
Si Si6 0.655202 0.112673 0.763112
O O1 0.082069 0.612540 0.376546
O O2 0.416899 0.817724 0.313954
O O3 0.883768 0.485208 0.258839
O O4 0.894212 0.741896 0.268234
O O5 0.326580 0.670852 0.501519
O O6 0.304647 0.443491 0.448820
O O7 0.605717 0.598999 0.370271
O O8 0.797431 0.897266 0.384386
O O9 0.622421 0.957844 0.239384
O O10 0.711733 0.799900 0.532212
O O11 0.393371 0.688390 0.654274
O O12 0.500000 0.000000 0.500000
O O13 0.000000 0.000000 0.500000
#
# Coordination Sequence:
#
# PCOD9248244 Si02
#       6
#     4   4   4   4   4   4
#     4  11  23  44  71 102 135 187 234 303 377 428
#     4  10  22  41  77 105 131 170 245 313 362 423
#     4  12  26  48  68 102 151 194 238 304 375 448
#     4  10  24  46  72 110 140 185 250 312 364 437
#     4  12  29  48  74 104 150 211 255 292 367 468
#     4  11  26  43  71 108 144 185 245 311 381 427
#
# _framework density 25.551245999999999
#
# number of rings (size 3 to 8) (size 9 to 14) (size 15 to 20)
#    0.000    1.000    1.667    4.000    2.333   15.333 
#    0.000    0.000    0.000    0.000    0.000    0.000 
#    0.000    0.000    0.000    0.000    0.000    0.000 
#
# Total GULP energy -133676.725219 kJ/mol
# GULP energy per Si atom -5569.863551 kJ/mol
# Density = 2.549309 g / cm^3
# Si number density = 25.551246 Si / 1000 Ang^3
#
#
#
# Elastic Constant Matrix: (Units=GPa)
#
#
# Indices 1 2 3 4 5 6 
#
# 1 130.8078 8.9136 55.3274 0.0000 44.9155 0.0000
# 2 8.9136 79.6392 27.9018 0.0000 16.4628 0.0000
# 3 55.3274 27.9018 127.0153 0.0000 24.7020 0.0000
# 4 0.0000 0.0000 0.0000 7.7882 0.0000 16.5462
# 5 44.9155 16.4628 24.7020 0.0000 61.0986 0.0000
# 6 0.0000 0.0000 0.0000 16.5462 0.0000 15.6133
#
#
#
# Elastic Compliance Matrix: (Units=1/GPa)
#
#
# Indices 1 2 3 4 5 6 
#
# 1 0.011820 0.001646 -0.004053 0.000000 -0.007494 0.000000
# 2 0.001646 0.014245 -0.003109 0.000000 -0.003792 0.000000
# 3 -0.004053 -0.003109 0.010397 0.000000 -0.000386 0.000000
# 4 0.000000 0.000000 0.000000 -0.102600 0.000000 0.108730
# 5 -0.007494 -0.003792 -0.000386 0.000000 0.023054 0.000000
# 6 0.000000 0.000000 0.000000 0.108730 0.000000 -0.051179
#
#
# Mechanical properties :
#
#
# Convention : Reuss Voigt Hill
#
# Bulk Modulus (GPa) = 39.32254 57.97200 48.64727
# Shear Modulus (GPa) = -66.88620 33.25465 -16.81577
#
# Velocity S-wave (km/s) = -5.12192 3.61153 -2.56817
# Velocity P-wave (km/s) = 4.42219 6.33472 3.20725
#
# Compressibility (1/GPa) = 0.02543071
#
# Stress axis : x y z
#
# Youngs Moduli (GPa) = 84.60053 70.19795 96.18539
#
# Poissons Ratio (x) = -0.11556 0.38984
# Poissons Ratio (y) = -0.13927 0.29904
# Poissons Ratio (z) = 0.34288 0.21825
#
# Static dielectric constant tensor:
#      x y z
#    x 3.322000 0.000000 -0.612100 
#    y 0.000000 3.781500 0.000000 
#    z -0.612100 0.000000 2.133430 
# 
# From -- ./inp_files/53049.got.cif
#   From: 2010.05.17/outbox.cif.g08.bks.cpg/sg14_27_cif.got.tgz:53049.got - 2010.06.03 17:49:19.
