data_PCOD9248844
_publ_section_title
;
Structure prediction by ZEFSAII (Michael W. Deem and Ramdas Pophale) SiO2 
 PCOD9248844
Probable space group: P 21/C
;
_chemical_formula_sum "Si O2"
_cell_formula_units_Z 26
_cell_length_a 16.636117
_cell_length_b 13.536141
_cell_length_c 9.828100
_cell_angle_alpha 90.000000
_cell_angle_beta 32.815113
_cell_angle_gamma 90.000000
_cell_volume 1199.387512
_symmetry_space_group_name_H-M "P 21/C"
_symmetry_group_IT_number 14
_symmetry_cell_setting 'monoclinic'
loop_
_space_group_symop_operation_xyz
x,y,z
-x,1/2+y,1/2-z
-x,-y,-z
x,1/2-y,1/2+z
loop_
_atom_site_type_symbol
_atom_site_label
_atom_site_fract_x
_atom_site_fract_y
_atom_site_fract_z
Si Si1 0.880114 0.814349 0.807303
Si Si2 0.563123 0.092727 0.822874
Si Si3 0.000000 0.000000 0.500000
Si Si4 0.681449 0.733012 0.849497
Si Si5 0.216291 0.734916 0.851068
Si Si6 0.756789 0.363933 0.447694
Si Si7 0.522934 0.972038 0.624793
O O1 0.801829 0.772140 0.784661
O O2 0.916764 0.929059 0.731578
O O3 0.038802 0.765076 0.613322
O O4 0.764657 0.793784 0.092030
O O5 0.710692 0.137698 0.682797
O O6 0.589730 0.052389 0.632317
O O7 0.441968 0.181333 0.994989
O O8 0.500000 0.000000 0.000000
O O9 0.081809 0.902657 0.319266
O O10 0.608492 0.632104 0.008094
O O11 0.266901 0.726672 0.623364
O O12 0.268472 0.827166 0.864638
O O13 0.639376 0.448600 0.583731
O O14 0.500000 0.000000 0.500000
#
# Coordination Sequence:
#
# PCOD9248844 Si02
#       7
#     4   4   2   4   4   4   4
#     4  11  25  45  70 102 143 190 235 299 364 430
#     4  12  25  45  75 106 143 189 245 303 361 433
#     4  10  22  44  68  96 138 186 236 282 368 436
#     4  12  25  47  72 107 145 191 247 299 366 443
#     4  11  25  44  70 102 141 183 239 295 363 429
#     4  11  23  44  69 101 136 187 231 298 355 429
#     4  12  26  43  71 109 144 190 245 300 365 428
#
# _framework density 21.677731000000001
#
# number of rings (size 3 to 8) (size 9 to 14) (size 15 to 20)
#    0.000    0.615    3.077    5.538    4.308    0.000 
#    5.538    0.769    0.000    0.000    0.000    0.000 
#    0.000    0.000    0.000    0.000    0.000    0.000 
#
# Total GULP energy -144817.199870 kJ/mol
# GULP energy per Si atom -5569.892303 kJ/mol
# Density = 2.162839 g / cm^3
# Si number density = 21.677731 Si / 1000 Ang^3
#
#
#
# Elastic Constant Matrix: (Units=GPa)
#
#
# Indices 1 2 3 4 5 6 
#
# 1 93.4491 35.2858 30.0644 0.0000 5.1355 0.0000
# 2 35.2858 86.0256 23.8665 0.0000 2.6278 0.0000
# 3 30.0644 23.8665 87.3755 0.0000 10.5737 0.0000
# 4 0.0000 0.0000 0.0000 50.8954 0.0000 6.1164
# 5 5.1355 2.6278 10.5737 0.0000 45.9633 0.0000
# 6 0.0000 0.0000 0.0000 6.1164 0.0000 31.1265
#
#
#
# Elastic Compliance Matrix: (Units=1/GPa)
#
#
# Indices 1 2 3 4 5 6 
#
# 1 0.013545 -0.004614 -0.003342 0.000000 -0.000481 0.000000
# 2 -0.004614 0.014149 -0.002306 0.000000 0.000237 0.000000
# 3 -0.003342 -0.002306 0.013541 0.000000 -0.002610 0.000000
# 4 0.000000 0.000000 0.000000 0.020123 0.000000 -0.003954
# 5 -0.000481 0.000237 -0.002610 0.000000 0.022397 0.000000
# 6 0.000000 0.000000 0.000000 -0.003954 0.000000 0.032904
#
#
# Mechanical properties :
#
#
# Convention : Reuss Voigt Hill
#
# Bulk Modulus (GPa) = 48.28399 49.47595 48.87997
# Shear Modulus (GPa) = 34.70132 37.43928 36.07030
#
# Velocity S-wave (km/s) = 4.00532 4.16033 4.08356
# Velocity P-wave (km/s) = 6.61150 6.77870 6.69562
#
# Compressibility (1/GPa) = 0.02071080
#
# Stress axis : x y z
#
# Youngs Moduli (GPa) = 73.82898 70.67391 73.85252
#
# Poissons Ratio (x) = 0.32608 0.24682
# Poissons Ratio (y) = 0.34064 0.17031
# Poissons Ratio (z) = 0.24674 0.16298
#
# Static dielectric constant tensor:
#      x y z
#    x 1.806700 0.000000 -0.007060 
#    y 0.000000 1.828800 0.000000 
#    z -0.007060 0.000000 1.779220 
# 
# From -- ./inp_files/16176.got.cif
#   From: 2010.05.17/outbox.cif.g08.bks.cpg/sg14_9_cif.got.tgz:16176.got - 2010.06.03 17:49:19.
