data_PCOD9248371
_publ_section_title
;
Structure prediction by ZEFSAII (Michael W. Deem and Ramdas Pophale) SiO2 
 PCOD9248371
Probable space group: P 21/C
;
_chemical_formula_sum "Si O2"
_cell_formula_units_Z 28
_cell_length_a 20.430434
_cell_length_b 7.726946
_cell_length_c 9.301653
_cell_angle_alpha 90.000000
_cell_angle_beta 133.481884
_cell_angle_gamma 90.000000
_cell_volume 1065.462277
_symmetry_space_group_name_H-M "P 21/C"
_symmetry_group_IT_number 14
_symmetry_cell_setting 'monoclinic'
loop_
_space_group_symop_operation_xyz
x,y,z
-x,1/2+y,1/2-z
-x,-y,-z
x,1/2-y,1/2+z
loop_
_atom_site_type_symbol
_atom_site_label
_atom_site_fract_x
_atom_site_fract_y
_atom_site_fract_z
Si Si1 0.592799 0.778402 0.987818
Si Si2 0.133931 0.615385 0.462011
Si Si3 0.657413 0.046625 0.764555
Si Si4 0.126520 0.037356 0.447924
Si Si5 0.000000 0.000000 0.000000
Si Si6 0.000000 0.000000 0.500000
Si Si7 0.606929 0.240172 0.429299
Si Si8 0.319344 0.078075 0.624217
O O1 0.495393 0.795102 0.769630
O O2 0.661197 0.727600 0.962619
O O3 0.604014 0.606390 0.106065
O O4 0.610738 0.917176 0.138662
O O5 0.235080 0.546725 0.592634
O O6 0.129409 0.825933 0.459115
O O7 0.093128 0.549052 0.550536
O O8 0.072388 0.554751 0.235918
O O9 0.623158 0.212058 0.620661
O O10 0.632998 0.081444 0.892753
O O11 0.081056 0.093204 0.527381
O O12 0.224334 0.102696 0.557958
O O13 0.058275 0.086493 0.218238
O O14 0.672263 0.097887 0.453096
#
# Coordination Sequence:
#
# PCOD9248371 Si02
#       8
#     4   4   4   4   2   2   4   4
#     4  11  25  44  67 110 147 183 246 303 359 420
#     4  11  23  46  72 103 141 181 244 280 369 429
#     4  11  25  43  72 106 143 191 236 304 350 438
#     4  11  23  48  70 104 140 185 245 276 369 435
#     4  10  22  42  66  98 142 170 226 310 328 422
#     4  10  26  42  70 108 128 184 230 302 340 426
#     4  11  23  44  73 103 142 195 241 293 363 425
#     4  11  25  47  70 103 146 196 233 305 355 439
#
# _framework density 26.279674
#
# number of rings (size 3 to 8) (size 9 to 14) (size 15 to 20)
#    0.000    1.143    1.429    4.286    2.000    4.571 
#   25.714    0.000    0.000    0.000    0.000    0.000 
#    0.000    0.000    0.000    0.000    0.000    0.000 
#
# Total GULP energy -155917.992044 kJ/mol
# GULP energy per Si atom -5568.499716 kJ/mol
# Density = 2.621986 g / cm^3
# Si number density = 26.279674 Si / 1000 Ang^3
#
#
#
# Elastic Constant Matrix: (Units=GPa)
#
#
# Indices 1 2 3 4 5 6 
#
# 1 119.3078 -5.2431 3.1333 0.0000 4.4160 0.0000
# 2 -5.2431 82.1141 6.2571 0.0000 -10.4936 0.0000
# 3 3.1333 6.2571 92.2167 0.0000 -4.5022 0.0000
# 4 0.0000 0.0000 0.0000 37.7648 0.0000 9.1703
# 5 4.4160 -10.4936 -4.5022 0.0000 64.8453 0.0000
# 6 0.0000 0.0000 0.0000 9.1703 0.0000 46.8662
#
#
#
# Elastic Compliance Matrix: (Units=1/GPa)
#
#
# Indices 1 2 3 4 5 6 
#
# 1 0.008432 0.000499 -0.000346 0.000000 -0.000518 0.000000
# 2 0.000499 0.012516 -0.000772 0.000000 0.001938 0.000000
# 3 -0.000346 -0.000772 0.010940 0.000000 0.000658 0.000000
# 4 0.000000 0.000000 0.000000 0.027801 0.000000 -0.005440
# 5 -0.000518 0.001938 0.000658 0.000000 0.015816 0.000000
# 6 0.000000 0.000000 0.000000 -0.005440 0.000000 0.022402
#
#
# Mechanical properties :
#
#
# Convention : Reuss Voigt Hill
#
# Bulk Modulus (GPa) = 32.62502 33.54815 33.08659
# Shear Modulus (GPa) = 45.72011 49.19468 47.45740
#
# Velocity S-wave (km/s) = 4.17556 4.33132 4.25415
# Velocity P-wave (km/s) = 5.97399 6.14876 6.06201
#
# Compressibility (1/GPa) = 0.03065132
#
# Stress axis : x y z
#
# Youngs Moduli (GPa) = 118.59825 79.89480 91.40557
#
# Poissons Ratio (x) = -0.03983 0.03159
# Poissons Ratio (y) = -0.05913 0.07053
# Poissons Ratio (z) = 0.04099 0.06165
#
# Static dielectric constant tensor:
#      x y z
#    x 1.996720 0.000000 -0.025010 
#    y 0.000000 -1.803690 0.000000 
#    z -0.025010 0.000000 1.964390 
# 
# From -- ./inp_files/18792.got.cif
#   From: 2010.05.17/outbox.cif.g08.bks.cpg/sg14_10_cif.got.tgz:18792.got - 2010.06.03 17:49:19.
