data_PCOD9248127
_publ_section_title
;
Structure prediction by ZEFSAII (Michael W. Deem and Ramdas Pophale) SiO2 
 PCOD9248127
Probable space group: P 21/C
;
_chemical_formula_sum "Si O2"
_cell_formula_units_Z 20
_cell_length_a 9.059573
_cell_length_b 15.556365
_cell_length_c 9.392705
_cell_angle_alpha 90.000000
_cell_angle_beta 135.414329
_cell_angle_gamma 90.000000
_cell_volume 929.240559
_symmetry_space_group_name_H-M "P 21/C"
_symmetry_group_IT_number 14
_symmetry_cell_setting 'monoclinic'
loop_
_space_group_symop_operation_xyz
x,y,z
-x,1/2+y,1/2-z
-x,-y,-z
x,1/2-y,1/2+z
loop_
_atom_site_type_symbol
_atom_site_label
_atom_site_fract_x
_atom_site_fract_y
_atom_site_fract_z
Si Si1 0.853899 0.562786 0.089719
Si Si2 0.539107 0.348618 0.812322
Si Si3 0.496360 0.177033 0.604007
Si Si4 0.751225 0.007775 0.803620
Si Si5 0.281782 0.523497 0.275597
O O1 0.739168 0.498522 0.121797
O O2 0.100877 0.545883 0.263604
O O3 0.750212 0.650501 0.070043
O O4 0.791619 0.551593 0.881792
O O5 0.498738 0.262931 0.695229
O O6 0.359435 0.423164 0.705778
O O7 0.704945 0.397800 0.826221
O O8 0.581040 0.316368 0.001288
O O9 0.630664 0.096063 0.760559
O O10 0.000000 0.000000 0.000000
O O11 0.500000 0.500000 0.500000
#
# Coordination Sequence:
#
# PCOD9248127 Si02
#       5
#     4   4   4   4   4
#     4  10  22  41  65  96 135 172 222 286 333 409
#     4  11  24  43  68  98 139 178 229 287 342 418
#     4  11  24  44  65  99 139 180 230 288 345 416
#     4  11  22  45  70  95 136 188 228 284 354 409
#     4  11  22  40  69  99 131 176 228 277 344 405
#
# _framework density 21.522953999999999
#
# number of rings (size 3 to 8) (size 9 to 14) (size 15 to 20)
#    0.000    1.200    4.000    2.400    2.800    1.600 
#    0.000    4.000    0.000    0.000    0.000    0.000 
#    0.000    0.000    0.000    0.000    0.000    0.000 
#
# Total GULP energy -111439.888201 kJ/mol
# GULP energy per Si atom -5571.994410 kJ/mol
# Density = 2.147397 g / cm^3
# Si number density = 21.522954 Si / 1000 Ang^3
#
#
#
# Elastic Constant Matrix: (Units=GPa)
#
#
# Indices 1 2 3 4 5 6 
#
# 1 154.1386 55.8554 27.3471 0.0000 0.4758 0.0000
# 2 55.8554 116.7049 21.8974 0.0000 -10.8121 0.0000
# 3 27.3471 21.8974 78.5369 0.0000 0.7495 0.0000
# 4 0.0000 0.0000 0.0000 29.6399 0.0000 -17.4623
# 5 0.4758 -10.8121 0.7495 0.0000 41.4159 0.0000
# 6 0.0000 0.0000 0.0000 -17.4623 0.0000 24.9405
#
#
#
# Elastic Compliance Matrix: (Units=1/GPa)
#
#
# Indices 1 2 3 4 5 6 
#
# 1 0.008133 -0.003648 -0.001805 0.000000 -0.001013 0.000000
# 2 -0.003648 0.010924 -0.001804 0.000000 0.002926 0.000000
# 3 -0.001805 -0.001804 0.013871 0.000000 -0.000701 0.000000
# 4 0.000000 0.000000 0.000000 0.057427 0.000000 0.040208
# 5 -0.001013 0.002926 -0.000701 0.000000 0.024934 0.000000
# 6 0.000000 0.000000 0.000000 0.040208 0.000000 0.068247
#
#
# Mechanical properties :
#
#
# Convention : Reuss Voigt Hill
#
# Bulk Modulus (GPa) = 54.30356 62.17556 58.23956
# Shear Modulus (GPa) = 24.48747 35.48464 29.98605
#
# Velocity S-wave (km/s) = 3.37670 4.06481 3.73663
# Velocity P-wave (km/s) = 6.36302 7.14010 6.76273
#
# Compressibility (1/GPa) = 0.01841500
#
# Stress axis : x y z
#
# Youngs Moduli (GPa) = 122.95828 91.54277 72.09267
#
# Poissons Ratio (x) = 0.33391 0.13015
# Poissons Ratio (y) = 0.44849 0.13003
# Poissons Ratio (z) = 0.22197 0.16510
#
# Static dielectric constant tensor:
#      x y z
#    x 1.812850 0.000000 -0.018860 
#    y 0.000000 1.807530 0.000000 
#    z -0.018860 0.000000 1.885200 
# 
# From -- ./inp_files/9277.got.cif
#   From: 2010.05.17/outbox.cif.g08.bks.cpg/sg14_5_cif.got.tgz:9277.got - 2010.06.03 17:49:19.
