data_PCOD9248476
_publ_section_title
;
Structure prediction by ZEFSAII (Michael W. Deem and Ramdas Pophale) SiO2 
 PCOD9248476
Probable space group: P 21/C
;
_chemical_formula_sum "Si O2"
_cell_formula_units_Z 30
_cell_length_a 8.764226
_cell_length_b 8.866894
_cell_length_c 23.830401
_cell_angle_alpha 90.000000
_cell_angle_beta 136.799285
_cell_angle_gamma 90.000000
_cell_volume 1267.726431
_symmetry_space_group_name_H-M "P 21/C"
_symmetry_group_IT_number 14
_symmetry_cell_setting 'monoclinic'
loop_
_space_group_symop_operation_xyz
x,y,z
-x,1/2+y,1/2-z
-x,-y,-z
x,1/2-y,1/2+z
loop_
_atom_site_type_symbol
_atom_site_label
_atom_site_fract_x
_atom_site_fract_y
_atom_site_fract_z
Si Si1 0.500000 0.500000 0.000000
Si Si2 0.761138 0.863101 0.805086
Si Si3 0.954566 0.671774 0.477904
Si Si4 0.319060 0.719963 0.708925
Si Si5 0.042407 0.813610 0.295348
Si Si6 0.765968 0.428892 0.959424
Si Si7 0.931400 0.645702 0.154560
Si Si8 0.507151 0.800635 0.377508
O O1 0.701232 0.452447 0.007043
O O2 0.327918 0.375542 0.927297
O O3 0.869399 0.800530 0.891620
O O4 0.530534 0.775996 0.731260
O O5 0.932234 0.815759 0.802920
O O6 0.722034 0.041214 0.803428
O O7 0.737913 0.723020 0.455398
O O8 0.000000 0.500000 0.500000
O O9 0.187547 0.758637 0.545171
O O10 0.401356 0.768607 0.793920
O O11 0.084554 0.805790 0.642970
O O12 0.968315 0.773671 0.212305
O O13 0.315252 0.809357 0.372651
O O14 0.985687 0.982870 0.299319
O O15 0.573417 0.528361 0.879595
O O16 0.000000 0.500000 0.000000
#
# Coordination Sequence:
#
# PCOD9248476 Si02
#       8
#     2   4   4   4   4   4   4   4
#     4  12  24  44  68 112 136 188 244 286 360 448
#     4  11  23  41  68  98 133 180 239 292 360 424
#     4  10  23  42  60  98 139 174 226 291 363 418
#     4  10  23  42  65  97 131 178 235 296 351 426
#     4  11  21  43  68  97 135 181 233 298 345 429
#     4  10  22  42  70  92 137 189 230 285 352 434
#     4  11  24  43  69 101 140 178 237 292 355 427
#     4   9  20  41  64  90 126 178 228 279 342 430
#
# _framework density 23.664411999999999
#
# number of rings (size 3 to 8) (size 9 to 14) (size 15 to 20)
#    0.000    1.600    1.333    3.200    0.000    5.333 
#    9.600    0.667    0.000    0.000    0.000    0.000 
#    0.000    0.000    0.000    0.000    0.000    0.000 
#
# Total GULP energy -167088.574132 kJ/mol
# GULP energy per Si atom -5569.619138 kJ/mol
# Density = 2.361055 g / cm^3
# Si number density = 23.664412 Si / 1000 Ang^3
#
#
#
# Elastic Constant Matrix: (Units=GPa)
#
#
# Indices 1 2 3 4 5 6 
#
# 1 142.3892 37.5269 37.3023 0.0000 42.6852 0.0000
# 2 37.5269 133.8687 27.0074 0.0000 36.6890 0.0000
# 3 37.3023 27.0074 102.8875 0.0000 28.0130 0.0000
# 4 0.0000 0.0000 0.0000 37.1053 0.0000 8.3762
# 5 42.6852 36.6890 28.0130 0.0000 46.5761 0.0000
# 6 0.0000 0.0000 0.0000 8.3762 0.0000 38.9687
#
#
#
# Elastic Compliance Matrix: (Units=1/GPa)
#
#
# Indices 1 2 3 4 5 6 
#
# 1 0.009843 -0.000304 -0.001313 0.000000 -0.007991 0.000000
# 2 -0.000304 0.009562 -0.000508 0.000000 -0.006948 0.000000
# 3 -0.001313 -0.000508 0.011829 0.000000 -0.005511 0.000000
# 4 0.000000 0.000000 0.000000 0.028325 0.000000 -0.006088
# 5 -0.007991 -0.006948 -0.005511 0.000000 0.037582 0.000000
# 6 0.000000 0.000000 0.000000 -0.006088 0.000000 0.026970
#
#
# Mechanical properties :
#
#
# Convention : Reuss Voigt Hill
#
# Bulk Modulus (GPa) = 37.05938 64.75762 50.90850
# Shear Modulus (GPa) = 36.40197 43.01728 39.70962
#
# Velocity S-wave (km/s) = 3.92632 4.26820 4.10082
# Velocity P-wave (km/s) = 6.02072 7.19127 6.63187
#
# Compressibility (1/GPa) = 0.02698372
#
# Stress axis : x y z
#
# Youngs Moduli (GPa) = 101.59794 104.58134 84.53628
#
# Poissons Ratio (x) = 0.03181 0.11099
# Poissons Ratio (y) = 0.03090 0.04294
# Poissons Ratio (z) = 0.13339 0.05313
#
# Static dielectric constant tensor:
#      x y z
#    x 1.918160 0.000000 -0.062510 
#    y 0.000000 1.864020 0.000000 
#    z -0.062510 0.000000 2.110680 
# 
# From -- ./inp_files/79506.got.cif
#   From: 2010.05.17/outbox.cif.g08.bks.cpg/sg14_40_cif.got.tgz:79506.got - 2010.06.03 17:49:19.
