data_PCOD9248762
_publ_section_title
;
Structure prediction by ZEFSAII (Michael W. Deem and Ramdas Pophale) SiO2 
 PCOD9248762
Probable space group: P 21/C
;
_chemical_formula_sum "Si O2"
_cell_formula_units_Z 24
_cell_length_a 13.236414
_cell_length_b 11.135814
_cell_length_c 20.011075
_cell_angle_alpha 90.000000
_cell_angle_beta 21.368192
_cell_angle_gamma 90.000000
_cell_volume 1074.714833
_symmetry_space_group_name_H-M "P 21/C"
_symmetry_group_IT_number 14
_symmetry_cell_setting 'monoclinic'
loop_
_space_group_symop_operation_xyz
x,y,z
-x,1/2+y,1/2-z
-x,-y,-z
x,1/2-y,1/2+z
loop_
_atom_site_type_symbol
_atom_site_label
_atom_site_fract_x
_atom_site_fract_y
_atom_site_fract_z
Si Si1 0.145135 0.025391 0.041017
Si Si2 0.346573 0.665621 0.325980
Si Si3 0.651603 0.878798 0.383553
Si Si4 0.381255 0.519781 0.647120
Si Si5 0.730237 0.770442 0.713221
Si Si6 0.310134 0.771889 0.704092
O O1 0.933088 0.131674 0.158121
O O2 0.278920 0.970480 0.891397
O O3 0.373934 0.058234 0.953309
O O4 0.973430 0.914634 0.180393
O O5 0.556403 0.715181 0.252527
O O6 0.446123 0.686298 0.189863
O O7 0.047525 0.731712 0.508259
O O8 0.586869 0.828053 0.349952
O O9 0.544790 0.783404 0.502547
O O10 0.500000 0.000000 0.500000
O O11 0.500000 0.500000 0.500000
O O12 0.268744 0.396399 0.747232
O O13 0.189955 0.637375 0.771327
#
# Coordination Sequence:
#
# PCOD9248762 Si02
#       6
#     4   4   4   4   4   4
#     4   9  22  42  65  91 130 173 216 276 326 388
#     4  10  23  42  67  94 135 171 218 277 331 397
#     4   9  19  40  66  91 115 168 225 259 320 387
#     4  11  23  40  63  96 135 165 218 280 329 387
#     4  10  22  44  62  93 137 175 208 277 343 382
#     4  11  22  39  67  95 123 173 225 262 324 402
#
# _framework density 22.331505
#
# number of rings (size 3 to 8) (size 9 to 14) (size 15 to 20)
#    0.000    2.000    1.667    0.500    2.333    4.667 
#    6.000    3.333    0.000    0.000    0.000    0.000 
#    0.000    0.000    0.000    0.000    0.000    0.000 
#
# Total GULP energy -134027.040477 kJ/mol
# GULP energy per Si atom -5584.460020 kJ/mol
# Density = 2.228068 g / cm^3
# Si number density = 22.331505 Si / 1000 Ang^3
#
#
#
# Elastic Constant Matrix: (Units=GPa)
#
#
# Indices 1 2 3 4 5 6 
#
# 1 100.4019 22.7153 27.8191 0.0000 1.5545 0.0000
# 2 22.7153 91.5307 -0.2830 0.0000 -11.1525 0.0000
# 3 27.8191 -0.2830 35.5018 0.0000 0.9989 0.0000
# 4 0.0000 0.0000 0.0000 27.1072 0.0000 -2.1403
# 5 1.5545 -11.1525 0.9989 0.0000 26.2724 0.0000
# 6 0.0000 0.0000 0.0000 -2.1403 0.0000 29.4517
#
#
#
# Elastic Compliance Matrix: (Units=1/GPa)
#
#
# Indices 1 2 3 4 5 6 
#
# 1 0.013823 -0.003705 -0.010805 0.000000 -0.001980 0.000000
# 2 -0.003705 0.012514 0.002850 0.000000 0.005423 0.000000
# 3 -0.010805 0.002850 0.036644 0.000000 0.000456 0.000000
# 4 0.000000 0.000000 0.000000 0.037104 0.000000 0.002696
# 5 -0.001980 0.005423 0.000456 0.000000 0.040465 0.000000
# 6 0.000000 0.000000 0.000000 0.002696 0.000000 0.034150
#
#
# Mechanical properties :
#
#
# Convention : Reuss Voigt Hill
#
# Bulk Modulus (GPa) = 25.21317 36.43746 30.82531
# Shear Modulus (GPa) = 23.66975 28.37846 26.02410
#
# Velocity S-wave (km/s) = 3.25918 3.56867 3.41743
# Velocity P-wave (km/s) = 5.04757 5.77344 5.42266
#
# Compressibility (1/GPa) = 0.03966182
#
# Stress axis : x y z
#
# Youngs Moduli (GPa) = 72.34441 79.90802 27.28923
#
# Poissons Ratio (x) = 0.29606 0.29487
# Poissons Ratio (y) = 0.26804 -0.07779
# Poissons Ratio (z) = 0.78170 -0.22777
#
# Static dielectric constant tensor:
#      x y z
#    x 1.806460 0.000000 0.024790 
#    y 0.000000 1.926620 0.000000 
#    z 0.024790 0.000000 1.868040 
# 
# From -- ./inp_files/33983.got.cif
#   From: 2010.05.17/outbox.cif.g08.bks.cpg/sg14_17_cif.got.tgz:33983.got - 2010.06.03 17:49:19.
