data_PCOD9248240
_publ_section_title
;
Structure prediction by ZEFSAII (Michael W. Deem and Ramdas Pophale) SiO2 
 PCOD9248240
Probable space group: P 21/C
;
_chemical_formula_sum "Si O2"
_cell_formula_units_Z 28
_cell_length_a 8.952472
_cell_length_b 27.632507
_cell_length_c 9.575377
_cell_angle_alpha 90.000000
_cell_angle_beta 32.342253
_cell_angle_gamma 90.000000
_cell_volume 1267.223075
_symmetry_space_group_name_H-M "P 21/C"
_symmetry_group_IT_number 14
_symmetry_cell_setting 'monoclinic'
loop_
_space_group_symop_operation_xyz
x,y,z
-x,1/2+y,1/2-z
-x,-y,-z
x,1/2-y,1/2+z
loop_
_atom_site_type_symbol
_atom_site_label
_atom_site_fract_x
_atom_site_fract_y
_atom_site_fract_z
Si Si1 0.586883 0.159239 0.328538
Si Si2 0.332426 0.893859 0.000948
Si Si3 0.148502 0.744632 0.985174
Si Si4 0.968663 0.695764 0.876944
Si Si5 0.863015 0.899754 0.781760
Si Si6 0.174926 0.995412 0.221100
Si Si7 0.450632 0.847972 0.312325
O O1 0.786173 0.205360 0.145250
O O2 0.531347 0.150250 0.534142
O O3 0.305265 0.175210 0.474931
O O4 0.679517 0.115256 0.155949
O O5 0.200688 0.845915 0.175489
O O6 0.154532 0.941921 0.174345
O O7 0.642248 0.898865 0.825760
O O8 0.930848 0.714892 0.063137
O O9 0.058084 0.759486 0.209779
O O10 0.403787 0.707284 0.799722
O O11 0.898803 0.955491 0.802160
O O12 0.164272 0.877835 0.506899
O O13 0.710864 0.870349 0.025150
O O14 0.000000 0.000000 0.500000
O O15 0.500000 0.000000 0.000000
#
# Coordination Sequence:
#
# PCOD9248240 Si02
#       7
#     4   4   4   4   4   4   4
#     4  11  27  41  63  98 136 184 223 277 342 405
#     4  10  23  43  68  98 133 176 226 282 339 402
#     4  11  24  40  62  96 130 181 223 278 326 402
#     4  11  24  41  65  94 134 177 227 274 339 395
#     4  11  24  44  71 100 131 177 228 284 338 395
#     4  10  22  41  72 104 132 170 229 283 334 405
#     4  12  26  44  67  99 139 177 226 281 337 407
#
# _framework density 22.095558
#
# number of rings (size 3 to 8) (size 9 to 14) (size 15 to 20)
#    0.000    1.143    2.857    2.571   12.000    0.000 
#    0.000    1.429    0.000    0.000    0.000    0.000 
#    0.000    0.000    0.000    0.000    0.000    0.000 
#
# Total GULP energy -156524.962520 kJ/mol
# GULP energy per Si atom -5590.177233 kJ/mol
# Density = 2.204527 g / cm^3
# Si number density = 22.095558 Si / 1000 Ang^3
#
#
#
# Elastic Constant Matrix: (Units=GPa)
#
#
# Indices 1 2 3 4 5 6 
#
# 1 59.9250 13.8928 -5.7827 0.0000 13.5900 0.0000
# 2 13.8928 106.0581 17.9331 0.0000 16.0154 0.0000
# 3 -5.7827 17.9331 64.0553 0.0000 8.5850 0.0000
# 4 0.0000 0.0000 0.0000 31.8056 0.0000 9.5237
# 5 13.5900 16.0154 8.5850 0.0000 44.4765 0.0000
# 6 0.0000 0.0000 0.0000 9.5237 0.0000 20.9990
#
#
#
# Elastic Compliance Matrix: (Units=1/GPa)
#
#
# Indices 1 2 3 4 5 6 
#
# 1 0.018730 -0.002129 0.003030 0.000000 -0.005541 0.000000
# 2 -0.002129 0.010577 -0.002803 0.000000 -0.002617 0.000000
# 3 0.003030 -0.002803 0.017101 0.000000 -0.003217 0.000000
# 4 0.000000 0.000000 0.000000 0.036382 0.000000 -0.016500
# 5 -0.005541 -0.002617 -0.003217 0.000000 0.025740 0.000000
# 6 0.000000 0.000000 0.000000 -0.016500 0.000000 0.055105
#
#
# Mechanical properties :
#
#
# Convention : Reuss Voigt Hill
#
# Bulk Modulus (GPa) = 23.47211 31.34722 27.40966
# Shear Modulus (GPa) = 27.52700 33.05590 30.29145
#
# Velocity S-wave (km/s) = 3.53344 3.87207 3.70662
# Velocity P-wave (km/s) = 5.22427 5.84880 5.54533
#
# Compressibility (1/GPa) = 0.04260376
#
# Stress axis : x y z
#
# Youngs Moduli (GPa) = 53.38993 94.54705 58.47670
#
# Poissons Ratio (x) = 0.20129 -0.17716
# Poissons Ratio (y) = 0.11367 0.16388
# Poissons Ratio (z) = -0.16175 0.26497
#
# Static dielectric constant tensor:
#      x y z
#    x 1.830830 0.000000 -0.011540 
#    y 0.000000 1.885630 0.000000 
#    z -0.011540 0.000000 1.840430 
# 
# From -- ./inp_files/11161.got.cif
#   From: 2010.05.17/outbox.cif.g08.bks.cpg/sg14_6_cif.got.tgz:11161.got - 2010.06.03 17:49:19.
