data_PCOD9248430
_publ_section_title
;
Structure prediction by ZEFSAII (Michael W. Deem and Ramdas Pophale) SiO2 
 PCOD9248430
Probable space group: P 21/C
;
_chemical_formula_sum "Si O2"
_cell_formula_units_Z 28
_cell_length_a 8.930753
_cell_length_b 8.171491
_cell_length_c 27.850502
_cell_angle_alpha 90.000000
_cell_angle_beta 139.498028
_cell_angle_gamma 90.000000
_cell_volume 1320.031604
_symmetry_space_group_name_H-M "P 21/C"
_symmetry_group_IT_number 14
_symmetry_cell_setting 'monoclinic'
loop_
_space_group_symop_operation_xyz
x,y,z
-x,1/2+y,1/2-z
-x,-y,-z
x,1/2-y,1/2+z
loop_
_atom_site_type_symbol
_atom_site_label
_atom_site_fract_x
_atom_site_fract_y
_atom_site_fract_z
Si Si1 0.191899 0.430243 0.238491
Si Si2 0.806346 0.688380 0.176735
Si Si3 0.252952 0.044733 0.917467
Si Si4 0.881276 0.708894 0.520219
Si Si5 0.382063 0.965450 0.524328
Si Si6 0.007556 0.257656 0.608655
Si Si7 0.292121 0.492295 0.607060
O O1 0.159736 0.267311 0.263079
O O2 0.454028 0.481100 0.311835
O O3 0.020789 0.576139 0.212778
O O4 0.139393 0.381081 0.170715
O O5 0.757546 0.849850 0.132658
O O6 0.582279 0.578487 0.110583
O O7 0.135614 0.158805 0.928715
O O8 0.109060 0.879364 0.881501
O O9 0.500000 0.000000 0.000000
O O10 0.723383 0.589806 0.449079
O O11 0.140608 0.659261 0.568446
O O12 0.772383 0.887303 0.492647
O O13 0.204456 0.819250 0.472020
O O14 0.500000 0.000000 0.500000
O O15 0.162980 0.364610 0.610958
#
# Coordination Sequence:
#
# PCOD9248430 Si02
#       7
#     4   4   4   4   4   4   4
#     4  12  27  46  63 101 139 175 222 273 347 402
#     4  12  26  42  71 101 138 175 222 285 345 400
#     4  11  19  38  70  97 132 170 219 280 333 396
#     4  10  22  42  68  96 129 173 233 269 335 396
#     4  12  22  43  71 105 129 170 230 289 330 398
#     4  11  24  43  67  99 132 179 225 269 340 399
#     4  10  26  45  66  92 137 186 217 275 332 414
#
# _framework density 21.211611999999999
#
# number of rings (size 3 to 8) (size 9 to 14) (size 15 to 20)
#    0.000    0.857    4.286    1.714    6.000    4.000 
#    2.571    0.000    0.000    0.000    0.000    0.000 
#    0.000    0.000    0.000    0.000    0.000    0.000 
#
# Total GULP energy -156439.816035 kJ/mol
# GULP energy per Si atom -5587.136287 kJ/mol
# Density = 2.116333 g / cm^3
# Si number density = 21.211612 Si / 1000 Ang^3
#
#
#
# Elastic Constant Matrix: (Units=GPa)
#
#
# Indices 1 2 3 4 5 6 
#
# 1 60.7934 38.7991 35.4995 0.0000 11.3365 0.0000
# 2 38.7991 101.4024 31.7647 0.0000 30.0129 0.0000
# 3 35.4995 31.7647 112.9853 0.0000 26.7692 0.0000
# 4 0.0000 0.0000 0.0000 41.9906 0.0000 -4.3261
# 5 11.3365 30.0129 26.7692 0.0000 40.1716 0.0000
# 6 0.0000 0.0000 0.0000 -4.3261 0.0000 41.0134
#
#
#
# Elastic Compliance Matrix: (Units=1/GPa)
#
#
# Indices 1 2 3 4 5 6 
#
# 1 0.024956 -0.008651 -0.006260 0.000000 0.003592 0.000000
# 2 -0.008651 0.015898 0.000575 0.000000 -0.009820 0.000000
# 3 -0.006260 0.000575 0.012278 0.000000 -0.006844 0.000000
# 4 0.000000 0.000000 0.000000 0.024077 0.000000 0.002540
# 5 0.003592 -0.009820 -0.006844 0.000000 0.035777 0.000000
# 6 0.000000 0.000000 0.000000 0.002540 0.000000 0.024650
#
#
# Mechanical properties :
#
#
# Convention : Reuss Voigt Hill
#
# Bulk Modulus (GPa) = 40.88375 54.14528 47.51451
# Shear Modulus (GPa) = 28.65987 35.90963 32.28475
#
# Velocity S-wave (km/s) = 3.67977 4.11898 3.90556
# Velocity P-wave (km/s) = 6.11313 6.94284 6.54115
#
# Compressibility (1/GPa) = 0.02445960
#
# Stress axis : x y z
#
# Youngs Moduli (GPa) = 40.07072 62.90084 81.44967
#
# Poissons Ratio (x) = 0.54415 0.50987
# Poissons Ratio (y) = 0.34665 -0.04684
# Poissons Ratio (z) = 0.25084 -0.03617
#
# Static dielectric constant tensor:
#      x y z
#    x 1.802440 0.000000 -0.006030 
#    y 0.000000 1.809610 0.000000 
#    z -0.006030 0.000000 1.736240 
# 
# From -- ./inp_files/76394.got.cif
#   From: 2010.05.17/outbox.cif.g08.bks.cpg/sg14_39_cif.got.tgz:76394.got - 2010.06.03 17:49:19.
