data_PCOD9248851
_publ_section_title
;
Structure prediction by ZEFSAII (Michael W. Deem and Ramdas Pophale) SiO2 
 PCOD9248851
Probable space group: P 21/C
;
_chemical_formula_sum "Si O2"
_cell_formula_units_Z 32
_cell_length_a 28.506755
_cell_length_b 11.396888
_cell_length_c 8.180986
_cell_angle_alpha 90.000000
_cell_angle_beta 35.679401
_cell_angle_gamma 90.000000
_cell_volume 1550.221924
_symmetry_space_group_name_H-M "P 21/C"
_symmetry_group_IT_number 14
_symmetry_cell_setting 'monoclinic'
loop_
_space_group_symop_operation_xyz
x,y,z
-x,1/2+y,1/2-z
-x,-y,-z
x,1/2-y,1/2+z
loop_
_atom_site_type_symbol
_atom_site_label
_atom_site_fract_x
_atom_site_fract_y
_atom_site_fract_z
Si Si1 0.010867 0.127193 0.046100
Si Si2 0.418185 0.428084 0.235914
Si Si3 0.747431 0.461980 0.345512
Si Si4 0.791570 0.311885 0.721765
Si Si5 0.192009 0.374597 0.123074
Si Si6 0.909228 0.279971 0.116435
Si Si7 0.646583 0.726425 0.875709
Si Si8 0.264108 0.472053 0.241251
O O1 0.099094 0.156727 0.861488
O O2 0.985171 0.219561 0.982113
O O3 0.942590 0.141227 0.377753
O O4 0.000000 0.000000 0.000000
O O5 0.345908 0.521121 0.433257
O O6 0.404073 0.338976 0.425614
O O7 0.398534 0.341242 0.140483
O O8 0.500000 0.500000 0.000000
O O9 0.767913 0.324478 0.284049
O O10 0.758185 0.510002 0.502581
O O11 0.790180 0.538849 0.082769
O O12 0.845932 0.317356 0.729761
O O13 0.719373 0.399314 0.884596
O O14 0.857503 0.344325 0.398336
O O15 0.202309 0.425791 0.277536
O O16 0.262197 0.275661 0.914294
O O17 0.664384 0.623266 0.957609
#
# Coordination Sequence:
#
# PCOD9248851 Si02
#       8
#     4   4   4   4   4   4   4   4
#     4  11  24  41  59  91 132 176 227 282 352 384
#     4  10  22  46  69 101 140 170 207 282 339 398
#     4  10  23  41  71  98 128 176 223 275 333 411
#     4  11  19  41  61  91 129 169 226 276 331 403
#     4  11  23  42  67  92 133 180 232 283 330 408
#     4  10  23  39  58  89 131 172 219 291 335 387
#     4  10  22  44  69 100 132 175 228 267 329 416
#     4  11  22  38  70  96 125 173 227 274 332 385
#
# _framework density 20.642206000000002
#
# number of rings (size 3 to 8) (size 9 to 14) (size 15 to 20)
#    0.000    1.500    2.500    3.000    1.750    0.000 
#    6.750    2.500    0.000    0.000    0.000    0.000 
#    0.000    0.000    0.000    0.000    0.000    0.000 
#
# Total GULP energy -178227.516461 kJ/mol
# GULP energy per Si atom -5569.609889 kJ/mol
# Density = 2.059522 g / cm^3
# Si number density = 20.642206 Si / 1000 Ang^3
#
#
#
# Elastic Constant Matrix: (Units=GPa)
#
#
# Indices 1 2 3 4 5 6 
#
# 1 91.4610 36.7682 32.9168 0.0000 0.2175 0.0000
# 2 36.7682 109.0267 45.0328 0.0000 -13.5718 0.0000
# 3 32.9168 45.0328 80.2931 0.0000 -16.2911 0.0000
# 4 0.0000 0.0000 0.0000 26.1819 0.0000 -1.6199
# 5 0.2175 -13.5718 -16.2911 0.0000 29.9856 0.0000
# 6 0.0000 0.0000 0.0000 -1.6199 0.0000 38.7205
#
#
#
# Elastic Compliance Matrix: (Units=1/GPa)
#
#
# Indices 1 2 3 4 5 6 
#
# 1 0.013961 -0.003271 -0.004732 0.000000 -0.004152 0.000000
# 2 -0.003271 0.012810 -0.005240 0.000000 0.002975 0.000000
# 3 -0.004732 -0.005240 0.018947 0.000000 0.007957 0.000000
# 4 0.000000 0.000000 0.000000 0.038293 0.000000 0.001602
# 5 -0.004152 0.002975 0.007957 0.000000 0.039049 0.000000
# 6 0.000000 0.000000 0.000000 0.001602 0.000000 0.025893
#
#
# Mechanical properties :
#
#
# Convention : Reuss Voigt Hill
#
# Bulk Modulus (GPa) = 51.99218 56.69070 54.34144
# Shear Modulus (GPa) = 27.49526 30.04847 28.77186
#
# Velocity S-wave (km/s) = 3.65361 3.81948 3.73746
# Velocity P-wave (km/s) = 6.56052 6.85378 6.70875
#
# Compressibility (1/GPa) = 0.01923366
#
# Stress axis : x y z
#
# Youngs Moduli (GPa) = 71.62657 78.06551 52.77789
#
# Poissons Ratio (x) = 0.25534 0.24972
# Poissons Ratio (y) = 0.23428 0.27655
# Poissons Ratio (z) = 0.33890 0.40906
#
# Static dielectric constant tensor:
#      x y z
#    x 1.835450 0.000000 0.037430 
#    y 0.000000 1.858010 0.000000 
#    z 0.037430 0.000000 1.744600 
# 
# From -- ./inp_files/19982.got.cif
#   From: 2010.05.17/outbox.cif.g08.bks.cpg/sg14_10_cif.got.tgz:19982.got - 2010.06.03 17:49:19.
