data_PCOD9248618
_publ_section_title
;
Structure prediction by ZEFSAII (Michael W. Deem and Ramdas Pophale) SiO2 
 PCOD9248618
Probable space group: P 21/C
;
_chemical_formula_sum "Si O2"
_cell_formula_units_Z 28
_cell_length_a 15.653382
_cell_length_b 7.696944
_cell_length_c 9.244799
_cell_angle_alpha 90.000000
_cell_angle_beta 99.900258
_cell_angle_gamma 90.000000
_cell_volume 1097.256275
_symmetry_space_group_name_H-M "P 21/C"
_symmetry_group_IT_number 14
_symmetry_cell_setting 'monoclinic'
loop_
_space_group_symop_operation_xyz
x,y,z
-x,1/2+y,1/2-z
-x,-y,-z
x,1/2-y,1/2+z
loop_
_atom_site_type_symbol
_atom_site_label
_atom_site_fract_x
_atom_site_fract_y
_atom_site_fract_z
Si Si1 0.655841 0.228438 0.203466
Si Si2 0.229785 0.891487 0.024582
Si Si3 0.949902 0.344452 0.399981
Si Si4 0.096589 0.088956 0.360496
Si Si5 0.612850 0.855634 0.305857
Si Si6 0.197467 0.239281 0.628091
Si Si7 0.491384 0.290494 0.482370
O O1 0.696481 0.357600 0.332026
O O2 0.577636 0.290480 0.076843
O O3 0.620724 0.060000 0.279020
O O4 0.731764 0.168806 0.115879
O O5 0.140259 0.804123 0.047683
O O6 0.205174 0.092983 0.026587
O O7 0.927079 0.416370 0.233479
O O8 0.000000 0.500000 0.500000
O O9 0.012455 0.181829 0.401362
O O10 0.164710 0.087914 0.512284
O O11 0.134972 0.210010 0.241481
O O12 0.706745 0.791000 0.286484
O O13 0.590184 0.790293 0.457734
O O14 0.534886 0.772302 0.190883
O O15 0.500000 0.500000 0.500000
#
# Coordination Sequence:
#
# PCOD9248618 Si02
#       7
#     4   4   4   4   4   4   4
#     4  11  25  44  69 101 137 185 236 289 358 415
#     4  11  25  44  67  97 144 176 233 295 354 420
#     4  11  25  45  69 101 142 184 235 299 360 423
#     4  11  23  43  67  96 139 179 233 289 358 421
#     4  11  23  42  72 100 137 183 236 284 349 415
#     4  11  23  42  65  98 136 179 227 291 345 422
#     4  10  22  43  67 101 142 184 232 292 345 416
#
# _framework density 25.518194000000001
#
# number of rings (size 3 to 8) (size 9 to 14) (size 15 to 20)
#    0.000    1.143    2.857    4.286    2.000    5.143 
#    0.000    4.286    0.000    0.000    0.000    0.000 
#    0.000    0.000    0.000    0.000    0.000    0.000 
#
# Total GULP energy -156860.031164 kJ/mol
# GULP energy per Si atom -5602.143970 kJ/mol
# Density = 2.546011 g / cm^3
# Si number density = 25.518194 Si / 1000 Ang^3
#
#
#
# Elastic Constant Matrix: (Units=GPa)
#
#
# Indices 1 2 3 4 5 6 
#
# 1 129.7110 29.2686 17.6001 0.0000 -5.5367 0.0000
# 2 29.2686 69.5031 25.1941 0.0000 1.5061 0.0000
# 3 17.6001 25.1941 95.3477 0.0000 9.3215 0.0000
# 4 0.0000 0.0000 0.0000 37.1342 0.0000 1.1910
# 5 -5.5367 1.5061 9.3215 0.0000 38.1267 0.0000
# 6 0.0000 0.0000 0.0000 1.1910 0.0000 26.8995
#
#
#
# Elastic Compliance Matrix: (Units=1/GPa)
#
#
# Indices 1 2 3 4 5 6 
#
# 1 0.008655 -0.003366 -0.000865 0.000000 0.001601 0.000000
# 2 -0.003366 0.017227 -0.003910 0.000000 -0.000213 0.000000
# 3 -0.000865 -0.003910 0.011964 0.000000 -0.002896 0.000000
# 4 0.000000 0.000000 0.000000 0.026968 0.000000 -0.001194
# 5 0.001601 -0.000213 -0.002896 0.000000 0.027177 0.000000
# 6 0.000000 0.000000 0.000000 -0.001194 0.000000 0.037228
#
#
# Mechanical properties :
#
#
# Convention : Reuss Voigt Hill
#
# Bulk Modulus (GPa) = 46.37188 48.74305 47.55746
# Shear Modulus (GPa) = 32.74655 35.26534 34.00595
#
# Velocity S-wave (km/s) = 3.58615 3.72152 3.65446
# Velocity P-wave (km/s) = 5.94633 6.13262 6.04019
#
# Compressibility (1/GPa) = 0.02156480
#
# Stress axis : x y z
#
# Youngs Moduli (GPa) = 115.54552 58.04796 83.58555
#
# Poissons Ratio (x) = 0.19538 0.07228
# Poissons Ratio (y) = 0.38890 0.32681
# Poissons Ratio (z) = 0.09991 0.22696
#
# Static dielectric constant tensor:
#      x y z
#    x 1.985960 0.000000 0.023470 
#    y 0.000000 2.018740 0.000000 
#    z 0.023470 0.000000 1.966630 
# 
# From -- ./inp_files/17596.got.cif
#   From: 2010.05.17/outbox.cif.g08.bks.cpg/sg14_9_cif.got.tgz:17596.got - 2010.06.03 17:49:19.
