data_PCOD9248242
_publ_section_title
;
Structure prediction by ZEFSAII (Michael W. Deem and Ramdas Pophale) SiO2 
 PCOD9248242
Probable space group: P 21/C
;
_chemical_formula_sum "Si O2"
_cell_formula_units_Z 32
_cell_length_a 11.215191
_cell_length_b 15.694973
_cell_length_c 9.333829
_cell_angle_alpha 90.000000
_cell_angle_beta 106.755486
_cell_angle_gamma 90.000000
_cell_volume 1573.206451
_symmetry_space_group_name_H-M "P 21/C"
_symmetry_group_IT_number 14
_symmetry_cell_setting 'monoclinic'
loop_
_space_group_symop_operation_xyz
x,y,z
-x,1/2+y,1/2-z
-x,-y,-z
x,1/2-y,1/2+z
loop_
_atom_site_type_symbol
_atom_site_label
_atom_site_fract_x
_atom_site_fract_y
_atom_site_fract_z
Si Si1 0.181097 0.827716 0.342989
Si Si2 0.938687 0.408300 0.936959
Si Si3 0.301563 0.338417 0.588184
Si Si4 0.447951 0.259348 0.892611
Si Si5 0.597888 0.479803 0.410734
Si Si6 0.819141 0.361974 0.601317
Si Si7 0.430537 0.647562 0.805580
Si Si8 0.980213 0.714057 0.551862
O O1 0.163363 0.882245 0.479084
O O2 0.232352 0.731680 0.377000
O O3 0.284441 0.868357 0.278895
O O4 0.047589 0.813059 0.222672
O O5 0.878323 0.409348 0.758701
O O6 0.016676 0.317796 0.961714
O O7 0.000000 0.500000 0.000000
O O8 0.342045 0.295332 0.751143
O O9 0.385727 0.305557 0.484090
O O10 0.330234 0.436950 0.612937
O O11 0.159108 0.317824 0.507074
O O12 0.541447 0.218244 0.807526
O O13 0.510682 0.327120 0.022102
O O14 0.500000 0.500000 0.500000
O O15 0.703750 0.416461 0.506778
O O16 0.522439 0.437894 0.253242
O O17 0.930759 0.333815 0.532646
#
# Coordination Sequence:
#
# PCOD9248242 Si02
#       8
#     4   4   4   4   4   4   4   4
#     4  10  22  41  72  99 129 178 221 279 338 409
#     4  10  24  41  66 104 135 169 221 281 339 405
#     4  11  26  43  67  99 136 182 222 280 352 411
#     4  10  25  44  69  96 135 182 228 285 344 415
#     4  12  25  43  66 100 136 180 231 284 344 391
#     4  10  23  42  65  97 132 178 221 277 336 412
#     4  11  22  45  70  99 133 175 239 281 339 406
#     4  10  23  44  69  94 137 180 220 268 350 418
#
# _framework density 20.340623999999998
#
# number of rings (size 3 to 8) (size 9 to 14) (size 15 to 20)
#    0.000    1.500    2.500    0.750   12.250    2.000 
#    0.000    0.000    0.000    0.000    0.000    0.000 
#    0.000    0.000    0.000    0.000    0.000    0.000 
#
# Total GULP energy -178410.005876 kJ/mol
# GULP energy per Si atom -5575.312684 kJ/mol
# Density = 2.029433 g / cm^3
# Si number density = 20.340624 Si / 1000 Ang^3
#
#
#
# Elastic Constant Matrix: (Units=GPa)
#
#
# Indices 1 2 3 4 5 6 
#
# 1 42.5463 -2.8878 6.8018 0.0000 6.0055 0.0000
# 2 -2.8878 55.8281 15.7837 0.0000 3.2791 0.0000
# 3 6.8018 15.7837 105.3658 0.0000 3.6152 0.0000
# 4 0.0000 0.0000 0.0000 8.2398 0.0000 -6.5036
# 5 6.0055 3.2791 3.6152 0.0000 28.8994 0.0000
# 6 0.0000 0.0000 0.0000 -6.5036 0.0000 23.3897
#
#
#
# Elastic Compliance Matrix: (Units=1/GPa)
#
#
# Indices 1 2 3 4 5 6 
#
# 1 0.024645 0.002064 -0.001724 0.000000 -0.005140 0.000000
# 2 0.002064 0.018969 -0.002899 0.000000 -0.002219 0.000000
# 3 -0.001724 -0.002899 0.010056 0.000000 -0.000571 0.000000
# 4 0.000000 0.000000 0.000000 0.155487 0.000000 0.043234
# 5 -0.005140 -0.002219 -0.000571 0.000000 0.035994 0.000000
# 6 0.000000 0.000000 0.000000 0.043234 0.000000 0.054775
#
#
# Mechanical properties :
#
#
# Convention : Reuss Voigt Hill
#
# Bulk Modulus (GPa) = 20.59609 27.01504 23.80557
# Shear Modulus (GPa) = 15.56534 24.37528 19.97031
#
# Velocity S-wave (km/s) = 2.76929 3.46548 3.13676
# Velocity P-wave (km/s) = 4.51363 5.41506 4.98476
#
# Compressibility (1/GPa) = 0.04855290
#
# Stress axis : x y z
#
# Youngs Moduli (GPa) = 40.57616 52.71843 99.44492
#
# Poissons Ratio (x) = -0.10881 0.17142
# Poissons Ratio (y) = -0.08375 0.28825
# Poissons Ratio (z) = 0.06994 0.15281
#
# Static dielectric constant tensor:
#      x y z
#    x 1.732060 0.000000 -0.018190 
#    y 0.000000 1.793120 0.000000 
#    z -0.018190 0.000000 1.749650 
# 
# From -- ./inp_files/13371.got.cif
#   From: 2010.05.17/outbox.cif.g08.bks.cpg/sg14_7_cif.got.tgz:13371.got - 2010.06.03 17:49:19.
