data_PCOD9248860
_publ_section_title
;
Structure prediction by ZEFSAII (Michael W. Deem and Ramdas Pophale) SiO2 
 PCOD9248860
Probable space group: P 21/C
;
_chemical_formula_sum "Si O2"
_cell_formula_units_Z 20
_cell_length_a 17.730527
_cell_length_b 5.614157
_cell_length_c 10.568514
_cell_angle_alpha 90.000000
_cell_angle_beta 127.821564
_cell_angle_gamma 90.000000
_cell_volume 831.008734
_symmetry_space_group_name_H-M "P 21/C"
_symmetry_group_IT_number 14
_symmetry_cell_setting 'monoclinic'
loop_
_space_group_symop_operation_xyz
x,y,z
-x,1/2+y,1/2-z
-x,-y,-z
x,1/2-y,1/2+z
loop_
_atom_site_type_symbol
_atom_site_label
_atom_site_fract_x
_atom_site_fract_y
_atom_site_fract_z
Si Si1 0.131584 0.610002 0.049407
Si Si2 0.607787 0.539994 0.812393
Si Si3 0.789796 0.386410 0.124433
Si Si4 0.567797 0.458698 0.188876
Si Si5 0.933297 0.706672 0.375325
O O1 0.176132 0.735138 0.220625
O O2 0.133385 0.332667 0.089391
O O3 0.184028 0.723239 0.984198
O O4 0.017208 0.630339 0.907394
O O5 0.501075 0.557552 0.758320
O O6 0.628648 0.798783 0.772555
O O7 0.612003 0.307051 0.726441
O O8 0.681889 0.475873 0.001021
O O9 0.860936 0.610629 0.198795
O O10 0.500000 0.500000 0.000000
O O11 0.000000 0.500000 0.500000
#
# Coordination Sequence:
#
# PCOD9248860 Si02
#       5
#     4   4   4   4   4
#     4  10  24  42  66  94 136 178 226 283 338 407
#     4  10  24  41  66 104 125 178 222 280 342 408
#     4  11  25  40  68  99 134 175 233 277 343 406
#     4  10  22  44  69  91 138 172 221 276 350 407
#     4   9  22  41  62  92 131 179 222 274 341 398
#
# _framework density 24.067132999999998
#
# number of rings (size 3 to 8) (size 9 to 14) (size 15 to 20)
#    0.000    2.000    0.000    0.600   14.000    3.200 
#    0.000    0.000    0.000    0.000    0.000    0.000 
#    0.000    0.000    0.000    0.000    0.000    0.000 
#
# Total GULP energy -111382.638374 kJ/mol
# GULP energy per Si atom -5569.131919 kJ/mol
# Density = 2.401235 g / cm^3
# Si number density = 24.067133 Si / 1000 Ang^3
#
#
#
# Elastic Constant Matrix: (Units=GPa)
#
#
# Indices 1 2 3 4 5 6 
#
# 1 55.9951 4.0930 9.3946 0.0000 -6.8766 0.0000
# 2 4.0930 103.7595 17.9025 0.0000 -8.4548 0.0000
# 3 9.3946 17.9025 98.7176 0.0000 -3.3186 0.0000
# 4 0.0000 0.0000 0.0000 33.1664 0.0000 -7.9755
# 5 -6.8766 -8.4548 -3.3186 0.0000 40.9258 0.0000
# 6 0.0000 0.0000 0.0000 -7.9755 0.0000 6.1040
#
#
#
# Elastic Compliance Matrix: (Units=1/GPa)
#
#
# Indices 1 2 3 4 5 6 
#
# 1 0.018507 -0.000211 -0.001624 0.000000 0.002934 0.000000
# 2 -0.000211 0.010103 -0.001748 0.000000 0.001910 0.000000
# 3 -0.001624 -0.001748 0.010609 0.000000 0.000226 0.000000
# 4 0.000000 0.000000 0.000000 0.043965 0.000000 0.057444
# 5 0.002934 0.001910 0.000226 0.000000 0.025340 0.000000
# 6 0.000000 0.000000 0.000000 0.057444 0.000000 0.238884
#
#
# Mechanical properties :
#
#
# Convention : Reuss Voigt Hill
#
# Bulk Modulus (GPa) = 31.19807 35.69472 33.44639
# Shear Modulus (GPa) = 13.68892 31.17804 22.43348
#
# Velocity S-wave (km/s) = 2.38750 3.60316 3.05638
# Velocity P-wave (km/s) = 4.53776 5.67220 5.13639
#
# Compressibility (1/GPa) = 0.03205327
#
# Stress axis : x y z
#
# Youngs Moduli (GPa) = 54.03357 98.97843 94.25871
#
# Poissons Ratio (x) = 0.02085 0.15311
# Poissons Ratio (y) = 0.01138 0.16476
# Poissons Ratio (z) = 0.08777 0.17301
#
# Static dielectric constant tensor:
#      x y z
#    x 2.077150 0.000000 -0.015580 
#    y 0.000000 2.132270 0.000000 
#    z -0.015580 0.000000 1.895180 
# 
# From -- ./inp_files/30963.got.cif
#   From: 2010.05.17/outbox.cif.g08.bks.cpg/sg14_16_cif.got.tgz:30963.got - 2010.06.03 17:49:19.
