data_PCOD9248063
_publ_section_title
;
Structure prediction by ZEFSAII (Michael W. Deem and Ramdas Pophale) SiO2 
 PCOD9248063
Probable space group: P 21/C
;
_chemical_formula_sum "Si O2"
_cell_formula_units_Z 24
_cell_length_a 15.235059
_cell_length_b 17.357619
_cell_length_c 10.063326
_cell_angle_alpha 90.000000
_cell_angle_beta 25.585739
_cell_angle_gamma 90.000000
_cell_volume 1149.264758
_symmetry_space_group_name_H-M "P 21/C"
_symmetry_group_IT_number 14
_symmetry_cell_setting 'monoclinic'
loop_
_space_group_symop_operation_xyz
x,y,z
-x,1/2+y,1/2-z
-x,-y,-z
x,1/2-y,1/2+z
loop_
_atom_site_type_symbol
_atom_site_label
_atom_site_fract_x
_atom_site_fract_y
_atom_site_fract_z
Si Si1 0.595928 0.012481 0.223130
Si Si2 0.628672 0.308037 0.704191
Si Si3 0.821303 0.529688 0.843780
Si Si4 0.832436 0.819952 0.175464
Si Si5 0.005349 0.422187 0.791363
Si Si6 0.169088 0.781846 0.333128
O O1 0.669552 0.100911 0.130263
O O2 0.403400 0.001564 0.389718
O O3 0.500000 0.000000 0.500000
O O4 0.782278 0.955193 0.943990
O O5 0.667115 0.272579 0.506943
O O6 0.765249 0.268432 0.629747
O O7 0.392905 0.299179 0.062354
O O8 0.815304 0.620356 0.822437
O O9 0.884399 0.495211 0.898050
O O10 0.000000 0.500000 0.500000
O O11 0.938856 0.865989 0.909416
O O12 0.963314 0.749621 0.048261
O O13 0.870803 0.369686 0.070342
#
# Coordination Sequence:
#
# PCOD9248063 Si02
#       6
#     4   4   4   4   4   4
#     4  11  20  38  67  94 121 171 223 260 312 389
#     4  11  26  42  67  94 131 173 216 266 324 385
#     4   9  18  35  62  91 117 160 216 256 302 375
#     4  10  22  41  63  95 124 173 214 257 320 394
#     4  11  22  39  64  94 125 167 214 265 319 378
#     4  12  26  42  62  98 137 168 210 271 331 383
#
# _framework density 20.882916000000002
#
# number of rings (size 3 to 8) (size 9 to 14) (size 15 to 20)
#    0.000    1.333    6.667    1.000    4.667    2.000 
#    0.000    3.333    0.000    0.000    0.000    0.000 
#    0.000    0.000    0.000    0.000    0.000    0.000 
#
# Total GULP energy -134007.682465 kJ/mol
# GULP energy per Si atom -5583.653436 kJ/mol
# Density = 2.083539 g / cm^3
# Si number density = 20.882916 Si / 1000 Ang^3
#
#
#
# Elastic Constant Matrix: (Units=GPa)
#
#
# Indices 1 2 3 4 5 6 
#
# 1 48.8605 14.2388 21.0384 0.0000 0.0550 0.0000
# 2 14.2388 37.3176 2.3485 0.0000 -9.0803 0.0000
# 3 21.0384 2.3485 30.6237 0.0000 -2.0435 0.0000
# 4 0.0000 0.0000 0.0000 37.5936 0.0000 -5.2362
# 5 0.0550 -9.0803 -2.0435 0.0000 30.2868 0.0000
# 6 0.0000 0.0000 0.0000 -5.2362 0.0000 20.4936
#
#
#
# Elastic Compliance Matrix: (Units=1/GPa)
#
#
# Indices 1 2 3 4 5 6 
#
# 1 0.034020 -0.012877 -0.022748 0.000000 -0.005457 0.000000
# 2 -0.012877 0.033863 0.006960 0.000000 0.010645 0.000000
# 3 -0.022748 0.006960 0.048107 0.000000 0.005374 0.000000
# 4 0.000000 0.000000 0.000000 0.027582 0.000000 0.007047
# 5 -0.005457 0.010645 0.005374 0.000000 0.036582 0.000000
# 6 0.000000 0.000000 0.000000 0.007047 0.000000 0.050596
#
#
# Mechanical properties :
#
#
# Convention : Reuss Voigt Hill
#
# Bulk Modulus (GPa) = 17.04760 21.33925 19.19342
# Shear Modulus (GPa) = 16.25305 22.95318 19.60311
#
# Velocity S-wave (km/s) = 2.79282 3.31892 3.06717
# Velocity P-wave (km/s) = 4.31056 4.99276 4.66415
#
# Compressibility (1/GPa) = 0.05865930
#
# Stress axis : x y z
#
# Youngs Moduli (GPa) = 29.39425 29.53104 20.78680
#
# Poissons Ratio (x) = 0.38027 0.47287
# Poissons Ratio (y) = 0.37851 -0.14467
# Poissons Ratio (z) = 0.66867 -0.20553
#
# Static dielectric constant tensor:
#      x y z
#    x 1.771930 0.000000 0.003850 
#    y 0.000000 1.767180 0.000000 
#    z 0.003850 0.000000 1.792850 
# 
# From -- ./inp_files/34325.got.cif
#   From: 2010.05.17/outbox.cif.g08.bks.cpg/sg14_18_cif.got.tgz:34325.got - 2010.06.03 17:49:19.
