data_PCOD9248076
_publ_section_title
;
Structure prediction by ZEFSAII (Michael W. Deem and Ramdas Pophale) SiO2 
 PCOD9248076
Probable space group: P 21/C
;
_chemical_formula_sum "Si O2"
_cell_formula_units_Z 24
_cell_length_a 9.000710
_cell_length_b 7.712906
_cell_length_c 29.635795
_cell_angle_alpha 90.000000
_cell_angle_beta 29.623772
_cell_angle_gamma 90.000000
_cell_volume 1016.960921
_symmetry_space_group_name_H-M "P 21/C"
_symmetry_group_IT_number 14
_symmetry_cell_setting 'monoclinic'
loop_
_space_group_symop_operation_xyz
x,y,z
-x,1/2+y,1/2-z
-x,-y,-z
x,1/2-y,1/2+z
loop_
_atom_site_type_symbol
_atom_site_label
_atom_site_fract_x
_atom_site_fract_y
_atom_site_fract_z
Si Si1 0.255559 0.234457 0.121221
Si Si2 0.071515 0.632830 0.879621
Si Si3 0.061647 0.864732 0.213467
Si Si4 0.271765 0.269674 0.783697
Si Si5 0.932371 0.364665 0.452855
Si Si6 0.260323 0.234331 0.954519
O O1 0.129562 0.274338 0.105241
O O2 0.126591 0.372486 0.190874
O O3 0.135385 0.050287 0.171883
O O4 0.614290 0.225196 0.026836
O O5 0.178279 0.452071 0.830040
O O6 0.374223 0.738193 0.810744
O O7 0.876950 0.620989 0.976549
O O8 0.867854 0.757657 0.228531
O O9 0.381088 0.775776 0.139934
O O10 0.122183 0.131373 0.857147
O O11 0.852897 0.553912 0.492959
O O12 0.126589 0.267429 0.439754
#
# Coordination Sequence:
#
# PCOD9248076 Si02
#       6
#     4   4   4   4   4   4
#     4  11  23  40  64  93 127 164 204 251 303 362
#     4  12  25  41  63  90 123 162 207 257 308 365
#     4  11  23  40  64  93 127 164 204 251 303 362
#     4  12  25  41  63  90 123 162 207 257 308 365
#     4  10  22  41  64  91 124 161 202 251 307 364
#     4  10  22  41  64  91 124 161 202 251 307 364
#
# _framework density 23.599727000000001
#
# number of rings (size 3 to 8) (size 9 to 14) (size 15 to 20)
#    0.000    1.000    0.000    7.000    0.000   10.000 
#    0.000    0.000    0.000    0.000    0.000    0.000 
#    0.000    0.000    0.000    0.000    0.000    0.000 
#
# Total GULP energy -134567.695815 kJ/mol
# GULP energy per Si atom -5606.987326 kJ/mol
# Density = 2.354601 g / cm^3
# Si number density = 23.599727 Si / 1000 Ang^3
#
#
#
# Elastic Constant Matrix: (Units=GPa)
#
#
# Indices 1 2 3 4 5 6 
#
# 1 173.0488 9.0262 33.9079 0.0000 -22.9759 0.0000
# 2 9.0262 65.2271 -16.2695 0.0000 -20.7632 0.0000
# 3 33.9079 -16.2695 87.0938 0.0000 -14.1353 0.0000
# 4 0.0000 0.0000 0.0000 25.4763 0.0000 16.9712
# 5 -22.9759 -20.7632 -14.1353 0.0000 43.4544 0.0000
# 6 0.0000 0.0000 0.0000 16.9712 0.0000 1.4814
#
#
#
# Elastic Compliance Matrix: (Units=1/GPa)
#
#
# Indices 1 2 3 4 5 6 
#
# 1 0.006586 -0.000731 -0.002315 0.000000 0.002380 0.000000
# 2 -0.000731 0.020539 0.005966 0.000000 0.011368 0.000000
# 3 -0.002315 0.005966 0.014529 0.000000 0.006353 0.000000
# 4 0.000000 0.000000 0.000000 -0.005919 0.000000 0.067809
# 5 0.002380 0.011368 0.006353 0.000000 0.031770 0.000000
# 6 0.000000 0.000000 0.000000 0.067809 0.000000 -0.101791
#
#
# Mechanical properties :
#
#
# Convention : Reuss Voigt Hill
#
# Bulk Modulus (GPa) = 21.05434 42.07764 31.56599
# Shear Modulus (GPa) = -205.79898 33.99609 -85.90145
#
# Velocity S-wave (km/s) = -9.34844 3.79955 -6.03973
# Velocity P-wave (km/s) = 10.37225 6.09239 5.93576
#
# Compressibility (1/GPa) = 0.04749614
#
# Stress axis : x y z
#
# Youngs Moduli (GPa) = 151.82818 48.68742 68.82947
#
# Poissons Ratio (x) = 0.03559 0.15931
# Poissons Ratio (y) = 0.11099 -0.41067
# Poissons Ratio (z) = 0.35141 -0.29049
#
# Static dielectric constant tensor:
#      x y z
#    x 1.814740 0.000000 0.001360 
#    y 0.000000 1.963260 0.000000 
#    z 0.001360 0.000000 1.816800 
# 
# From -- ./inp_files/79426.got.cif
#   From: 2010.05.17/outbox.cif.g08.bks.cpg/sg14_40_cif.got.tgz:79426.got - 2010.06.03 17:49:19.
