data_PCOD9248432
_publ_section_title
;
Structure prediction by ZEFSAII (Michael W. Deem and Ramdas Pophale) SiO2 
 PCOD9248432
Probable space group: P 21/C
;
_chemical_formula_sum "Si O2"
_cell_formula_units_Z 32
_cell_length_a 10.924599
_cell_length_b 15.119012
_cell_length_c 14.004422
_cell_angle_alpha 90.000000
_cell_angle_beta 40.198854
_cell_angle_gamma 90.000000
_cell_volume 1492.971798
_symmetry_space_group_name_H-M "P 21/C"
_symmetry_group_IT_number 14
_symmetry_cell_setting 'monoclinic'
loop_
_space_group_symop_operation_xyz
x,y,z
-x,1/2+y,1/2-z
-x,-y,-z
x,1/2-y,1/2+z
loop_
_atom_site_type_symbol
_atom_site_label
_atom_site_fract_x
_atom_site_fract_y
_atom_site_fract_z
Si Si1 0.077821 0.307685 0.546469
Si Si2 0.096165 0.861005 0.412004
Si Si3 0.489731 0.182243 0.750931
Si Si4 0.807344 0.552671 0.221834
Si Si5 0.437014 0.979655 0.427875
Si Si6 0.967567 0.418856 0.446014
Si Si7 0.045838 0.545151 0.244784
Si Si8 0.474942 0.889407 0.796385
O O1 0.300791 0.324265 0.428717
O O2 0.947961 0.373249 0.685829
O O3 0.000832 0.209106 0.601069
O O4 0.044339 0.333971 0.455143
O O5 0.305085 0.831550 0.322092
O O6 0.943969 0.877334 0.586848
O O7 0.124364 0.955425 0.347395
O O8 0.472661 0.106058 0.679233
O O9 0.487958 0.284700 0.720871
O O10 0.847648 0.557601 0.309157
O O11 0.599401 0.566382 0.304762
O O12 0.215775 0.955754 0.568910
O O13 0.500000 0.000000 0.500000
O O14 0.468020 0.062733 0.338091
O O15 0.059058 0.453838 0.294825
O O16 0.746278 0.406809 0.560452
O O17 0.000000 0.500000 0.500000
#
# Coordination Sequence:
#
# PCOD9248432 Si02
#       8
#     4   4   4   4   4   4   4   4
#     4  11  23  44  69 101 137 179 230 284 345 415
#     4  11  22  45  71  93 137 190 223 273 353 418
#     4  12  24  44  73 102 137 191 231 280 355 427
#     4  11  23  45  69  96 139 185 227 280 349 424
#     4  12  24  45  71 103 140 179 241 293 342 418
#     4  10  22  42  68  96 136 179 224 285 349 414
#     4  11  24  43  67 103 137 176 229 291 345 407
#     4  12  24  45  72 102 138 194 232 278 366 420
#
# _framework density 21.433761000000001
#
# number of rings (size 3 to 8) (size 9 to 14) (size 15 to 20)
#    0.000    0.750    5.000    4.500    0.000    0.500 
#    6.750    0.000    0.000    0.000    0.000    0.000 
#    0.000    0.000    0.000    0.000    0.000    0.000 
#
# Total GULP energy -178671.206612 kJ/mol
# GULP energy per Si atom -5583.475207 kJ/mol
# Density = 2.138498 g / cm^3
# Si number density = 21.433761 Si / 1000 Ang^3
#
#
#
# Elastic Constant Matrix: (Units=GPa)
#
#
# Indices 1 2 3 4 5 6 
#
# 1 87.5265 9.8931 -2.6842 0.0000 -10.6507 0.0000
# 2 9.8931 120.9768 15.0274 0.0000 8.3219 0.0000
# 3 -2.6842 15.0274 50.8305 0.0000 -23.9047 0.0000
# 4 0.0000 0.0000 0.0000 18.0337 0.0000 -12.6463
# 5 -10.6507 8.3219 -23.9047 0.0000 37.8803 0.0000
# 6 0.0000 0.0000 0.0000 -12.6463 0.0000 29.0793
#
#
#
# Elastic Compliance Matrix: (Units=1/GPa)
#
#
# Indices 1 2 3 4 5 6 
#
# 1 0.012628 -0.002061 0.004492 0.000000 0.006838 0.000000
# 2 -0.002061 0.009626 -0.006003 0.000000 -0.006483 0.000000
# 3 0.004492 -0.006003 0.032564 0.000000 0.023131 0.000000
# 4 0.000000 0.000000 0.000000 0.079783 0.000000 0.034697
# 5 0.006838 -0.006483 0.023131 0.000000 0.044343 0.000000
# 6 0.000000 0.000000 0.000000 0.034697 0.000000 0.049478
#
#
# Mechanical properties :
#
#
# Convention : Reuss Voigt Hill
#
# Bulk Modulus (GPa) = 20.97642 33.75628 27.36635
# Shear Modulus (GPa) = 19.88402 32.80516 26.34459
#
# Velocity S-wave (km/s) = 3.04912 3.91645 3.50968
# Velocity P-wave (km/s) = 4.71211 6.01953 5.40550
#
# Compressibility (1/GPa) = 0.04767257
#
# Stress axis : x y z
#
# Youngs Moduli (GPa) = 79.18974 103.88229 30.70917
#
# Poissons Ratio (x) = 0.21410 -0.13794
# Poissons Ratio (y) = 0.16321 0.18436
# Poissons Ratio (z) = -0.35571 0.62366
#
# Static dielectric constant tensor:
#      x y z
#    x 1.833590 0.000000 -0.022350 
#    y 0.000000 1.797470 0.000000 
#    z -0.022350 0.000000 1.781950 
# 
# From -- ./inp_files/45075.got.cif
#   From: 2010.05.17/outbox.cif.g08.bks.cpg/sg14_23_cif.got.tgz:45075.got - 2010.06.03 17:49:19.
