data_PCOD9248577
_publ_section_title
;
Structure prediction by ZEFSAII (Michael W. Deem and Ramdas Pophale) SiO2 
 PCOD9248577
Probable space group: P 21/C
;
_chemical_formula_sum "Si O2"
_cell_formula_units_Z 28
_cell_length_a 19.063461
_cell_length_b 6.717874
_cell_length_c 10.663124
_cell_angle_alpha 90.000000
_cell_angle_beta 112.895994
_cell_angle_gamma 90.000000
_cell_volume 1257.992170
_symmetry_space_group_name_H-M "P 21/C"
_symmetry_group_IT_number 14
_symmetry_cell_setting 'monoclinic'
loop_
_space_group_symop_operation_xyz
x,y,z
-x,1/2+y,1/2-z
-x,-y,-z
x,1/2-y,1/2+z
loop_
_atom_site_type_symbol
_atom_site_label
_atom_site_fract_x
_atom_site_fract_y
_atom_site_fract_z
Si Si1 0.055091 0.183209 0.045464
Si Si2 0.057475 0.551609 0.895369
Si Si3 0.353347 0.848503 0.191776
Si Si4 0.703003 0.736043 0.199415
Si Si5 0.213598 0.882924 0.643094
Si Si6 0.413622 0.934782 0.961962
Si Si7 0.173894 0.968524 0.265871
O O1 0.018956 0.329193 0.126846
O O2 0.137956 0.089605 0.123617
O O3 0.047779 0.320466 0.919378
O O4 0.000000 0.000000 0.000000
O O5 0.098885 0.568478 0.793438
O O6 0.127290 0.615399 0.035247
O O7 0.274007 0.737434 0.101676
O O8 0.389383 0.719671 0.332916
O O9 0.332221 0.066090 0.234103
O O10 0.401085 0.857587 0.096061
O O11 0.759596 0.616984 0.144196
O O12 0.752953 0.902325 0.305891
O O13 0.638791 0.868413 0.089292
O O14 0.210225 0.742804 0.762518
O O15 0.500000 0.000000 0.000000
#
# Coordination Sequence:
#
# PCOD9248577 Si02
#       7
#     4   4   4   4   4   4   4
#     4  11  24  42  54  91 128 173 229 286 344 409
#     4  11  25  38  64  85 129 173 223 284 341 411
#     4  10  26  46  73 107 144 186 234 290 348 423
#     4  10  24  44  69 100 138 180 230 284 351 416
#     4  10  22  43  64  98 131 169 231 279 341 413
#     4  11  27  48  76 108 147 188 233 287 351 431
#     4  11  24  40  65  93 127 177 225 285 347 414
#
# _framework density 22.257688999999999
#
# number of rings (size 3 to 8) (size 9 to 14) (size 15 to 20)
#    0.000    1.429    2.857    0.000   12.000    2.857 
#    0.000    0.000    0.000    0.000    0.000    0.000 
#    0.000    0.000    0.000    0.000    0.000    0.000 
#
# Total GULP energy -156181.970444 kJ/mol
# GULP energy per Si atom -5577.927516 kJ/mol
# Density = 2.220703 g / cm^3
# Si number density = 22.257689 Si / 1000 Ang^3
#
#
#
# Elastic Constant Matrix: (Units=GPa)
#
#
# Indices 1 2 3 4 5 6 
#
# 1 104.3206 32.4840 30.9683 0.0000 -4.6359 0.0000
# 2 32.4840 134.9053 40.1114 0.0000 7.8225 0.0000
# 3 30.9683 40.1114 78.4349 0.0000 -6.3444 0.0000
# 4 0.0000 0.0000 0.0000 17.7060 0.0000 7.7633
# 5 -4.6359 7.8225 -6.3444 0.0000 36.3125 0.0000
# 6 0.0000 0.0000 0.0000 7.7633 0.0000 42.3453
#
#
#
# Elastic Compliance Matrix: (Units=1/GPa)
#
#
# Indices 1 2 3 4 5 6 
#
# 1 0.011202 -0.001747 -0.003432 0.000000 0.001207 0.000000
# 2 -0.001747 0.009284 -0.004299 0.000000 -0.002974 0.000000
# 3 -0.003432 -0.004299 0.016576 0.000000 0.003384 0.000000
# 4 0.000000 0.000000 0.000000 0.061415 0.000000 -0.011259
# 5 0.001207 -0.002974 0.003384 0.000000 0.028925 0.000000
# 6 0.000000 0.000000 0.000000 -0.011259 0.000000 0.025680
#
#
# Mechanical properties :
#
#
# Convention : Reuss Voigt Hill
#
# Bulk Modulus (GPa) = 55.22537 58.30978 56.76758
# Shear Modulus (GPa) = 28.07849 33.54590 30.81220
#
# Velocity S-wave (km/s) = 3.55564 3.88643 3.72471
# Velocity P-wave (km/s) = 6.45929 6.81128 6.63762
#
# Compressibility (1/GPa) = 0.01810762
#
# Stress axis : x y z
#
# Youngs Moduli (GPa) = 89.26782 107.71477 60.32662
#
# Poissons Ratio (x) = 0.18817 0.20704
# Poissons Ratio (y) = 0.15595 0.25931
# Poissons Ratio (z) = 0.30636 0.46301
#
# Static dielectric constant tensor:
#      x y z
#    x 1.798860 0.000000 -0.025030 
#    y 0.000000 1.821290 0.000000 
#    z -0.025030 0.000000 1.951940 
# 
# From -- ./inp_files/34739.got.cif
#   From: 2010.05.17/outbox.cif.g08.bks.cpg/sg14_18_cif.got.tgz:34739.got - 2010.06.03 17:49:19.
