data_PCOD9248043
_publ_section_title
;
Structure prediction by ZEFSAII (Michael W. Deem and Ramdas Pophale) SiO2 
 PCOD9248043
Probable space group: P 21/C
;
_chemical_formula_sum "Si O2"
_cell_formula_units_Z 22
_cell_length_a 4.756509
_cell_length_b 7.479536
_cell_length_c 23.145058
_cell_angle_alpha 90.000000
_cell_angle_beta 77.661177
_cell_angle_gamma 90.000000
_cell_volume 804.399531
_symmetry_space_group_name_H-M "P 21/C"
_symmetry_group_IT_number 14
_symmetry_cell_setting 'monoclinic'
loop_
_space_group_symop_operation_xyz
x,y,z
-x,1/2+y,1/2-z
-x,-y,-z
x,1/2-y,1/2+z
loop_
_atom_site_type_symbol
_atom_site_label
_atom_site_fract_x
_atom_site_fract_y
_atom_site_fract_z
Si Si1 0.500000 0.000000 0.000000
Si Si2 0.725339 0.369113 0.399510
Si Si3 0.851533 0.552708 0.123388
Si Si4 0.940605 0.310461 0.568371
Si Si5 0.265216 0.458061 0.198526
Si Si6 0.514252 0.076814 0.188779
O O1 0.756700 0.130029 0.022726
O O2 0.545491 0.830458 0.048479
O O3 0.653155 0.418864 0.337089
O O4 0.776273 0.562854 0.434214
O O5 0.993649 0.241092 0.391187
O O6 0.976503 0.400730 0.075314
O O7 0.507333 0.535241 0.143167
O O8 0.960496 0.498152 0.183497
O O9 0.759120 0.366565 0.632904
O O10 0.308592 0.246865 0.201415
O O11 0.337374 0.533770 0.257753
#
# Coordination Sequence:
#
# PCOD9248043 Si02
#       6
#     2   4   4   4   4   4
#     4   8  20  40  64  86 122 162 212 256 328 352
#     4  10  22  41  63  88 123 165 205 263 307 376
#     4  11  24  41  65  94 131 160 215 252 321 372
#     4   9  22  43  57  93 122 161 209 262 302 381
#     4  11  25  40  64  97 126 174 202 260 312 386
#     4  11  23  39  65  88 134 159 216 255 317 374
#
# _framework density 27.349592000000001
#
# number of rings (size 3 to 8) (size 9 to 14) (size 15 to 20)
#    1.091    0.727    1.818    1.091    7.636    1.455 
#    0.000    0.000    0.000    6.545    0.000    0.000 
#    0.000    0.000    0.000    0.000    0.000    0.000 
#
# Total GULP energy -123044.062684 kJ/mol
# GULP energy per Si atom -5592.911940 kJ/mol
# Density = 2.728734 g / cm^3
# Si number density = 27.349592 Si / 1000 Ang^3
#
#
#
# Elastic Constant Matrix: (Units=GPa)
#
#
# Indices 1 2 3 4 5 6 
#
# 1 116.7585 9.6247 2.2326 0.0000 16.8262 0.0000
# 2 9.6247 99.2636 3.2049 0.0000 -2.5262 0.0000
# 3 2.2326 3.2049 109.6477 0.0000 23.5442 0.0000
# 4 0.0000 0.0000 0.0000 46.7383 0.0000 0.4275
# 5 16.8262 -2.5262 23.5442 0.0000 43.9389 0.0000
# 6 0.0000 0.0000 0.0000 0.4275 0.0000 44.5046
#
#
#
# Elastic Compliance Matrix: (Units=1/GPa)
#
#
# Indices 1 2 3 4 5 6 
#
# 1 0.009205 -0.001015 0.000691 0.000000 -0.003954 0.000000
# 2 -0.001015 0.010223 -0.000551 0.000000 0.001272 0.000000
# 3 0.000691 -0.000551 0.010380 0.000000 -0.005858 0.000000
# 4 0.000000 0.000000 0.000000 0.021398 0.000000 -0.000206
# 5 -0.003954 0.001272 -0.005858 0.000000 0.027485 0.000000
# 6 0.000000 0.000000 0.000000 -0.000206 0.000000 0.022472
#
#
# Mechanical properties :
#
#
# Convention : Reuss Voigt Hill
#
# Bulk Modulus (GPa) = 35.64183 39.53269 37.58726
# Shear Modulus (GPa) = 44.53722 47.74354 46.14038
#
# Velocity S-wave (km/s) = 4.03977 4.18266 4.11184
# Velocity P-wave (km/s) = 5.90084 6.14916 6.02628
#
# Compressibility (1/GPa) = 0.02805692
#
# Stress axis : x y z
#
# Youngs Moduli (GPa) = 108.63709 97.82035 96.33794
#
# Poissons Ratio (x) = 0.09933 -0.06659
# Poissons Ratio (y) = 0.11032 0.05311
# Poissons Ratio (z) = -0.07509 0.05392
#
# Static dielectric constant tensor:
#      x y z
#    x 2.118730 0.000000 -0.058750 
#    y 0.000000 2.250550 0.000000 
#    z -0.058750 0.000000 2.176120 
# 
# From -- ./inp_files/63089.got.cif
#   From: 2010.05.17/outbox.cif.g08.bks.cpg/sg14_32_cif.got.tgz:63089.got - 2010.06.03 17:49:19.
