data_PCOD9248452
_publ_section_title
;
Structure prediction by ZEFSAII (Michael W. Deem and Ramdas Pophale) SiO2 
 PCOD9248452
Probable space group: P 21/C
;
_chemical_formula_sum "Si O2"
_cell_formula_units_Z 24
_cell_length_a 6.796782
_cell_length_b 19.906336
_cell_length_c 9.873232
_cell_angle_alpha 90.000000
_cell_angle_beta 121.706941
_cell_angle_gamma 90.000000
_cell_volume 1136.461341
_symmetry_space_group_name_H-M "P 21/C"
_symmetry_group_IT_number 14
_symmetry_cell_setting 'monoclinic'
loop_
_space_group_symop_operation_xyz
x,y,z
-x,1/2+y,1/2-z
-x,-y,-z
x,1/2-y,1/2+z
loop_
_atom_site_type_symbol
_atom_site_label
_atom_site_fract_x
_atom_site_fract_y
_atom_site_fract_z
Si Si1 0.762945 0.945841 0.018871
Si Si2 0.045133 0.367454 0.643795
Si Si3 0.472272 0.681167 0.516651
Si Si4 0.684313 0.736199 0.861557
Si Si5 0.707863 0.007351 0.274993
Si Si6 0.900176 0.603330 0.040087
O O1 0.948107 0.920134 0.977587
O O2 0.556945 0.981255 0.860507
O O3 0.643271 0.879756 0.040784
O O4 0.829488 0.988193 0.175120
O O5 0.180540 0.301117 0.644439
O O6 0.786202 0.345898 0.585975
O O7 0.161091 0.394406 0.823183
O O8 0.527236 0.706748 0.685930
O O9 0.529506 0.739806 0.431220
O O10 0.861516 0.677961 0.970471
O O11 0.748081 0.948350 0.397011
O O12 0.839842 0.073432 0.376216
#
# Coordination Sequence:
#
# PCOD9248452 Si02
#       6
#     4   4   4   4   4   4
#     4  10  22  43  66  94 128 171 210 267 323 376
#     4  11  25  41  68  95 126 168 220 264 325 380
#     4  11  23  42  64  94 127 165 216 272 319 384
#     4  11  24  42  66  92 130 169 213 273 322 378
#     4  10  22  42  69  92 137 169 214 267 311 393
#     4  11  22  42  64  98 129 171 215 261 324 379
#
# _framework density 21.118183999999999
#
# number of rings (size 3 to 8) (size 9 to 14) (size 15 to 20)
#    0.000    1.333    5.000    0.000    2.333    1.333 
#    0.000    1.667    0.000    0.000    0.000    0.000 
#    0.000    0.000    0.000    0.000    0.000    0.000 
#
# Total GULP energy -134177.103730 kJ/mol
# GULP energy per Si atom -5590.712655 kJ/mol
# Density = 2.107012 g / cm^3
# Si number density = 21.118184 Si / 1000 Ang^3
#
#
#
# Elastic Constant Matrix: (Units=GPa)
#
#
# Indices 1 2 3 4 5 6 
#
# 1 58.3309 33.1631 32.7410 0.0000 -10.2946 0.0000
# 2 33.1631 103.3754 59.5273 0.0000 -5.0779 0.0000
# 3 32.7410 59.5273 137.8603 0.0000 -11.8578 0.0000
# 4 0.0000 0.0000 0.0000 49.6976 0.0000 2.6729
# 5 -10.2946 -5.0779 -11.8578 0.0000 18.1943 0.0000
# 6 0.0000 0.0000 0.0000 2.6729 0.0000 20.7238
#
#
#
# Elastic Compliance Matrix: (Units=1/GPa)
#
#
# Indices 1 2 3 4 5 6 
#
# 1 0.023458 -0.005752 -0.002208 0.000000 0.010229 0.000000
# 2 -0.005752 0.014285 -0.005021 0.000000 -0.002540 0.000000
# 3 -0.002208 -0.005021 0.010295 0.000000 0.004059 0.000000
# 4 0.000000 0.000000 0.000000 0.020262 0.000000 -0.002613
# 5 0.010229 -0.002540 0.004059 0.000000 0.062686 0.000000
# 6 0.000000 0.000000 0.000000 -0.002613 0.000000 0.048591
#
#
# Mechanical properties :
#
#
# Convention : Reuss Voigt Hill
#
# Bulk Modulus (GPa) = 45.29408 61.15884 53.22646
# Shear Modulus (GPa) = 23.48556 29.33218 26.40887
#
# Velocity S-wave (km/s) = 3.33844 3.73091 3.54012
# Velocity P-wave (km/s) = 6.02948 6.89802 6.47833
#
# Compressibility (1/GPa) = 0.02207794
#
# Stress axis : x y z
#
# Youngs Moduli (GPa) = 42.62930 70.00389 97.13373
#
# Poissons Ratio (x) = 0.40264 0.21445
# Poissons Ratio (y) = 0.24519 0.48767
# Poissons Ratio (z) = 0.09412 0.35146
#
# Static dielectric constant tensor:
#      x y z
#    x 1.744490 0.000000 -0.007440 
#    y 0.000000 1.786740 0.000000 
#    z -0.007440 0.000000 1.754620 
# 
# From -- ./inp_files/6309.got.cif
#   From: 2010.05.17/outbox.cif.g08.bks.cpg/sg14_4_cif.got.tgz:6309.got - 2010.06.03 17:49:19.
