data_PCOD9248445
_publ_section_title
;
Structure prediction by ZEFSAII (Michael W. Deem and Ramdas Pophale) SiO2 
 PCOD9248445
Probable space group: P 21/C
;
_chemical_formula_sum "Si O2"
_cell_formula_units_Z 28
_cell_length_a 6.899117
_cell_length_b 20.944496
_cell_length_c 10.397625
_cell_angle_alpha 90.000000
_cell_angle_beta 45.276959
_cell_angle_gamma 90.000000
_cell_volume 1067.509563
_symmetry_space_group_name_H-M "P 21/C"
_symmetry_group_IT_number 14
_symmetry_cell_setting 'monoclinic'
loop_
_space_group_symop_operation_xyz
x,y,z
-x,1/2+y,1/2-z
-x,-y,-z
x,1/2-y,1/2+z
loop_
_atom_site_type_symbol
_atom_site_label
_atom_site_fract_x
_atom_site_fract_y
_atom_site_fract_z
Si Si1 0.056363 0.180196 0.532791
Si Si2 0.460955 0.288717 0.636137
Si Si3 0.900552 0.313003 0.651564
Si Si4 0.808807 0.059477 0.092772
Si Si5 0.679000 0.021444 0.633967
Si Si6 0.413625 0.653941 0.938954
Si Si7 0.278919 0.890774 0.149318
O O1 0.089906 0.251357 0.571024
O O2 0.762465 0.167368 0.607361
O O3 0.028188 0.130605 0.661781
O O4 0.242934 0.172191 0.321791
O O5 0.716576 0.294978 0.613883
O O6 0.375279 0.213956 0.671090
O O7 0.546408 0.326532 0.467369
O O8 0.981829 0.384295 0.579000
O O9 0.736060 0.322671 0.860654
O O10 0.521044 0.038807 0.290104
O O11 0.743737 0.078114 0.978390
O O12 0.000000 0.000000 0.000000
O O13 0.593402 0.076560 0.569052
O O14 0.615120 0.056895 0.799700
O O15 0.000000 0.000000 0.500000
#
# Coordination Sequence:
#
# PCOD9248445 Si02
#       7
#     4   4   4   4   4   4   4
#     4  10  22  42  70 100 133 177 226 283 355 415
#     4  10  22  42  69 102 134 173 221 294 355 400
#     4  10  23  42  63 101 138 168 228 289 347 398
#     4  11  27  45  67 101 144 181 229 292 343 399
#     4  11  27  47  71  97 137 199 239 267 336 432
#     4  10  23  42  65 101 135 173 234 279 342 410
#     4  10  23  46  72 100 137 180 239 279 345 420
#
# _framework density 26.229275000000001
#
# number of rings (size 3 to 8) (size 9 to 14) (size 15 to 20)
#    0.000    1.714    1.429    0.429   12.000    4.000 
#    0.000    0.000    0.000    0.000    0.000    0.000 
#    0.000    0.000    0.000    0.000    0.000    0.000 
#
# Total GULP energy -156080.351156 kJ/mol
# GULP energy per Si atom -5574.298256 kJ/mol
# Density = 2.616958 g / cm^3
# Si number density = 26.229275 Si / 1000 Ang^3
#
#
#
# Elastic Constant Matrix: (Units=GPa)
#
#
# Indices 1 2 3 4 5 6 
#
# 1 70.3979 26.8603 -0.0834 0.0000 1.1545 0.0000
# 2 26.8603 120.1975 27.9632 0.0000 9.2761 0.0000
# 3 -0.0834 27.9632 122.8986 0.0000 13.8683 0.0000
# 4 0.0000 0.0000 0.0000 -716.9673 0.0000 -893.3663
# 5 1.1545 9.2761 13.8683 0.0000 34.9116 0.0000
# 6 0.0000 0.0000 0.0000 -893.3663 0.0000-1001.8021
#
#
#
# Elastic Compliance Matrix: (Units=1/GPa)
#
#
# Indices 1 2 3 4 5 6 
#
# 1 0.015613 -0.003694 0.000836 0.000000 0.000133 0.000000
# 2 -0.003694 0.009746 -0.002033 0.000000 -0.001660 0.000000
# 3 0.000836 -0.002033 0.008943 0.000000 -0.003040 0.000000
# 4 0.000000 0.000000 0.000000 0.012547 0.000000 -0.011189
# 5 0.000133 -0.001660 -0.003040 0.000000 0.030288 0.000000
# 6 0.000000 0.000000 0.000000 -0.011189 0.000000 0.008980
#
#
# Mechanical properties :
#
#
# Convention : Reuss Voigt Hill
#
# Bulk Modulus (GPa) = 40.78109 46.99713 43.88911
# Shear Modulus (GPa) = 48.04388 -319.52129 -135.73870
#
# Velocity S-wave (km/s) = 4.28447 -11.04912 -7.20161
# Velocity P-wave (km/s) = 6.32908 12.03415 7.23752
#
# Compressibility (1/GPa) = 0.02452117
#
# Stress axis : x y z
#
# Youngs Moduli (GPa) = 64.04853 102.60520 111.82040
#
# Poissons Ratio (x) = 0.37900 -0.09349
# Poissons Ratio (y) = 0.23658 0.22730
# Poissons Ratio (z) = -0.05355 0.20857
#
# Static dielectric constant tensor:
#      x y z
#    x 2.182430 0.000000 -0.053750 
#    y 0.000000 7.194910 0.000000 
#    z -0.053750 0.000000 2.167420 
# 
# From -- ./inp_files/26752.got.cif
#   From: 2010.05.17/outbox.cif.g08.bks.cpg/sg14_14_cif.got.tgz:26752.got - 2010.06.03 17:49:19.
