data_PCOD9248019
_publ_section_title
;
Structure prediction by ZEFSAII (Michael W. Deem and Ramdas Pophale) SiO2 
 PCOD9248019
Probable space group: P 21/C
;
_chemical_formula_sum "Si O2"
_cell_formula_units_Z 28
_cell_length_a 7.888092
_cell_length_b 12.331603
_cell_length_c 19.685554
_cell_angle_alpha 90.000000
_cell_angle_beta 48.497548
_cell_angle_gamma 90.000000
_cell_volume 1434.098038
_symmetry_space_group_name_H-M "P 21/C"
_symmetry_group_IT_number 14
_symmetry_cell_setting 'monoclinic'
loop_
_space_group_symop_operation_xyz
x,y,z
-x,1/2+y,1/2-z
-x,-y,-z
x,1/2-y,1/2+z
loop_
_atom_site_type_symbol
_atom_site_label
_atom_site_fract_x
_atom_site_fract_y
_atom_site_fract_z
Si Si1 0.882010 0.448827 0.236323
Si Si2 0.960786 0.776729 0.849996
Si Si3 0.950718 0.400601 0.461753
Si Si4 0.188740 0.991900 0.774161
Si Si5 0.712368 0.481087 0.131267
Si Si6 0.072033 0.182452 0.494230
Si Si7 0.445480 0.067675 0.082351
O O1 0.841557 0.486520 0.169654
O O2 0.656375 0.484075 0.336049
O O3 0.936702 0.321218 0.220548
O O4 0.088632 0.500369 0.224479
O O5 0.746352 0.841504 0.877445
O O6 0.152683 0.868392 0.808427
O O7 0.885865 0.724659 0.940984
O O8 0.683398 0.381547 0.539172
O O9 0.000000 0.500000 0.500000
O O10 0.028910 0.438213 0.366462
O O11 0.072320 0.289614 0.448957
O O12 0.445142 0.030518 0.711632
O O13 0.758808 0.590876 0.077407
O O14 0.830563 0.380496 0.061457
O O15 0.500000 0.000000 0.000000
#
# Coordination Sequence:
#
# PCOD9248019 Si02
#       7
#     4   4   4   4   4   4   4
#     4  10  23  42  62  95 130 163 215 260 317 383
#     4  10  22  41  61  92 130 166 208 267 315 379
#     4  12  22  39  65  95 122 164 216 259 318 380
#     4  11  23  41  64  95 124 164 216 259 322 376
#     4  10  24  45  64  91 130 171 207 263 316 382
#     4  10  23  44  64  91 128 166 215 256 319 383
#     4  11  21  40  64  92 129 161 210 266 313 373
#
# _framework density 19.524467999999999
#
# number of rings (size 3 to 8) (size 9 to 14) (size 15 to 20)
#    0.000    1.429    4.286    0.857    2.000    6.857 
#    2.571    2.143    0.000    0.000    0.000    0.000 
#    0.000    0.000    0.000    0.000    0.000    0.000 
#
# Total GULP energy -156240.529598 kJ/mol
# GULP energy per Si atom -5580.018914 kJ/mol
# Density = 1.948003 g / cm^3
# Si number density = 19.524468 Si / 1000 Ang^3
#
#
#
# Elastic Constant Matrix: (Units=GPa)
#
#
# Indices 1 2 3 4 5 6 
#
# 1 53.5111 2.5026 7.4803 0.0000 -10.4990 0.0000
# 2 2.5026 105.5100 28.1131 0.0000 2.7314 0.0000
# 3 7.4803 28.1131 69.2117 0.0000 -10.8572 0.0000
# 4 0.0000 0.0000 0.0000 27.6248 0.0000 11.4584
# 5 -10.4990 2.7314 -10.8572 0.0000 34.7182 0.0000
# 6 0.0000 0.0000 0.0000 11.4584 0.0000 22.8044
#
#
#
# Elastic Compliance Matrix: (Units=1/GPa)
#
#
# Indices 1 2 3 4 5 6 
#
# 1 0.019982 -0.000320 -0.001133 0.000000 0.005713 0.000000
# 2 -0.000320 0.010811 -0.004738 0.000000 -0.002429 0.000000
# 3 -0.001133 -0.004738 0.017351 0.000000 0.005456 0.000000
# 4 0.000000 0.000000 0.000000 0.045730 0.000000 -0.022978
# 5 0.005713 -0.002429 0.005456 0.000000 0.032428 0.000000
# 6 0.000000 0.000000 0.000000 -0.022978 0.000000 0.055397
#
#
# Mechanical properties :
#
#
# Convention : Reuss Voigt Hill
#
# Bulk Modulus (GPa) = 27.96258 33.82499 30.89379
# Shear Modulus (GPa) = 24.27164 29.70526 26.98845
#
# Velocity S-wave (km/s) = 3.52964 3.90479 3.72195
# Velocity P-wave (km/s) = 5.56454 6.13937 5.85901
#
# Compressibility (1/GPa) = 0.03576207
#
# Stress axis : x y z
#
# Youngs Moduli (GPa) = 50.04480 92.50208 57.63298
#
# Poissons Ratio (x) = 0.02959 0.06532
# Poissons Ratio (y) = 0.01601 0.27304
# Poissons Ratio (z) = 0.05672 0.43824
#
# Static dielectric constant tensor:
#      x y z
#    x 1.618160 0.000000 0.016180 
#    y 0.000000 1.679430 0.000000 
#    z 0.016180 0.000000 1.675300 
# 
# From -- ./inp_files/65535.got.cif
#   From: 2010.05.17/outbox.cif.g08.bks.cpg/sg14_33_cif.got.tgz:65535.got - 2010.06.03 17:49:19.
