data_PCOD9248661
_publ_section_title
;
Structure prediction by ZEFSAII (Michael W. Deem and Ramdas Pophale) SiO2 
 PCOD9248661
Probable space group: P 21/C
;
_chemical_formula_sum "Si O2"
_cell_formula_units_Z 32
_cell_length_a 9.107177
_cell_length_b 5.515862
_cell_length_c 29.580029
_cell_angle_alpha 90.000000
_cell_angle_beta 80.562805
_cell_angle_gamma 90.000000
_cell_volume 1465.810586
_symmetry_space_group_name_H-M "P 21/C"
_symmetry_group_IT_number 14
_symmetry_cell_setting 'monoclinic'
loop_
_space_group_symop_operation_xyz
x,y,z
-x,1/2+y,1/2-z
-x,-y,-z
x,1/2-y,1/2+z
loop_
_atom_site_type_symbol
_atom_site_label
_atom_site_fract_x
_atom_site_fract_y
_atom_site_fract_z
Si Si1 0.347056 0.168050 0.648203
Si Si2 0.585382 0.776740 0.756723
Si Si3 0.890478 0.263827 0.105048
Si Si4 0.811974 0.624684 0.671137
Si Si5 0.647852 0.579138 0.099684
Si Si6 0.414112 0.253581 0.492291
Si Si7 0.887301 0.161727 0.366431
Si Si8 0.812740 0.560942 0.427131
O O1 0.377166 0.309548 0.692511
O O2 0.266522 0.320932 0.613107
O O3 0.499904 0.055723 0.622704
O O4 0.231148 0.948565 0.661808
O O5 0.481448 0.533690 0.757325
O O6 0.730038 0.697662 0.720746
O O7 0.770127 0.380373 0.078600
O O8 0.004961 0.459593 0.118440
O O9 0.007636 0.079506 0.077487
O O10 0.802266 0.146687 0.151745
O O11 0.726524 0.779627 0.636746
O O12 0.990217 0.667322 0.663370
O O13 0.613420 0.749172 0.059627
O O14 0.500000 0.500000 0.500000
O O15 0.263129 0.299970 0.527973
O O16 0.500000 0.000000 0.500000
O O17 0.798257 0.279838 0.413192
#
# Coordination Sequence:
#
# PCOD9248661 Si02
#       8
#     4   4   4   4   4   4   4   4
#     4  11  22  41  68  95 133 177 222 278 344 395
#     4  12  27  43  67 102 133 174 228 280 330 404
#     4   9  21  41  68  93 131 176 221 274 338 394
#     4  10  22  44  66  94 136 174 224 279 337 405
#     4  11  22  41  69  97 134 178 223 279 340 397
#     4  12  27  42  67 105 137 177 227 282 338 408
#     4   9  21  42  64  95 131 176 217 275 337 398
#     4  10  22  43  68  95 137 175 223 283 338 409
#
# _framework density 21.830926000000002
#
# number of rings (size 3 to 8) (size 9 to 14) (size 15 to 20)
#    0.000    1.500    2.500    1.500    7.000    2.500 
#    6.750    5.625    0.000    0.000    0.000    0.000 
#    0.000    0.000    0.000    0.000    0.000    0.000 
#
# Total GULP energy -178409.489602 kJ/mol
# GULP energy per Si atom -5575.296550 kJ/mol
# Density = 2.178124 g / cm^3
# Si number density = 21.830926 Si / 1000 Ang^3
#
#
#
# Elastic Constant Matrix: (Units=GPa)
#
#
# Indices 1 2 3 4 5 6 
#
# 1 102.8380 15.5930 2.9379 0.0000 0.9904 0.0000
# 2 15.5930 68.6243 -18.9802 0.0000 3.1773 0.0000
# 3 2.9379 -18.9802 41.7977 0.0000 -3.7633 0.0000
# 4 0.0000 0.0000 0.0000 21.5695 0.0000 -4.4488
# 5 0.9904 3.1773 -3.7633 0.0000 30.5283 0.0000
# 6 0.0000 0.0000 0.0000 -4.4488 0.0000 25.6520
#
#
#
# Elastic Compliance Matrix: (Units=1/GPa)
#
#
# Indices 1 2 3 4 5 6 
#
# 1 0.010221 -0.002876 -0.002050 0.000000 -0.000285 0.000000
# 2 -0.002876 0.017494 0.008081 0.000000 -0.000731 0.000000
# 3 -0.002050 0.008081 0.027979 0.000000 0.002675 0.000000
# 4 0.000000 0.000000 0.000000 0.048082 0.000000 0.008339
# 5 -0.000285 -0.000731 0.002675 0.000000 0.033172 0.000000
# 6 0.000000 0.000000 0.000000 0.008339 0.000000 0.040430
#
#
# Mechanical properties :
#
#
# Convention : Reuss Voigt Hill
#
# Bulk Modulus (GPa) = 16.12838 23.59571 19.86205
# Shear Modulus (GPa) = 26.07729 29.79724 27.93727
#
# Velocity S-wave (km/s) = 3.45992 3.69848 3.58119
# Velocity P-wave (km/s) = 4.83377 5.39167 5.12032
#
# Compressibility (1/GPa) = 0.06200252
#
# Stress axis : x y z
#
# Youngs Moduli (GPa) = 97.83303 57.16093 35.74109
#
# Poissons Ratio (x) = 0.16442 0.07328
# Poissons Ratio (y) = 0.28141 -0.28881
# Poissons Ratio (z) = 0.20059 -0.46189
#
# Static dielectric constant tensor:
#      x y z
#    x 1.832150 0.000000 -0.060250 
#    y 0.000000 2.026580 0.000000 
#    z -0.060250 0.000000 1.819730 
# 
# From -- ./inp_files/79231.got.cif
#   From: 2010.05.17/outbox.cif.g08.bks.cpg/sg14_40_cif.got.tgz:79231.got - 2010.06.03 17:49:19.
