data_PCOD9248865
_publ_section_title
;
Structure prediction by ZEFSAII (Michael W. Deem and Ramdas Pophale) SiO2 
 PCOD9248865
Probable space group: P 21/C
;
_chemical_formula_sum "Si O2"
_cell_formula_units_Z 20
_cell_length_a 6.626279
_cell_length_b 4.482552
_cell_length_c 22.111293
_cell_angle_alpha 90.000000
_cell_angle_beta 75.567728
_cell_angle_gamma 90.000000
_cell_volume 636.038241
_symmetry_space_group_name_H-M "P 21/C"
_symmetry_group_IT_number 14
_symmetry_cell_setting 'monoclinic'
loop_
_space_group_symop_operation_xyz
x,y,z
-x,1/2+y,1/2-z
-x,-y,-z
x,1/2-y,1/2+z
loop_
_atom_site_type_symbol
_atom_site_label
_atom_site_fract_x
_atom_site_fract_y
_atom_site_fract_z
Si Si1 0.482670 0.299933 0.955978
Si Si2 0.227144 0.750043 0.779184
Si Si3 0.142886 0.181074 0.619273
Si Si4 0.884995 0.226915 0.964390
Si Si5 0.421849 0.250404 0.333365
O O1 0.638458 0.508860 0.900364
O O2 0.374229 0.152764 0.905039
O O3 0.682303 0.444916 0.001918
O O4 0.500000 0.000000 0.000000
O O5 0.345244 0.678509 0.708553
O O6 0.368983 0.585973 0.819214
O O7 0.987304 0.675081 0.809881
O O8 0.263219 0.086461 0.798404
O O9 0.004561 0.997097 0.578917
O O10 0.167437 0.507300 0.588299
O O11 0.000000 0.000000 0.000000
#
# Coordination Sequence:
#
# PCOD9248865 Si02
#       5
#     4   4   4   4   4
#     4  10  26  44  66 103 139 176 224 285 339 398
#     4  10  22  44  69  96 132 179 226 278 343 414
#     4  10  23  41  65  97 128 179 221 272 337 393
#     4  10  23  41  64  97 130 182 217 266 333 402
#     4  10  23  43  69  98 132 177 227 285 340 397
#
# _framework density 31.444651
#
# number of rings (size 3 to 8) (size 9 to 14) (size 15 to 20)
#    1.200    0.800    0.000    1.800    5.600    2.400 
#    3.600    0.000    0.000    0.000    0.000    0.000 
#    0.000    0.000    0.000    0.000    0.000    0.000 
#
# Total GULP energy -111424.779709 kJ/mol
# GULP energy per Si atom -5571.238985 kJ/mol
# Density = 3.137308 g / cm^3
# Si number density = 31.444651 Si / 1000 Ang^3
#
#
#
# Elastic Constant Matrix: (Units=GPa)
#
#
# Indices 1 2 3 4 5 6 
#
# 1 104.8618 31.8799 75.0536 0.0000 -30.8485 0.0000
# 2 31.8799 191.0340 65.1730 0.0000 6.6308 0.0000
# 3 75.0536 65.1730 259.2137 0.0000 -33.0161 0.0000
# 4 0.0000 0.0000 0.0000 44.4991 0.0000 1.9626
# 5 -30.8485 6.6308 -33.0161 0.0000 84.8580 0.0000
# 6 0.0000 0.0000 0.0000 1.9626 0.0000 58.5897
#
#
#
# Elastic Compliance Matrix: (Units=1/GPa)
#
#
# Indices 1 2 3 4 5 6 
#
# 1 0.013186 -0.001300 -0.003017 0.000000 0.003721 0.000000
# 2 -0.001300 0.005946 -0.001302 0.000000 -0.001444 0.000000
# 3 -0.003017 -0.001302 0.005189 0.000000 0.001024 0.000000
# 4 0.000000 0.000000 0.000000 0.022506 0.000000 -0.000754
# 5 0.003721 -0.001444 0.001024 0.000000 0.013648 0.000000
# 6 0.000000 0.000000 0.000000 -0.000754 0.000000 0.017093
#
#
# Mechanical properties :
#
#
# Convention : Reuss Voigt Hill
#
# Bulk Modulus (GPa) = 76.44277 99.92475 88.18376
# Shear Modulus (GPa) = 53.66631 63.12289 58.39460
#
# Velocity S-wave (km/s) = 4.13569 4.48529 4.31404
# Velocity P-wave (km/s) = 6.86792 7.65969 7.27458
#
# Compressibility (1/GPa) = 0.01308168
#
# Stress axis : x y z
#
# Youngs Moduli (GPa) = 75.83947 168.17642 192.70615
#
# Poissons Ratio (x) = 0.21869 0.58138
# Poissons Ratio (y) = 0.09862 0.25099
# Poissons Ratio (z) = 0.22880 0.21904
#
# Static dielectric constant tensor:
#      x y z
#    x 4.405340 0.000000 0.032480 
#    y 0.000000 2.414620 0.000000 
#    z 0.032480 0.000000 2.625100 
# 
# From -- ./inp_files/64125.got.cif
#   From: 2010.05.17/outbox.cif.g08.bks.cpg/sg14_33_cif.got.tgz:64125.got - 2010.06.03 17:49:19.
