data_PCOD9248765
_publ_section_title
;
Structure prediction by ZEFSAII (Michael W. Deem and Ramdas Pophale) SiO2 
 PCOD9248765
Probable space group: P 21/C
;
_chemical_formula_sum "Si O2"
_cell_formula_units_Z 20
_cell_length_a 15.884298
_cell_length_b 5.475012
_cell_length_c 8.968174
_cell_angle_alpha 90.000000
_cell_angle_beta 93.315738
_cell_angle_gamma 90.000000
_cell_volume 778.627064
_symmetry_space_group_name_H-M "P 21/C"
_symmetry_group_IT_number 14
_symmetry_cell_setting 'monoclinic'
loop_
_space_group_symop_operation_xyz
x,y,z
-x,1/2+y,1/2-z
-x,-y,-z
x,1/2-y,1/2+z
loop_
_atom_site_type_symbol
_atom_site_label
_atom_site_fract_x
_atom_site_fract_y
_atom_site_fract_z
Si Si1 0.724636 0.522618 0.235128
Si Si2 0.948499 0.972384 0.255725
Si Si3 0.433087 0.209295 0.137954
Si Si4 0.399860 0.789944 0.647935
Si Si5 0.163818 0.224404 0.504189
O O1 0.641007 0.689697 0.244644
O O2 0.687226 0.257606 0.274543
O O3 0.772880 0.560393 0.087122
O O4 0.786153 0.612463 0.372099
O O5 0.885947 0.899962 0.114665
O O6 0.899774 0.941284 0.406834
O O7 0.015252 0.745322 0.258444
O O8 0.522532 0.215183 0.228017
O O9 0.412200 0.463905 0.059792
O O10 0.415297 0.955228 0.054120
#
# Coordination Sequence:
#
# PCOD9248765 Si02
#       5
#     4   4   4   4   4
#     4   9  20  38  60  91 130 156 210 255 300 350
#     4  11  24  48  70  93 122 158 198 241 306 392
#     4   8  15  32  57  78 119 163 211 245 293 344
#     4   8  15  32  57  78 119 163 211 245 293 344
#     4  10  22  44  64 100 120 162 192 260 308 356
#
# _framework density 25.686240000000002
#
# number of rings (size 3 to 8) (size 9 to 14) (size 15 to 20)
#    1.200    1.600    0.000    1.200    0.000    0.000 
#   21.600    2.000    0.000    0.000    0.000    0.000 
#    0.000    0.000    0.000    0.000    0.000    0.000 
#
# Total GULP energy -111813.340475 kJ/mol
# GULP energy per Si atom -5590.667024 kJ/mol
# Density = 2.562778 g / cm^3
# Si number density = 25.686240 Si / 1000 Ang^3
#
#
#
# Elastic Constant Matrix: (Units=GPa)
#
#
# Indices 1 2 3 4 5 6 
#
# 1 105.3080 -10.3687 62.4886 0.0000 -8.5729 0.0000
# 2 -10.3687 131.3855 39.2060 0.0000 13.0652 0.0000
# 3 62.4886 39.2060 115.5538 0.0000 -25.0793 0.0000
# 4 0.0000 0.0000 0.0000 4.8067 0.0000 7.5142
# 5 -8.5729 13.0652 -25.0793 0.0000 41.1287 0.0000
# 6 0.0000 0.0000 0.0000 7.5142 0.0000 17.8142
#
#
#
# Elastic Compliance Matrix: (Units=1/GPa)
#
#
# Indices 1 2 3 4 5 6 
#
# 1 0.016827 0.005541 -0.012217 0.000000 -0.005702 0.000000
# 2 0.005541 0.011344 -0.008502 0.000000 -0.007633 0.000000
# 3 -0.012217 -0.008502 0.020951 0.000000 0.012930 0.000000
# 4 0.000000 0.000000 0.000000 0.610819 0.000000 -0.257650
# 5 -0.005702 -0.007633 0.012930 0.000000 0.033434 0.000000
# 6 0.000000 0.000000 0.000000 -0.257650 0.000000 0.164815
#
#
# Mechanical properties :
#
#
# Convention : Reuss Voigt Hill
#
# Bulk Modulus (GPa) = 53.28759 59.43320 56.36040
# Shear Modulus (GPa) = 5.58783 30.14470 17.86626
#
# Velocity S-wave (km/s) = 1.47653 3.42946 2.64020
# Velocity P-wave (km/s) = 4.86800 6.23458 5.59319
#
# Compressibility (1/GPa) = 0.01876610
#
# Stress axis : x y z
#
# Youngs Moduli (GPa) = 59.42974 88.14860 47.72963
#
# Poissons Ratio (x) = -0.48839 0.58310
# Poissons Ratio (y) = -0.32927 0.40579
# Poissons Ratio (z) = 0.72604 0.74943
#
# Static dielectric constant tensor:
#      x y z
#    x 2.058660 0.000000 -0.027640 
#    y 0.000000 2.143850 0.000000 
#    z -0.027640 0.000000 1.934380 
# 
# From -- ./inp_files/723.got.cif
#   From: 2010.05.17/outbox.cif.g08.bks.cpg/sg14_1_cif.got.tgz:723.got - 2010.06.03 17:49:19.
