data_PCOD9248297
_publ_section_title
;
Structure prediction by ZEFSAII (Michael W. Deem and Ramdas Pophale) SiO2 
 PCOD9248297
Probable space group: P 21/C
;
_chemical_formula_sum "Si O2"
_cell_formula_units_Z 16
_cell_length_a 6.596584
_cell_length_b 16.543163
_cell_length_c 5.321679
_cell_angle_alpha 90.000000
_cell_angle_beta 107.467498
_cell_angle_gamma 90.000000
_cell_volume 553.966398
_symmetry_space_group_name_H-M "P 21/C"
_symmetry_group_IT_number 14
_symmetry_cell_setting 'monoclinic'
loop_
_space_group_symop_operation_xyz
x,y,z
-x,1/2+y,1/2-z
-x,-y,-z
x,1/2-y,1/2+z
loop_
_atom_site_type_symbol
_atom_site_label
_atom_site_fract_x
_atom_site_fract_y
_atom_site_fract_z
Si Si1 0.812726 0.940981 0.183107
Si Si2 0.185971 0.659940 0.669568
Si Si3 0.794072 0.781949 0.501406
Si Si4 0.388687 0.894791 0.749184
O O1 0.806748 0.872029 0.401606
O O2 0.028796 0.917887 0.121620
O O3 0.763817 0.025867 0.292253
O O4 0.621766 0.926572 0.912226
O O5 0.316130 0.657631 0.462106
O O6 0.020590 0.734619 0.619425
O O7 0.337379 0.645828 0.963861
O O8 0.693084 0.768334 0.735342
#
# Coordination Sequence:
#
# PCOD9248297 Si02
#       4
#     4   4   4   4
#     4  10  24  45  69 102 138 175 224 287 336 396
#     4  11  23  44  66  98 138 177 220 277 336 406
#     4  10  22  42  64  90 134 177 214 271 333 388
#     4  11  25  42  73 103 132 177 230 276 342 404
#
# _framework density 28.882617
#
# number of rings (size 3 to 8) (size 9 to 14) (size 15 to 20)
#    0.000    1.500    0.000    4.500    0.000   14.000 
#    0.000   30.000    0.000    0.000    0.000    0.000 
#    0.000    0.000    0.000    0.000    0.000    0.000 
#
# Total GULP energy -89746.937002 kJ/mol
# GULP energy per Si atom -5609.183563 kJ/mol
# Density = 2.881688 g / cm^3
# Si number density = 28.882617 Si / 1000 Ang^3
#
#
#
# Elastic Constant Matrix: (Units=GPa)
#
#
# Indices 1 2 3 4 5 6 
#
# 1 80.9769 -24.8361 56.3495 0.0000 29.6089 0.0000
# 2 -24.8361 108.2371 44.2911 0.0000 14.8776 0.0000
# 3 56.3495 44.2911 262.0589 0.0000 -7.0631 0.0000
# 4 0.0000 0.0000 0.0000 60.1621 0.0000 18.1018
# 5 29.6089 14.8776 -7.0631 0.0000 60.4432 0.0000
# 6 0.0000 0.0000 0.0000 18.1018 0.0000 38.6532
#
#
#
# Elastic Compliance Matrix: (Units=1/GPa)
#
#
# Indices 1 2 3 4 5 6 
#
# 1 0.029489 0.013042 -0.009049 0.000000 -0.018713 0.000000
# 2 0.013042 0.016134 -0.005829 0.000000 -0.011041 0.000000
# 3 -0.009049 -0.005829 0.006927 0.000000 0.006677 0.000000
# 4 0.000000 0.000000 0.000000 0.019348 0.000000 -0.009061
# 5 -0.018713 -0.011041 0.006677 0.000000 0.029209 0.000000
# 6 0.000000 0.000000 0.000000 -0.009061 0.000000 0.030114
#
#
# Mechanical properties :
#
#
# Convention : Reuss Voigt Hill
#
# Bulk Modulus (GPa) = 20.45946 66.98687 43.72317
# Shear Modulus (GPa) = 33.07160 56.88293 44.97726
#
# Velocity S-wave (km/s) = 3.38751 4.44267 3.95047
# Velocity P-wave (km/s) = 4.73279 7.03985 5.99828
#
# Compressibility (1/GPa) = 0.04887714
#
# Stress axis : x y z
#
# Youngs Moduli (GPa) = 33.91118 61.97946 144.36467
#
# Poissons Ratio (x) = -0.80832 1.30642
# Poissons Ratio (y) = -0.44226 0.84147
# Poissons Ratio (z) = 0.30688 0.36127
#
# Static dielectric constant tensor:
#      x y z
#    x 2.327450 0.000000 -0.046170 
#    y 0.000000 2.306090 0.000000 
#    z -0.046170 0.000000 2.218460 
# 
# From -- ./inp_files/250.got.cif
#   From: 2010.05.17/outbox.cif.g08.bks.cpg/sg14_1_cif.got.tgz:250.got - 2010.06.03 17:49:19.
