data_PCOD9248222
_publ_section_title
;
Structure prediction by ZEFSAII (Michael W. Deem and Ramdas Pophale) SiO2 
 PCOD9248222
Probable space group: P 21/C
;
_chemical_formula_sum "Si O2"
_cell_formula_units_Z 32
_cell_length_a 22.192639
_cell_length_b 8.962226
_cell_length_c 12.523607
_cell_angle_alpha 90.000000
_cell_angle_beta 149.225750
_cell_angle_gamma 90.000000
_cell_volume 1274.479933
_symmetry_space_group_name_H-M "P 21/C"
_symmetry_group_IT_number 14
_symmetry_cell_setting 'monoclinic'
loop_
_space_group_symop_operation_xyz
x,y,z
-x,1/2+y,1/2-z
-x,-y,-z
x,1/2-y,1/2+z
loop_
_atom_site_type_symbol
_atom_site_label
_atom_site_fract_x
_atom_site_fract_y
_atom_site_fract_z
Si Si1 0.886793 0.113242 0.334347
Si Si2 0.685029 0.436336 0.346319
Si Si3 0.801777 0.878533 0.340701
Si Si4 0.276066 0.084813 0.540881
Si Si5 0.893506 0.899965 0.059769
Si Si6 0.594564 0.829326 0.867681
Si Si7 0.438006 0.859285 0.838886
Si Si8 0.973053 0.663725 0.350994
O O1 0.929872 0.280079 0.419773
O O2 0.831698 0.049165 0.361255
O O3 0.792020 0.103799 0.093935
O O4 0.000000 0.000000 0.500000
O O5 0.762105 0.530337 0.377267
O O6 0.597927 0.542888 0.283016
O O7 0.603049 0.301457 0.176393
O O8 0.742368 0.861312 0.365259
O O9 0.895249 0.745023 0.485496
O O10 0.717836 0.845476 0.115734
O O11 0.387021 0.171192 0.660671
O O12 0.151377 0.105796 0.295845
O O13 0.311818 0.917313 0.608226
O O14 0.937441 0.815452 0.233128
O O15 0.975278 0.035136 0.146489
O O16 0.505906 0.833849 0.830888
O O17 0.500000 0.000000 0.000000
#
# Coordination Sequence:
#
# PCOD9248222 Si02
#       8
#     4   4   4   4   4   4   4   4
#     4  11  22  42  69 103 147 191 234 294 368 441
#     4  11  25  43  71 105 139 188 247 296 366 447
#     4  10  22  41  70 102 143 192 238 295 363 438
#     4  11  23  44  69 103 142 184 241 302 358 445
#     4  11  23  40  68 103 144 190 233 289 361 450
#     4  11  22  49  73  98 142 187 245 312 369 419
#     4  12  27  46  73 102 135 191 247 310 368 427
#     4  11  22  39  67 100 142 188 227 287 364 437
#
# _framework density 25.108280000000001
#
# number of rings (size 3 to 8) (size 9 to 14) (size 15 to 20)
#    0.000    1.000    5.000    3.000    3.500    1.000 
#    0.000    5.625    0.000    0.000    0.000    0.000 
#    0.000    0.000    0.000    0.000    0.000    0.000 
#
# Total GULP energy -178350.110109 kJ/mol
# GULP energy per Si atom -5573.440941 kJ/mol
# Density = 2.505113 g / cm^3
# Si number density = 25.108280 Si / 1000 Ang^3
#
#
#
# Elastic Constant Matrix: (Units=GPa)
#
#
# Indices 1 2 3 4 5 6 
#
# 1 83.3827 21.7908 -1.6983 0.0000 19.9196 0.0000
# 2 21.7908 108.6998 37.6616 0.0000 14.4939 0.0000
# 3 -1.6983 37.6616 69.5624 0.0000 -4.0028 0.0000
# 4 0.0000 0.0000 0.0000 58.7149 0.0000 1.3364
# 5 19.9196 14.4939 -4.0028 0.0000 29.7643 0.0000
# 6 0.0000 0.0000 0.0000 1.3364 0.0000 38.0595
#
#
#
# Elastic Compliance Matrix: (Units=1/GPa)
#
#
# Indices 1 2 3 4 5 6 
#
# 1 0.014630 -0.002137 0.001019 0.000000 -0.008613 0.000000
# 2 -0.002137 0.012985 -0.007421 0.000000 -0.005891 0.000000
# 3 0.001019 -0.007421 0.018732 0.000000 0.005451 0.000000
# 4 0.000000 0.000000 0.000000 0.017045 0.000000 -0.000599
# 5 -0.008613 -0.005891 0.005451 0.000000 0.042963 0.000000
# 6 0.000000 0.000000 0.000000 -0.000599 0.000000 0.026296
#
#
# Mechanical properties :
#
#
# Convention : Reuss Voigt Hill
#
# Bulk Modulus (GPa) = 34.16810 41.90589 38.03700
# Shear Modulus (GPa) = 31.35069 38.90046 35.12558
#
# Velocity S-wave (km/s) = 3.53741 3.94040 3.74433
# Velocity P-wave (km/s) = 5.50656 6.11789 5.82026
#
# Compressibility (1/GPa) = 0.02926706
#
# Stress axis : x y z
#
# Youngs Moduli (GPa) = 68.35348 77.01294 53.38441
#
# Poissons Ratio (x) = 0.16460 -0.05438
# Poissons Ratio (y) = 0.14609 0.39618
# Poissons Ratio (z) = -0.06963 0.57153
#
# Static dielectric constant tensor:
#      x y z
#    x 2.381670 0.000000 0.146550 
#    y 0.000000 2.095860 0.000000 
#    z 0.146550 0.000000 2.089170 
# 
# From -- ./inp_files/51289.got.cif
#   From: 2010.05.17/outbox.cif.g08.bks.cpg/sg14_26_cif.got.tgz:51289.got - 2010.06.03 17:49:19.
