data_PCOD9248768
_publ_section_title
;
Structure prediction by ZEFSAII (Michael W. Deem and Ramdas Pophale) SiO2 
 PCOD9248768
Probable space group: P 21/C
;
_chemical_formula_sum "Si O2"
_cell_formula_units_Z 32
_cell_length_a 13.065584
_cell_length_b 8.814067
_cell_length_c 15.334080
_cell_angle_alpha 90.000000
_cell_angle_beta 58.143198
_cell_angle_gamma 90.000000
_cell_volume 1499.891158
_symmetry_space_group_name_H-M "P 21/C"
_symmetry_group_IT_number 14
_symmetry_cell_setting 'monoclinic'
loop_
_space_group_symop_operation_xyz
x,y,z
-x,1/2+y,1/2-z
-x,-y,-z
x,1/2-y,1/2+z
loop_
_atom_site_type_symbol
_atom_site_label
_atom_site_fract_x
_atom_site_fract_y
_atom_site_fract_z
Si Si1 0.375539 0.149358 0.610482
Si Si2 0.182450 0.716279 0.753450
Si Si3 0.054412 0.382563 0.042122
Si Si4 0.596538 0.343921 0.563897
Si Si5 0.879069 0.927794 0.016445
Si Si6 0.654869 0.423924 0.715106
Si Si7 0.758860 0.934699 0.888849
Si Si8 0.241486 0.918510 0.564530
O O1 0.491786 0.256053 0.560789
O O2 0.377611 0.049269 0.697980
O O3 0.268716 0.271613 0.640554
O O4 0.352220 0.025290 0.545686
O O5 0.206719 0.553671 0.700446
O O6 0.181716 0.840158 0.676176
O O7 0.056672 0.701309 0.859926
O O8 0.294677 0.773019 0.761051
O O9 0.144225 0.475999 0.062563
O O10 0.124691 0.249968 0.960904
O O11 0.000000 0.500000 0.000000
O O12 0.562765 0.386525 0.678403
O O13 0.643196 0.490439 0.490233
O O14 0.706366 0.221055 0.515174
O O15 0.769187 0.010492 0.111832
O O16 0.858227 0.934626 0.921300
O O17 0.000000 0.000000 0.000000
#
# Coordination Sequence:
#
# PCOD9248768 Si02
#       8
#     4   4   4   4   4   4   4   4
#     4  11  22  41  67  94 120 164 217 266 303 370
#     4  10  23  40  62  90 128 163 202 256 314 370
#     4  12  25  38  63  93 125 169 205 249 316 381
#     4  10  22  44  64  89 129 168 206 259 329 357
#     4  11  23  43  62  88 128 167 199 253 320 374
#     4  10  23  42  61  92 128 162 208 263 309 376
#     4  10  23  41  66  92 124 164 208 263 304 381
#     4  10  23  42  64  93 128 164 215 257 308 379
#
# _framework density 21.334879999999998
#
# number of rings (size 3 to 8) (size 9 to 14) (size 15 to 20)
#    0.000    1.500    2.500    1.500    7.000    1.000 
#    2.250    2.500    0.000    0.000    0.000    0.000 
#    0.000    0.000    0.000    0.000    0.000    0.000 
#
# Total GULP energy -178638.751994 kJ/mol
# GULP energy per Si atom -5582.461000 kJ/mol
# Density = 2.128632 g / cm^3
# Si number density = 21.334880 Si / 1000 Ang^3
#
#
#
# Elastic Constant Matrix: (Units=GPa)
#
#
# Indices 1 2 3 4 5 6 
#
# 1 75.0589 31.2128 18.1545 0.0000 14.2022 0.0000
# 2 31.2128 116.3368 15.5499 0.0000 22.4512 0.0000
# 3 18.1545 15.5499 36.8219 0.0000 14.5200 0.0000
# 4 0.0000 0.0000 0.0000 25.1796 0.0000 3.8017
# 5 14.2022 22.4512 14.5200 0.0000 15.2940 0.0000
# 6 0.0000 0.0000 0.0000 3.8017 0.0000 45.1075
#
#
#
# Elastic Compliance Matrix: (Units=1/GPa)
#
#
# Indices 1 2 3 4 5 6 
#
# 1 0.016863 -0.002374 -0.004013 0.000000 -0.008365 0.000000
# 2 -0.002374 0.012539 0.003619 0.000000 -0.019638 0.000000
# 3 -0.004013 0.003619 0.045128 0.000000 -0.044430 0.000000
# 4 0.000000 0.000000 0.000000 0.040227 0.000000 -0.003390
# 5 -0.008365 -0.019638 -0.044430 0.000000 0.144163 0.000000
# 6 0.000000 0.000000 0.000000 -0.003390 0.000000 0.022455
#
#
# Mechanical properties :
#
#
# Convention : Reuss Voigt Hill
#
# Bulk Modulus (GPa) = 14.49386 39.78356 27.13871
# Shear Modulus (GPa) = 16.13376 28.00291 22.06834
#
# Velocity S-wave (km/s) = 2.75292 3.62683 3.21966
# Velocity P-wave (km/s) = 4.11254 6.01882 5.15457
#
# Compressibility (1/GPa) = 0.06899472
#
# Stress axis : x y z
#
# Youngs Moduli (GPa) = 59.30005 79.75288 22.15906
#
# Poissons Ratio (x) = 0.18931 0.08893
# Poissons Ratio (y) = 0.14076 -0.08020
# Poissons Ratio (z) = 0.23799 -0.28864
#
# Static dielectric constant tensor:
#      x y z
#    x 1.826770 0.000000 0.009270 
#    y 0.000000 1.768220 0.000000 
#    z 0.009270 0.000000 1.786040 
# 
# From -- ./inp_files/43682.got.cif
#   From: 2010.05.17/outbox.cif.g08.bks.cpg/sg14_22_cif.got.tgz:43682.got - 2010.06.03 17:49:19.
