data_PCOD9248792
_publ_section_title
;
Structure prediction by ZEFSAII (Michael W. Deem and Ramdas Pophale) SiO2 
 PCOD9248792
Probable space group: P 21/C
;
_chemical_formula_sum "Si O2"
_cell_formula_units_Z 20
_cell_length_a 16.030464
_cell_length_b 10.034266
_cell_length_c 10.666027
_cell_angle_alpha 90.000000
_cell_angle_beta 154.698568
_cell_angle_gamma 90.000000
_cell_volume 733.244886
_symmetry_space_group_name_H-M "P 21/C"
_symmetry_group_IT_number 14
_symmetry_cell_setting 'monoclinic'
loop_
_space_group_symop_operation_xyz
x,y,z
-x,1/2+y,1/2-z
-x,-y,-z
x,1/2-y,1/2+z
loop_
_atom_site_type_symbol
_atom_site_label
_atom_site_fract_x
_atom_site_fract_y
_atom_site_fract_z
Si Si1 0.596722 0.818765 0.124397
Si Si2 0.052751 0.336525 0.720930
Si Si3 0.588726 0.514719 0.367926
Si Si4 0.712796 0.233765 0.613947
Si Si5 0.134488 0.112776 0.978626
O O1 0.701970 0.684832 0.215635
O O2 0.725229 0.853199 0.425057
O O3 0.616737 0.932604 0.048877
O O4 0.388744 0.774150 0.891410
O O5 0.944427 0.278410 0.450942
O O6 0.961006 0.481095 0.604004
O O7 0.988848 0.229327 0.739988
O O8 0.639244 0.358150 0.431529
O O9 0.750235 0.577546 0.494009
O O10 0.389438 0.593248 0.059861
#
# Coordination Sequence:
#
# PCOD9248792 Si02
#       5
#     4   4   4   4   4
#     4   9  23  44  63  95 135 162 220 273 307 392
#     4  10  22  44  66  94 132 174 210 270 331 368
#     4  11  24  44  67  99 131 171 220 265 323 393
#     4  11  25  42  68  97 131 175 214 270 328 377
#     4   9  23  43  68  92 134 169 219 261 325 383
#
# _framework density 27.276017
#
# number of rings (size 3 to 8) (size 9 to 14) (size 15 to 20)
#    1.200    0.800    0.000    1.800    5.600    4.800 
#    0.000    2.000    0.000    0.000    0.000    0.000 
#    0.000    0.000    0.000    0.000    0.000    0.000 
#
# Total GULP energy -111581.401667 kJ/mol
# GULP energy per Si atom -5579.070083 kJ/mol
# Density = 2.721394 g / cm^3
# Si number density = 27.276017 Si / 1000 Ang^3
#
#
#
# Elastic Constant Matrix: (Units=GPa)
#
#
# Indices 1 2 3 4 5 6 
#
# 1 90.7035 10.9019 41.0922 0.0000 5.1546 0.0000
# 2 10.9019 130.6573 13.2630 0.0000 -11.0792 0.0000
# 3 41.0922 13.2630 159.8443 0.0000 -8.1573 0.0000
# 4 0.0000 0.0000 0.0000 27.0495 0.0000 -12.7275
# 5 5.1546 -11.0792 -8.1573 0.0000 27.9923 0.0000
# 6 0.0000 0.0000 0.0000 -12.7275 0.0000 31.9791
#
#
#
# Elastic Compliance Matrix: (Units=1/GPa)
#
#
# Indices 1 2 3 4 5 6 
#
# 1 0.012920 -0.001052 -0.003428 0.000000 -0.003794 0.000000
# 2 -0.001052 0.008045 -0.000228 0.000000 0.003311 0.000000
# 3 -0.003428 -0.000228 0.007292 0.000000 0.002666 0.000000
# 4 0.000000 0.000000 0.000000 0.045488 0.000000 0.018104
# 5 -0.003794 0.003311 0.002666 0.000000 0.038510 0.000000
# 6 0.000000 0.000000 0.000000 0.018104 0.000000 0.038476
#
#
# Mechanical properties :
#
#
# Convention : Reuss Voigt Hill
#
# Bulk Modulus (GPa) = 53.07289 56.85771 54.96530
# Shear Modulus (GPa) = 30.04315 38.46737 34.25526
#
# Velocity S-wave (km/s) = 3.32241 3.75947 3.54768
# Velocity P-wave (km/s) = 5.84960 6.30360 6.08084
#
# Compressibility (1/GPa) = 0.01884201
#
# Stress axis : x y z
#
# Youngs Moduli (GPa) = 77.40010 124.29571 137.13155
#
# Poissons Ratio (x) = 0.13073 0.47005
# Poissons Ratio (y) = 0.08141 0.03129
# Poissons Ratio (z) = 0.26531 0.02836
#
# Static dielectric constant tensor:
#      x y z
#    x 2.168000 0.000000 -0.011580 
#    y 0.000000 2.142460 0.000000 
#    z -0.011580 0.000000 2.138230 
# 
# From -- ./inp_files/51297.got.cif
#   From: 2010.05.17/outbox.cif.g08.bks.cpg/sg14_26_cif.got.tgz:51297.got - 2010.06.03 17:49:19.
