data_PCOD9248193
_publ_section_title
;
Structure prediction by ZEFSAII (Michael W. Deem and Ramdas Pophale) SiO2 
 PCOD9248193
Probable space group: P 21/C
;
_chemical_formula_sum "Si O2"
_cell_formula_units_Z 20
_cell_length_a 5.328087
_cell_length_b 10.867864
_cell_length_c 18.280042
_cell_angle_alpha 90.000000
_cell_angle_beta 130.202168
_cell_angle_gamma 90.000000
_cell_volume 808.455649
_symmetry_space_group_name_H-M "P 21/C"
_symmetry_group_IT_number 14
_symmetry_cell_setting 'monoclinic'
loop_
_space_group_symop_operation_xyz
x,y,z
-x,1/2+y,1/2-z
-x,-y,-z
x,1/2-y,1/2+z
loop_
_atom_site_type_symbol
_atom_site_label
_atom_site_fract_x
_atom_site_fract_y
_atom_site_fract_z
Si Si1 0.209279 0.396145 0.794703
Si Si2 0.406467 0.825370 0.175297
Si Si3 0.633833 0.877722 0.373068
Si Si4 0.771384 0.973344 0.112669
Si Si5 0.172868 0.083827 0.445417
O O1 0.529806 0.312069 0.842789
O O2 0.307588 0.539613 0.820544
O O3 0.088247 0.356751 0.851698
O O4 0.941267 0.403634 0.680177
O O5 0.587519 0.811438 0.288203
O O6 0.596609 0.907037 0.149631
O O7 0.066039 0.894807 0.129690
O O8 0.742659 0.823886 0.471631
O O9 0.908953 0.979771 0.411373
O O10 0.500000 0.000000 0.000000
O O11 0.500000 0.000000 0.500000
#
# Coordination Sequence:
#
# PCOD9248193 Si02
#       5
#     4   4   4   4   4
#     4  10  22  41  68  97 135 178 237 287 343 428
#     4  11  24  43  72  99 132 191 235 282 355 423
#     4   9  19  38  62  94 133 168 225 300 353 393
#     4  11  25  48  68 101 149 188 229 293 355 423
#     4   9  17  36  63  90 130 168 217 298 351 390
#
# _framework density 24.738522
#
# number of rings (size 3 to 8) (size 9 to 14) (size 15 to 20)
#    0.000    2.000    2.000    0.600    2.800    0.000 
#   10.800    4.000    0.000    0.000    0.000    0.000 
#    0.000    0.000    0.000    0.000    0.000    0.000 
#
# Total GULP energy -111435.430608 kJ/mol
# GULP energy per Si atom -5571.771530 kJ/mol
# Density = 2.468222 g / cm^3
# Si number density = 24.738522 Si / 1000 Ang^3
#
#
#
# Elastic Constant Matrix: (Units=GPa)
#
#
# Indices 1 2 3 4 5 6 
#
# 1 145.0965 31.5237 56.5200 0.0000 -9.8697 0.0000
# 2 31.5237 52.8788 26.9432 0.0000 -4.1215 0.0000
# 3 56.5200 26.9432 186.1404 0.0000 -10.4416 0.0000
# 4 0.0000 0.0000 0.0000 13.9421 0.0000 9.7914
# 5 -9.8697 -4.1215 -10.4416 0.0000 46.8648 0.0000
# 6 0.0000 0.0000 0.0000 9.7914 0.0000 30.0437
#
#
#
# Elastic Compliance Matrix: (Units=1/GPa)
#
#
# Indices 1 2 3 4 5 6 
#
# 1 0.008608 -0.004048 -0.001971 0.000000 0.001018 0.000000
# 2 -0.004048 0.022382 -0.001973 0.000000 0.000676 0.000000
# 3 -0.001971 -0.001973 0.006302 0.000000 0.000816 0.000000
# 4 0.000000 0.000000 0.000000 0.093014 0.000000 -0.030314
# 5 0.001018 0.000676 0.000816 0.000000 0.021794 0.000000
# 6 0.000000 0.000000 0.000000 -0.030314 0.000000 0.043164
#
#
# Mechanical properties :
#
#
# Convention : Reuss Voigt Hill
#
# Bulk Modulus (GPa) = 46.92791 68.23217 57.58004
# Shear Modulus (GPa) = 22.89890 36.11205 29.50548
#
# Velocity S-wave (km/s) = 3.04573 3.82481 3.45729
# Velocity P-wave (km/s) = 5.60173 6.86635 6.26603
#
# Compressibility (1/GPa) = 0.02130928
#
# Stress axis : x y z
#
# Youngs Moduli (GPa) = 116.16493 44.67787 158.68037
#
# Poissons Ratio (x) = 0.18088 0.31273
# Poissons Ratio (y) = 0.47029 0.31301
# Poissons Ratio (z) = 0.22894 0.08813
#
# Static dielectric constant tensor:
#      x y z
#    x 2.093290 0.000000 -0.043940 
#    y 0.000000 2.086170 0.000000 
#    z -0.043940 0.000000 2.092160 
# 
# From -- ./inp_files/37020.got.cif
#   From: 2010.05.17/outbox.cif.g08.bks.cpg/sg14_19_cif.got.tgz:37020.got - 2010.06.03 17:49:19.
