data_PCOD9248017
_publ_section_title
;
Structure prediction by ZEFSAII (Michael W. Deem and Ramdas Pophale) SiO2 
 PCOD9248017
Probable space group: P 21/C
;
_chemical_formula_sum "Si O2"
_cell_formula_units_Z 28
_cell_length_a 5.102914
_cell_length_b 7.273709
_cell_length_c 28.441165
_cell_angle_alpha 90.000000
_cell_angle_beta 88.675943
_cell_angle_gamma 90.000000
_cell_volume 1055.372028
_symmetry_space_group_name_H-M "P 21/C"
_symmetry_group_IT_number 14
_symmetry_cell_setting 'monoclinic'
loop_
_space_group_symop_operation_xyz
x,y,z
-x,1/2+y,1/2-z
-x,-y,-z
x,1/2-y,1/2+z
loop_
_atom_site_type_symbol
_atom_site_label
_atom_site_fract_x
_atom_site_fract_y
_atom_site_fract_z
Si Si1 0.951095 0.656803 0.697497
Si Si2 0.307398 0.722259 0.023373
Si Si3 0.229435 0.319808 0.163025
Si Si4 0.721579 0.281943 0.722054
Si Si5 0.192868 0.496360 0.944756
Si Si6 0.573429 0.855131 0.647009
Si Si7 0.736136 0.028477 0.892969
O O1 0.790463 0.496189 0.723173
O O2 0.039552 0.595456 0.644721
O O3 0.202924 0.696511 0.728236
O O4 0.748943 0.823075 0.691799
O O5 0.599847 0.647051 0.031887
O O6 0.247557 0.907396 0.052760
O O7 0.100182 0.574943 0.045831
O O8 0.245855 0.693944 0.968541
O O9 0.310514 0.528540 0.154237
O O10 0.944920 0.290689 0.185343
O O11 0.276423 0.187391 0.117722
O O12 0.441182 0.249170 0.200483
O O13 0.264040 0.475894 0.890665
O O14 0.500481 0.656784 0.625405
#
# Coordination Sequence:
#
# PCOD9248017 Si02
#       7
#     4   4   4   4   4   4   4
#     4  11  23  40  64  86 121 160 209 248 316 364
#     4   9  17  33  59  85 124 151 200 247 298 361
#     4  11  26  41  60  91 124 157 206 256 304 364
#     4  11  26  42  60  90 121 158 207 260 303 367
#     4   9  18  32  57  93 113 158 200 244 297 365
#     4  11  22  39  65  87 123 162 204 248 309 366
#     4  10  22  41  61  90 121 164 200 250 311 364
#
# _framework density 26.530925
#
# number of rings (size 3 to 8) (size 9 to 14) (size 15 to 20)
#    0.000    1.714    2.857    0.857    6.000    0.000 
#    0.000    0.714    0.000    0.000    0.000   13.000 
#    0.000    0.000    0.000    0.000    0.000    0.000 
#
# Total GULP energy -156787.186192 kJ/mol
# GULP energy per Si atom -5599.542364 kJ/mol
# Density = 2.647054 g / cm^3
# Si number density = 26.530925 Si / 1000 Ang^3
#
#
#
# Elastic Constant Matrix: (Units=GPa)
#
#
# Indices 1 2 3 4 5 6 
#
# 1 87.0805 14.8257 19.0110 0.0000 -6.1260 0.0000
# 2 14.8257 66.6908 -6.8867 0.0000 8.9653 0.0000
# 3 19.0110 -6.8867 43.7750 0.0000 -0.0789 0.0000
# 4 0.0000 0.0000 0.0000 27.3849 0.0000 -0.3906
# 5 -6.1260 8.9653 -0.0789 0.0000 39.0615 0.0000
# 6 0.0000 0.0000 0.0000 -0.3906 0.0000 32.8828
#
#
#
# Elastic Compliance Matrix: (Units=1/GPa)
#
#
# Indices 1 2 3 4 5 6 
#
# 1 0.013876 -0.004195 -0.006681 0.000000 0.003125 0.000000
# 2 -0.004195 0.017002 0.004488 0.000000 -0.004551 0.000000
# 3 -0.006681 0.004488 0.026448 0.000000 -0.002024 0.000000
# 4 0.000000 0.000000 0.000000 0.036523 0.000000 0.000434
# 5 0.003125 -0.004551 -0.002024 0.000000 0.027131 0.000000
# 6 0.000000 0.000000 0.000000 0.000434 0.000000 0.030416
#
#
# Mechanical properties :
#
#
# Convention : Reuss Voigt Hill
#
# Bulk Modulus (GPa) = 22.44544 27.93848 25.19196
# Shear Modulus (GPa) = 27.92964 31.23891 29.58427
#
# Velocity S-wave (km/s) = 3.24808 3.43513 3.34291
# Velocity P-wave (km/s) = 4.74818 5.12707 4.94126
#
# Compressibility (1/GPa) = 0.04455248
#
# Stress axis : x y z
#
# Youngs Moduli (GPa) = 72.06617 58.81524 37.81027
#
# Poissons Ratio (x) = 0.24672 0.25259
# Poissons Ratio (y) = 0.30230 -0.16971
# Poissons Ratio (z) = 0.48144 -0.26398
#
# Static dielectric constant tensor:
#      x y z
#    x 2.040690 0.000000 -0.033260 
#    y 0.000000 2.065370 0.000000 
#    z -0.033260 0.000000 2.123380 
# 
# From -- ./inp_files/78616.got.cif
#   From: 2010.05.17/outbox.cif.g08.bks.cpg/sg14_40_cif.got.tgz:78616.got - 2010.06.03 17:49:19.
