data_PCOD9248133
_publ_section_title
;
Structure prediction by ZEFSAII (Michael W. Deem and Ramdas Pophale) SiO2 
 PCOD9248133
Probable space group: P 21/C
;
_chemical_formula_sum "Si O2"
_cell_formula_units_Z 32
_cell_length_a 12.009579
_cell_length_b 14.223148
_cell_length_c 16.710348
_cell_angle_alpha 90.000000
_cell_angle_beta 31.658041
_cell_angle_gamma 90.000000
_cell_volume 1498.107296
_symmetry_space_group_name_H-M "P 21/C"
_symmetry_group_IT_number 14
_symmetry_cell_setting 'monoclinic'
loop_
_space_group_symop_operation_xyz
x,y,z
-x,1/2+y,1/2-z
-x,-y,-z
x,1/2-y,1/2+z
loop_
_atom_site_type_symbol
_atom_site_label
_atom_site_fract_x
_atom_site_fract_y
_atom_site_fract_z
Si Si1 0.349825 0.467877 0.446645
Si Si2 0.020155 0.132041 0.231410
Si Si3 0.103152 0.166496 0.595633
Si Si4 0.045584 0.622847 0.559768
Si Si5 0.728823 0.805385 0.128575
Si Si6 0.738953 0.530304 0.864587
Si Si7 0.265757 0.684541 0.950783
Si Si8 0.817938 0.062770 0.652501
O O1 0.232806 0.432385 0.599396
O O2 0.329991 0.373401 0.407631
O O3 0.596811 0.491577 0.303125
O O4 0.214100 0.541054 0.476581
O O5 0.050978 0.238597 0.179545
O O6 0.886073 0.130350 0.394929
O O7 0.868251 0.066556 0.270948
O O8 0.228527 0.205458 0.440480
O O9 0.221542 0.088019 0.576895
O O10 0.900015 0.114489 0.682020
O O11 0.940340 0.652183 0.539855
O O12 0.839455 0.599783 0.738399
O O13 0.172009 0.712551 0.511141
O O14 0.518095 0.809525 0.312462
O O15 0.500000 0.500000 0.000000
O O16 0.230721 0.641012 0.885043
O O17 0.000000 0.000000 0.500000
#
# Coordination Sequence:
#
# PCOD9248133 Si02
#       8
#     4   4   4   4   4   4   4   4
#     4   9  23  41  65  95 134 175 225 286 339 409
#     4  10  22  44  66  96 138 178 231 282 341 418
#     4  11  23  44  66  99 137 177 230 283 341 408
#     4  11  21  41  66  98 129 174 227 280 342 400
#     4  10  22  41  65  99 133 176 223 276 343 407
#     4  11  24  43  69 101 136 183 231 284 342 413
#     4  11  22  41  65  93 135 171 222 280 340 407
#     4  11  24  43  66  98 134 180 225 280 351 412
#
# _framework density 21.360284
#
# number of rings (size 3 to 8) (size 9 to 14) (size 15 to 20)
#    0.000    1.500    2.500    1.875    1.750    4.000 
#    4.500    5.625    0.000    0.000    0.000    0.000 
#    0.000    0.000    0.000    0.000    0.000    0.000 
#
# Total GULP energy -178157.468845 kJ/mol
# GULP energy per Si atom -5567.420901 kJ/mol
# Density = 2.131167 g / cm^3
# Si number density = 21.360284 Si / 1000 Ang^3
#
#
#
# Elastic Constant Matrix: (Units=GPa)
#
#
# Indices 1 2 3 4 5 6 
#
# 1 74.7786 23.6196 37.9983 0.0000 -15.0426 0.0000
# 2 23.6196 90.9991 39.9788 0.0000 -18.4862 0.0000
# 3 37.9983 39.9788 136.9353 0.0000 -21.0842 0.0000
# 4 0.0000 0.0000 0.0000 23.2224 0.0000 -2.4135
# 5 -15.0426 -18.4862 -21.0842 0.0000 34.2256 0.0000
# 6 0.0000 0.0000 0.0000 -2.4135 0.0000 28.2593
#
#
#
# Elastic Compliance Matrix: (Units=1/GPa)
#
#
# Indices 1 2 3 4 5 6 
#
# 1 0.016542 -0.001971 -0.003380 0.000000 0.004124 0.000000
# 2 -0.001971 0.013672 -0.002697 0.000000 0.004857 0.000000
# 3 -0.003380 -0.002697 0.009474 0.000000 0.002894 0.000000
# 4 0.000000 0.000000 0.000000 0.043448 0.000000 0.003711
# 5 0.004124 0.004857 0.002894 0.000000 0.035437 0.000000
# 6 0.000000 0.000000 0.000000 0.003711 0.000000 0.035703
#
#
# Mechanical properties :
#
#
# Convention : Reuss Voigt Hill
#
# Bulk Modulus (GPa) = 42.38637 56.21181 49.29909
# Shear Modulus (GPa) = 28.05274 30.54922 29.30098
#
# Velocity S-wave (km/s) = 3.62790 3.78589 3.70773
# Velocity P-wave (km/s) = 6.11845 6.74416 6.43891
#
# Compressibility (1/GPa) = 0.02359249
#
# Stress axis : x y z
#
# Youngs Moduli (GPa) = 60.45052 73.14085 105.55693
#
# Poissons Ratio (x) = 0.14417 0.35678
# Poissons Ratio (y) = 0.11915 0.28467
# Poissons Ratio (z) = 0.20432 0.19725
#
# Static dielectric constant tensor:
#      x y z
#    x 1.808090 0.000000 0.084100 
#    y 0.000000 1.850810 0.000000 
#    z 0.084100 0.000000 4.888370 
# 
# From -- ./inp_files/58005.got.cif
#   From: 2010.05.17/outbox.cif.g08.bks.cpg/sg14_30_cif.got.tgz:58005.got - 2010.06.03 17:49:19.
