data_PCOD9248394
_publ_section_title
;
Structure prediction by ZEFSAII (Michael W. Deem and Ramdas Pophale) SiO2 
 PCOD9248394
Probable space group: P 21/C
;
_chemical_formula_sum "Si O2"
_cell_formula_units_Z 24
_cell_length_a 5.754203
_cell_length_b 14.141626
_cell_length_c 13.384070
_cell_angle_alpha 90.000000
_cell_angle_beta 115.788624
_cell_angle_gamma 90.000000
_cell_volume 980.642486
_symmetry_space_group_name_H-M "P 21/C"
_symmetry_group_IT_number 14
_symmetry_cell_setting 'monoclinic'
loop_
_space_group_symop_operation_xyz
x,y,z
-x,1/2+y,1/2-z
-x,-y,-z
x,1/2-y,1/2+z
loop_
_atom_site_type_symbol
_atom_site_label
_atom_site_fract_x
_atom_site_fract_y
_atom_site_fract_z
Si Si1 0.536098 0.860913 0.486798
Si Si2 0.273294 0.433569 0.662323
Si Si3 0.627543 0.206694 0.328089
Si Si4 0.122286 0.995474 0.343472
Si Si5 0.140470 0.318564 0.458947
Si Si6 0.634038 0.900471 0.194064
O O1 0.396761 0.842432 0.567542
O O2 0.333006 0.911330 0.377264
O O3 0.644524 0.760356 0.476004
O O4 0.769532 0.934095 0.552239
O O5 0.529662 0.370329 0.731677
O O6 0.133485 0.447840 0.741751
O O7 0.098856 0.378888 0.550569
O O8 0.382745 0.533864 0.646230
O O9 0.428513 0.293837 0.287221
O O10 0.902738 0.257304 0.372656
O O11 0.846392 0.948201 0.304852
O O12 0.243359 0.388645 0.392859
#
# Coordination Sequence:
#
# PCOD9248394 Si02
#       6
#     4   4   4   4   4   4
#     4   9  22  42  65  96 127 170 217 273 320 371
#     4  11  25  41  66  95 131 172 215 265 327 386
#     4  10  24  43  65 100 125 173 222 259 326 383
#     4  10  22  42  67  94 128 168 222 269 320 382
#     4  11  24  41  65  94 136 168 215 265 321 390
#     4  11  24  41  64  96 132 170 215 267 322 382
#
# _framework density 24.473749000000002
#
# number of rings (size 3 to 8) (size 9 to 14) (size 15 to 20)
#    0.000    1.667    0.000    2.500    7.000    5.333 
#    0.000    5.000    0.000    0.000    0.000    0.000 
#    0.000    0.000    0.000    0.000    0.000    0.000 
#
# Total GULP energy -134419.503280 kJ/mol
# GULP energy per Si atom -5600.812637 kJ/mol
# Density = 2.441805 g / cm^3
# Si number density = 24.473749 Si / 1000 Ang^3
#
#
#
# Elastic Constant Matrix: (Units=GPa)
#
#
# Indices 1 2 3 4 5 6 
#
# 1 29.6687 3.7232 14.0102 0.0000 5.8530 0.0000
# 2 3.7232 94.1920 30.3296 0.0000 8.4376 0.0000
# 3 14.0102 30.3296 69.3155 0.0000 3.8459 0.0000
# 4 0.0000 0.0000 0.0000 20.8437 0.0000 8.2127
# 5 5.8530 8.4376 3.8459 0.0000 26.1696 0.0000
# 6 0.0000 0.0000 0.0000 8.2127 0.0000 45.8088
#
#
#
# Elastic Compliance Matrix: (Units=1/GPa)
#
#
# Indices 1 2 3 4 5 6 
#
# 1 0.038958 0.001835 -0.008228 0.000000 -0.008096 0.000000
# 2 0.001835 0.012719 -0.005732 0.000000 -0.003669 0.000000
# 3 -0.008228 -0.005732 0.018545 0.000000 0.000963 0.000000
# 4 0.000000 0.000000 0.000000 0.051623 0.000000 -0.009255
# 5 -0.008096 -0.003669 0.000963 0.000000 0.041064 0.000000
# 6 0.000000 0.000000 0.000000 -0.009255 0.000000 0.023489
#
#
# Mechanical properties :
#
#
# Convention : Reuss Voigt Hill
#
# Bulk Modulus (GPa) = 21.75341 32.14467 26.94904
# Shear Modulus (GPa) = 22.12668 28.23861 25.18264
#
# Velocity S-wave (km/s) = 3.01008 3.40050 3.21123
# Velocity P-wave (km/s) = 4.58133 5.34609 4.97842
#
# Compressibility (1/GPa) = 0.04596981
#
# Stress axis : x y z
#
# Youngs Moduli (GPa) = 25.66883 78.62534 53.92398
#
# Poissons Ratio (x) = -0.14425 0.44367
# Poissons Ratio (y) = -0.04709 0.30911
# Poissons Ratio (z) = 0.21120 0.45071
#
# Static dielectric constant tensor:
#      x y z
#    x 1.966190 0.000000 0.003240 
#    y 0.000000 1.899610 0.000000 
#    z 0.003240 0.000000 1.934570 
# 
# From -- ./inp_files/37248.got.cif
#   From: 2010.05.17/outbox.cif.g08.bks.cpg/sg14_19_cif.got.tgz:37248.got - 2010.06.03 17:49:19.
