data_PCOD9248561
_publ_section_title
;
Structure prediction by ZEFSAII (Michael W. Deem and Ramdas Pophale) SiO2 
 PCOD9248561
Probable space group: P 21/C
;
_chemical_formula_sum "Si O2"
_cell_formula_units_Z 28
_cell_length_a 10.676712
_cell_length_b 17.030713
_cell_length_c 13.151036
_cell_angle_alpha 90.000000
_cell_angle_beta 148.290249
_cell_angle_gamma 90.000000
_cell_volume 1256.895773
_symmetry_space_group_name_H-M "P 21/C"
_symmetry_group_IT_number 14
_symmetry_cell_setting 'monoclinic'
loop_
_space_group_symop_operation_xyz
x,y,z
-x,1/2+y,1/2-z
-x,-y,-z
x,1/2-y,1/2+z
loop_
_atom_site_type_symbol
_atom_site_label
_atom_site_fract_x
_atom_site_fract_y
_atom_site_fract_z
Si Si1 0.051191 0.682160 0.940715
Si Si2 0.797287 0.937966 0.387088
Si Si3 0.501565 0.079753 0.214940
Si Si4 0.924627 0.672435 0.632463
Si Si5 0.343644 0.071148 0.341383
Si Si6 0.340293 0.338988 0.039145
Si Si7 0.883443 0.357902 0.454921
O O1 0.827298 0.634530 0.831534
O O2 0.077679 0.672698 0.839001
O O3 0.026572 0.773439 0.944662
O O4 0.281887 0.641469 0.150281
O O5 0.823615 0.903811 0.518825
O O6 0.567747 0.992561 0.227694
O O7 0.000000 0.000000 0.500000
O O8 0.281236 0.108962 0.998858
O O9 0.439034 0.080933 0.292326
O O10 0.785194 0.755724 0.527192
O O11 0.067003 0.647172 0.631307
O O12 0.373304 0.140987 0.443759
O O13 0.052154 0.074470 0.120824
O O14 0.500000 0.000000 0.500000
O O15 0.598322 0.352792 0.269897
#
# Coordination Sequence:
#
# PCOD9248561 Si02
#       7
#     4   4   4   4   4   4   4
#     4  11  21  41  65  94 126 170 220 261 333 392
#     4  10  23  43  67  91 136 176 214 275 333 395
#     4  10  22  43  63  92 131 168 218 272 322 395
#     4  11  23  40  66  94 129 169 217 273 329 387
#     4  11  23  42  67  94 130 174 214 266 336 386
#     4  12  22  42  67  97 132 169 219 277 328 388
#     4  11  24  40  65  99 127 168 223 271 319 400
#
# _framework density 22.277104000000001
#
# number of rings (size 3 to 8) (size 9 to 14) (size 15 to 20)
#    0.000    1.143    5.714    0.857    0.000    1.143 
#    5.143    2.857    0.000    0.000    0.000    0.000 
#    0.000    0.000    0.000    0.000    0.000    0.000 
#
# Total GULP energy -156161.551381 kJ/mol
# GULP energy per Si atom -5577.198264 kJ/mol
# Density = 2.222640 g / cm^3
# Si number density = 22.277104 Si / 1000 Ang^3
#
#
#
# Elastic Constant Matrix: (Units=GPa)
#
#
# Indices 1 2 3 4 5 6 
#
# 1 51.7707 5.8489 4.4313 0.0000 0.3984 0.0000
# 2 5.8489 67.3104 11.6662 0.0000 9.4722 0.0000
# 3 4.4313 11.6662 65.3717 0.0000 2.8793 0.0000
# 4 0.0000 0.0000 0.0000 7.1848 0.0000 0.3014
# 5 0.3984 9.4722 2.8793 0.0000 28.9101 0.0000
# 6 0.0000 0.0000 0.0000 0.3014 0.0000 36.9367
#
#
#
# Elastic Compliance Matrix: (Units=1/GPa)
#
#
# Indices 1 2 3 4 5 6 
#
# 1 0.019581 -0.001566 -0.001063 0.000000 0.000349 0.000000
# 2 -0.001566 0.016141 -0.002553 0.000000 -0.005012 0.000000
# 3 -0.001063 -0.002553 0.015857 0.000000 -0.000728 0.000000
# 4 0.000000 0.000000 0.000000 0.139231 0.000000 -0.001136
# 5 0.000349 -0.005012 -0.000728 0.000000 0.036300 0.000000
# 6 0.000000 0.000000 0.000000 -0.001136 0.000000 0.027083
#
#
# Mechanical properties :
#
#
# Convention : Reuss Voigt Hill
#
# Bulk Modulus (GPa) = 24.26438 25.37174 24.81806
# Shear Modulus (GPa) = 17.96650 25.44007 21.70329
#
# Velocity S-wave (km/s) = 2.84298 3.38299 3.12467
# Velocity P-wave (km/s) = 4.65751 5.16463 4.91761
#
# Compressibility (1/GPa) = 0.04121268
#
# Stress axis : x y z
#
# Youngs Moduli (GPa) = 51.06932 61.95554 63.06371
#
# Poissons Ratio (x) = 0.09705 0.06705
# Poissons Ratio (y) = 0.07999 0.16103
# Poissons Ratio (z) = 0.05430 0.15820
#
# Static dielectric constant tensor:
#      x y z
#    x 1.853190 0.000000 0.051130 
#    y 0.000000 1.833680 0.000000 
#    z 0.051130 0.000000 1.834300 
# 
# From -- ./inp_files/45318.got.cif
#   From: 2010.05.17/outbox.cif.g08.bks.cpg/sg14_23_cif.got.tgz:45318.got - 2010.06.03 17:49:19.
