data_PCOD9248570
_publ_section_title
;
Structure prediction by ZEFSAII (Michael W. Deem and Ramdas Pophale) SiO2 
 PCOD9248570
Probable space group: P 21/C
;
_chemical_formula_sum "Si O2"
_cell_formula_units_Z 22
_cell_length_a 16.751325
_cell_length_b 8.939644
_cell_length_c 13.956733
_cell_angle_alpha 90.000000
_cell_angle_beta 25.054922
_cell_angle_gamma 90.000000
_cell_volume 885.101475
_symmetry_space_group_name_H-M "P 21/C"
_symmetry_group_IT_number 14
_symmetry_cell_setting 'monoclinic'
loop_
_space_group_symop_operation_xyz
x,y,z
-x,1/2+y,1/2-z
-x,-y,-z
x,1/2-y,1/2+z
loop_
_atom_site_type_symbol
_atom_site_label
_atom_site_fract_x
_atom_site_fract_y
_atom_site_fract_z
Si Si1 0.500000 0.000000 0.500000
Si Si2 0.635116 0.542128 0.590509
Si Si3 0.446967 0.755955 0.418233
Si Si4 0.116420 0.174831 0.513561
Si Si5 0.817796 0.783515 0.255409
Si Si6 0.040583 0.001079 0.144953
O O1 0.603611 0.150918 0.433849
O O2 0.340565 0.110993 0.620355
O O3 0.644264 0.397641 0.514814
O O4 0.444770 0.620238 0.834686
O O5 0.735731 0.677042 0.426781
O O6 0.731884 0.493777 0.586999
O O7 0.664962 0.701429 0.196114
O O8 0.105765 0.174779 0.411046
O O9 0.005132 0.326658 0.661549
O O10 0.040824 0.045060 0.663363
O O11 0.966937 0.891480 0.144484
#
# Coordination Sequence:
#
# PCOD9248570 Si02
#       6
#     2   4   4   4   4   4
#     4  10  24  38  70  96 136 180 226 286 344 404
#     4  11  24  42  73  97 140 182 229 285 343 411
#     4  10  22  43  64 101 133 179 228 283 340 409
#     4  10  24  41  67  94 137 177 228 281 341 409
#     4  11  23  46  66 102 137 178 239 280 344 417
#     4  11  22  45  65 100 136 179 222 285 347 409
#
# _framework density 24.855907999999999
#
# number of rings (size 3 to 8) (size 9 to 14) (size 15 to 20)
#    0.000    1.455    3.636    1.636    2.545    3.636 
#    0.000    0.000    0.000    0.000    0.000    0.000 
#    0.000    0.000    0.000    0.000    0.000    0.000 
#
# Total GULP energy -122482.761050 kJ/mol
# GULP energy per Si atom -5567.398230 kJ/mol
# Density = 2.479933 g / cm^3
# Si number density = 24.855908 Si / 1000 Ang^3
#
#
#
# Elastic Constant Matrix: (Units=GPa)
#
#
# Indices 1 2 3 4 5 6 
#
# 1 116.2967 35.1575 13.9096 0.0000 -0.7191 0.0000
# 2 35.1575 107.4176 5.3443 0.0000 -13.4556 0.0000
# 3 13.9096 5.3443 34.1634 0.0000 3.4048 0.0000
# 4 0.0000 0.0000 0.0000 31.9013 0.0000 10.2190
# 5 -0.7191 -13.4556 3.4048 0.0000 32.8991 0.0000
# 6 0.0000 0.0000 0.0000 10.2190 0.0000 46.0696
#
#
#
# Elastic Compliance Matrix: (Units=1/GPa)
#
#
# Indices 1 2 3 4 5 6 
#
# 1 0.009973 -0.003181 -0.003491 0.000000 -0.000722 0.000000
# 2 -0.003181 0.010958 -0.000868 0.000000 0.004502 0.000000
# 3 -0.003491 -0.000868 0.031193 0.000000 -0.003659 0.000000
# 4 0.000000 0.000000 0.000000 0.033744 0.000000 -0.007485
# 5 -0.000722 0.004502 -0.003659 0.000000 0.032600 0.000000
# 6 0.000000 0.000000 0.000000 -0.007485 0.000000 0.023367
#
#
# Mechanical properties :
#
#
# Convention : Reuss Voigt Hill
#
# Bulk Modulus (GPa) = 26.99460 40.74450 33.86955
# Shear Modulus (GPa) = 29.53983 35.73843 32.63913
#
# Velocity S-wave (km/s) = 3.45112 3.79598 3.62765
# Velocity P-wave (km/s) = 5.17342 5.96996 5.58591
#
# Compressibility (1/GPa) = 0.03704445
#
# Stress axis : x y z
#
# Youngs Moduli (GPa) = 100.26643 91.26004 32.05853
#
# Poissons Ratio (x) = 0.29030 0.11192
# Poissons Ratio (y) = 0.31895 0.02782
# Poissons Ratio (z) = 0.35004 0.07919
#
# Static dielectric constant tensor:
#      x y z
#    x 2.039640 0.000000 -0.012640 
#    y 0.000000 1.893020 0.000000 
#    z -0.012640 0.000000 2.419960 
# 
# From -- ./inp_files/38658.got.cif
#   From: 2010.05.17/outbox.cif.g08.bks.cpg/sg14_20_cif.got.tgz:38658.got - 2010.06.03 17:49:19.
