data_PCOD9248603
_publ_section_title
;
Structure prediction by ZEFSAII (Michael W. Deem and Ramdas Pophale) SiO2 
 PCOD9248603
Probable space group: P 21/C
;
_chemical_formula_sum "Si O2"
_cell_formula_units_Z 24
_cell_length_a 9.424478
_cell_length_b 8.047673
_cell_length_c 21.893666
_cell_angle_alpha 90.000000
_cell_angle_beta 144.686489
_cell_angle_gamma 90.000000
_cell_volume 959.868120
_symmetry_space_group_name_H-M "P 21/C"
_symmetry_group_IT_number 14
_symmetry_cell_setting 'monoclinic'
loop_
_space_group_symop_operation_xyz
x,y,z
-x,1/2+y,1/2-z
-x,-y,-z
x,1/2-y,1/2+z
loop_
_atom_site_type_symbol
_atom_site_label
_atom_site_fract_x
_atom_site_fract_y
_atom_site_fract_z
Si Si1 0.958550 0.260783 0.610346
Si Si2 0.150141 0.827835 0.058023
Si Si3 0.044185 0.932714 0.680825
Si Si4 0.298210 0.914117 0.233266
Si Si5 0.706085 0.654513 0.964904
Si Si6 0.648549 0.394392 0.601485
O O1 0.788614 0.257412 0.610453
O O2 0.796858 0.274094 0.492181
O O3 0.123401 0.425889 0.672247
O O4 0.119668 0.094425 0.668276
O O5 0.956822 0.696316 0.018114
O O6 0.347028 0.863633 0.179898
O O7 0.000000 0.000000 0.000000
O O8 0.772998 0.911461 0.555898
O O9 0.157556 0.749643 0.709188
O O10 0.136210 0.973742 0.781473
O O11 0.530424 0.944987 0.357760
O O12 0.557877 0.823932 0.925929
O O13 0.500000 0.500000 0.500000
#
# Coordination Sequence:
#
# PCOD9248603 Si02
#       6
#     4   4   4   4   4   4
#     4  11  24  42  69  98 130 173 222 272 317 398
#     4   9  19  43  65  94 133 170 212 273 325 380
#     4  10  24  42  66  96 134 171 219 271 327 386
#     4   9  21  44  65  94 139 169 209 276 332 381
#     4  10  22  43  66  95 134 176 211 275 334 383
#     4  11  24  41  68  96 133 177 217 267 331 390
#
# _framework density 25.003433999999999
#
# number of rings (size 3 to 8) (size 9 to 14) (size 15 to 20)
#    0.000    2.000    0.000    3.000    7.000    4.667 
#   21.000    0.000    0.000    0.000    0.000    0.000 
#    0.000    0.000    0.000    0.000    0.000    0.000 
#
# Total GULP energy -133878.519904 kJ/mol
# GULP energy per Si atom -5578.271663 kJ/mol
# Density = 2.494653 g / cm^3
# Si number density = 25.003434 Si / 1000 Ang^3
#
#
#
# Elastic Constant Matrix: (Units=GPa)
#
#
# Indices 1 2 3 4 5 6 
#
# 1 48.3789 3.5620 25.8107 0.0000 -3.6858 0.0000
# 2 3.5620 129.0918 36.2075 0.0000 0.2383 0.0000
# 3 25.8107 36.2075 234.2025 0.0000 -37.0546 0.0000
# 4 0.0000 0.0000 0.0000 37.7754 0.0000 -13.7772
# 5 -3.6858 0.2383 -37.0546 0.0000 40.2890 0.0000
# 6 0.0000 0.0000 0.0000 -13.7772 0.0000 2.8076
#
#
#
# Elastic Compliance Matrix: (Units=1/GPa)
#
#
# Indices 1 2 3 4 5 6 
#
# 1 0.021965 0.000089 -0.002477 0.000000 -0.000269 0.000000
# 2 0.000089 0.008166 -0.001496 0.000000 -0.001416 0.000000
# 3 -0.002477 -0.001496 0.005547 0.000000 0.004884 0.000000
# 4 0.000000 0.000000 0.000000 -0.033523 0.000000 -0.164499
# 5 -0.000269 -0.001416 0.004884 0.000000 0.029296 0.000000
# 6 0.000000 0.000000 0.000000 -0.164499 0.000000 -0.451038
#
#
# Mechanical properties :
#
#
# Convention : Reuss Voigt Hill
#
# Bulk Modulus (GPa) = 35.83052 60.31484 48.07268
# Shear Modulus (GPa) = -12.42188 39.24729 13.41270
#
# Velocity S-wave (km/s) = -2.23133 3.96621 2.31862
# Velocity P-wave (km/s) = 2.77901 6.71933 5.14161
#
# Compressibility (1/GPa) = 0.02790917
#
# Stress axis : x y z
#
# Youngs Moduli (GPa) = 45.52780 122.45447 180.28301
#
# Poissons Ratio (x) = -0.01092 0.44657
# Poissons Ratio (y) = -0.00406 0.26978
# Poissons Ratio (z) = 0.11277 0.18325
#
# Static dielectric constant tensor:
#      x y z
#    x 2.030770 0.000000 -0.021020 
#    y 0.000000 2.080780 0.000000 
#    z -0.021020 0.000000 2.049640 
# 
# From -- ./inp_files/73146.got.cif
#   From: 2010.05.17/outbox.cif.g08.bks.cpg/sg14_37_cif.got.tgz:73146.got - 2010.06.03 17:49:19.
