data_PCOD9248236
_publ_section_title
;
Structure prediction by ZEFSAII (Michael W. Deem and Ramdas Pophale) SiO2 
 PCOD9248236
Probable space group: P 21/C
;
_chemical_formula_sum "Si O2"
_cell_formula_units_Z 30
_cell_length_a 14.726621
_cell_length_b 7.961740
_cell_length_c 19.884968
_cell_angle_alpha 90.000000
_cell_angle_beta 152.066307
_cell_angle_gamma 90.000000
_cell_volume 1092.191311
_symmetry_space_group_name_H-M "P 21/C"
_symmetry_group_IT_number 14
_symmetry_cell_setting 'monoclinic'
loop_
_space_group_symop_operation_xyz
x,y,z
-x,1/2+y,1/2-z
-x,-y,-z
x,1/2-y,1/2+z
loop_
_atom_site_type_symbol
_atom_site_label
_atom_site_fract_x
_atom_site_fract_y
_atom_site_fract_z
Si Si1 0.259855 0.115932 0.876026
Si Si2 0.678700 0.142374 0.309071
Si Si3 0.355014 0.539009 0.644239
Si Si4 0.895272 0.247657 0.194710
Si Si5 0.571157 0.410650 0.909759
Si Si6 0.781459 0.824826 0.307351
Si Si7 0.000000 0.000000 0.000000
Si Si8 0.643523 0.315911 0.152642
O O1 0.209415 0.110854 0.763337
O O2 0.119911 0.246911 0.823455
O O3 0.197525 0.937691 0.866709
O O4 0.482139 0.177785 0.026928
O O5 0.683417 0.261672 0.377420
O O6 0.735709 0.268133 0.285450
O O7 0.456212 0.077199 0.155345
O O8 0.798506 0.974731 0.372895
O O9 0.522825 0.520192 0.812393
O O10 0.161746 0.459362 0.546580
O O11 0.817509 0.322221 0.214194
O O12 0.787225 0.364444 0.069841
O O13 0.433686 0.248003 0.821000
O O14 0.474841 0.516429 0.908631
O O15 0.921842 0.667761 0.407657
#
# Coordination Sequence:
#
# PCOD9248236 Si02
#       8
#     4   4   4   4   4   4   2   4
#     4  12  26  41  68 106 142 187 239 291 370 429
#     4  11  23  45  73  97 138 187 240 285 375 430
#     4  10  23  44  70 102 133 190 235 297 357 430
#     4  12  24  43  68 105 142 188 237 294 361 437
#     4  10  22  41  71  94 139 182 230 284 358 422
#     4  11  23  43  67  98 140 183 228 300 349 428
#     4  10  24  44  66 104 136 176 240 292 348 414
#     4  11  23  45  70 104 140 189 231 305 360 435
#
# _framework density 27.467714000000001
#
# number of rings (size 3 to 8) (size 9 to 14) (size 15 to 20)
#    0.000    1.067    2.667    4.000    1.867    3.733 
#    4.800    1.333    0.000    0.000    0.000    0.000 
#    0.000    0.000    0.000    0.000    0.000    0.000 
#
# Total GULP energy -167446.082092 kJ/mol
# GULP energy per Si atom -5581.536070 kJ/mol
# Density = 2.740520 g / cm^3
# Si number density = 27.467714 Si / 1000 Ang^3
#
#
#
# Elastic Constant Matrix: (Units=GPa)
#
#
# Indices 1 2 3 4 5 6 
#
# 1 130.4324 -8.5996 28.8210 0.0000 14.4376 0.0000
# 2 -8.5996 89.1775 -8.1053 0.0000 -6.5951 0.0000
# 3 28.8210 -8.1053 81.9114 0.0000 16.1939 0.0000
# 4 0.0000 0.0000 0.0000 37.1077 0.0000 2.7799
# 5 14.4376 -6.5951 16.1939 0.0000 51.3232 0.0000
# 6 0.0000 0.0000 0.0000 2.7799 0.0000 42.6943
#
#
#
# Elastic Compliance Matrix: (Units=1/GPa)
#
#
# Indices 1 2 3 4 5 6 
#
# 1 0.008443 0.000465 -0.002631 0.000000 -0.001485 0.000000
# 2 0.000465 0.011408 0.000748 0.000000 0.001099 0.000000
# 3 -0.002631 0.000748 0.013910 0.000000 -0.003553 0.000000
# 4 0.000000 0.000000 0.000000 0.027081 0.000000 -0.001763
# 5 -0.001485 0.001099 -0.003553 0.000000 0.021164 0.000000
# 6 0.000000 0.000000 0.000000 -0.001763 0.000000 0.023537
#
#
# Mechanical properties :
#
#
# Convention : Reuss Voigt Hill
#
# Bulk Modulus (GPa) = 32.33601 36.19485 34.26543
# Shear Modulus (GPa) = 42.12714 45.51871 43.82293
#
# Velocity S-wave (km/s) = 3.92049 4.07525 3.99862
# Velocity P-wave (km/s) = 5.68257 5.94554 5.81554
#
# Compressibility (1/GPa) = 0.03092527
#
# Stress axis : x y z
#
# Youngs Moduli (GPa) = 118.43760 87.66008 71.88816
#
# Poissons Ratio (x) = -0.04078 0.18915
# Poissons Ratio (y) = -0.05510 -0.05376
# Poissons Ratio (z) = 0.31163 -0.06556
#
# Static dielectric constant tensor:
#      x y z
#    x 2.323690 0.000000 -0.038780 
#    y 0.000000 -2.527540 0.000000 
#    z -0.038780 0.000000 2.298490 
# 
# From -- ./inp_files/68394.got.cif
#   From: 2010.05.17/outbox.cif.g08.bks.cpg/sg14_35_cif.got.tgz:68394.got - 2010.06.03 17:49:19.
