data_PCOD9248911
_publ_section_title
;
Structure prediction by ZEFSAII (Michael W. Deem and Ramdas Pophale) SiO2 
 PCOD9248911
Probable space group: P 21/C
;
_chemical_formula_sum "Si O2"
_cell_formula_units_Z 20
_cell_length_a 21.184289
_cell_length_b 8.788961
_cell_length_c 13.998286
_cell_angle_alpha 90.000000
_cell_angle_beta 21.099415
_cell_angle_gamma 90.000000
_cell_volume 938.238934
_symmetry_space_group_name_H-M "P 21/C"
_symmetry_group_IT_number 14
_symmetry_cell_setting 'monoclinic'
loop_
_space_group_symop_operation_xyz
x,y,z
-x,1/2+y,1/2-z
-x,-y,-z
x,1/2-y,1/2+z
loop_
_atom_site_type_symbol
_atom_site_label
_atom_site_fract_x
_atom_site_fract_y
_atom_site_fract_z
Si Si1 0.162753 0.429078 0.718121
Si Si2 0.537837 0.426386 0.227094
Si Si3 0.898673 0.580130 0.730678
Si Si4 0.538492 0.624383 0.050538
Si Si5 0.202925 0.508285 0.440491
O O1 0.339706 0.488434 0.520065
O O2 0.152341 0.247062 0.732905
O O3 0.160247 0.468827 0.609596
O O4 0.000000 0.500000 0.000000
O O5 0.559253 0.469384 0.084451
O O6 0.511740 0.257106 0.304404
O O7 0.716480 0.496928 0.016181
O O8 0.000000 0.500000 0.500000
O O9 0.037611 0.578440 0.620496
O O10 0.373586 0.614961 0.212351
O O11 0.715425 0.631021 0.737670
#
# Coordination Sequence:
#
# PCOD9248911 Si02
#       5
#     4   4   4   4   4
#     4  11  27  46  70 102 140 189 239 289 353 418
#     4  11  22  44  71  99 137 185 231 285 352 420
#     4  12  25  42  73 102 141 185 237 286 359 415
#     4  10  22  44  71  97 140 184 228 289 353 419
#     4  10  24  43  69 102 142 176 236 292 350 415
#
# _framework density 21.316531999999999
#
# number of rings (size 3 to 8) (size 9 to 14) (size 15 to 20)
#    0.000    1.200    4.000    0.000    8.400    1.600 
#    0.000    2.000    0.000    0.000    0.000    0.000 
#    0.000    0.000    0.000    0.000    0.000    0.000 
#
# Total GULP energy -111390.054223 kJ/mol
# GULP energy per Si atom -5569.502711 kJ/mol
# Density = 2.126801 g / cm^3
# Si number density = 21.316532 Si / 1000 Ang^3
#
#
#
# Elastic Constant Matrix: (Units=GPa)
#
#
# Indices 1 2 3 4 5 6 
#
# 1 95.5249 27.0286 54.5039 0.0000 -19.4642 0.0000
# 2 27.0286 71.9484 51.7983 0.0000 6.3204 0.0000
# 3 54.5039 51.7983 180.5765 0.0000 -20.1559 0.0000
# 4 0.0000 0.0000 0.0000 25.9583 0.0000 -3.9799
# 5 -19.4642 6.3204 -20.1559 0.0000 60.9574 0.0000
# 6 0.0000 0.0000 0.0000 -3.9799 0.0000 17.9009
#
#
#
# Elastic Compliance Matrix: (Units=1/GPa)
#
#
# Indices 1 2 3 4 5 6 
#
# 1 0.013821 -0.003583 -0.002710 0.000000 0.003889 0.000000
# 2 -0.003583 0.019245 -0.004973 0.000000 -0.004784 0.000000
# 3 -0.002710 -0.004973 0.008040 0.000000 0.002309 0.000000
# 4 0.000000 0.000000 0.000000 0.039883 0.000000 0.008867
# 5 0.003889 -0.004784 0.002309 0.000000 0.018906 0.000000
# 6 0.000000 0.000000 0.000000 0.008867 0.000000 0.057834
#
#
# Mechanical properties :
#
#
# Convention : Reuss Voigt Hill
#
# Bulk Modulus (GPa) = 53.83647 68.30127 61.06887
# Shear Modulus (GPa) = 26.81656 35.27793 31.04725
#
# Velocity S-wave (km/s) = 3.55070 4.07253 3.82053
# Velocity P-wave (km/s) = 6.49003 7.36376 6.94066
#
# Compressibility (1/GPa) = 0.01857477
#
# Stress axis : x y z
#
# Youngs Moduli (GPa) = 72.35550 51.96079 124.37860
#
# Poissons Ratio (x) = 0.18616 0.33704
# Poissons Ratio (y) = 0.25922 0.61855
# Poissons Ratio (z) = 0.19607 0.25841
#
# Static dielectric constant tensor:
#      x y z
#    x 1.813610 0.000000 -0.039190 
#    y 0.000000 1.832350 0.000000 
#    z -0.039190 0.000000 1.830270 
# 
# From -- ./inp_files/49990.got.cif
#   From: 2010.05.17/outbox.cif.g08.bks.cpg/sg14_25_cif.got.tgz:49990.got - 2010.06.03 17:49:19.
