data_PCOD9248361
_publ_section_title
;
Structure prediction by ZEFSAII (Michael W. Deem and Ramdas Pophale) SiO2 
 PCOD9248361
Probable space group: P 21/C
;
_chemical_formula_sum "Si O2"
_cell_formula_units_Z 30
_cell_length_a 6.702454
_cell_length_b 13.752829
_cell_length_c 16.898655
_cell_angle_alpha 90.000000
_cell_angle_beta 113.003858
_cell_angle_gamma 90.000000
_cell_volume 1433.810291
_symmetry_space_group_name_H-M "P 21/C"
_symmetry_group_IT_number 14
_symmetry_cell_setting 'monoclinic'
loop_
_space_group_symop_operation_xyz
x,y,z
-x,1/2+y,1/2-z
-x,-y,-z
x,1/2-y,1/2+z
loop_
_atom_site_type_symbol
_atom_site_label
_atom_site_fract_x
_atom_site_fract_y
_atom_site_fract_z
Si Si1 0.496337 0.839279 0.053127
Si Si2 0.000000 0.000000 0.500000
Si Si3 0.682733 0.129190 0.706830
Si Si4 0.048174 0.728960 0.000714
Si Si5 0.458712 0.490805 0.313465
Si Si6 0.014724 0.023528 0.316680
Si Si7 0.074093 0.256585 0.833392
Si Si8 0.611173 0.691778 0.389586
O O1 0.471235 0.942129 0.092804
O O2 0.685453 0.786431 0.132608
O O3 0.279486 0.776597 0.023497
O O4 0.564507 0.841716 0.972339
O O5 0.042329 0.973845 0.599820
O O6 0.040119 0.884884 0.481801
O O7 0.570075 0.073355 0.762290
O O8 0.891824 0.191155 0.765041
O O9 0.516397 0.207142 0.644637
O O10 0.778534 0.045576 0.665100
O O11 0.864505 0.784119 0.921634
O O12 0.984230 0.742326 0.082547
O O13 0.533183 0.603269 0.322712
O O14 0.199172 0.489466 0.262951
O O15 0.068289 0.133889 0.300630
#
# Coordination Sequence:
#
# PCOD9248361 Si02
#       8
#     4   2   4   4   4   4   4   4
#     4  11  23  44  71  96 138 187 223 285 351 406
#     4  10  22  44  68  96 136 176 226 276 336 400
#     4  12  24  44  67 102 135 179 232 279 344 407
#     4  10  22  43  67  96 135 176 223 284 338 409
#     4  12  25  42  70 101 139 182 229 287 350 409
#     4  11  24  43  70 101 137 178 224 288 338 417
#     4  10  22  42  66  95 135 169 228 278 334 403
#     4  11  26  43  66 103 138 179 232 288 340 419
#
# _framework density 20.923269000000001
#
# number of rings (size 3 to 8) (size 9 to 14) (size 15 to 20)
#    0.000    1.067    4.000    2.000    0.000    5.867 
#    2.400    6.000    0.000    0.000    0.000    0.000 
#    0.000    0.000    0.000    0.000    0.000    0.000 
#
# Total GULP energy -167156.160482 kJ/mol
# GULP energy per Si atom -5571.872016 kJ/mol
# Density = 2.087565 g / cm^3
# Si number density = 20.923269 Si / 1000 Ang^3
#
#
#
# Elastic Constant Matrix: (Units=GPa)
#
#
# Indices 1 2 3 4 5 6 
#
# 1 67.6962 32.8698 15.6825 0.0000 26.0410 0.0000
# 2 32.8698 123.9824 15.5407 0.0000 4.2517 0.0000
# 3 15.6825 15.5407 44.5820 0.0000 3.7412 0.0000
# 4 0.0000 0.0000 0.0000 38.2824 0.0000 -3.3074
# 5 26.0410 4.2517 3.7412 0.0000 31.9428 0.0000
# 6 0.0000 0.0000 0.0000 -3.3074 0.0000 14.6461
#
#
#
# Elastic Compliance Matrix: (Units=1/GPa)
#
#
# Indices 1 2 3 4 5 6 
#
# 1 0.026648 -0.005654 -0.005699 0.000000 -0.020304 0.000000
# 2 -0.005654 0.009653 -0.001672 0.000000 0.003520 0.000000
# 3 -0.005699 -0.001672 0.024854 0.000000 0.001958 0.000000
# 4 0.000000 0.000000 0.000000 0.026641 0.000000 0.006016
# 5 -0.020304 0.003520 0.001958 0.000000 0.047161 0.000000
# 6 0.000000 0.000000 0.000000 0.006016 0.000000 0.069636
#
#
# Mechanical properties :
#
#
# Convention : Reuss Voigt Hill
#
# Bulk Modulus (GPa) = 28.48540 40.49408 34.48974
# Shear Modulus (GPa) = 20.63169 28.45210 24.54190
#
# Velocity S-wave (km/s) = 3.14357 3.69159 3.42855
# Velocity P-wave (km/s) = 5.17879 6.12912 5.67388
#
# Compressibility (1/GPa) = 0.03510571
#
# Stress axis : x y z
#
# Youngs Moduli (GPa) = 37.52610 103.58948 40.23547
#
# Poissons Ratio (x) = 0.58572 0.22930
# Poissons Ratio (y) = 0.21218 0.06726
# Poissons Ratio (z) = 0.21386 0.17315
#
# Static dielectric constant tensor:
#      x y z
#    x 1.736920 0.000000 -0.005100 
#    y 0.000000 1.749390 0.000000 
#    z -0.005100 0.000000 1.734180 
# 
# From -- ./inp_files/53537.got.cif
#   From: 2010.05.17/outbox.cif.g08.bks.cpg/sg14_27_cif.got.tgz:53537.got - 2010.06.03 17:49:19.
