data_PCOD9248952
_publ_section_title
;
Structure prediction by ZEFSAII (Michael W. Deem and Ramdas Pophale) SiO2 
 PCOD9248952
Probable space group: P 21/C
;
_chemical_formula_sum "Si O2"
_cell_formula_units_Z 24
_cell_length_a 7.053515
_cell_length_b 11.487934
_cell_length_c 14.961719
_cell_angle_alpha 90.000000
_cell_angle_beta 134.896754
_cell_angle_gamma 90.000000
_cell_volume 858.806266
_symmetry_space_group_name_H-M "P 21/C"
_symmetry_group_IT_number 14
_symmetry_cell_setting 'monoclinic'
loop_
_space_group_symop_operation_xyz
x,y,z
-x,1/2+y,1/2-z
-x,-y,-z
x,1/2-y,1/2+z
loop_
_atom_site_type_symbol
_atom_site_label
_atom_site_fract_x
_atom_site_fract_y
_atom_site_fract_z
Si Si1 0.202858 0.912106 0.927649
Si Si2 0.671409 0.741767 0.112508
Si Si3 0.832708 0.996936 0.651064
Si Si4 0.230887 0.245324 0.648577
Si Si5 0.215812 0.821090 0.220449
Si Si6 0.000000 0.500000 0.500000
Si Si7 0.000000 0.000000 0.500000
O O1 0.083973 0.953818 0.796264
O O2 0.954366 0.863467 0.912175
O O3 0.419083 0.814312 0.998521
O O4 0.263152 0.015748 0.014181
O O5 0.617559 0.604597 0.099607
O O6 0.752215 0.780608 0.239788
O O7 0.932216 0.759893 0.139550
O O8 0.737850 0.111414 0.671042
O O9 0.914593 0.996364 0.576624
O O10 0.535397 0.261154 0.719334
O O11 0.105103 0.138587 0.552991
O O12 0.193708 0.919167 0.137186
#
# Coordination Sequence:
#
# PCOD9248952 Si02
#       7
#     4   4   4   4   4   2   2
#     4  10  24  49  76 114 152 200 263 320 391 463
#     4  11  24  50  75 111 152 202 260 324 382 467
#     4  10  26  46  74 112 152 204 256 318 392 459
#     4  11  26  46  73 109 156 198 254 318 390 463
#     4  11  24  48  72 113 151 199 261 318 382 463
#     4  10  22  44  78 112 142 196 256 316 376 464
#     4  12  26  46  72 110 150 212 244 324 382 474
#
# _framework density 27.945768000000001
#
# number of rings (size 3 to 8) (size 9 to 14) (size 15 to 20)
#    0.000    1.333    3.333    0.000    4.667    7.333 
#    9.000    0.000    0.000    0.000    0.000    0.000 
#    0.000    0.000    0.000    0.000    0.000    0.000 
#
# Total GULP energy -133768.574018 kJ/mol
# GULP energy per Si atom -5573.690584 kJ/mol
# Density = 2.788216 g / cm^3
# Si number density = 27.945768 Si / 1000 Ang^3
#
#
#
# Elastic Constant Matrix: (Units=GPa)
#
#
# Indices 1 2 3 4 5 6 
#
# 1 181.4030 73.2876 91.4492 0.0000 -14.5194 0.0000
# 2 73.2876 104.6636 37.0887 0.0000 11.4381 0.0000
# 3 91.4492 37.0887 152.6110 0.0000 -44.0045 0.0000
# 4 0.0000 0.0000 0.0000 58.0860 0.0000 -5.2975
# 5 -14.5194 11.4381 -44.0045 0.0000 72.4606 0.0000
# 6 0.0000 0.0000 0.0000 -5.2975 0.0000 62.4857
#
#
#
# Elastic Compliance Matrix: (Units=1/GPa)
#
#
# Indices 1 2 3 4 5 6 
#
# 1 0.010066 -0.005372 -0.004728 0.000000 -0.000006 0.000000
# 2 -0.005372 0.014302 -0.001476 0.000000 -0.004231 0.000000
# 3 -0.004728 -0.001476 0.011563 0.000000 0.006308 0.000000
# 4 0.000000 0.000000 0.000000 0.017350 0.000000 0.001471
# 5 -0.000006 -0.004231 0.006308 0.000000 0.018298 0.000000
# 6 0.000000 0.000000 0.000000 0.001471 0.000000 0.016128
#
#
# Mechanical properties :
#
#
# Convention : Reuss Voigt Hill
#
# Bulk Modulus (GPa) = 78.26066 93.59207 85.92637
# Shear Modulus (GPa) = 43.43283 54.39660 48.91471
#
# Velocity S-wave (km/s) = 3.94659 4.41671 4.18825
# Velocity P-wave (km/s) = 6.98804 7.71836 7.36226
#
# Compressibility (1/GPa) = 0.01277781
#
# Stress axis : x y z
#
# Youngs Moduli (GPa) = 99.34385 69.92167 86.47912
#
# Poissons Ratio (x) = 0.37564 0.40888
# Poissons Ratio (y) = 0.53371 0.12767
# Poissons Ratio (z) = 0.46970 0.10323
#
# Static dielectric constant tensor:
#      x y z
#    x 2.234560 0.000000 0.076040 
#    y 0.000000 2.380450 0.000000 
#    z 0.076040 0.000000 2.201620 
# 
# From -- ./inp_files/37429.got.cif
#   From: 2010.05.17/outbox.cif.g08.bks.cpg/sg14_19_cif.got.tgz:37429.got - 2010.06.03 17:49:19.
