data_PCOD9248702
_publ_section_title
;
Structure prediction by ZEFSAII (Michael W. Deem and Ramdas Pophale) SiO2 
 PCOD9248702
Probable space group: P 21/C
;
_chemical_formula_sum "Si O2"
_cell_formula_units_Z 16
_cell_length_a 9.458569
_cell_length_b 9.683372
_cell_length_c 8.110944
_cell_angle_alpha 90.000000
_cell_angle_beta 131.691704
_cell_angle_gamma 90.000000
_cell_volume 554.740239
_symmetry_space_group_name_H-M "P 21/C"
_symmetry_group_IT_number 14
_symmetry_cell_setting 'monoclinic'
loop_
_space_group_symop_operation_xyz
x,y,z
-x,1/2+y,1/2-z
-x,-y,-z
x,1/2-y,1/2+z
loop_
_atom_site_type_symbol
_atom_site_label
_atom_site_fract_x
_atom_site_fract_y
_atom_site_fract_z
Si Si1 0.058467 0.949084 0.307588
Si Si2 0.529862 0.623270 0.301979
Si Si3 0.743996 0.127844 0.879276
Si Si4 0.762139 0.843429 0.298705
O O1 0.185111 0.039430 0.529545
O O2 0.162301 0.890315 0.227532
O O3 0.949038 0.834279 0.330778
O O4 0.892534 0.056238 0.119606
O O5 0.345957 0.722274 0.152606
O O6 0.559306 0.472708 0.246796
O O7 0.696642 0.706370 0.336340
O O8 0.594541 0.622906 0.541901
#
# Coordination Sequence:
#
# PCOD9248702 Si02
#       4
#     4   4   4   4
#     4   9  21  46  75 101 146 204 251 303 373 454
#     4  11  24  44  72 109 151 193 249 312 373 451
#     4  10  23  48  77 110 150 196 250 310 379 448
#     4  10  22  43  70 103 147 194 250 304 367 442
#
# _framework density 28.842331000000001
#
# number of rings (size 3 to 8) (size 9 to 14) (size 15 to 20)
#    0.000    2.000    0.000    1.500    0.000    8.000 
#    0.000   52.500    0.000    4.500    0.000    0.000 
#    0.000    0.000    0.000    0.000    0.000    0.000 
#
# Total GULP energy -89847.312374 kJ/mol
# GULP energy per Si atom -5615.457023 kJ/mol
# Density = 2.877668 g / cm^3
# Si number density = 28.842331 Si / 1000 Ang^3
#
#
#
# Elastic Constant Matrix: (Units=GPa)
#
#
# Indices 1 2 3 4 5 6 
#
# 1 200.2289 50.1471 50.0066 0.0000 15.1710 0.0000
# 2 50.1471 149.4709 26.1691 0.0000 7.9133 0.0000
# 3 50.0066 26.1691 123.9065 0.0000 -5.9350 0.0000
# 4 0.0000 0.0000 0.0000 40.6967 0.0000 5.0898
# 5 15.1710 7.9133 -5.9350 0.0000 55.9557 0.0000
# 6 0.0000 0.0000 0.0000 5.0898 0.0000 58.6769
#
#
#
# Elastic Compliance Matrix: (Units=1/GPa)
#
#
# Indices 1 2 3 4 5 6 
#
# 1 0.006059 -0.001561 -0.002195 0.000000 -0.001655 0.000000
# 2 -0.001561 0.007423 -0.000973 0.000000 -0.000730 0.000000
# 3 -0.002195 -0.000973 0.009244 0.000000 0.001713 0.000000
# 4 0.000000 0.000000 0.000000 0.024842 0.000000 -0.002155
# 5 -0.001655 -0.000730 0.001713 0.000000 0.018605 0.000000
# 6 0.000000 0.000000 0.000000 -0.002155 0.000000 0.017229
#
#
# Mechanical properties :
#
#
# Convention : Reuss Voigt Hill
#
# Bulk Modulus (GPa) = 75.36522 80.69464 78.02993
# Shear Modulus (GPa) = 51.39757 54.21809 52.80783
#
# Velocity S-wave (km/s) = 4.22598 4.34038 4.28356
# Velocity P-wave (km/s) = 7.07097 7.29089 7.18177
#
# Compressibility (1/GPa) = 0.01326872
#
# Stress axis : x y z
#
# Youngs Moduli (GPa) = 165.05156 134.71908 108.17953
#
# Poissons Ratio (x) = 0.21027 0.23743
# Poissons Ratio (y) = 0.25761 0.10523
# Poissons Ratio (z) = 0.36226 0.13105
#
# Static dielectric constant tensor:
#      x y z
#    x 2.277440 0.000000 0.153040 
#    y 0.000000 2.213310 0.000000 
#    z 0.153040 0.000000 2.308130 
# 
# From -- ./inp_files/8047.got.cif
#   From: 2010.05.17/outbox.cif.g08.bks.cpg/sg14_5_cif.got.tgz:8047.got - 2010.06.03 17:49:19.
