data_PCOD9248067
_publ_section_title
;
Structure prediction by ZEFSAII (Michael W. Deem and Ramdas Pophale) SiO2 
 PCOD9248067
Probable space group: P 21/C
;
_chemical_formula_sum "Si O2"
_cell_formula_units_Z 28
_cell_length_a 16.494966
_cell_length_b 7.842549
_cell_length_c 21.640448
_cell_angle_alpha 90.000000
_cell_angle_beta 154.522864
_cell_angle_gamma 90.000000
_cell_volume 1204.191986
_symmetry_space_group_name_H-M "P 21/C"
_symmetry_group_IT_number 14
_symmetry_cell_setting 'monoclinic'
loop_
_space_group_symop_operation_xyz
x,y,z
-x,1/2+y,1/2-z
-x,-y,-z
x,1/2-y,1/2+z
loop_
_atom_site_type_symbol
_atom_site_label
_atom_site_fract_x
_atom_site_fract_y
_atom_site_fract_z
Si Si1 0.758157 0.960158 0.251995
Si Si2 0.520421 0.074406 0.714565
Si Si3 0.226425 0.389893 0.813539
Si Si4 0.088142 0.421008 0.903573
Si Si5 0.504778 0.179416 0.836148
Si Si6 0.408090 0.690467 0.864138
Si Si7 0.886693 0.276791 0.652933
O O1 0.744771 0.782085 0.206296
O O2 0.679994 0.913767 0.265756
O O3 0.628581 0.117326 0.140375
O O4 0.966301 0.031174 0.380064
O O5 0.300452 0.129395 0.564744
O O6 0.587985 0.102633 0.830372
O O7 0.619445 0.179369 0.728444
O O8 0.532998 0.877653 0.703399
O O9 0.276731 0.554075 0.808014
O O10 0.020123 0.388170 0.700245
O O11 0.381134 0.372057 0.974497
O O12 0.101191 0.591880 0.870391
O O13 0.975447 0.292035 0.781723
O O14 0.669716 0.167678 0.000882
#
# Coordination Sequence:
#
# PCOD9248067 Si02
#       7
#     4   4   4   4   4   4   4
#     4  11  24  40  64 101 129 170 217 273 326 384
#     4  11  23  47  64  94 131 181 211 273 323 395
#     4  10  22  41  63  96 136 162 212 278 318 388
#     4  10  24  40  67  93 137 162 219 273 330 375
#     4  11  25  42  67  91 135 171 227 261 328 396
#     4  11  22  38  69  94 129 172 212 264 335 383
#     4  10  23  39  63  99 124 171 212 269 324 388
#
# _framework density 23.252106000000001
#
# number of rings (size 3 to 8) (size 9 to 14) (size 15 to 20)
#    0.000    1.429    2.857    1.286    8.000    1.714 
#    0.000    2.143    0.000    0.000    0.000    0.000 
#    0.000    0.000    0.000    0.000    0.000    0.000 
#
# Total GULP energy -156576.666410 kJ/mol
# GULP energy per Si atom -5592.023800 kJ/mol
# Density = 2.319918 g / cm^3
# Si number density = 23.252106 Si / 1000 Ang^3
#
#
#
# Elastic Constant Matrix: (Units=GPa)
#
#
# Indices 1 2 3 4 5 6 
#
# 1 96.3899 36.8020 3.0372 0.0000 9.9991 0.0000
# 2 36.8020 107.4555 15.6436 0.0000 3.3936 0.0000
# 3 3.0372 15.6436 40.8691 0.0000 4.2207 0.0000
# 4 0.0000 0.0000 0.0000 14.2409 0.0000 0.1455
# 5 9.9991 3.3936 4.2207 0.0000 23.3458 0.0000
# 6 0.0000 0.0000 0.0000 0.1455 0.0000 35.9112
#
#
#
# Elastic Compliance Matrix: (Units=1/GPa)
#
#
# Indices 1 2 3 4 5 6 
#
# 1 0.012491 -0.004301 0.001229 0.000000 -0.004947 0.000000
# 2 -0.004301 0.011349 -0.004121 0.000000 0.000937 0.000000
# 3 0.001229 -0.004121 0.026441 0.000000 -0.004707 0.000000
# 4 0.000000 0.000000 0.000000 0.070223 0.000000 -0.000285
# 5 -0.004947 0.000937 -0.004707 0.000000 0.045668 0.000000
# 6 0.000000 0.000000 0.000000 -0.000285 0.000000 0.027848
#
#
# Mechanical properties :
#
#
# Convention : Reuss Voigt Hill
#
# Bulk Modulus (GPa) = 27.85934 39.52001 33.68968
# Shear Modulus (GPa) = 22.68897 27.31503 25.00200
#
# Velocity S-wave (km/s) = 3.12714 3.43116 3.28267
# Velocity P-wave (km/s) = 5.00461 5.72104 5.37478
#
# Compressibility (1/GPa) = 0.03589460
#
# Stress axis : x y z
#
# Youngs Moduli (GPa) = 80.05766 88.10962 37.82037
#
# Poissons Ratio (x) = 0.37893 -0.04647
# Poissons Ratio (y) = 0.34430 0.15588
# Poissons Ratio (z) = -0.09837 0.36314
#
# Static dielectric constant tensor:
#      x y z
#    x 1.885860 0.000000 -0.005420 
#    y 0.000000 1.862180 0.000000 
#    z -0.005420 0.000000 1.849830 
# 
# From -- ./inp_files/68376.got.cif
#   From: 2010.05.17/outbox.cif.g08.bks.cpg/sg14_35_cif.got.tgz:68376.got - 2010.06.03 17:49:19.
