data_PCOD9248902
_publ_section_title
;
Structure prediction by ZEFSAII (Michael W. Deem and Ramdas Pophale) SiO2 
 PCOD9248902
Probable space group: P 21/C
;
_chemical_formula_sum "Si O2"
_cell_formula_units_Z 20
_cell_length_a 11.541220
_cell_length_b 9.597911
_cell_length_c 8.135328
_cell_angle_alpha 90.000000
_cell_angle_beta 123.926590
_cell_angle_gamma 90.000000
_cell_volume 747.743288
_symmetry_space_group_name_H-M "P 21/C"
_symmetry_group_IT_number 14
_symmetry_cell_setting 'monoclinic'
loop_
_space_group_symop_operation_xyz
x,y,z
-x,1/2+y,1/2-z
-x,-y,-z
x,1/2-y,1/2+z
loop_
_atom_site_type_symbol
_atom_site_label
_atom_site_fract_x
_atom_site_fract_y
_atom_site_fract_z
Si Si1 0.380591 0.898203 0.548417
Si Si2 0.192036 0.593804 0.220227
Si Si3 0.890631 0.815384 0.509622
Si Si4 0.549450 0.098465 0.888631
Si Si5 0.843906 0.544102 0.324311
O O1 0.285073 0.869430 0.634955
O O2 0.274335 0.931890 0.316175
O O3 0.472267 0.032742 0.671669
O O4 0.476729 0.737838 0.103990
O O5 0.283468 0.595164 0.456785
O O6 0.058165 0.691844 0.127733
O O7 0.147702 0.434346 0.152528
O O8 0.811166 0.671983 0.419407
O O9 0.860157 0.879115 0.661508
O O10 0.500000 0.000000 0.000000
O O11 0.000000 0.500000 0.500000
#
# Coordination Sequence:
#
# PCOD9248902 Si02
#       5
#     4   4   4   4   4
#     4  10  23  44  71 104 144 193 246 307 365 433
#     4   9  21  41  68  97 144 187 234 304 367 426
#     4  10  23  40  71 104 141 189 242 303 366 444
#     4  10  22  44  71 100 145 188 247 298 365 433
#     4  11  25  43  70 107 147 188 249 298 378 433
#
# _framework density 26.747145
#
# number of rings (size 3 to 8) (size 9 to 14) (size 15 to 20)
#    0.000    2.000    0.000    1.200   14.000    0.000 
#    0.000    4.000    0.000    0.000    0.000    0.000 
#    0.000    0.000    0.000    0.000    0.000    0.000 
#
# Total GULP energy -112002.214993 kJ/mol
# GULP energy per Si atom -5600.110750 kJ/mol
# Density = 2.668627 g / cm^3
# Si number density = 26.747145 Si / 1000 Ang^3
#
#
#
# Elastic Constant Matrix: (Units=GPa)
#
#
# Indices 1 2 3 4 5 6 
#
# 1 87.6373 20.1665 20.8452 0.0000 9.3243 0.0000
# 2 20.1665 191.6682 84.8092 0.0000 24.4448 0.0000
# 3 20.8452 84.8092 208.8078 0.0000 26.0720 0.0000
# 4 0.0000 0.0000 0.0000 56.5935 0.0000 -1.6584
# 5 9.3243 24.4448 26.0720 0.0000 41.3162 0.0000
# 6 0.0000 0.0000 0.0000 -1.6584 0.0000 36.7988
#
#
#
# Elastic Compliance Matrix: (Units=1/GPa)
#
#
# Indices 1 2 3 4 5 6 
#
# 1 0.011932 -0.000726 -0.000666 0.000000 -0.001843 0.000000
# 2 -0.000726 0.006615 -0.002330 0.000000 -0.002280 0.000000
# 3 -0.000666 -0.002330 0.006091 0.000000 -0.002315 0.000000
# 4 0.000000 0.000000 0.000000 0.017693 0.000000 0.000797
# 5 -0.001843 -0.002280 -0.002315 0.000000 0.027429 0.000000
# 6 0.000000 0.000000 0.000000 0.000797 0.000000 0.027211
#
#
# Mechanical properties :
#
#
# Convention : Reuss Voigt Hill
#
# Bulk Modulus (GPa) = 58.15598 82.19501 70.17550
# Shear Modulus (GPa) = 45.39398 51.09452 48.24425
#
# Velocity S-wave (km/s) = 4.12412 4.37542 4.25163
# Velocity P-wave (km/s) = 6.66843 7.50485 7.09897
#
# Compressibility (1/GPa) = 0.01719514
#
# Stress axis : x y z
#
# Youngs Moduli (GPa) = 83.80666 151.16349 164.17945
#
# Poissons Ratio (x) = 0.10967 0.10940
# Poissons Ratio (y) = 0.06080 0.38250
# Poissons Ratio (z) = 0.05585 0.35218
#
# Static dielectric constant tensor:
#      x y z
#    x 2.169830 0.000000 0.004780 
#    y 0.000000 2.250980 0.000000 
#    z 0.004780 0.000000 2.074970 
# 
# From -- ./inp_files/17713.got.cif
#   From: 2010.05.17/outbox.cif.g08.bks.cpg/sg14_9_cif.got.tgz:17713.got - 2010.06.03 17:49:19.
