data_PCOD9248163
_publ_section_title
;
Structure prediction by ZEFSAII (Michael W. Deem and Ramdas Pophale) SiO2 
 PCOD9248163
Probable space group: P 21/C
;
_chemical_formula_sum "Si O2"
_cell_formula_units_Z 28
_cell_length_a 16.979907
_cell_length_b 5.986898
_cell_length_c 14.449081
_cell_angle_alpha 90.000000
_cell_angle_beta 110.336005
_cell_angle_gamma 90.000000
_cell_volume 1377.297480
_symmetry_space_group_name_H-M "P 21/C"
_symmetry_group_IT_number 14
_symmetry_cell_setting 'monoclinic'
loop_
_space_group_symop_operation_xyz
x,y,z
-x,1/2+y,1/2-z
-x,-y,-z
x,1/2-y,1/2+z
loop_
_atom_site_type_symbol
_atom_site_label
_atom_site_fract_x
_atom_site_fract_y
_atom_site_fract_z
Si Si1 0.901193 0.029425 0.957688
Si Si2 0.205836 0.738208 0.233760
Si Si3 0.619063 0.454511 0.478801
Si Si4 0.211362 0.768365 0.451473
Si Si5 0.761738 0.851589 0.384435
Si Si6 0.631835 0.030786 0.789289
Si Si7 0.518221 0.318510 0.082563
O O1 0.841496 0.810386 0.934904
O O2 0.872155 0.161819 0.854399
O O3 0.870878 0.177758 0.031949
O O4 0.000000 0.000000 0.000000
O O5 0.199267 0.805134 0.337940
O O6 0.217415 0.484493 0.202515
O O7 0.289571 0.848256 0.225799
O O8 0.719062 0.430999 0.520184
O O9 0.601791 0.346527 0.370968
O O10 0.567339 0.680426 0.445055
O O11 0.585537 0.344360 0.559267
O O12 0.242776 0.973524 0.530320
O O13 0.676146 0.707609 0.332708
O O14 0.556297 0.060735 0.687071
O O15 0.500000 0.500000 0.000000
#
# Coordination Sequence:
#
# PCOD9248163 Si02
#       7
#     4   4   4   4   4   4   4
#     4  10  23  45  64 104 140 171 227 275 341 412
#     4  10  22  41  67 100 127 177 224 269 341 408
#     4  11  24  44  61  95 130 173 227 278 338 399
#     4  11  22  43  69  97 135 180 230 274 337 421
#     4  10  22  41  72  93 129 184 213 280 335 405
#     4  11  23  42  66  94 128 173 227 275 339 404
#     4  11  28  41  63  95 131 174 228 286 335 403
#
# _framework density 20.329668999999999
#
# number of rings (size 3 to 8) (size 9 to 14) (size 15 to 20)
#    0.000    1.429    5.714    0.000    6.000    4.571 
#    5.143    0.000    0.000    0.000    0.000    0.000 
#    0.000    0.000    0.000    0.000    0.000    0.000 
#
# Total GULP energy -155917.905763 kJ/mol
# GULP energy per Si atom -5568.496634 kJ/mol
# Density = 2.028340 g / cm^3
# Si number density = 20.329669 Si / 1000 Ang^3
#
#
#
# Elastic Constant Matrix: (Units=GPa)
#
#
# Indices 1 2 3 4 5 6 
#
# 1 95.1797 48.0485 27.9105 0.0000 6.9163 0.0000
# 2 48.0485 80.5992 30.9766 0.0000 2.7980 0.0000
# 3 27.9105 30.9766 107.0459 0.0000 -16.8902 0.0000
# 4 0.0000 0.0000 0.0000 22.1602 0.0000 0.9883
# 5 6.9163 2.7980 -16.8902 0.0000 38.0404 0.0000
# 6 0.0000 0.0000 0.0000 0.9883 0.0000 22.0983
#
#
#
# Elastic Compliance Matrix: (Units=1/GPa)
#
#
# Indices 1 2 3 4 5 6 
#
# 1 0.015584 -0.008356 -0.002146 0.000000 -0.003172 0.000000
# 2 -0.008356 0.018773 -0.003475 0.000000 -0.001405 0.000000
# 3 -0.002146 -0.003475 0.011838 0.000000 0.005902 0.000000
# 4 0.000000 0.000000 0.000000 0.045216 0.000000 -0.002022
# 5 -0.003172 -0.001405 0.005902 0.000000 0.029588 0.000000
# 6 0.000000 0.000000 0.000000 -0.002022 0.000000 0.045343
#
#
# Mechanical properties :
#
#
# Convention : Reuss Voigt Hill
#
# Bulk Modulus (GPa) = 54.82040 55.18842 55.00441
# Shear Modulus (GPa) = 24.95300 28.18572 26.56936
#
# Velocity S-wave (km/s) = 3.50725 3.72752 3.61906
# Velocity P-wave (km/s) = 6.58979 6.76251 6.67671
#
# Compressibility (1/GPa) = 0.01824138
#
# Stress axis : x y z
#
# Youngs Moduli (GPa) = 64.16752 53.26896 84.47193
#
# Poissons Ratio (x) = 0.44509 0.18126
# Poissons Ratio (y) = 0.53616 0.29358
# Poissons Ratio (z) = 0.13769 0.18513
#
# Static dielectric constant tensor:
#      x y z
#    x 1.614820 0.000000 -0.010270 
#    y 0.000000 1.802500 0.000000 
#    z -0.010270 0.000000 1.756910 
# 
# From -- ./inp_files/48218.got.cif
#   From: 2010.05.17/outbox.cif.g08.bks.cpg/sg14_25_cif.got.tgz:48218.got - 2010.06.03 17:49:19.
