data_PCOD9248079
_publ_section_title
;
Structure prediction by ZEFSAII (Michael W. Deem and Ramdas Pophale) SiO2 
 PCOD9248079
Probable space group: P 21/C
;
_chemical_formula_sum "Si O2"
_cell_formula_units_Z 20
_cell_length_a 6.399925
_cell_length_b 11.872371
_cell_length_c 19.067575
_cell_angle_alpha 90.000000
_cell_angle_beta 132.166649
_cell_angle_gamma 90.000000
_cell_volume 1073.842438
_symmetry_space_group_name_H-M "P 21/C"
_symmetry_group_IT_number 14
_symmetry_cell_setting 'monoclinic'
loop_
_space_group_symop_operation_xyz
x,y,z
-x,1/2+y,1/2-z
-x,-y,-z
x,1/2-y,1/2+z
loop_
_atom_site_type_symbol
_atom_site_label
_atom_site_fract_x
_atom_site_fract_y
_atom_site_fract_z
Si Si1 0.372485 0.131945 0.254737
Si Si2 0.146463 0.368054 0.254737
Si Si3 0.221011 0.547520 0.604989
Si Si4 0.698944 0.952481 0.604989
Si Si5 0.934659 0.250000 0.342330
O O1 0.204730 0.249999 0.227365
O O2 0.413942 0.076479 0.341588
O O3 0.660058 0.171751 0.282833
O O4 0.233905 0.040267 0.172641
O O5 0.452412 0.423520 0.341589
O O6 0.956659 0.459733 0.172641
O O7 0.971270 0.328249 0.282832
O O8 0.094836 0.666867 0.599896
O O9 0.000000 0.500000 0.500000
O O10 0.804749 0.833133 0.599897
O O11 0.500000 0.000000 0.500000
#
# Coordination Sequence:
#
# PCOD9248079 Si02
#       5
#     4   4   4   4   4
#     4  10  22  41  64  92 130 165 211 264 314 373
#     4  10  22  41  64  92 130 165 211 264 314 373
#     4  11  23  41  66  93 126 170 212 261 318 377
#     4  11  23  41  66  93 126 170 212 261 318 377
#     4  10  22  42  62  94 132 162 214 260 316 384
#
# _framework density 18.624704999999999
#
# number of rings (size 3 to 8) (size 9 to 14) (size 15 to 20)
#    0.000    1.600    4.000    0.000    0.000    8.000 
#    0.000    0.000    0.000    0.000    0.000    0.000 
#    0.000    0.000    0.000    0.000    0.000    0.000 
#
# Total GULP energy -111419.521155 kJ/mol
# GULP energy per Si atom -5570.976058 kJ/mol
# Density = 1.858231 g / cm^3
# Si number density = 18.624705 Si / 1000 Ang^3
#
#
#
# Elastic Constant Matrix: (Units=GPa)
#
#
# Indices 1 2 3 4 5 6 
#
# 1 90.5616 29.9015 53.9513 0.0000 -0.2592 0.0000
# 2 29.9015 112.8514 69.7081 0.0000 0.6327 0.0000
# 3 53.9513 69.7081 140.4222 0.0000 1.0515 0.0000
# 4 0.0000 0.0000 0.0000 28.9037 0.0000 -0.1372
# 5 -0.2592 0.6327 1.0515 0.0000 10.1805 0.0000
# 6 0.0000 0.0000 0.0000 -0.1372 0.0000 37.5294
#
#
#
# Elastic Compliance Matrix: (Units=1/GPa)
#
#
# Indices 1 2 3 4 5 6 
#
# 1 0.014354 -0.000574 -0.005237 0.000000 0.000942 0.000000
# 2 -0.000574 0.012803 -0.006134 0.000000 -0.000177 0.000000
# 3 -0.005237 -0.006134 0.012186 0.000000 -0.001011 0.000000
# 4 0.000000 0.000000 0.000000 0.034598 0.000000 0.000126
# 5 0.000942 -0.000177 -0.001011 0.000000 0.098366 0.000000
# 6 0.000000 0.000000 0.000000 0.000126 0.000000 0.026646
#
#
# Mechanical properties :
#
#
# Convention : Reuss Voigt Hill
#
# Bulk Modulus (GPa) = 64.70881 72.32855 68.51868
# Shear Modulus (GPa) = 21.93022 28.00768 24.96895
#
# Velocity S-wave (km/s) = 3.43517 3.88208 3.66544
# Velocity P-wave (km/s) = 7.11005 7.68200 7.40155
#
# Compressibility (1/GPa) = 0.01545385
#
# Stress axis : x y z
#
# Youngs Moduli (GPa) = 69.66496 78.10584 82.05970
#
# Poissons Ratio (x) = 0.04480 0.42978
# Poissons Ratio (y) = 0.03995 0.50336
# Poissons Ratio (z) = 0.36486 0.47910
#
# Static dielectric constant tensor:
#      x y z
#    x 1.697490 0.000000 0.000080 
#    y 0.000000 1.677760 0.000000 
#    z 0.000080 0.000000 1.702840 
# 
# From -- ./inp_files/32098.got.cif
#   From: 2010.05.17/outbox.cif.g08.bks.cpg/sg14_17_cif.got.tgz:32098.got - 2010.06.03 17:49:19.
