data_PCOD9248211
_publ_section_title
;
Structure prediction by ZEFSAII (Michael W. Deem and Ramdas Pophale) SiO2 
 PCOD9248211
Probable space group: P 21/C
;
_chemical_formula_sum "Si O2"
_cell_formula_units_Z 28
_cell_length_a 7.695715
_cell_length_b 21.653201
_cell_length_c 13.320154
_cell_angle_alpha 90.000000
_cell_angle_beta 143.213086
_cell_angle_gamma 90.000000
_cell_volume 1329.203998
_symmetry_space_group_name_H-M "P 21/C"
_symmetry_group_IT_number 14
_symmetry_cell_setting 'monoclinic'
loop_
_space_group_symop_operation_xyz
x,y,z
-x,1/2+y,1/2-z
-x,-y,-z
x,1/2-y,1/2+z
loop_
_atom_site_type_symbol
_atom_site_label
_atom_site_fract_x
_atom_site_fract_y
_atom_site_fract_z
Si Si1 0.214428 0.802296 0.357425
Si Si2 0.442695 0.187335 0.903313
Si Si3 0.831040 0.547871 0.052357
Si Si4 0.459836 0.579640 0.079761
Si Si5 0.527460 0.147643 0.728450
Si Si6 0.544531 0.066325 0.070224
Si Si7 0.096461 0.428659 0.535906
O O1 0.336060 0.739756 0.460494
O O2 0.292415 0.859604 0.466703
O O3 0.372644 0.815018 0.324193
O O4 0.868346 0.799716 0.190201
O O5 0.409485 0.186176 0.767562
O O6 0.554434 0.120983 0.994119
O O7 0.654538 0.560312 0.073915
O O8 0.164314 0.561782 0.229335
O O9 0.757125 0.476675 0.993678
O O10 0.698064 0.594918 0.910373
O O11 0.684399 0.588518 0.273851
O O12 0.814280 0.113135 0.900504
O O13 0.270031 0.078610 0.013229
O O14 0.500000 0.000000 0.000000
O O15 0.000000 0.500000 0.500000
#
# Coordination Sequence:
#
# PCOD9248211 Si02
#       7
#     4   4   4   4   4   4   4
#     4  11  28  48  69 104 142 191 237 296 353 435
#     4  12  28  49  73 103 146 187 246 294 363 431
#     4  10  22  41  71 103 133 184 234 297 350 425
#     4  10  22  41  69  97 145 179 235 286 363 418
#     4  11  25  47  73 101 145 187 240 294 362 425
#     4  12  26  43  71 107 144 182 245 297 359 428
#     4  12  23  42  69 106 144 189 232 295 361 421
#
# _framework density 21.065241
#
# number of rings (size 3 to 8) (size 9 to 14) (size 15 to 20)
#    0.000    0.857    2.857    3.429   10.000    2.857 
#    0.000    0.000    0.000    0.000    0.000    0.000 
#    0.000    0.000    0.000    0.000    0.000    0.000 
#
# Total GULP energy -156763.179206 kJ/mol
# GULP energy per Si atom -5598.684972 kJ/mol
# Density = 2.101730 g / cm^3
# Si number density = 21.065241 Si / 1000 Ang^3
#
#
#
# Elastic Constant Matrix: (Units=GPa)
#
#
# Indices 1 2 3 4 5 6 
#
# 1 74.9745 34.7133 25.3856 0.0000 -6.3374 0.0000
# 2 34.7133 108.1591 32.6387 0.0000 -9.8465 0.0000
# 3 25.3856 32.6387 98.8936 0.0000 0.2904 0.0000
# 4 0.0000 0.0000 0.0000 38.1489 0.0000 -2.3448
# 5 -6.3374 -9.8465 0.2904 0.0000 42.1848 0.0000
# 6 0.0000 0.0000 0.0000 -2.3448 0.0000 20.5458
#
#
#
# Elastic Compliance Matrix: (Units=1/GPa)
#
#
# Indices 1 2 3 4 5 6 
#
# 1 0.016393 -0.004282 -0.002799 0.000000 0.001483 0.000000
# 2 -0.004282 0.011640 -0.002749 0.000000 0.002093 0.000000
# 3 -0.002799 -0.002749 0.011741 0.000000 -0.001143 0.000000
# 4 0.000000 0.000000 0.000000 0.026398 0.000000 0.003013
# 5 0.001483 0.002093 -0.001143 0.000000 0.024424 0.000000
# 6 0.000000 0.000000 0.000000 0.003013 0.000000 0.049015
#
#
# Mechanical properties :
#
#
# Convention : Reuss Voigt Hill
#
# Bulk Modulus (GPa) = 49.71456 51.94471 50.82963
# Shear Modulus (GPa) = 30.12474 32.79520 31.45997
#
# Velocity S-wave (km/s) = 3.78573 3.94996 3.86872
# Velocity P-wave (km/s) = 6.53915 6.74651 6.64364
#
# Compressibility (1/GPa) = 0.02011483
#
# Stress axis : x y z
#
# Youngs Moduli (GPa) = 60.99992 85.91233 85.17182
#
# Poissons Ratio (x) = 0.36785 0.23843
# Poissons Ratio (y) = 0.26118 0.23410
# Poissons Ratio (z) = 0.17076 0.23614
#
# Static dielectric constant tensor:
#      x y z
#    x 1.768200 0.000000 -0.009220 
#    y 0.000000 1.759370 0.000000 
#    z -0.009220 0.000000 1.717040 
# 
# From -- ./inp_files/16933.got.cif
#   From: 2010.05.17/outbox.cif.g08.bks.cpg/sg14_9_cif.got.tgz:16933.got - 2010.06.03 17:49:19.
