data_PCOD9248549
_publ_section_title
;
Structure prediction by ZEFSAII (Michael W. Deem and Ramdas Pophale) SiO2 
 PCOD9248549
Probable space group: P 21/C
;
_chemical_formula_sum "Si O2"
_cell_formula_units_Z 32
_cell_length_a 16.817731
_cell_length_b 7.418743
_cell_length_c 28.110435
_cell_angle_alpha 90.000000
_cell_angle_beta 157.616644
_cell_angle_gamma 90.000000
_cell_volume 1335.562670
_symmetry_space_group_name_H-M "P 21/C"
_symmetry_group_IT_number 14
_symmetry_cell_setting 'monoclinic'
loop_
_space_group_symop_operation_xyz
x,y,z
-x,1/2+y,1/2-z
-x,-y,-z
x,1/2-y,1/2+z
loop_
_atom_site_type_symbol
_atom_site_label
_atom_site_fract_x
_atom_site_fract_y
_atom_site_fract_z
Si Si1 0.714563 0.370819 0.561884
Si Si2 0.403394 0.979792 0.102863
Si Si3 0.374940 0.126882 0.546556
Si Si4 0.304314 0.371030 0.641655
Si Si5 0.126715 0.242564 0.325688
Si Si6 0.831412 0.749971 0.840726
Si Si7 0.746092 0.030518 0.422616
Si Si8 0.675127 0.621278 0.156848
O O1 0.730831 0.396704 0.514072
O O2 0.755366 0.565774 0.607606
O O3 0.489520 0.283077 0.442176
O O4 0.885723 0.241624 0.679274
O O5 0.446871 0.185132 0.109689
O O6 0.277513 0.994989 0.082527
O O7 0.621042 0.873982 0.228770
O O8 0.326291 0.991009 0.562475
O O9 0.543498 0.048830 0.602860
O O10 0.169734 0.162320 0.401505
O O11 0.197141 0.398590 0.633406
O O12 0.554249 0.377907 0.788771
O O13 0.235116 0.173219 0.586436
O O14 0.209878 0.114784 0.329458
O O15 0.819946 0.828541 0.781514
O O16 0.036507 0.631795 0.961546
#
# Coordination Sequence:
#
# PCOD9248549 Si02
#       8
#     4   4   4   4   4   4   4   4
#     4  10  23  42  64  93 130 165 219 258 325 382
#     4   9  22  42  62  94 131 166 208 269 316 380
#     4  10  22  43  61  94 132 163 213 272 315 373
#     4  11  21  42  66  90 130 163 210 266 315 373
#     4  11  23  41  65  94 125 174 209 262 328 381
#     4  11  23  40  67  93 125 176 212 253 333 394
#     4  11  24  42  66  92 126 170 214 260 320 388
#     4  11  23  40  65  93 128 166 213 269 316 383
#
# _framework density 23.959938999999999
#
# number of rings (size 3 to 8) (size 9 to 14) (size 15 to 20)
#    0.000    1.500    2.500    1.875    3.500    0.000 
#    6.750    0.625    0.000    0.000    0.000    0.000 
#    0.000    0.000    0.000    0.000    0.000    0.000 
#
# Total GULP energy -179083.624189 kJ/mol
# GULP energy per Si atom -5596.363256 kJ/mol
# Density = 2.390541 g / cm^3
# Si number density = 23.959939 Si / 1000 Ang^3
#
#
#
# Elastic Constant Matrix: (Units=GPa)
#
#
# Indices 1 2 3 4 5 6 
#
# 1 124.0554 27.6360 35.4055 0.0000 -21.1836 0.0000
# 2 27.6360 66.3772 17.7262 0.0000 -12.4385 0.0000
# 3 35.4055 17.7262 109.9662 0.0000 -21.2251 0.0000
# 4 0.0000 0.0000 0.0000 29.9613 0.0000 -11.0847
# 5 -21.1836 -12.4385 -21.2251 0.0000 30.2118 0.0000
# 6 0.0000 0.0000 0.0000 -11.0847 0.0000 33.0151
#
#
#
# Elastic Compliance Matrix: (Units=1/GPa)
#
#
# Indices 1 2 3 4 5 6 
#
# 1 0.010000 -0.002810 -0.001893 0.000000 0.004525 0.000000
# 2 -0.002810 0.017344 -0.001033 0.000000 0.004445 0.000000
# 3 -0.001893 -0.001033 0.011027 0.000000 0.005994 0.000000
# 4 0.000000 0.000000 0.000000 0.038110 0.000000 0.012795
# 5 0.004525 0.004445 0.005994 0.000000 0.042313 0.000000
# 6 0.000000 0.000000 0.000000 0.012795 0.000000 0.034585
#
#
# Mechanical properties :
#
#
# Convention : Reuss Voigt Hill
#
# Bulk Modulus (GPa) = 37.17790 51.32601 44.25195
# Shear Modulus (GPa) = 28.76571 33.27971 31.02271
#
# Velocity S-wave (km/s) = 3.46869 3.73094 3.60220
# Velocity P-wave (km/s) = 5.62075 6.32676 5.98418
#
# Compressibility (1/GPa) = 0.02689770
#
# Stress axis : x y z
#
# Youngs Moduli (GPa) = 100.00134 57.65638 90.68847
#
# Poissons Ratio (x) = 0.16201 0.17171
# Poissons Ratio (y) = 0.28100 0.09370
# Poissons Ratio (z) = 0.18934 0.05957
#
# Static dielectric constant tensor:
#      x y z
#    x 1.922610 0.000000 -0.007280 
#    y 0.000000 1.926720 0.000000 
#    z -0.007280 0.000000 1.875740 
# 
# From -- ./inp_files/80411.got.cif
#   From: 2010.05.17/outbox.cif.g08.bks.cpg/sg14_41_cif.got.tgz:80411.got - 2010.06.03 17:49:19.
