data_PCOD9248744
_publ_section_title
;
Structure prediction by ZEFSAII (Michael W. Deem and Ramdas Pophale) SiO2 
 PCOD9248744
Probable space group: P 21/C
;
_chemical_formula_sum "Si O2"
_cell_formula_units_Z 30
_cell_length_a 8.797555
_cell_length_b 13.422530
_cell_length_c 11.514237
_cell_angle_alpha 90.000000
_cell_angle_beta 123.222202
_cell_angle_gamma 90.000000
_cell_volume 1137.429577
_symmetry_space_group_name_H-M "P 21/C"
_symmetry_group_IT_number 14
_symmetry_cell_setting 'monoclinic'
loop_
_space_group_symop_operation_xyz
x,y,z
-x,1/2+y,1/2-z
-x,-y,-z
x,1/2-y,1/2+z
loop_
_atom_site_type_symbol
_atom_site_label
_atom_site_fract_x
_atom_site_fract_y
_atom_site_fract_z
Si Si1 0.821710 0.328733 0.659679
Si Si2 0.829375 0.844694 0.233010
Si Si3 0.410801 0.339970 0.571653
Si Si4 0.590409 0.630986 0.839554
Si Si5 0.361649 0.133891 0.315743
Si Si6 0.500000 0.000000 0.500000
Si Si7 0.178469 0.810850 0.112948
Si Si8 0.928927 0.476978 0.269162
O O1 0.607001 0.346630 0.593756
O O2 0.853049 0.290162 0.537441
O O3 0.871716 0.267328 0.802187
O O4 0.936371 0.431433 0.698679
O O5 0.724774 0.893024 0.293522
O O6 0.769600 0.728505 0.221947
O O7 0.027124 0.891283 0.304821
O O8 0.735065 0.884594 0.076073
O O9 0.338393 0.227706 0.563314
O O10 0.402394 0.380239 0.698476
O O11 0.394596 0.669085 0.712829
O O12 0.578385 0.534739 0.908922
O O13 0.529103 0.126604 0.472190
O O14 0.269583 0.030178 0.327078
O O15 0.086304 0.915356 0.116157
#
# Coordination Sequence:
#
# PCOD9248744 Si02
#       8
#     4   4   4   4   4   2   4   4
#     4  11  26  46  74 107 144 190 247 305 363 437
#     4  11  24  46  71 104 143 183 242 300 354 435
#     4  10  23  43  75 100 133 183 241 295 353 426
#     4  10  22  43  73 103 133 181 240 300 356 420
#     4  11  26  46  73 106 140 191 237 302 369 428
#     4  12  22  44  78 100 138 180 248 306 362 426
#     4  11  24  48  72 103 145 188 244 302 369 431
#     4  12  27  45  69 104 149 193 237 294 370 450
#
# _framework density 26.375259
#
# number of rings (size 3 to 8) (size 9 to 14) (size 15 to 20)
#    0.000    1.067    4.000    1.200    5.600    0.533 
#    0.000    1.333    0.000    0.000    0.000    0.000 
#    0.000    0.000    0.000    0.000    0.000    0.000 
#
# Total GULP energy -167133.628553 kJ/mol
# GULP energy per Si atom -5571.120952 kJ/mol
# Density = 2.631523 g / cm^3
# Si number density = 26.375259 Si / 1000 Ang^3
#
#
#
# Elastic Constant Matrix: (Units=GPa)
#
#
# Indices 1 2 3 4 5 6 
#
# 1 161.8176 59.9077 69.8366 0.0000 -38.1271 0.0000
# 2 59.9077 120.2513 69.4485 0.0000 -31.2789 0.0000
# 3 69.8366 69.4485 129.9240 0.0000 -44.6778 0.0000
# 4 0.0000 0.0000 0.0000 47.6661 0.0000 -5.2483
# 5 -38.1271 -31.2789 -44.6778 0.0000 43.9526 0.0000
# 6 0.0000 0.0000 0.0000 -5.2483 0.0000 57.9283
#
#
#
# Elastic Compliance Matrix: (Units=1/GPa)
#
#
# Indices 1 2 3 4 5 6 
#
# 1 0.008857 -0.002064 -0.002338 0.000000 0.003838 0.000000
# 2 -0.002064 0.012794 -0.004941 0.000000 0.002292 0.000000
# 3 -0.002338 -0.004941 0.014894 0.000000 0.009596 0.000000
# 4 0.000000 0.000000 0.000000 0.021191 0.000000 0.001920
# 5 0.003838 0.002292 0.009596 0.000000 0.037466 0.000000
# 6 0.000000 0.000000 0.000000 0.001920 0.000000 0.017437
#
#
# Mechanical properties :
#
#
# Convention : Reuss Voigt Hill
#
# Bulk Modulus (GPa) = 55.99341 90.04204 73.01773
# Shear Modulus (GPa) = 36.42234 44.09608 40.25921
#
# Velocity S-wave (km/s) = 3.72012 4.09329 3.91116
# Velocity P-wave (km/s) = 6.30301 7.52017 6.93833
#
# Compressibility (1/GPa) = 0.01785924
#
# Stress axis : x y z
#
# Youngs Moduli (GPa) = 112.90273 78.16148 67.13903
#
# Poissons Ratio (x) = 0.16133 0.15696
# Poissons Ratio (y) = 0.23304 0.33176
# Poissons Ratio (z) = 0.26394 0.38622
#
# Static dielectric constant tensor:
#      x y z
#    x 2.225280 0.000000 0.233650 
#    y 0.000000 2.189350 0.000000 
#    z 0.233650 0.000000 2.433680 
# 
# From -- ./inp_files/25325.got.cif
#   From: 2010.05.17/outbox.cif.g08.bks.cpg/sg14_13_cif.got.tgz:25325.got - 2010.06.03 17:49:19.
