data_PCOD9248111
_publ_section_title
;
Structure prediction by ZEFSAII (Michael W. Deem and Ramdas Pophale) SiO2 
 PCOD9248111
Probable space group: P 21/C
;
_chemical_formula_sum "Si O2"
_cell_formula_units_Z 32
_cell_length_a 16.251732
_cell_length_b 5.150982
_cell_length_c 17.431271
_cell_angle_alpha 90.000000
_cell_angle_beta 91.836166
_cell_angle_gamma 90.000000
_cell_volume 1458.463908
_symmetry_space_group_name_H-M "P 21/C"
_symmetry_group_IT_number 14
_symmetry_cell_setting 'monoclinic'
loop_
_space_group_symop_operation_xyz
x,y,z
-x,1/2+y,1/2-z
-x,-y,-z
x,1/2-y,1/2+z
loop_
_atom_site_type_symbol
_atom_site_label
_atom_site_fract_x
_atom_site_fract_y
_atom_site_fract_z
Si Si1 0.250896 0.187817 0.226742
Si Si2 0.330560 0.532638 0.586098
Si Si3 0.113279 0.674295 0.362718
Si Si4 0.963620 0.547214 0.915466
Si Si5 0.836851 0.613376 0.491956
Si Si6 0.149304 0.822571 0.701821
Si Si7 0.595938 0.520392 0.986136
Si Si8 0.263993 0.474240 0.895202
O O1 0.179407 0.967853 0.219092
O O2 0.273107 0.192134 0.317570
O O3 0.319431 0.067523 0.172477
O O4 0.223384 0.469078 0.194273
O O5 0.237313 0.550587 0.548094
O O6 0.375155 0.804204 0.574187
O O7 0.378065 0.306294 0.541527
O O8 0.106368 0.514484 0.440964
O O9 0.107471 0.559028 0.277857
O O10 0.206245 0.783725 0.372012
O O11 0.041132 0.882093 0.366009
O O12 0.912362 0.327870 0.870899
O O13 0.894771 0.764830 0.929550
O O14 0.000000 0.500000 0.000000
O O15 0.788354 0.830225 0.540180
O O16 0.500000 0.500000 0.000000
O O17 0.649438 0.460196 0.064107
#
# Coordination Sequence:
#
# PCOD9248111 Si02
#       8
#     4   4   4   4   4   4   4   4
#     4  11  23  43  68  95 127 176 220 263 319 391
#     4  11  23  41  71  96 134 167 216 259 324 392
#     4  11  23  41  62  87 129 177 222 274 330 378
#     4  12  26  39  62  94 131 175 232 284 327 378
#     4  11  21  39  65  91 125 175 222 272 322 385
#     4  11  26  43  61  91 133 177 223 271 326 378
#     4  11  24  44  71 104 133 164 207 266 327 397
#     4  10  22  41  65  91 129 171 213 263 326 393
#
# _framework density 21.940894
#
# number of rings (size 3 to 8) (size 9 to 14) (size 15 to 20)
#    0.000    1.000    5.000    1.500    3.500    4.000 
#    0.000    1.250    0.000    0.000    0.000    0.000 
#    0.000    0.000    0.000    0.000    0.000    0.000 
#
# Total GULP energy -178804.337972 kJ/mol
# GULP energy per Si atom -5587.635562 kJ/mol
# Density = 2.189096 g / cm^3
# Si number density = 21.940894 Si / 1000 Ang^3
#
#
#
# Elastic Constant Matrix: (Units=GPa)
#
#
# Indices 1 2 3 4 5 6 
#
# 1 119.1779 19.6984 30.8248 0.0000 3.1180 0.0000
# 2 19.6984 63.3849 5.3212 0.0000 2.6011 0.0000
# 3 30.8248 5.3212 85.2184 0.0000 2.7329 0.0000
# 4 0.0000 0.0000 0.0000 34.8682 0.0000 -5.3730
# 5 3.1180 2.6011 2.7329 0.0000 18.9426 0.0000
# 6 0.0000 0.0000 0.0000 -5.3730 0.0000 28.0184
#
#
#
# Elastic Compliance Matrix: (Units=1/GPa)
#
#
# Indices 1 2 3 4 5 6 
#
# 1 0.009718 -0.002710 -0.003322 0.000000 -0.000748 0.000000
# 2 -0.002710 0.016695 -0.000003 0.000000 -0.001846 0.000000
# 3 -0.003322 -0.000003 0.012979 0.000000 -0.001325 0.000000
# 4 0.000000 0.000000 0.000000 0.029553 0.000000 0.005667
# 5 -0.000748 -0.001846 -0.001325 0.000000 0.053359 0.000000
# 6 0.000000 0.000000 0.000000 0.005667 0.000000 0.036778
#
#
# Mechanical properties :
#
#
# Convention : Reuss Voigt Hill
#
# Bulk Modulus (GPa) = 36.60159 42.16332 39.38246
# Shear Modulus (GPa) = 27.73807 30.49495 29.11651
#
# Velocity S-wave (km/s) = 3.55944 3.73214 3.64681
# Velocity P-wave (km/s) = 5.79750 6.15063 5.97667
#
# Compressibility (1/GPa) = 0.02732122
#
# Stress axis : x y z
#
# Youngs Moduli (GPa) = 102.90675 59.89837 77.04893
#
# Poissons Ratio (x) = 0.16235 0.25594
# Poissons Ratio (y) = 0.27892 0.00022
# Poissons Ratio (z) = 0.34183 0.00017
#
# Static dielectric constant tensor:
#      x y z
#    x 1.808850 0.000000 -0.027960 
#    y 0.000000 1.885970 0.000000 
#    z -0.027960 0.000000 1.891120 
# 
# From -- ./inp_files/58467.got.cif
#   From: 2010.05.17/outbox.cif.g08.bks.cpg/sg14_30_cif.got.tgz:58467.got - 2010.06.03 17:49:19.
