data_PCOD9248181
_publ_section_title
;
Structure prediction by ZEFSAII (Michael W. Deem and Ramdas Pophale) SiO2 
 PCOD9248181
Probable space group: P 21/C
;
_chemical_formula_sum "Si O2"
_cell_formula_units_Z 32
_cell_length_a 33.595628
_cell_length_b 5.019788
_cell_length_c 17.847327
_cell_angle_alpha 90.000000
_cell_angle_beta 156.047603
_cell_angle_gamma 90.000000
_cell_volume 1221.921449
_symmetry_space_group_name_H-M "P 21/C"
_symmetry_group_IT_number 14
_symmetry_cell_setting 'monoclinic'
loop_
_space_group_symop_operation_xyz
x,y,z
-x,1/2+y,1/2-z
-x,-y,-z
x,1/2-y,1/2+z
loop_
_atom_site_type_symbol
_atom_site_label
_atom_site_fract_x
_atom_site_fract_y
_atom_site_fract_z
Si Si1 0.733434 0.913921 0.763599
Si Si2 0.526689 0.424575 0.632957
Si Si3 0.942592 0.370509 0.671337
Si Si4 0.886203 0.570750 0.792411
Si Si5 0.664573 0.412269 0.301750
Si Si6 0.350474 0.919883 0.940212
Si Si7 0.692641 0.727331 0.491928
Si Si8 0.155859 0.915982 0.363336
O O1 0.669273 0.958827 0.728808
O O2 0.679433 0.111264 0.611955
O O3 0.732628 0.607577 0.739681
O O4 0.841407 0.017731 0.964134
O O5 0.500000 0.500000 0.500000
O O6 0.563595 0.131830 0.672930
O O7 0.440136 0.509787 0.539092
O O8 0.620870 0.536816 0.842099
O O9 0.916068 0.236205 0.704444
O O10 0.013207 0.623777 0.798519
O O11 0.808580 0.720081 0.715884
O O12 0.845919 0.267753 0.713514
O O13 0.884791 0.793415 0.723136
O O14 0.000000 0.500000 0.000000
O O15 0.713247 0.603978 0.445265
O O16 0.734289 0.148795 0.415439
O O17 0.363169 0.043522 0.044192
#
# Coordination Sequence:
#
# PCOD9248181 Si02
#       8
#     4   4   4   4   4   4   4   4
#     4  11  26  48  70 107 148 192 252 309 371 464
#     4  12  25  46  77 103 142 198 256 297 378 458
#     4  11  23  41  71 103 140 190 244 314 383 438
#     4  11  23  43  69 100 139 198 242 296 370 449
#     4  10  23  45  74  98 144 193 253 302 364 448
#     4  12  29  44  72 109 153 193 241 317 391 445
#     4  11  28  45  72 109 154 193 251 323 377 446
#     4  10  22  41  67  99 138 182 246 307 353 436
#
# _framework density 26.188264
#
# number of rings (size 3 to 8) (size 9 to 14) (size 15 to 20)
#    0.000    1.000    2.500    2.625    5.250    6.000 
#    0.000    0.000    0.000    0.000    0.000    0.000 
#    0.000    0.000    0.000    0.000    0.000    0.000 
#
# Total GULP energy -178262.510896 kJ/mol
# GULP energy per Si atom -5570.703466 kJ/mol
# Density = 2.612866 g / cm^3
# Si number density = 26.188264 Si / 1000 Ang^3
#
#
#
# Elastic Constant Matrix: (Units=GPa)
#
#
# Indices 1 2 3 4 5 6 
#
# 1 103.1903 1.6479 21.2570 0.0000 6.8305 0.0000
# 2 1.6479 86.7380 18.5968 0.0000 2.5896 0.0000
# 3 21.2570 18.5968 99.2921 0.0000 21.2179 0.0000
# 4 0.0000 0.0000 0.0000 39.5713 0.0000 -1.5270
# 5 6.8305 2.5896 21.2179 0.0000 46.5686 0.0000
# 6 0.0000 0.0000 0.0000 -1.5270 0.0000 35.3293
#
#
#
# Elastic Compliance Matrix: (Units=1/GPa)
#
#
# Indices 1 2 3 4 5 6 
#
# 1 0.010157 0.000276 -0.002110 0.000000 -0.000544 0.000000
# 2 0.000276 0.012025 -0.002393 0.000000 0.000381 0.000000
# 3 -0.002110 -0.002393 0.012050 0.000000 -0.005048 0.000000
# 4 0.000000 0.000000 0.000000 0.025313 0.000000 0.001094
# 5 -0.000544 0.000381 -0.005048 0.000000 0.023832 0.000000
# 6 0.000000 0.000000 0.000000 0.001094 0.000000 0.028352
#
#
# Mechanical properties :
#
#
# Convention : Reuss Voigt Hill
#
# Bulk Modulus (GPa) = 38.79240 41.35821 40.07531
# Shear Modulus (GPa) = 38.82694 40.80840 39.81767
#
# Velocity S-wave (km/s) = 3.85464 3.95178 3.90351
# Velocity P-wave (km/s) = 5.88694 6.05384 5.97097
#
# Compressibility (1/GPa) = 0.02577825
#
# Stress axis : x y z
#
# Youngs Moduli (GPa) = 98.45361 83.15758 82.98907
#
# Poissons Ratio (x) = -0.02292 0.17510
# Poissons Ratio (y) = -0.02714 0.19857
# Poissons Ratio (z) = 0.20773 0.19897
#
# Static dielectric constant tensor:
#      x y z
#    x 2.150460 0.000000 -0.035610 
#    y 0.000000 2.159240 0.000000 
#    z -0.035610 0.000000 2.434070 
# 
# From -- ./inp_files/62506.got.cif
#   From: 2010.05.17/outbox.cif.g08.bks.cpg/sg14_32_cif.got.tgz:62506.got - 2010.06.03 17:49:19.
