data_PCOD9248790
_publ_section_title
;
Structure prediction by ZEFSAII (Michael W. Deem and Ramdas Pophale) SiO2 
 PCOD9248790
Probable space group: P 21/C
;
_chemical_formula_sum "Si O2"
_cell_formula_units_Z 16
_cell_length_a 6.748338
_cell_length_b 19.181913
_cell_length_c 7.820375
_cell_angle_alpha 90.000000
_cell_angle_beta 139.838165
_cell_angle_gamma 90.000000
_cell_volume 652.892298
_symmetry_space_group_name_H-M "P 21/C"
_symmetry_group_IT_number 14
_symmetry_cell_setting 'monoclinic'
loop_
_space_group_symop_operation_xyz
x,y,z
-x,1/2+y,1/2-z
-x,-y,-z
x,1/2-y,1/2+z
loop_
_atom_site_type_symbol
_atom_site_label
_atom_site_fract_x
_atom_site_fract_y
_atom_site_fract_z
Si Si1 0.681048 0.538924 0.268670
Si Si2 0.551033 0.836520 0.208338
Si Si3 0.540098 0.684916 0.090339
Si Si4 0.197729 0.611801 0.152022
O O1 0.427599 0.548779 0.252280
O O2 0.000000 0.500000 0.500000
O O3 0.757227 0.619096 0.272697
O O4 0.500000 0.500000 0.000000
O O5 0.663191 0.760921 0.213651
O O6 0.831696 0.891464 0.404861
O O7 0.309369 0.860778 0.908035
O O8 0.442086 0.822956 0.329614
O O9 0.273785 0.667157 0.050476
#
# Coordination Sequence:
#
# PCOD9248790 Si02
#       4
#     4   4   4   4
#     4  10  22  44  66  89 132 175 212 262 316 377
#     4  12  23  42  65 101 126 165 217 264 340 372
#     4  10  25  40  70  93 134 168 211 273 323 383
#     4  10  26  40  66  95 132 164 214 267 318 382
#
# _framework density 24.506336999999998
#
# number of rings (size 3 to 8) (size 9 to 14) (size 15 to 20)
#    1.500    0.000    2.500    1.500    3.500    6.000 
#    0.000    7.500    0.000    0.000    0.000    0.000 
#    0.000    0.000    0.000    0.000    0.000    0.000 
#
# Total GULP energy -89304.631354 kJ/mol
# GULP energy per Si atom -5581.539460 kJ/mol
# Density = 2.445056 g / cm^3
# Si number density = 24.506337 Si / 1000 Ang^3
#
#
#
# Elastic Constant Matrix: (Units=GPa)
#
#
# Indices 1 2 3 4 5 6 
#
# 1 112.3517 9.5588 65.2817 0.0000 -21.8706 0.0000
# 2 9.5588 107.4795 36.8432 0.0000 9.0014 0.0000
# 3 65.2817 36.8432 140.4273 0.0000 -18.0058 0.0000
# 4 0.0000 0.0000 0.0000 34.0329 0.0000 0.6618
# 5 -21.8706 9.0014 -18.0058 0.0000 41.8782 0.0000
# 6 0.0000 0.0000 0.0000 0.6618 0.0000 27.4011
#
#
#
# Elastic Compliance Matrix: (Units=1/GPa)
#
#
# Indices 1 2 3 4 5 6 
#
# 1 0.012935 0.000401 -0.005571 0.000000 0.004274 0.000000
# 2 0.000401 0.010759 -0.003470 0.000000 -0.003595 0.000000
# 3 -0.005571 -0.003470 0.010947 0.000000 0.002544 0.000000
# 4 0.000000 0.000000 0.000000 0.029397 0.000000 -0.000710
# 5 0.004274 -0.003595 0.002544 0.000000 0.027977 0.000000
# 6 0.000000 0.000000 0.000000 -0.000710 0.000000 0.036512
#
#
# Mechanical properties :
#
#
# Convention : Reuss Voigt Hill
#
# Bulk Modulus (GPa) = 57.59569 64.84732 61.22150
# Shear Modulus (GPa) = 32.98264 37.23410 35.10837
#
# Velocity S-wave (km/s) = 3.67261 3.90213 3.78911
# Velocity P-wave (km/s) = 6.44495 6.84259 6.64675
#
# Compressibility (1/GPa) = 0.01736241
#
# Stress axis : x y z
#
# Youngs Moduli (GPa) = 77.30828 92.94458 91.34595
#
# Poissons Ratio (x) = -0.03729 0.50885
# Poissons Ratio (y) = -0.03102 0.31700
# Poissons Ratio (z) = 0.43065 0.32255
#
# Static dielectric constant tensor:
#      x y z
#    x 1.968790 0.000000 0.004060 
#    y 0.000000 1.986570 0.000000 
#    z 0.004060 0.000000 1.862320 
# 
# From -- ./inp_files/5249.got.cif
#   From: 2010.05.17/outbox.cif.g08.bks.cpg/sg14_3_cif.got.tgz:5249.got - 2010.06.03 17:49:19.
