data_PCOD9248331
_publ_section_title
;
Structure prediction by ZEFSAII (Michael W. Deem and Ramdas Pophale) SiO2 
 PCOD9248331
Probable space group: P 21/C
;
_chemical_formula_sum "Si O2"
_cell_formula_units_Z 26
_cell_length_a 8.506144
_cell_length_b 8.330010
_cell_length_c 19.943937
_cell_angle_alpha 90.000000
_cell_angle_beta 60.437226
_cell_angle_gamma 90.000000
_cell_volume 1229.182514
_symmetry_space_group_name_H-M "P 21/C"
_symmetry_group_IT_number 14
_symmetry_cell_setting 'monoclinic'
loop_
_space_group_symop_operation_xyz
x,y,z
-x,1/2+y,1/2-z
-x,-y,-z
x,1/2-y,1/2+z
loop_
_atom_site_type_symbol
_atom_site_label
_atom_site_fract_x
_atom_site_fract_y
_atom_site_fract_z
Si Si1 0.853963 0.192193 0.290637
Si Si2 0.908016 0.644612 0.978588
Si Si3 0.490963 0.056713 0.425856
Si Si4 0.246097 0.507784 0.321603
Si Si5 0.562576 0.158580 0.686932
Si Si6 0.000000 0.500000 0.500000
Si Si7 0.902425 0.022012 0.686296
O O1 0.869501 0.368777 0.258231
O O2 0.664637 0.159311 0.367669
O O3 0.847805 0.078267 0.225773
O O4 0.018318 0.144547 0.304435
O O5 0.943493 0.601672 0.893178
O O6 0.696942 0.651817 0.039938
O O7 0.999879 0.811957 0.975742
O O8 0.000000 0.500000 0.000000
O O9 0.480197 0.903951 0.378389
O O10 0.500000 0.000000 0.500000
O O11 0.364456 0.661054 0.323135
O O12 0.387543 0.372180 0.269107
O O13 0.110749 0.452315 0.407210
O O14 0.720516 0.041206 0.681962
#
# Coordination Sequence:
#
# PCOD9248331 Si02
#       7
#     4   4   4   4   4   2   4
#     4  10  23  41  63  94 134 173 227 282 339 418
#     4  12  24  44  70 102 136 185 232 292 352 417
#     4  11  22  41  71  97 133 183 227 286 353 417
#     4  10  23  42  64  99 129 174 227 280 343 408
#     4  10  22  42  65  97 129 173 231 272 348 421
#     4  12  24  42  72 102 138 174 240 288 338 428
#     4  11  22  43  60  98 134 174 239 271 352 422
#
# _framework density 21.152270000000001
#
# number of rings (size 3 to 8) (size 9 to 14) (size 15 to 20)
#    0.000    1.231    6.154    0.000    6.462    3.692 
#    2.769    0.000    0.000    5.538    0.000    0.000 
#    0.000    0.000    0.000    0.000    0.000    0.000 
#
# Total GULP energy -144808.003253 kJ/mol
# GULP energy per Si atom -5569.538587 kJ/mol
# Density = 2.110413 g / cm^3
# Si number density = 21.152270 Si / 1000 Ang^3
#
#
#
# Elastic Constant Matrix: (Units=GPa)
#
#
# Indices 1 2 3 4 5 6 
#
# 1 59.3334 17.3526 27.4997 0.0000 0.1294 0.0000
# 2 17.3526 55.2420 8.7987 0.0000 17.8703 0.0000
# 3 27.4997 8.7987 161.8238 0.0000 -4.6893 0.0000
# 4 0.0000 0.0000 0.0000 27.0708 0.0000 1.3258
# 5 0.1294 17.8703 -4.6893 0.0000 24.8866 0.0000
# 6 0.0000 0.0000 0.0000 1.3258 0.0000 25.7604
#
#
#
# Elastic Compliance Matrix: (Units=1/GPa)
#
#
# Indices 1 2 3 4 5 6 
#
# 1 0.020378 -0.007455 -0.002922 0.000000 0.004697 0.000000
# 2 -0.007455 0.026830 -0.000753 0.000000 -0.019369 0.000000
# 3 -0.002922 -0.000753 0.006770 0.000000 0.001832 0.000000
# 4 0.000000 0.000000 0.000000 0.037033 0.000000 -0.001906
# 5 0.004697 -0.019369 0.001832 0.000000 0.054411 0.000000
# 6 0.000000 0.000000 0.000000 -0.001906 0.000000 0.038917
#
#
# Mechanical properties :
#
#
# Convention : Reuss Voigt Hill
#
# Bulk Modulus (GPa) = 31.52791 42.63346 37.08068
# Shear Modulus (GPa) = 23.02325 30.39345 26.70835
#
# Velocity S-wave (km/s) = 3.30275 3.79474 3.55726
# Velocity P-wave (km/s) = 5.42971 6.27689 5.86861
#
# Compressibility (1/GPa) = 0.03171793
#
# Stress axis : x y z
#
# Youngs Moduli (GPa) = 49.07233 37.27237 147.70931
#
# Poissons Ratio (x) = 0.27787 0.43153
# Poissons Ratio (y) = 0.36585 0.11124
# Poissons Ratio (z) = 0.14337 0.02807
#
# Static dielectric constant tensor:
#      x y z
#    x 1.802550 0.000000 -0.010670 
#    y 0.000000 1.747280 0.000000 
#    z -0.010670 0.000000 1.766160 
# 
# From -- ./inp_files/64500.got.cif
#   From: 2010.05.17/outbox.cif.g08.bks.cpg/sg14_33_cif.got.tgz:64500.got - 2010.06.03 17:49:19.
