data_PCOD9248368
_publ_section_title
;
Structure prediction by ZEFSAII (Michael W. Deem and Ramdas Pophale) SiO2 
 PCOD9248368
Probable space group: P 21/C
;
_chemical_formula_sum "Si O2"
_cell_formula_units_Z 32
_cell_length_a 9.340590
_cell_length_b 5.967313
_cell_length_c 26.842619
_cell_angle_alpha 90.000000
_cell_angle_beta 105.222273
_cell_angle_gamma 90.000000
_cell_volume 1443.666394
_symmetry_space_group_name_H-M "P 21/C"
_symmetry_group_IT_number 14
_symmetry_cell_setting 'monoclinic'
loop_
_space_group_symop_operation_xyz
x,y,z
-x,1/2+y,1/2-z
-x,-y,-z
x,1/2-y,1/2+z
loop_
_atom_site_type_symbol
_atom_site_label
_atom_site_fract_x
_atom_site_fract_y
_atom_site_fract_z
Si Si1 0.501647 0.933812 0.278869
Si Si2 0.953680 0.849982 0.637907
Si Si3 0.162457 0.106663 0.027442
Si Si4 0.989940 0.077253 0.175773
Si Si5 0.824381 0.417253 0.218903
Si Si6 0.198947 0.106636 0.631141
Si Si7 0.426934 0.813868 0.028862
Si Si8 0.291482 0.417706 0.951766
O O1 0.488415 0.683170 0.249009
O O2 0.348651 0.955255 0.294673
O O3 0.640465 0.907410 0.329210
O O4 0.911558 0.912244 0.690715
O O5 0.115522 0.869693 0.628197
O O6 0.915978 0.588412 0.630146
O O7 0.838177 0.994226 0.596062
O O8 0.176320 0.273741 0.076123
O O9 0.292411 0.920932 0.047215
O O10 0.217083 0.249334 0.984664
O O11 0.000000 0.000000 0.000000
O O12 0.108200 0.944722 0.220310
O O13 0.866549 0.178503 0.200220
O O14 0.089566 0.262427 0.158925
O O15 0.571719 0.695679 0.065745
O O16 0.355160 0.624963 0.987778
O O17 0.500000 0.000000 0.000000
#
# Coordination Sequence:
#
# PCOD9248368 Si02
#       8
#     4   4   4   4   4   4   4   4
#     4  12  28  48  72 105 148 188 236 303 368 440
#     4  11  24  41  69  95 132 174 235 284 354 429
#     4  11  23  42  67 100 139 182 235 294 366 429
#     4  11  22  43  66  93 126 176 225 286 342 426
#     4  11  24  40  68  93 130 174 233 282 354 417
#     4  11  26  43  66 101 140 184 231 292 362 439
#     4   9  21  41  66  87 132 170 220 280 338 413
#     4  10  22  42  66  98 129 177 227 289 351 424
#
# _framework density 22.165783999999999
#
# number of rings (size 3 to 8) (size 9 to 14) (size 15 to 20)
#    0.000    1.250    2.500    2.250    3.500   10.000 
#    0.000    0.000    0.000    0.000    0.000    0.000 
#    0.000    0.000    0.000    0.000    0.000    0.000 
#
# Total GULP energy -178299.047345 kJ/mol
# GULP energy per Si atom -5571.845230 kJ/mol
# Density = 2.211533 g / cm^3
# Si number density = 22.165784 Si / 1000 Ang^3
#
#
#
# Elastic Constant Matrix: (Units=GPa)
#
#
# Indices 1 2 3 4 5 6 
#
# 1 144.3022 22.8866 36.1974 0.0000 16.5450 0.0000
# 2 22.8866 62.0485 0.8932 0.0000 0.8579 0.0000
# 3 36.1974 0.8932 72.6311 0.0000 13.5512 0.0000
# 4 0.0000 0.0000 0.0000 22.7757 0.0000 -0.7526
# 5 16.5450 0.8579 13.5512 0.0000 34.6103 0.0000
# 6 0.0000 0.0000 0.0000 -0.7526 0.0000 32.6177
#
#
#
# Elastic Compliance Matrix: (Units=1/GPa)
#
#
# Indices 1 2 3 4 5 6 
#
# 1 0.008673 -0.003108 -0.003803 0.000000 -0.002580 0.000000
# 2 -0.003108 0.017237 0.001229 0.000000 0.000577 0.000000
# 3 -0.003803 0.001229 0.016522 0.000000 -0.004682 0.000000
# 4 0.000000 0.000000 0.000000 0.043940 0.000000 0.001014
# 5 -0.002580 0.000577 -0.004682 0.000000 0.031945 0.000000
# 6 0.000000 0.000000 0.000000 0.001014 0.000000 0.030682
#
#
# Mechanical properties :
#
#
# Convention : Reuss Voigt Hill
#
# Bulk Modulus (GPa) = 32.18710 44.32626 38.25668
# Shear Modulus (GPa) = 29.28814 32.60103 30.94458
#
# Velocity S-wave (km/s) = 3.63894 3.83924 3.74043
# Velocity P-wave (km/s) = 5.67525 6.30032 5.99594
#
# Compressibility (1/GPa) = 0.03106835
#
# Stress axis : x y z
#
# Youngs Moduli (GPa) = 115.30605 58.01370 60.52665
#
# Poissons Ratio (x) = 0.18033 0.23016
# Poissons Ratio (y) = 0.35843 -0.07442
# Poissons Ratio (z) = 0.43846 -0.07133
#
# Static dielectric constant tensor:
#      x y z
#    x 1.842370 0.000000 0.056990 
#    y 0.000000 2.015380 0.000000 
#    z 0.056990 0.000000 1.878170 
# 
# From -- ./inp_files/79272.got.cif
#   From: 2010.05.17/outbox.cif.g08.bks.cpg/sg14_40_cif.got.tgz:79272.got - 2010.06.03 17:49:19.
