data_PCOD9248407
_publ_section_title
;
Structure prediction by ZEFSAII (Michael W. Deem and Ramdas Pophale) SiO2 
 PCOD9248407
Probable space group: P 21/C
;
_chemical_formula_sum "Si O2"
_cell_formula_units_Z 28
_cell_length_a 14.465207
_cell_length_b 8.551103
_cell_length_c 10.580079
_cell_angle_alpha 90.000000
_cell_angle_beta 120.938288
_cell_angle_gamma 90.000000
_cell_volume 1122.488803
_symmetry_space_group_name_H-M "P 21/C"
_symmetry_group_IT_number 14
_symmetry_cell_setting 'monoclinic'
loop_
_space_group_symop_operation_xyz
x,y,z
-x,1/2+y,1/2-z
-x,-y,-z
x,1/2-y,1/2+z
loop_
_atom_site_type_symbol
_atom_site_label
_atom_site_fract_x
_atom_site_fract_y
_atom_site_fract_z
Si Si1 0.004446 0.115368 0.272559
Si Si2 0.718371 0.612846 0.205415
Si Si3 0.536760 0.050212 0.744908
Si Si4 0.841708 0.360198 0.120576
Si Si5 0.133202 0.398571 0.459885
Si Si6 0.666648 0.549738 0.566354
Si Si7 0.351511 0.628320 0.187859
O O1 0.094573 0.248083 0.352805
O O2 0.900713 0.220284 0.236746
O O3 0.061978 0.964517 0.375658
O O4 0.960716 0.030622 0.113406
O O5 0.616324 0.543797 0.209461
O O6 0.775499 0.476756 0.164489
O O7 0.814157 0.655399 0.372469
O O8 0.673455 0.768294 0.107969
O O9 0.565011 0.229562 0.744633
O O10 0.412846 0.001742 0.645977
O O11 0.567265 0.006035 0.910906
O O12 0.756199 0.312181 0.955078
O O13 0.231312 0.472184 0.451948
O O14 0.674140 0.446973 0.696512
#
# Coordination Sequence:
#
# PCOD9248407 Si02
#       7
#     4   4   4   4   4   4   4
#     4  10  22  42  67  99 144 186 245 305 349 436
#     4  11  24  44  76 100 147 195 239 307 360 440
#     4  11  28  47  75 109 146 185 250 290 376 440
#     4  11  24  45  70 106 144 191 251 292 372 420
#     4  10  22  44  64 104 141 188 248 301 364 428
#     4  11  24  47  71 103 148 189 239 300 363 434
#     4  12  27  48  75 106 147 194 237 310 359 444
#
# _framework density 24.944571
#
# number of rings (size 3 to 8) (size 9 to 14) (size 15 to 20)
#    0.000    1.143    1.429    3.857    8.000    2.857 
#    5.143    2.143    0.000    0.000    0.000    0.000 
#    0.000    0.000    0.000    0.000    0.000    0.000 
#
# Total GULP energy -156424.378595 kJ/mol
# GULP energy per Si atom -5586.584950 kJ/mol
# Density = 2.488780 g / cm^3
# Si number density = 24.944571 Si / 1000 Ang^3
#
#
#
# Elastic Constant Matrix: (Units=GPa)
#
#
# Indices 1 2 3 4 5 6 
#
# 1 36.9977 6.8550 19.3841 0.0000 1.8825 0.0000
# 2 6.8550 96.9551 25.8637 0.0000 -2.2618 0.0000
# 3 19.3841 25.8637 54.6996 0.0000 12.0897 0.0000
# 4 0.0000 0.0000 0.0000 42.0892 0.0000 10.2320
# 5 1.8825 -2.2618 12.0897 0.0000 38.3852 0.0000
# 6 0.0000 0.0000 0.0000 10.2320 0.0000 42.5688
#
#
#
# Elastic Compliance Matrix: (Units=1/GPa)
#
#
# Indices 1 2 3 4 5 6 
#
# 1 0.033479 0.001149 -0.012962 0.000000 0.002508 0.000000
# 2 0.001149 0.012096 -0.006741 0.000000 0.002779 0.000000
# 3 -0.012962 -0.006741 0.027956 0.000000 -0.008566 0.000000
# 4 0.000000 0.000000 0.000000 0.025234 0.000000 -0.006065
# 5 0.002508 0.002779 -0.008566 0.000000 0.028790 0.000000
# 6 0.000000 0.000000 0.000000 -0.006065 0.000000 0.024949
#
#
# Mechanical properties :
#
#
# Convention : Reuss Voigt Hill
#
# Bulk Modulus (GPa) = 27.45475 32.53976 29.99726
# Shear Modulus (GPa) = 24.78290 33.71194 29.24742
#
# Velocity S-wave (km/s) = 3.15543 3.68023 3.42789
# Velocity P-wave (km/s) = 4.93010 5.57960 5.26487
#
# Compressibility (1/GPa) = 0.03642357
#
# Stress axis : x y z
#
# Youngs Moduli (GPa) = 29.86932 82.67319 35.77109
#
# Poissons Ratio (x) = -0.09500 0.46366
# Poissons Ratio (y) = -0.03432 0.24113
# Poissons Ratio (z) = 0.38716 0.55728
#
# Static dielectric constant tensor:
#      x y z
#    x 1.991840 0.000000 0.026550 
#    y 0.000000 1.984310 0.000000 
#    z 0.026550 0.000000 1.987670 
# 
# From -- ./inp_files/31652.got.cif
#   From: 2010.05.17/outbox.cif.g08.bks.cpg/sg14_16_cif.got.tgz:31652.got - 2010.06.03 17:49:19.
