data_PCOD9248045
_publ_section_title
;
Structure prediction by ZEFSAII (Michael W. Deem and Ramdas Pophale) SiO2 
 PCOD9248045
Probable space group: P 21/C
;
_chemical_formula_sum "Si O2"
_cell_formula_units_Z 32
_cell_length_a 8.489710
_cell_length_b 12.449948
_cell_length_c 15.979003
_cell_angle_alpha 90.000000
_cell_angle_beta 63.685837
_cell_angle_gamma 90.000000
_cell_volume 1513.912300
_symmetry_space_group_name_H-M "P 21/C"
_symmetry_group_IT_number 14
_symmetry_cell_setting 'monoclinic'
loop_
_space_group_symop_operation_xyz
x,y,z
-x,1/2+y,1/2-z
-x,-y,-z
x,1/2-y,1/2+z
loop_
_atom_site_type_symbol
_atom_site_label
_atom_site_fract_x
_atom_site_fract_y
_atom_site_fract_z
Si Si1 0.484167 0.129560 0.495446
Si Si2 0.222740 0.765557 0.876743
Si Si3 0.199089 0.296563 0.340935
Si Si4 0.664092 0.987295 0.899332
Si Si5 0.539464 0.599485 0.250931
Si Si6 0.506238 0.600460 0.820325
Si Si7 0.802690 0.281491 0.414584
Si Si8 0.824870 0.788943 0.960600
O O1 0.470533 0.157673 0.597324
O O2 0.658660 0.191729 0.420644
O O3 0.308604 0.187927 0.504746
O O4 0.500000 0.000000 0.500000
O O5 0.342428 0.860518 0.813319
O O6 0.336790 0.661701 0.824077
O O7 0.213411 0.780919 0.979885
O O8 0.024217 0.757795 0.892695
O O9 0.331048 0.197473 0.296487
O O10 0.309599 0.389480 0.270271
O O11 0.177229 0.328994 0.442760
O O12 0.009351 0.263812 0.349781
O O13 0.602905 0.962497 0.819376
O O14 0.759724 0.101833 0.886613
O O15 0.765012 0.883405 0.912454
O O16 0.500000 0.000000 0.000000
O O17 0.542491 0.523585 0.169676
#
# Coordination Sequence:
#
# PCOD9248045 Si02
#       8
#     4   4   4   4   4   4   4   4
#     4  11  23  43  64  87 123 170 215 250 304 385
#     4   9  21  39  63  86 121 164 206 250 312 378
#     4  10  23  40  61  93 125 157 205 262 320 367
#     4  12  21  39  67  92 125 163 213 260 309 376
#     4  11  22  42  61  91 130 167 201 262 322 366
#     4  10  22  42  59  87 126 163 197 259 317 365
#     4  10  22  41  63  89 124 165 210 260 309 375
#     4  11  22  39  66  94 116 163 216 254 307 383
#
# _framework density 21.137286
#
# number of rings (size 3 to 8) (size 9 to 14) (size 15 to 20)
#    0.000    1.500    2.500    3.000    1.750    2.000 
#    6.750    3.750    0.000    0.000    0.000    0.000 
#    0.000    0.000    0.000    0.000    0.000    0.000 
#
# Total GULP energy -178451.270980 kJ/mol
# GULP energy per Si atom -5576.602218 kJ/mol
# Density = 2.108918 g / cm^3
# Si number density = 21.137286 Si / 1000 Ang^3
#
#
#
# Elastic Constant Matrix: (Units=GPa)
#
#
# Indices 1 2 3 4 5 6 
#
# 1 120.7918 36.2301 26.9944 0.0000 -40.9161 0.0000
# 2 36.2301 100.9851 -1.3238 0.0000 -24.5184 0.0000
# 3 26.9944 -1.3238 49.2976 0.0000 -21.2627 0.0000
# 4 0.0000 0.0000 0.0000 18.8190 0.0000 13.1917
# 5 -40.9161 -24.5184 -21.2627 0.0000 40.8422 0.0000
# 6 0.0000 0.0000 0.0000 13.1917 0.0000 20.7082
#
#
#
# Elastic Compliance Matrix: (Units=1/GPa)
#
#
# Indices 1 2 3 4 5 6 
#
# 1 0.013052 -0.002216 -0.002761 0.000000 0.010308 0.000000
# 2 -0.002216 0.012711 0.005014 0.000000 0.008021 0.000000
# 3 -0.002761 0.005014 0.028418 0.000000 0.015039 0.000000
# 4 0.000000 0.000000 0.000000 0.096011 0.000000 -0.061162
# 5 0.010308 0.008021 0.015039 0.000000 0.047456 0.000000
# 6 0.000000 0.000000 0.000000 -0.061162 0.000000 0.087252
#
#
# Mechanical properties :
#
#
# Convention : Reuss Voigt Hill
#
# Bulk Modulus (GPa) = 18.43117 43.87509 31.15313
# Shear Modulus (GPa) = 16.50659 30.01879 23.26269
#
# Velocity S-wave (km/s) = 2.79753 3.77262 3.32106
# Velocity P-wave (km/s) = 4.37876 6.30707 5.42921
#
# Compressibility (1/GPa) = 0.05425591
#
# Stress axis : x y z
#
# Youngs Moduli (GPa) = 76.61659 78.67425 35.18916
#
# Poissons Ratio (x) = 0.17435 0.09714
# Poissons Ratio (y) = 0.16979 -0.17645
# Poissons Ratio (z) = 0.21150 -0.39450
#
# Static dielectric constant tensor:
#      x y z
#    x 1.834520 0.000000 0.064130 
#    y 0.000000 1.797670 0.000000 
#    z 0.064130 0.000000 1.781600 
# 
# From -- ./inp_files/55599.got.cif
#   From: 2010.05.17/outbox.cif.g08.bks.cpg/sg14_28_cif.got.tgz:55599.got - 2010.06.03 17:49:19.
