data_PCOD9248199
_publ_section_title
;
Structure prediction by ZEFSAII (Michael W. Deem and Ramdas Pophale) SiO2 
 PCOD9248199
Probable space group: P 21/C
;
_chemical_formula_sum "Si O2"
_cell_formula_units_Z 24
_cell_length_a 9.352048
_cell_length_b 8.532568
_cell_length_c 18.261088
_cell_angle_alpha 90.000000
_cell_angle_beta 38.638192
_cell_angle_gamma 90.000000
_cell_volume 909.863635
_symmetry_space_group_name_H-M "P 21/C"
_symmetry_group_IT_number 14
_symmetry_cell_setting 'monoclinic'
loop_
_space_group_symop_operation_xyz
x,y,z
-x,1/2+y,1/2-z
-x,-y,-z
x,1/2-y,1/2+z
loop_
_atom_site_type_symbol
_atom_site_label
_atom_site_fract_x
_atom_site_fract_y
_atom_site_fract_z
Si Si1 0.697064 0.387895 0.220729
Si Si2 0.383822 0.985654 0.967430
Si Si3 0.963641 0.639805 0.572679
Si Si4 0.657690 0.617671 0.112235
Si Si5 0.911232 0.755638 0.851696
Si Si6 0.282052 0.020785 0.685571
O O1 0.560677 0.500025 0.331329
O O2 0.694126 0.460434 0.143299
O O3 0.559994 0.225022 0.275617
O O4 0.942059 0.364451 0.159171
O O5 0.238171 0.146626 0.030801
O O6 0.500000 0.000000 0.000000
O O7 0.203326 0.849570 0.021577
O O8 0.865951 0.781178 0.564344
O O9 0.786460 0.586347 0.706383
O O10 0.000000 0.500000 0.500000
O O11 0.538507 0.550275 0.084927
O O12 0.767419 0.664801 0.848713
O O13 0.094521 0.881673 0.745597
#
# Coordination Sequence:
#
# PCOD9248199 Si02
#       6
#     4   4   4   4   4   4
#     4  11  23  44  72 103 141 190 239 292 369 424
#     4  11  24  44  72 101 140 190 236 291 363 436
#     4  11  21  41  69 100 136 184 241 292 351 431
#     4  11  22  40  73  99 140 190 237 297 356 432
#     4  10  24  43  71 105 141 190 239 298 358 435
#     4  10  22  41  69 101 141 189 239 291 367 421
#
# _framework density 26.377580999999999
#
# number of rings (size 3 to 8) (size 9 to 14) (size 15 to 20)
#    0.000    1.333    3.333    2.000    4.667    0.000 
#    0.000    4.167    0.000    0.000    0.000    0.000 
#    0.000    0.000    0.000    0.000    0.000    0.000 
#
# Total GULP energy -134231.263180 kJ/mol
# GULP energy per Si atom -5592.969299 kJ/mol
# Density = 2.631754 g / cm^3
# Si number density = 26.377581 Si / 1000 Ang^3
#
#
#
# Elastic Constant Matrix: (Units=GPa)
#
#
# Indices 1 2 3 4 5 6 
#
# 1 194.4371 58.3485 43.1668 0.0000 -20.8532 0.0000
# 2 58.3485 80.9910 12.8630 0.0000 -5.5976 0.0000
# 3 43.1668 12.8630 67.7809 0.0000 -3.2591 0.0000
# 4 0.0000 0.0000 0.0000 11.1924 0.0000 0.3189
# 5 -20.8532 -5.5976 -3.2591 0.0000 44.7261 0.0000
# 6 0.0000 0.0000 0.0000 0.3189 0.0000 67.5324
#
#
#
# Elastic Compliance Matrix: (Units=1/GPa)
#
#
# Indices 1 2 3 4 5 6 
#
# 1 0.007727 -0.004761 -0.003886 0.000000 0.002723 0.000000
# 2 -0.004761 0.015755 0.000030 0.000000 -0.000246 0.000000
# 3 -0.003886 0.000030 0.017196 0.000000 -0.000555 0.000000
# 4 0.000000 0.000000 0.000000 0.089359 0.000000 -0.000422
# 5 0.002723 -0.000246 -0.000555 0.000000 0.023557 0.000000
# 6 0.000000 0.000000 0.000000 -0.000422 0.000000 0.014810
#
#
# Mechanical properties :
#
#
# Convention : Reuss Voigt Hill
#
# Bulk Modulus (GPa) = 42.65498 63.55173 53.10336
# Shear Modulus (GPa) = 25.84620 39.94555 32.89588
#
# Velocity S-wave (km/s) = 3.13366 3.89572 3.53528
# Velocity P-wave (km/s) = 5.41287 6.66190 6.06960
#
# Compressibility (1/GPa) = 0.02344392
#
# Stress axis : x y z
#
# Youngs Moduli (GPa) = 129.42144 63.47079 58.15306
#
# Poissons Ratio (x) = 0.30219 0.22600
# Poissons Ratio (y) = 0.61619 -0.00177
# Poissons Ratio (z) = 0.50297 -0.00193
#
# Static dielectric constant tensor:
#      x y z
#    x 2.206310 0.000000 0.218910 
#    y 0.000000 2.209730 0.000000 
#    z 0.218910 0.000000 2.762940 
# 
# From -- ./inp_files/64737.got.cif
#   From: 2010.05.17/outbox.cif.g08.bks.cpg/sg14_33_cif.got.tgz:64737.got - 2010.06.03 17:49:19.
