data_PCOD9248838
_publ_section_title
;
Structure prediction by ZEFSAII (Michael W. Deem and Ramdas Pophale) SiO2 
 PCOD9248838
Probable space group: P 21/C
;
_chemical_formula_sum "Si O2"
_cell_formula_units_Z 30
_cell_length_a 12.812334
_cell_length_b 6.722590
_cell_length_c 16.073483
_cell_angle_alpha 90.000000
_cell_angle_beta 72.943903
_cell_angle_gamma 90.000000
_cell_volume 1323.551854
_symmetry_space_group_name_H-M "P 21/C"
_symmetry_group_IT_number 14
_symmetry_cell_setting 'monoclinic'
loop_
_space_group_symop_operation_xyz
x,y,z
-x,1/2+y,1/2-z
-x,-y,-z
x,1/2-y,1/2+z
loop_
_atom_site_type_symbol
_atom_site_label
_atom_site_fract_x
_atom_site_fract_y
_atom_site_fract_z
Si Si1 0.500000 0.000000 0.000000
Si Si2 0.177457 0.754508 0.078906
Si Si3 0.969600 0.494005 0.652247
Si Si4 0.596377 0.334614 0.205930
Si Si5 0.701316 0.535172 0.330874
Si Si6 0.424764 0.197510 0.382054
Si Si7 0.249867 0.509584 0.401338
Si Si8 0.875350 0.644053 0.844746
O O1 0.406285 0.068514 0.089625
O O2 0.519860 0.795696 0.051082
O O3 0.176640 0.518077 0.082021
O O4 0.236295 0.842436 0.146581
O O5 0.236272 0.865921 0.989485
O O6 0.053403 0.832494 0.108094
O O7 0.864250 0.498495 0.618990
O O8 0.934223 0.526902 0.756005
O O9 0.038093 0.289618 0.631444
O O10 0.669336 0.482541 0.244978
O O11 0.493282 0.275350 0.285647
O O12 0.572541 0.460399 0.128522
O O13 0.663646 0.137600 0.171041
O O14 0.783772 0.716776 0.324588
O O15 0.305204 0.298446 0.406783
#
# Coordination Sequence:
#
# PCOD9248838 Si02
#       8
#     2   4   4   4   4   4   4   4
#     4  10  22  44  68  92 140 170 214 282 334 390
#     4  11  24  43  66  99 133 172 225 274 342 396
#     4  11  24  42  67  94 135 173 225 279 329 402
#     4  11  24  41  69  95 133 177 228 267 336 401
#     4  10  23  43  67  97 133 175 219 280 328 403
#     4  11  23  45  64  98 134 175 220 281 330 402
#     4  12  25  41  67 100 134 177 218 282 337 403
#     4  11  23  42  67  95 127 176 226 273 335 399
#
# _framework density 22.666284000000001
#
# number of rings (size 3 to 8) (size 9 to 14) (size 15 to 20)
#    0.000    1.067    4.000    2.000    3.733    1.600 
#    0.000    1.333    0.000    0.000    0.000    0.000 
#    0.000    0.000    0.000    0.000    0.000    0.000 
#
# Total GULP energy -167377.858312 kJ/mol
# GULP energy per Si atom -5579.261944 kJ/mol
# Density = 2.261469 g / cm^3
# Si number density = 22.666284 Si / 1000 Ang^3
#
#
#
# Elastic Constant Matrix: (Units=GPa)
#
#
# Indices 1 2 3 4 5 6 
#
# 1 49.4230 20.9208 2.3233 0.0000 7.5214 0.0000
# 2 20.9208 72.3373 -3.7643 0.0000 -2.0524 0.0000
# 3 2.3233 -3.7643 41.7315 0.0000 -12.2279 0.0000
# 4 0.0000 0.0000 0.0000 27.8592 0.0000 -6.2217
# 5 7.5214 -2.0524 -12.2279 0.0000 28.7109 0.0000
# 6 0.0000 0.0000 0.0000 -6.2217 0.0000 -9.8407
#
#
#
# Elastic Compliance Matrix: (Units=1/GPa)
#
#
# Indices 1 2 3 4 5 6 
#
# 1 0.025152 -0.007785 -0.004795 0.000000 -0.009188 0.000000
# 2 -0.007785 0.016375 0.003258 0.000000 0.004597 0.000000
# 3 -0.004795 0.003258 0.028519 0.000000 0.013635 0.000000
# 4 0.000000 0.000000 0.000000 0.031454 0.000000 -0.019886
# 5 -0.009188 0.004597 0.013635 0.000000 0.043373 0.000000
# 6 0.000000 0.000000 0.000000 -0.019886 0.000000 -0.089046
#
#
# Mechanical properties :
#
#
# Convention : Reuss Voigt Hill
#
# Bulk Modulus (GPa) = 19.45399 22.49463 20.97431
# Shear Modulus (GPa) = 54.58264 18.94669 36.76466
#
# Velocity S-wave (km/s) = 4.91256 2.89433 4.03177
# Velocity P-wave (km/s) = 6.38585 4.59514 5.56302
#
# Compressibility (1/GPa) = 0.05140334
#
# Stress axis : x y z
#
# Youngs Moduli (GPa) = 39.75778 61.06699 35.06471
#
# Poissons Ratio (x) = 0.47538 0.16812
# Poissons Ratio (y) = 0.30950 -0.11423
# Poissons Ratio (z) = 0.19062 -0.19893
#
# Static dielectric constant tensor:
#      x y z
#    x 1.843830 0.000000 0.012870 
#    y 0.000000 1.830330 0.000000 
#    z 0.012870 0.000000 1.853900 
# 
# From -- ./inp_files/58602.got.cif
#   From: 2010.05.17/outbox.cif.g08.bks.cpg/sg14_30_cif.got.tgz:58602.got - 2010.06.03 17:49:19.
