data_PCOD9248363
_publ_section_title
;
Structure prediction by ZEFSAII (Michael W. Deem and Ramdas Pophale) SiO2 
 PCOD9248363
Probable space group: P 21/C
;
_chemical_formula_sum "Si O2"
_cell_formula_units_Z 30
_cell_length_a 14.265760
_cell_length_b 6.877425
_cell_length_c 15.762168
_cell_angle_alpha 90.000000
_cell_angle_beta 50.985419
_cell_angle_gamma 90.000000
_cell_volume 1201.572003
_symmetry_space_group_name_H-M "P 21/C"
_symmetry_group_IT_number 14
_symmetry_cell_setting 'monoclinic'
loop_
_space_group_symop_operation_xyz
x,y,z
-x,1/2+y,1/2-z
-x,-y,-z
x,1/2-y,1/2+z
loop_
_atom_site_type_symbol
_atom_site_label
_atom_site_fract_x
_atom_site_fract_y
_atom_site_fract_z
Si Si1 0.442269 0.290956 0.684228
Si Si2 0.096476 0.087609 0.223845
Si Si3 0.035268 0.760173 0.859283
Si Si4 0.653135 0.462241 0.991004
Si Si5 0.000000 0.000000 0.000000
Si Si6 0.797830 0.357563 0.487616
Si Si7 0.223854 0.068709 0.740057
Si Si8 0.582023 0.647762 0.618441
O O1 0.310285 0.208322 0.742708
O O2 0.473669 0.513351 0.645049
O O3 0.532280 0.157336 0.578564
O O4 0.463489 0.258198 0.772001
O O5 0.067436 0.957055 0.321464
O O6 0.180428 0.955049 0.116930
O O7 0.152534 0.287893 0.219887
O O8 0.993178 0.152211 0.216867
O O9 0.128174 0.929916 0.844102
O O10 0.941238 0.798030 0.986423
O O11 0.630412 0.686736 0.027797
O O12 0.751080 0.360413 0.996894
O O13 0.697130 0.439920 0.869307
O O14 0.080376 0.868720 0.028239
O O15 0.686328 0.491099 0.583646
#
# Coordination Sequence:
#
# PCOD9248363 Si02
#       8
#     4   4   4   4   2   4   4   4
#     4  11  25  41  64  95 131 174 225 269 331 393
#     4  11  22  41  68  94 131 173 210 268 336 388
#     4  11  23  43  67  97 133 171 214 274 327 399
#     4  11  23  42  67  92 133 173 218 276 334 384
#     4  10  24  44  68  98 136 168 224 268 326 406
#     4  10  22  42  66  96 130 176 215 272 333 392
#     4  12  24  41  67  99 124 172 225 270 322 407
#     4  11  22  43  65  92 132 177 214 273 338 390
#
# _framework density 24.967293999999999
#
# number of rings (size 3 to 8) (size 9 to 14) (size 15 to 20)
#    0.000    1.067    5.333    1.200    0.000    2.667 
#    0.000    1.333    0.000    0.000    0.000    0.000 
#    0.000    0.000    0.000    0.000    0.000    0.000 
#
# Total GULP energy -167327.438908 kJ/mol
# GULP energy per Si atom -5577.581297 kJ/mol
# Density = 2.491047 g / cm^3
# Si number density = 24.967294 Si / 1000 Ang^3
#
#
#
# Elastic Constant Matrix: (Units=GPa)
#
#
# Indices 1 2 3 4 5 6 
#
# 1 63.2434 3.6680 -1.6269 0.0000 -3.6787 0.0000
# 2 3.6680 83.4452 15.8473 0.0000 -1.4396 0.0000
# 3 -1.6269 15.8473 93.7910 0.0000 -1.7108 0.0000
# 4 0.0000 0.0000 0.0000 40.9120 0.0000 -7.2851
# 5 -3.6787 -1.4396 -1.7108 0.0000 27.9566 0.0000
# 6 0.0000 0.0000 0.0000 -7.2851 0.0000 32.7541
#
#
#
# Elastic Compliance Matrix: (Units=1/GPa)
#
#
# Indices 1 2 3 4 5 6 
#
# 1 0.015989 -0.000751 0.000442 0.000000 0.002092 0.000000
# 2 -0.000751 0.012424 -0.002105 0.000000 0.000412 0.000000
# 3 0.000442 -0.002105 0.011037 0.000000 0.000625 0.000000
# 4 0.000000 0.000000 0.000000 0.025451 0.000000 0.005661
# 5 0.002092 0.000412 0.000625 0.000000 0.036105 0.000000
# 6 0.000000 0.000000 0.000000 0.005661 0.000000 0.031790
#
#
# Mechanical properties :
#
#
# Convention : Reuss Voigt Hill
#
# Bulk Modulus (GPa) = 28.88261 30.69514 29.78888
# Shear Modulus (GPa) = 33.52090 35.16398 34.34244
#
# Velocity S-wave (km/s) = 3.66812 3.75694 3.71279
# Velocity P-wave (km/s) = 5.43446 5.58035 5.50789
#
# Compressibility (1/GPa) = 0.03462291
#
# Stress axis : x y z
#
# Youngs Moduli (GPa) = 62.54475 80.49115 90.60690
#
# Poissons Ratio (x) = 0.06043 -0.04008
# Poissons Ratio (y) = 0.04695 0.19070
# Poissons Ratio (z) = -0.02767 0.16941
#
# Static dielectric constant tensor:
#      x y z
#    x 2.072870 0.000000 -0.041110 
#    y 0.000000 1.970060 0.000000 
#    z -0.041110 0.000000 2.446480 
# 
# From -- ./inp_files/58555.got.cif
#   From: 2010.05.17/outbox.cif.g08.bks.cpg/sg14_30_cif.got.tgz:58555.got - 2010.06.03 17:49:19.
