data_PCOD9248040
_publ_section_title
;
Structure prediction by ZEFSAII (Michael W. Deem and Ramdas Pophale) SiO2 
 PCOD9248040
Probable space group: P 21/C
;
_chemical_formula_sum "Si O2"
_cell_formula_units_Z 26
_cell_length_a 13.849650
_cell_length_b 5.150136
_cell_length_c 26.629046
_cell_angle_alpha 90.000000
_cell_angle_beta 30.965610
_cell_angle_gamma 90.000000
_cell_volume 977.278432
_symmetry_space_group_name_H-M "P 21/C"
_symmetry_group_IT_number 14
_symmetry_cell_setting 'monoclinic'
loop_
_space_group_symop_operation_xyz
x,y,z
-x,1/2+y,1/2-z
-x,-y,-z
x,1/2-y,1/2+z
loop_
_atom_site_type_symbol
_atom_site_label
_atom_site_fract_x
_atom_site_fract_y
_atom_site_fract_z
Si Si1 0.053604 0.804776 0.312781
Si Si2 0.000000 0.500000 0.500000
Si Si3 0.427622 0.970312 0.672086
Si Si4 0.192331 0.008987 0.156546
Si Si5 0.387909 0.236880 0.284868
Si Si6 0.571112 0.255039 0.015809
Si Si7 0.245216 0.367643 0.483434
O O1 0.232426 0.677266 0.258601
O O2 0.131435 0.024606 0.241518
O O3 0.963703 0.618683 0.310417
O O4 0.893658 0.833000 0.425489
O O5 0.818015 0.670054 0.605218
O O6 0.883255 0.479285 0.498673
O O7 0.399033 0.220461 0.719345
O O8 0.597014 0.793013 0.615956
O O9 0.499392 0.019039 0.583712
O O10 0.382475 0.174404 0.071072
O O11 0.266463 0.739199 0.098607
O O12 0.452971 0.946125 0.268427
O O13 0.655023 0.049158 0.019384
#
# Coordination Sequence:
#
# PCOD9248040 Si02
#       7
#     4   2   4   4   4   4   4
#     4  11  23  40  67 103 137 184 238 292 361 448
#     4  12  24  50  76 108 152 202 258 318 394 464
#     4  12  24  44  71 100 141 190 237 308 371 439
#     4  10  22  41  63 101 142 183 237 295 363 442
#     4  12  28  51  78 113 153 201 259 322 392 458
#     4  10  23  43  66  97 142 185 234 302 362 439
#     4  11  24  46  67 103 140 180 249 300 366 454
#
# _framework density 26.604498
#
# number of rings (size 3 to 8) (size 9 to 14) (size 15 to 20)
#    0.000    0.923    4.615    1.846    2.154    1.231 
#    2.769    0.000    0.000    0.000    0.000    0.000 
#    0.000    0.000    0.000    0.000    0.000    0.000 
#
# Total GULP energy -144929.512561 kJ/mol
# GULP energy per Si atom -5574.212022 kJ/mol
# Density = 2.654394 g / cm^3
# Si number density = 26.604498 Si / 1000 Ang^3
#
#
#
# Elastic Constant Matrix: (Units=GPa)
#
#
# Indices 1 2 3 4 5 6 
#
# 1 113.9457 10.4704 25.2587 0.0000 0.9478 0.0000
# 2 10.4704 24.6218 -0.4189 0.0000 3.3100 0.0000
# 3 25.2587 -0.4189 141.2605 0.0000 -10.5456 0.0000
# 4 0.0000 0.0000 0.0000 19.8609 0.0000 12.7135
# 5 0.9478 3.3100 -10.5456 0.0000 33.6797 0.0000
# 6 0.0000 0.0000 0.0000 12.7135 0.0000 40.2966
#
#
#
# Elastic Compliance Matrix: (Units=1/GPa)
#
#
# Indices 1 2 3 4 5 6 
#
# 1 0.009537 -0.004029 -0.001749 0.000000 -0.000420 0.000000
# 2 -0.004029 0.042865 0.000554 0.000000 -0.003926 0.000000
# 3 -0.001749 0.000554 0.007570 0.000000 0.002365 0.000000
# 4 0.000000 0.000000 0.000000 0.063092 0.000000 -0.019905
# 5 -0.000420 -0.003926 0.002365 0.000000 0.030830 0.000000
# 6 0.000000 0.000000 0.000000 -0.019905 0.000000 0.031096
#
#
# Mechanical properties :
#
#
# Convention : Reuss Voigt Hill
#
# Bulk Modulus (GPa) = 20.19146 38.93871 29.56509
# Shear Modulus (GPa) = 23.59094 35.06862 29.32978
#
# Velocity S-wave (km/s) = 2.98103 3.63457 3.32390
# Velocity P-wave (km/s) = 4.41074 5.68167 5.08606
#
# Compressibility (1/GPa) = 0.04952588
#
# Stress axis : x y z
#
# Youngs Moduli (GPa) = 104.84958 23.32904 132.10042
#
# Poissons Ratio (x) = 0.09400 0.23100
# Poissons Ratio (y) = 0.42245 -0.07325
# Poissons Ratio (z) = 0.18335 -0.01294
#
# Static dielectric constant tensor:
#      x y z
#    x 2.106270 0.000000 0.066980 
#    y 0.000000 2.241020 0.000000 
#    z 0.066980 0.000000 2.103480 
# 
# From -- ./inp_files/80113.got.cif
#   From: 2010.05.17/outbox.cif.g08.bks.cpg/sg14_41_cif.got.tgz:80113.got - 2010.06.03 17:49:19.
