data_PCOD9248904
_publ_section_title
;
Structure prediction by ZEFSAII (Michael W. Deem and Ramdas Pophale) SiO2 
 PCOD9248904
Probable space group: P 21/C
;
_chemical_formula_sum "Si O2"
_cell_formula_units_Z 30
_cell_length_a 12.274959
_cell_length_b 18.190937
_cell_length_c 4.983014
_cell_angle_alpha 90.000000
_cell_angle_beta 74.293260
_cell_angle_gamma 90.000000
_cell_volume 1071.124892
_symmetry_space_group_name_H-M "P 21/C"
_symmetry_group_IT_number 14
_symmetry_cell_setting 'monoclinic'
loop_
_space_group_symop_operation_xyz
x,y,z
-x,1/2+y,1/2-z
-x,-y,-z
x,1/2-y,1/2+z
loop_
_atom_site_type_symbol
_atom_site_label
_atom_site_fract_x
_atom_site_fract_y
_atom_site_fract_z
Si Si1 0.944446 0.087280 0.182345
Si Si2 0.520634 0.381894 0.473717
Si Si3 0.500000 0.000000 0.500000
Si Si4 0.849365 0.980520 0.846154
Si Si5 0.690919 0.703024 0.210560
Si Si6 0.015912 0.707444 0.731371
Si Si7 0.775710 0.361831 0.176148
Si Si8 0.674605 0.920036 0.304945
O O1 0.842262 0.138201 0.350216
O O2 0.889656 0.013406 0.106662
O O3 0.009765 0.132909 0.908944
O O4 0.042197 0.064268 0.325944
O O5 0.643349 0.354007 0.304509
O O6 0.455727 0.410278 0.238187
O O7 0.523045 0.444345 0.699888
O O8 0.442149 0.317318 0.649020
O O9 0.360945 0.004186 0.534811
O O10 0.748208 0.927610 0.993120
O O11 0.810340 0.054814 0.736546
O O12 0.719894 0.770832 0.991811
O O13 0.721345 0.635212 0.992711
O O14 0.974764 0.770182 0.552708
O O15 0.150252 0.694972 0.697818
#
# Coordination Sequence:
#
# PCOD9248904 Si02
#       8
#     4   4   2   4   4   4   4   4
#     4  10  22  44  71 104 150 188 238 311 373 440
#     4  10  24  41  70 107 147 193 236 315 364 454
#     4   8  20  42  66 106 142 178 240 302 374 420
#     4  10  23  42  69 109 142 192 241 305 379 441
#     4  12  25  50  68  97 148 197 251 295 363 446
#     4  11  23  45  71  99 138 185 247 298 355 435
#     4  11  23  40  72 106 153 189 242 300 384 447
#     4  10  23  42  72 102 146 191 243 307 362 445
#
# _framework density 28.007936999999998
#
# number of rings (size 3 to 8) (size 9 to 14) (size 15 to 20)
#    0.800    0.800    2.667    1.200    1.867    5.333 
#    0.000    1.333    0.000    0.000    0.000    0.000 
#    0.000    0.000    0.000    0.000    0.000    0.000 
#
# Total GULP energy -167116.073802 kJ/mol
# GULP energy per Si atom -5570.535793 kJ/mol
# Density = 2.794419 g / cm^3
# Si number density = 28.007937 Si / 1000 Ang^3
#
#
#
# Elastic Constant Matrix: (Units=GPa)
#
#
# Indices 1 2 3 4 5 6 
#
# 1 78.7497 9.4967 33.1337 0.0000 -11.8190 0.0000
# 2 9.4967 101.9925 33.5981 0.0000 13.4876 0.0000
# 3 33.1337 33.5981 169.2973 0.0000 10.8760 0.0000
# 4 0.0000 0.0000 0.0000 48.6175 0.0000 8.5403
# 5 -11.8190 13.4876 10.8760 0.0000 52.9511 0.0000
# 6 0.0000 0.0000 0.0000 8.5403 0.0000 25.7546
#
#
#
# Elastic Compliance Matrix: (Units=1/GPa)
#
#
# Indices 1 2 3 4 5 6 
#
# 1 0.014671 -0.000939 -0.002950 0.000000 0.004120 0.000000
# 2 -0.000939 0.010828 -0.001798 0.000000 -0.002598 0.000000
# 3 -0.002950 -0.001798 0.006945 0.000000 -0.001627 0.000000
# 4 0.000000 0.000000 0.000000 0.021841 0.000000 -0.007243
# 5 0.004120 -0.002598 -0.001627 0.000000 0.020801 0.000000
# 6 0.000000 0.000000 0.000000 -0.007243 0.000000 0.041230
#
#
# Mechanical properties :
#
#
# Convention : Reuss Voigt Hill
#
# Bulk Modulus (GPa) = 47.45940 55.83294 51.64617
# Shear Modulus (GPa) = 37.11578 43.71869 40.41723
#
# Velocity S-wave (km/s) = 3.64426 3.95516 3.80289
# Velocity P-wave (km/s) = 5.88976 6.39028 6.14512
#
# Compressibility (1/GPa) = 0.02107064
#
# Stress axis : x y z
#
# Youngs Moduli (GPa) = 68.16138 92.35274 143.97994
#
# Poissons Ratio (x) = 0.08674 0.42468
# Poissons Ratio (y) = 0.06402 0.25890
# Poissons Ratio (z) = 0.20105 0.16606
#
# Static dielectric constant tensor:
#      x y z
#    x 2.269060 0.000000 -0.150350 
#    y 0.000000 2.819710 0.000000 
#    z -0.150350 0.000000 2.702970 
# 
# From -- ./inp_files/3893.got.cif
#   From: 2010.05.17/outbox.cif.g08.bks.cpg/sg14_2_cif.got.tgz:3893.got - 2010.06.03 17:49:19.
