data_PCOD9248454
_publ_section_title
;
Structure prediction by ZEFSAII (Michael W. Deem and Ramdas Pophale) SiO2 
 PCOD9248454
Probable space group: P 21/C
;
_chemical_formula_sum "Si O2"
_cell_formula_units_Z 32
_cell_length_a 18.654627
_cell_length_b 10.216306
_cell_length_c 25.284135
_cell_angle_alpha 90.000000
_cell_angle_beta 163.435660
_cell_angle_gamma 90.000000
_cell_volume 1373.767984
_symmetry_space_group_name_H-M "P 21/C"
_symmetry_group_IT_number 14
_symmetry_cell_setting 'monoclinic'
loop_
_space_group_symop_operation_xyz
x,y,z
-x,1/2+y,1/2-z
-x,-y,-z
x,1/2-y,1/2+z
loop_
_atom_site_type_symbol
_atom_site_label
_atom_site_fract_x
_atom_site_fract_y
_atom_site_fract_z
Si Si1 0.307302 0.520338 0.533197
Si Si2 0.168266 0.518598 0.208281
Si Si3 0.172074 0.473713 0.741980
Si Si4 0.731979 0.329780 0.868727
Si Si5 0.386530 0.641470 0.986991
Si Si6 0.092634 0.694180 0.603978
Si Si7 0.753880 0.433986 0.621279
Si Si8 0.502311 0.803318 0.681544
O O1 0.493395 0.400670 0.673025
O O2 0.155631 0.512047 0.370915
O O3 0.473642 0.650690 0.646190
O O4 0.118263 0.540010 0.448207
O O5 0.138611 0.664850 0.164223
O O6 0.459881 0.476924 0.412726
O O7 0.110955 0.517596 0.230548
O O8 0.976178 0.423484 0.042672
O O9 0.322555 0.347166 0.828109
O O10 0.209924 0.581516 0.723074
O O11 0.285387 0.530538 0.876615
O O12 0.801360 0.207276 0.880557
O O13 0.642231 0.315390 0.865528
O O14 0.391628 0.619195 0.053193
O O15 0.241625 0.776474 0.874262
O O16 0.795742 0.667310 0.393565
#
# Coordination Sequence:
#
# PCOD9248454 Si02
#       8
#     4   4   4   4   4   4   4   4
#     4  11  23  42  65 100 132 172 228 284 328 410
#     4  11  22  40  68  97 129 177 223 280 333 403
#     4  11  25  45  69  95 140 176 226 283 344 403
#     4  12  24  41  67  98 136 181 229 278 342 400
#     4  10  24  47  64  93 134 178 219 279 343 403
#     4  12  23  44  67  97 140 179 219 281 337 409
#     4  10  22  42  69  95 129 174 231 273 340 400
#     4  11  26  42  66  99 136 178 226 273 341 406
#
# _framework density 23.293597999999999
#
# number of rings (size 3 to 8) (size 9 to 14) (size 15 to 20)
#    0.000    1.000    5.000    1.875    5.250    1.500 
#    0.000    5.000    0.000    0.000    0.000    0.000 
#    0.000    0.000    0.000    0.000    0.000    0.000 
#
# Total GULP energy -178928.832596 kJ/mol
# GULP energy per Si atom -5591.526019 kJ/mol
# Density = 2.324058 g / cm^3
# Si number density = 23.293598 Si / 1000 Ang^3
#
#
#
# Elastic Constant Matrix: (Units=GPa)
#
#
# Indices 1 2 3 4 5 6 
#
# 1 186.2824 27.6483 38.0826 0.0000 -16.1893 0.0000
# 2 27.6483 36.0462 10.1810 0.0000 -11.0697 0.0000
# 3 38.0826 10.1810 66.5721 0.0000 -4.5309 0.0000
# 4 0.0000 0.0000 0.0000 20.6904 0.0000 -8.5141
# 5 -16.1893 -11.0697 -4.5309 0.0000 41.2394 0.0000
# 6 0.0000 0.0000 0.0000 -8.5141 0.0000 29.0561
#
#
#
# Elastic Compliance Matrix: (Units=1/GPa)
#
#
# Indices 1 2 3 4 5 6 
#
# 1 0.006694 -0.003862 -0.003154 0.000000 0.001245 0.000000
# 2 -0.003862 0.033616 -0.002439 0.000000 0.007240 0.000000
# 3 -0.003154 -0.002439 0.017198 0.000000 -0.000003 0.000000
# 4 0.000000 0.000000 0.000000 0.054959 0.000000 0.016104
# 5 0.001245 0.007240 -0.000003 0.000000 0.026680 0.000000
# 6 0.000000 0.000000 0.000000 0.016104 0.000000 0.039135
#
#
# Mechanical properties :
#
#
# Convention : Reuss Voigt Hill
#
# Bulk Modulus (GPa) = 25.90737 48.96937 37.43837
# Shear Modulus (GPa) = 23.80279 32.39643 28.09961
#
# Velocity S-wave (km/s) = 3.20012 3.73337 3.47698
# Velocity P-wave (km/s) = 4.98002 6.29701 5.67684
#
# Compressibility (1/GPa) = 0.03859905
#
# Stress axis : x y z
#
# Youngs Moduli (GPa) = 149.37966 29.74750 58.14464
#
# Poissons Ratio (x) = 0.11487 0.18340
# Poissons Ratio (y) = 0.57683 0.14183
# Poissons Ratio (z) = 0.47118 0.07256
#
# Static dielectric constant tensor:
#      x y z
#    x 1.936100 0.000000 -0.009380 
#    y 0.000000 1.835250 0.000000 
#    z -0.009380 0.000000 1.898960 
# 
# From -- ./inp_files/74419.got.cif
#   From: 2010.05.17/outbox.cif.g08.bks.cpg/sg14_38_cif.got.tgz:74419.got - 2010.06.03 17:49:19.
