data_PCOD9248028
_publ_section_title
;
Structure prediction by ZEFSAII (Michael W. Deem and Ramdas Pophale) SiO2 
 PCOD9248028
Probable space group: P 21/C
;
_chemical_formula_sum "Si O2"
_cell_formula_units_Z 28
_cell_length_a 7.227966
_cell_length_b 8.357078
_cell_length_c 27.682495
_cell_angle_alpha 90.000000
_cell_angle_beta 118.315797
_cell_angle_gamma 90.000000
_cell_volume 1472.073459
_symmetry_space_group_name_H-M "P 21/C"
_symmetry_group_IT_number 14
_symmetry_cell_setting 'monoclinic'
loop_
_space_group_symop_operation_xyz
x,y,z
-x,1/2+y,1/2-z
-x,-y,-z
x,1/2-y,1/2+z
loop_
_atom_site_type_symbol
_atom_site_label
_atom_site_fract_x
_atom_site_fract_y
_atom_site_fract_z
Si Si1 0.357859 0.311221 0.580911
Si Si2 0.267744 0.819762 0.704422
Si Si3 0.930476 0.316788 0.998874
Si Si4 0.387138 0.826567 0.118318
Si Si5 0.214227 0.395281 0.841960
Si Si6 0.345761 0.892193 0.447971
Si Si7 0.491911 0.613825 0.811129
O O1 0.392447 0.489039 0.604142
O O2 0.529166 0.244712 0.564834
O O3 0.376750 0.191005 0.628795
O O4 0.135202 0.292649 0.527010
O O5 0.302028 0.706212 0.661787
O O6 0.401760 0.747764 0.764724
O O7 0.025393 0.838771 0.689715
O O8 0.363011 0.989483 0.699635
O O9 0.818448 0.312528 0.036586
O O10 0.769491 0.265196 0.937558
O O11 0.000000 0.500000 0.000000
O O12 0.617098 0.748124 0.140662
O O13 0.244355 0.489889 0.896052
O O14 0.296510 0.516533 0.810620
O O15 0.500000 0.000000 0.500000
#
# Coordination Sequence:
#
# PCOD9248028 Si02
#       7
#     4   4   4   4   4   4   4
#     4  11  24  39  59  90 128 159 208 259 304 370
#     4  11  23  42  69  86 126 161 202 259 313 364
#     4  12  21  38  63  87 123 167 205 251 311 369
#     4  11  24  39  59  96 126 157 210 254 306 377
#     4  10  22  41  62  92 120 162 206 250 314 371
#     4  11  20  38  62  86 122 167 206 252 306 374
#     4  10  23  42  61  91 116 159 208 251 305 370
#
# _framework density 19.020790000000002
#
# number of rings (size 3 to 8) (size 9 to 14) (size 15 to 20)
#    0.000    1.143    2.857    4.714    0.000    5.143 
#    0.000    2.857    0.000    0.000    0.000    0.000 
#    0.000    0.000    0.000    0.000    0.000    0.000 
#
# Total GULP energy -156512.341197 kJ/mol
# GULP energy per Si atom -5589.726471 kJ/mol
# Density = 1.897750 g / cm^3
# Si number density = 19.020790 Si / 1000 Ang^3
#
#
#
# Elastic Constant Matrix: (Units=GPa)
#
#
# Indices 1 2 3 4 5 6 
#
# 1 73.5053 5.8005 30.2758 0.0000 10.0015 0.0000
# 2 5.8005 65.2271 9.9652 0.0000 3.7029 0.0000
# 3 30.2758 9.9652 58.4801 0.0000 2.6315 0.0000
# 4 0.0000 0.0000 0.0000 35.2301 0.0000 -2.5841
# 5 10.0015 3.7029 2.6315 0.0000 24.2191 0.0000
# 6 0.0000 0.0000 0.0000 -2.5841 0.0000 14.1093
#
#
#
# Elastic Compliance Matrix: (Units=1/GPa)
#
#
# Indices 1 2 3 4 5 6 
#
# 1 0.018271 0.000152 -0.009190 0.000000 -0.006570 0.000000
# 2 0.000152 0.015852 -0.002681 0.000000 -0.002195 0.000000
# 3 -0.009190 -0.002681 0.022234 0.000000 0.001789 0.000000
# 4 0.000000 0.000000 0.000000 0.028771 0.000000 0.005270
# 5 -0.006570 -0.002195 0.001789 0.000000 0.044144 0.000000
# 6 0.000000 0.000000 0.000000 0.005270 0.000000 0.071840
#
#
# Mechanical properties :
#
#
# Convention : Reuss Voigt Hill
#
# Bulk Modulus (GPa) = 30.37697 32.14394 31.26046
# Shear Modulus (GPa) = 21.22931 24.78977 23.00954
#
# Velocity S-wave (km/s) = 3.34445 3.61404 3.48185
# Velocity P-wave (km/s) = 5.56047 5.86098 5.71270
#
# Compressibility (1/GPa) = 0.03291967
#
# Stress axis : x y z
#
# Youngs Moduli (GPa) = 54.73005 63.08451 44.97660
#
# Poissons Ratio (x) = -0.00959 0.41332
# Poissons Ratio (y) = -0.00832 0.12059
# Poissons Ratio (z) = 0.50295 0.16914
#
# Static dielectric constant tensor:
#      x y z
#    x 1.691310 0.000000 0.026450 
#    y 0.000000 1.598660 0.000000 
#    z 0.026450 0.000000 1.656080 
# 
# From -- ./inp_files/78752.got.cif
#   From: 2010.05.17/outbox.cif.g08.bks.cpg/sg14_40_cif.got.tgz:78752.got - 2010.06.03 17:49:19.
