data_PCOD9248467
_publ_section_title
;
Structure prediction by ZEFSAII (Michael W. Deem and Ramdas Pophale) SiO2 
 PCOD9248467
Probable space group: P 21/C
;
_chemical_formula_sum "Si O2"
_cell_formula_units_Z 20
_cell_length_a 11.172255
_cell_length_b 7.514076
_cell_length_c 16.620473
_cell_angle_alpha 90.000000
_cell_angle_beta 34.138627
_cell_angle_gamma 90.000000
_cell_volume 783.024291
_symmetry_space_group_name_H-M "P 21/C"
_symmetry_group_IT_number 14
_symmetry_cell_setting 'monoclinic'
loop_
_space_group_symop_operation_xyz
x,y,z
-x,1/2+y,1/2-z
-x,-y,-z
x,1/2-y,1/2+z
loop_
_atom_site_type_symbol
_atom_site_label
_atom_site_fract_x
_atom_site_fract_y
_atom_site_fract_z
Si Si1 0.362444 0.027501 0.441946
Si Si2 0.840832 0.533081 0.661453
Si Si3 0.070715 0.644939 0.833308
Si Si4 0.868213 0.180927 0.884930
Si Si5 0.521678 0.919718 0.077296
O O1 0.412933 0.212480 0.459800
O O2 0.154222 0.083866 0.505417
O O3 0.589983 0.963974 0.280234
O O4 0.270049 0.860063 0.542183
O O5 0.883269 0.353924 0.688114
O O6 0.000000 0.500000 0.500000
O O7 0.928814 0.691355 0.669099
O O8 0.063434 0.613892 0.740848
O O9 0.289252 0.564443 0.746044
O O10 0.706534 0.036575 0.012990
O O11 0.500000 0.000000 0.000000
#
# Coordination Sequence:
#
# PCOD9248467 Si02
#       5
#     4   4   4   4   4
#     4  11  24  41  69  99 138 184 232 279 352 419
#     4  11  26  47  68 102 145 186 234 290 351 424
#     4  10  22  42  70 100 138 175 233 294 343 419
#     4  11  23  41  70 102 139 179 231 285 356 409
#     4   9  21  39  62  99 136 173 223 293 339 405
#
# _framework density 25.541990999999999
#
# number of rings (size 3 to 8) (size 9 to 14) (size 15 to 20)
#    0.000    1.600    2.000    1.200    5.600   12.800 
#    0.000    1.000    0.000    0.000    0.000    0.000 
#    0.000    0.000    0.000    0.000    0.000    0.000 
#
# Total GULP energy -111685.081344 kJ/mol
# GULP energy per Si atom -5584.254067 kJ/mol
# Density = 2.548386 g / cm^3
# Si number density = 25.541991 Si / 1000 Ang^3
#
#
#
# Elastic Constant Matrix: (Units=GPa)
#
#
# Indices 1 2 3 4 5 6 
#
# 1 50.8598 16.2878 55.1061 0.0000 -27.5253 0.0000
# 2 16.2878 114.6139 52.0177 0.0000 -18.3198 0.0000
# 3 55.1061 52.0177 187.8484 0.0000 -52.4577 0.0000
# 4 0.0000 0.0000 0.0000 35.3777 0.0000 -25.4678
# 5 -27.5253 -18.3198 -52.4577 0.0000 57.7091 0.0000
# 6 0.0000 0.0000 0.0000 -25.4678 0.0000 18.8383
#
#
#
# Elastic Compliance Matrix: (Units=1/GPa)
#
#
# Indices 1 2 3 4 5 6 
#
# 1 0.031976 0.000013 -0.006867 0.000000 0.009014 0.000000
# 2 0.000013 0.010012 -0.002529 0.000000 0.000886 0.000000
# 3 -0.006867 -0.002529 0.009247 0.000000 0.004327 0.000000
# 4 0.000000 0.000000 0.000000 1.055608 0.000000 1.427093
# 5 0.009014 0.000886 0.004327 0.000000 0.025842 0.000000
# 6 0.000000 0.000000 0.000000 1.427093 0.000000 1.982392
#
#
# Mechanical properties :
#
#
# Convention : Reuss Voigt Hill
#
# Bulk Modulus (GPa) = 30.79812 66.68282 48.74047
# Shear Modulus (GPa) = 1.58999 37.71238 19.65119
#
# Velocity S-wave (km/s) = 0.78984 3.84667 2.77676
# Velocity P-wave (km/s) = 3.59386 6.77444 5.42258
#
# Compressibility (1/GPa) = 0.03246951
#
# Stress axis : x y z
#
# Youngs Moduli (GPa) = 31.27346 99.87526 108.14860
#
# Poissons Ratio (x) = -0.00131 0.74264
# Poissons Ratio (y) = -0.00041 0.27352
# Poissons Ratio (z) = 0.21475 0.25259
#
# Static dielectric constant tensor:
#      x y z
#    x 2.070320 0.000000 -0.044740 
#    y 0.000000 2.053600 0.000000 
#    z -0.044740 0.000000 2.088200 
# 
# From -- ./inp_files/57216.got.cif
#   From: 2010.05.17/outbox.cif.g08.bks.cpg/sg14_29_cif.got.tgz:57216.got - 2010.06.03 17:49:19.
