data_PCOD9248483
_publ_section_title
;
Structure prediction by ZEFSAII (Michael W. Deem and Ramdas Pophale) SiO2 
 PCOD9248483
Probable space group: P 21/C
;
_chemical_formula_sum "Si O2"
_cell_formula_units_Z 22
_cell_length_a 8.699887
_cell_length_b 5.089461
_cell_length_c 21.954062
_cell_angle_alpha 90.000000
_cell_angle_beta 70.980746
_cell_angle_gamma 90.000000
_cell_volume 919.009656
_symmetry_space_group_name_H-M "P 21/C"
_symmetry_group_IT_number 14
_symmetry_cell_setting 'monoclinic'
loop_
_space_group_symop_operation_xyz
x,y,z
-x,1/2+y,1/2-z
-x,-y,-z
x,1/2-y,1/2+z
loop_
_atom_site_type_symbol
_atom_site_label
_atom_site_fract_x
_atom_site_fract_y
_atom_site_fract_z
Si Si1 0.546626 0.920751 0.283169
Si Si2 0.827964 0.285676 0.993153
Si Si3 0.085902 0.892227 0.763786
Si Si4 0.904808 0.997938 0.101637
Si Si5 0.620282 0.682447 0.086912
Si Si6 0.500000 0.500000 0.500000
O O1 0.476411 0.136638 0.244330
O O2 0.733410 0.997905 0.271889
O O3 0.452182 0.958501 0.359407
O O4 0.738068 0.555105 0.020267
O O5 0.916143 0.201036 0.044503
O O6 0.677733 0.093328 0.000343
O O7 0.960049 0.228581 0.924703
O O8 0.040989 0.618062 0.738933
O O9 0.077079 0.859681 0.837425
O O10 0.730141 0.861928 0.116182
O O11 0.481175 0.825512 0.066563
#
# Coordination Sequence:
#
# PCOD9248483 Si02
#       6
#     4   4   4   4   4   2
#     4  12  26  48  77 104 143 199 248 297 363 441
#     4  10  22  42  70  97 139 181 233 294 365 415
#     4  12  28  48  71 109 148 192 245 304 365 429
#     4  10  23  44  67 100 137 186 235 292 358 438
#     4  11  23  43  71  97 142 181 245 289 362 428
#     4  10  24  40  60 110 130 180 232 302 352 424
#
# _framework density 23.938813
#
# number of rings (size 3 to 8) (size 9 to 14) (size 15 to 20)
#    0.000    1.091    1.818    3.273    7.636    1.455 
#    0.000    0.000    0.000    0.000    0.000    0.000 
#    0.000    0.000    0.000    0.000    0.000    0.000 
#
# Total GULP energy -122613.597243 kJ/mol
# GULP energy per Si atom -5573.345329 kJ/mol
# Density = 2.388433 g / cm^3
# Si number density = 23.938813 Si / 1000 Ang^3
#
#
#
# Elastic Constant Matrix: (Units=GPa)
#
#
# Indices 1 2 3 4 5 6 
#
# 1 77.0245 -0.6426 28.8547 0.0000 10.6774 0.0000
# 2 -0.6426 68.1975 -0.0293 0.0000 12.1402 0.0000
# 3 28.8547 -0.0293 58.0132 0.0000 7.4601 0.0000
# 4 0.0000 0.0000 0.0000 27.0354 0.0000 -3.9978
# 5 10.6774 12.1402 7.4601 0.0000 29.4755 0.0000
# 6 0.0000 0.0000 0.0000 -3.9978 0.0000 10.5058
#
#
#
# Elastic Compliance Matrix: (Units=1/GPa)
#
#
# Indices 1 2 3 4 5 6 
#
# 1 0.016457 0.000939 -0.007616 0.000000 -0.004420 0.000000
# 2 0.000939 0.015920 0.000442 0.000000 -0.007009 0.000000
# 3 -0.007616 0.000442 0.021391 0.000000 -0.002837 0.000000
# 4 0.000000 0.000000 0.000000 0.039194 0.000000 0.014915
# 5 -0.004420 -0.007009 -0.002837 0.000000 0.039133 0.000000
# 6 0.000000 0.000000 0.000000 0.014915 0.000000 0.100861
#
#
# Mechanical properties :
#
#
# Convention : Reuss Voigt Hill
#
# Bulk Modulus (GPa) = 24.21478 28.84455 26.52966
# Shear Modulus (GPa) = 19.29077 25.07349 22.18213
#
# Velocity S-wave (km/s) = 2.84181 3.23987 3.04734
# Velocity P-wave (km/s) = 4.57220 5.10598 4.84645
#
# Compressibility (1/GPa) = 0.04129710
#
# Stress axis : x y z
#
# Youngs Moduli (GPa) = 60.76551 62.81387 46.74911
#
# Poissons Ratio (x) = -0.05896 0.35606
# Poissons Ratio (y) = -0.05704 -0.02069
# Poissons Ratio (z) = 0.46281 -0.02779
#
# Static dielectric constant tensor:
#      x y z
#    x 1.875230 0.000000 -0.041100 
#    y 0.000000 2.004520 0.000000 
#    z -0.041100 0.000000 1.931170 
# 
# From -- ./inp_files/64130.got.cif
#   From: 2010.05.17/outbox.cif.g08.bks.cpg/sg14_33_cif.got.tgz:64130.got - 2010.06.03 17:49:19.
