data_PCOD9248990
_publ_section_title
;
Structure prediction by ZEFSAII (Michael W. Deem and Ramdas Pophale) SiO2 
 PCOD9248990
Probable space group: P 21/C
;
_chemical_formula_sum "Si O2"
_cell_formula_units_Z 20
_cell_length_a 20.023218
_cell_length_b 5.625348
_cell_length_c 10.485663
_cell_angle_alpha 90.000000
_cell_angle_beta 136.054011
_cell_angle_gamma 90.000000
_cell_volume 819.645571
_symmetry_space_group_name_H-M "P 21/C"
_symmetry_group_IT_number 14
_symmetry_cell_setting 'monoclinic'
loop_
_space_group_symop_operation_xyz
x,y,z
-x,1/2+y,1/2-z
-x,-y,-z
x,1/2-y,1/2+z
loop_
_atom_site_type_symbol
_atom_site_label
_atom_site_fract_x
_atom_site_fract_y
_atom_site_fract_z
Si Si1 0.565665 0.929610 0.471383
Si Si2 0.938938 0.203662 0.349226
Si Si3 0.611060 0.071632 0.955421
Si Si4 0.860400 0.905665 0.884141
Si Si5 0.211576 0.100288 0.957004
O O1 0.495263 0.908338 0.251958
O O2 0.631825 0.164002 0.539285
O O3 0.500000 0.000000 0.500000
O O4 0.607305 0.661939 0.540780
O O5 0.866479 0.321329 0.350713
O O6 0.026694 0.364942 0.423939
O O7 0.868311 0.107224 0.146215
O O8 0.000000 0.000000 0.500000
O O9 0.687281 0.001088 0.950691
O O10 0.827339 0.775253 0.707223
O O11 0.795070 0.809767 0.908371
#
# Coordination Sequence:
#
# PCOD9248990 Si02
#       5
#     4   4   4   4   4
#     4  10  22  45  68  94 136 175 217 283 344 414
#     4   9  22  41  62  93 130 181 226 275 344 396
#     4  10  24  41  66 104 128 175 227 275 349 406
#     4  10  24  43  65  95 138 176 230 285 339 408
#     4  11  25  40  68 100 132 181 228 283 340 411
#
# _framework density 24.400789
#
# number of rings (size 3 to 8) (size 9 to 14) (size 15 to 20)
#    0.000    2.000    0.000    0.600   14.000    1.600 
#    0.000    0.000    0.000    0.000    0.000    0.000 
#    0.000    0.000    0.000    0.000    0.000    0.000 
#
# Total GULP energy -111513.796368 kJ/mol
# GULP energy per Si atom -5575.689818 kJ/mol
# Density = 2.434525 g / cm^3
# Si number density = 24.400789 Si / 1000 Ang^3
#
#
#
# Elastic Constant Matrix: (Units=GPa)
#
#
# Indices 1 2 3 4 5 6 
#
# 1 119.4544 10.1799 -0.8343 0.0000 -15.0718 0.0000
# 2 10.1799 91.2486 7.9328 0.0000 -4.8430 0.0000
# 3 -0.8343 7.9328 62.8827 0.0000 8.7503 0.0000
# 4 0.0000 0.0000 0.0000 15.8427 0.0000 -1.3619
# 5 -15.0718 -4.8430 8.7503 0.0000 39.7927 0.0000
# 6 0.0000 0.0000 0.0000 -1.3619 0.0000 31.0218
#
#
#
# Elastic Compliance Matrix: (Units=1/GPa)
#
#
# Indices 1 2 3 4 5 6 
#
# 1 0.008855 -0.000791 -0.000243 0.000000 0.003311 0.000000
# 2 -0.000791 0.011265 -0.001631 0.000000 0.001430 0.000000
# 3 -0.000243 -0.001631 0.016655 0.000000 -0.003953 0.000000
# 4 0.000000 0.000000 0.000000 0.063360 0.000000 0.002782
# 5 0.003311 0.001430 -0.003953 0.000000 0.027428 0.000000
# 6 0.000000 0.000000 0.000000 0.002782 0.000000 0.032358
#
#
# Mechanical properties :
#
#
# Convention : Reuss Voigt Hill
#
# Bulk Modulus (GPa) = 31.80161 34.23806 33.01983
# Shear Modulus (GPa) = 28.45248 34.41859 31.43554
#
# Velocity S-wave (km/s) = 3.41845 3.75981 3.59318
# Velocity P-wave (km/s) = 5.35186 5.73674 5.54764
#
# Compressibility (1/GPa) = 0.03144495
#
# Stress axis : x y z
#
# Youngs Moduli (GPa) = 112.93216 88.77080 60.04139
#
# Poissons Ratio (x) = 0.07022 0.01462
# Poissons Ratio (y) = 0.08933 0.09790
# Poissons Ratio (z) = 0.02750 0.14475
#
# Static dielectric constant tensor:
#      x y z
#    x 2.011270 0.000000 -0.010500 
#    y 0.000000 2.097090 0.000000 
#    z -0.010500 0.000000 1.957490 
# 
# From -- ./inp_files/30995.got.cif
#   From: 2010.05.17/outbox.cif.g08.bks.cpg/sg14_16_cif.got.tgz:30995.got - 2010.06.03 17:49:19.
