data_PCOD9248249
_publ_section_title
;
Structure prediction by ZEFSAII (Michael W. Deem and Ramdas Pophale) SiO2 
 PCOD9248249
Probable space group: P 21/C
;
_chemical_formula_sum "Si O2"
_cell_formula_units_Z 28
_cell_length_a 23.730401
_cell_length_b 7.648368
_cell_length_c 9.699194
_cell_angle_alpha 90.000000
_cell_angle_beta 33.773756
_cell_angle_gamma 90.000000
_cell_volume 978.628448
_symmetry_space_group_name_H-M "P 21/C"
_symmetry_group_IT_number 14
_symmetry_cell_setting 'monoclinic'
loop_
_space_group_symop_operation_xyz
x,y,z
-x,1/2+y,1/2-z
-x,-y,-z
x,1/2-y,1/2+z
loop_
_atom_site_type_symbol
_atom_site_label
_atom_site_fract_x
_atom_site_fract_y
_atom_site_fract_z
Si Si1 0.095067 0.702872 0.379020
Si Si2 0.787181 0.215077 0.113029
Si Si3 0.631899 0.251577 0.667528
Si Si4 0.789902 0.699577 0.573736
Si Si5 0.089170 0.209819 0.923026
Si Si6 0.500000 0.500000 0.000000
Si Si7 0.435163 0.250333 0.875596
Si Si8 0.500000 0.000000 0.000000
O O1 0.122447 0.786496 0.470019
O O2 0.074806 0.499591 0.448974
O O3 0.007106 0.784355 0.464440
O O4 0.196033 0.717001 0.076334
O O5 0.691447 0.251073 0.405984
O O6 0.798035 0.007339 0.080638
O O7 0.503219 0.255875 0.881537
O O8 0.621575 0.428282 0.772736
O O9 0.614342 0.084074 0.796248
O O10 0.879983 0.774840 0.488947
O O11 0.814677 0.749374 0.368395
O O12 0.680355 0.760026 0.844515
O O13 0.466200 0.404828 0.212987
O O14 0.454469 0.412398 0.736508
#
# Coordination Sequence:
#
# PCOD9248249 Si02
#       8
#     4   4   4   4   4   2   4   2
#     4  10  24  45  67  95 128 163 210 267 320 376
#     4  11  25  41  68  96 127 168 213 258 319 377
#     4  11  24  39  61  90 126 165 208 256 306 372
#     4  11  25  41  68  96 127 168 213 258 319 377
#     4  10  24  45  67  95 128 163 210 267 320 376
#     4  10  26  38  60  88 126 164 218 246 310 362
#     4  11  24  39  61  90 126 165 208 256 306 372
#     4  10  22  42  60  80 134 160 206 258 314 350
#
# _framework density 28.611471999999999
#
# number of rings (size 3 to 8) (size 9 to 14) (size 15 to 20)
#    0.000    1.429    1.429    1.714   10.000    1.714 
#    0.000    0.000    0.000    0.000    0.000    0.000 
#    0.000    0.000    0.000    0.000    0.000    0.000 
#
# Total GULP energy -156004.985597 kJ/mol
# GULP energy per Si atom -5571.606628 kJ/mol
# Density = 2.854635 g / cm^3
# Si number density = 28.611472 Si / 1000 Ang^3
#
#
#
# Elastic Constant Matrix: (Units=GPa)
#
#
# Indices 1 2 3 4 5 6 
#
# 1 120.9406 -5.4182 -5.3115 0.0000 24.9910 0.0000
# 2 -5.4182 65.8375 -2.0839 0.0000 -2.6611 0.0000
# 3 -5.3115 -2.0839 94.9391 0.0000 30.6202 0.0000
# 4 0.0000 0.0000 0.0000 11.8254 0.0000 -3.4076
# 5 24.9910 -2.6611 30.6202 0.0000 35.7631 0.0000
# 6 0.0000 0.0000 0.0000 -3.4076 0.0000 14.1288
#
#
#
# Elastic Compliance Matrix: (Units=1/GPa)
#
#
# Indices 1 2 3 4 5 6 
#
# 1 0.010763 0.000571 0.004181 0.000000 -0.011059 0.000000
# 2 0.000571 0.015265 0.000179 0.000000 0.000584 0.000000
# 3 0.004181 0.000179 0.016176 0.000000 -0.016758 0.000000
# 4 0.000000 0.000000 0.000000 0.090880 0.000000 0.021918
# 5 -0.011059 0.000584 -0.016758 0.000000 0.050081 0.000000
# 6 0.000000 0.000000 0.000000 0.021918 0.000000 0.076064
#
#
# Mechanical properties :
#
#
# Convention : Reuss Voigt Hill
#
# Bulk Modulus (GPa) = 19.20625 28.45443 23.83034
# Shear Modulus (GPa) = 18.74611 31.97884 25.36247
#
# Velocity S-wave (km/s) = 2.56246 3.34682 2.98055
# Velocity P-wave (km/s) = 3.93475 4.99015 4.49354
#
# Compressibility (1/GPa) = 0.05206640
#
# Stress axis : x y z
#
# Youngs Moduli (GPa) = 92.91202 65.50858 61.82039
#
# Poissons Ratio (x) = -0.03741 -0.25849
# Poissons Ratio (y) = -0.05306 -0.01105
# Poissons Ratio (z) = -0.38850 -0.01171
#
# Static dielectric constant tensor:
#      x y z
#    x 2.311100 0.000000 0.512200 
#    y 0.000000 1.340330 0.000000 
#    z 0.512200 0.000000 -2.551190 
# 
# From -- ./inp_files/31554.got.cif
#   From: 2010.05.17/outbox.cif.g08.bks.cpg/sg14_16_cif.got.tgz:31554.got - 2010.06.03 17:49:19.
