data_PCOD9248720
_publ_section_title
;
Structure prediction by ZEFSAII (Michael W. Deem and Ramdas Pophale) SiO2 
 PCOD9248720
Probable space group: P 21/C
;
_chemical_formula_sum "Si O2"
_cell_formula_units_Z 32
_cell_length_a 10.728614
_cell_length_b 14.187681
_cell_length_c 8.589995
_cell_angle_alpha 90.000000
_cell_angle_beta 77.174643
_cell_angle_gamma 90.000000
_cell_volume 1274.897800
_symmetry_space_group_name_H-M "P 21/C"
_symmetry_group_IT_number 14
_symmetry_cell_setting 'monoclinic'
loop_
_space_group_symop_operation_xyz
x,y,z
-x,1/2+y,1/2-z
-x,-y,-z
x,1/2-y,1/2+z
loop_
_atom_site_type_symbol
_atom_site_label
_atom_site_fract_x
_atom_site_fract_y
_atom_site_fract_z
Si Si1 0.751693 0.502618 0.248448
Si Si2 0.680960 0.861990 0.243312
Si Si3 0.901334 0.930300 0.396210
Si Si4 0.530588 0.769118 0.569282
Si Si5 0.518154 0.030743 0.313804
Si Si6 0.253011 0.804121 0.077445
Si Si7 0.039674 0.430930 0.626801
Si Si8 0.086088 0.758582 0.373625
O O1 0.603071 0.502868 0.254478
O O2 0.776046 0.404523 0.333079
O O3 0.815351 0.573618 0.352708
O O4 0.814443 0.530359 0.062653
O O5 0.815685 0.874042 0.292792
O O6 0.587362 0.817776 0.400490
O O7 0.643165 0.793348 0.113105
O O8 0.637576 0.970132 0.221955
O O9 0.009357 0.855376 0.420414
O O10 0.964358 0.019781 0.291828
O O11 0.400548 0.714131 0.570277
O O12 0.483253 0.856885 0.688172
O O13 0.500000 0.000000 0.500000
O O14 0.130616 0.748821 0.182589
O O15 0.223052 0.769197 0.912237
O O16 0.004280 0.329234 0.575407
O O17 0.000000 0.500000 0.500000
#
# Coordination Sequence:
#
# PCOD9248720 Si02
#       8
#     4   4   4   4   4   4   4   4
#     4  12  23  47  72 107 144 194 244 300 360 444
#     4  11  25  45  70 107 140 191 241 296 369 436
#     4  12  27  47  77 103 147 202 242 295 376 453
#     4  11  24  45  70 103 143 185 239 304 361 432
#     4  10  22  43  71 101 139 186 240 288 362 433
#     4  12  26  43  75 103 144 188 250 302 360 437
#     4  12  27  47  69 107 152 186 242 309 367 432
#     4  12  27  45  70 108 144 194 243 299 370 435
#
# _framework density 25.100051000000001
#
# number of rings (size 3 to 8) (size 9 to 14) (size 15 to 20)
#    0.000    0.500    6.250    1.875    7.000    2.000 
#    0.000    0.625    0.000    0.000    0.000    0.000 
#    0.000    0.000    0.000    0.000    0.000    0.000 
#
# Total GULP energy -178623.698937 kJ/mol
# GULP energy per Si atom -5581.990592 kJ/mol
# Density = 2.504292 g / cm^3
# Si number density = 25.100051 Si / 1000 Ang^3
#
#
#
# Elastic Constant Matrix: (Units=GPa)
#
#
# Indices 1 2 3 4 5 6 
#
# 1 104.5769 29.2477 40.6159 0.0000 32.0613 0.0000
# 2 29.2477 106.2396 26.0153 0.0000 2.9195 0.0000
# 3 40.6159 26.0153 40.4668 0.0000 7.8478 0.0000
# 4 0.0000 0.0000 0.0000 30.1549 0.0000 5.9646
# 5 32.0613 2.9195 7.8478 0.0000 46.1798 0.0000
# 6 0.0000 0.0000 0.0000 5.9646 0.0000 38.1489
#
#
#
# Elastic Compliance Matrix: (Units=1/GPa)
#
#
# Indices 1 2 3 4 5 6 
#
# 1 0.019799 -0.000949 -0.017173 0.000000 -0.010767 0.000000
# 2 -0.000949 0.011229 -0.006470 0.000000 0.001049 0.000000
# 3 -0.017173 -0.006470 0.045206 0.000000 0.004650 0.000000
# 4 0.000000 0.000000 0.000000 0.034220 0.000000 -0.005350
# 5 -0.010767 0.001049 0.004650 0.000000 0.028273 0.000000
# 6 0.000000 0.000000 0.000000 -0.005350 0.000000 0.027050
#
#
# Mechanical properties :
#
#
# Convention : Reuss Voigt Hill
#
# Bulk Modulus (GPa) = 36.96963 49.22679 43.09821
# Shear Modulus (GPa) = 22.32362 33.25701 27.79032
#
# Velocity S-wave (km/s) = 2.98549 3.64397 3.33104
# Velocity P-wave (km/s) = 5.16189 6.11224 5.65706
#
# Compressibility (1/GPa) = 0.02704923
#
# Stress axis : x y z
#
# Youngs Moduli (GPa) = 50.50845 89.05122 22.12118
#
# Poissons Ratio (x) = 0.08455 0.37989
# Poissons Ratio (y) = 0.04795 0.14312
# Poissons Ratio (z) = 0.86739 0.57613
#
# Static dielectric constant tensor:
#      x y z
#    x 2.040030 0.000000 -0.053190 
#    y 0.000000 2.009990 0.000000 
#    z -0.053190 0.000000 2.022650 
# 
# From -- ./inp_files/13319.got.cif
#   From: 2010.05.17/outbox.cif.g08.bks.cpg/sg14_7_cif.got.tgz:13319.got - 2010.06.03 17:49:19.
