data_PCOD9248115
_publ_section_title
;
Structure prediction by ZEFSAII (Michael W. Deem and Ramdas Pophale) SiO2 
 PCOD9248115
Probable space group: P 21/C
;
_chemical_formula_sum "Si O2"
_cell_formula_units_Z 28
_cell_length_a 18.335063
_cell_length_b 6.504731
_cell_length_c 13.755643
_cell_angle_alpha 90.000000
_cell_angle_beta 62.921707
_cell_angle_gamma 90.000000
_cell_volume 1460.732321
_symmetry_space_group_name_H-M "P 21/C"
_symmetry_group_IT_number 14
_symmetry_cell_setting 'monoclinic'
loop_
_space_group_symop_operation_xyz
x,y,z
-x,1/2+y,1/2-z
-x,-y,-z
x,1/2-y,1/2+z
loop_
_atom_site_type_symbol
_atom_site_label
_atom_site_fract_x
_atom_site_fract_y
_atom_site_fract_z
Si Si1 0.812367 0.240068 0.956277
Si Si2 0.599857 0.543719 0.337232
Si Si3 0.741175 0.855651 0.897657
Si Si4 0.906145 0.875751 0.313722
Si Si5 0.960202 0.977147 0.919366
Si Si6 0.448124 0.692692 0.996262
Si Si7 0.672467 0.517679 0.082987
O O1 0.867195 0.406074 0.866057
O O2 0.761357 0.087711 0.917640
O O3 0.750619 0.374280 0.057399
O O4 0.873859 0.093918 0.975769
O O5 0.672784 0.648065 0.355641
O O6 0.590109 0.316973 0.389982
O O7 0.512983 0.654342 0.406473
O O8 0.623216 0.552367 0.210892
O O9 0.829091 0.754657 0.818882
O O10 0.704845 0.723504 0.009976
O O11 0.940663 0.747618 0.385458
O O12 0.978947 0.912992 0.194153
O O13 0.000000 0.000000 0.000000
O O14 0.381994 0.606558 0.961436
O O15 0.500000 0.500000 0.000000
#
# Coordination Sequence:
#
# PCOD9248115 Si02
#       7
#     4   4   4   4   4   4   4
#     4  10  22  43  63  93 136 166 213 268 318 384
#     4  11  25  41  68  93 125 173 210 266 323 378
#     4  10  22  42  63  94 131 164 216 260 318 385
#     4  10  22  41  65  93 133 166 208 270 312 377
#     4  11  23  41  67  95 125 171 217 262 322 386
#     4  11  24  43  62  95 129 165 218 264 317 383
#     4  11  24  42  66  94 130 170 215 267 320 387
#
# _framework density 19.168469000000002
#
# number of rings (size 3 to 8) (size 9 to 14) (size 15 to 20)
#    0.000    1.429    4.286    0.000    2.000    6.286 
#    0.000    0.000    0.000    0.000    0.000    0.000 
#    0.000    0.000    0.000    0.000    0.000    0.000 
#
# Total GULP energy -156279.685323 kJ/mol
# GULP energy per Si atom -5581.417333 kJ/mol
# Density = 1.912484 g / cm^3
# Si number density = 19.168469 Si / 1000 Ang^3
#
#
#
# Elastic Constant Matrix: (Units=GPa)
#
#
# Indices 1 2 3 4 5 6 
#
# 1 84.1012 30.5028 22.8291 0.0000 -0.3944 0.0000
# 2 30.5028 102.1593 39.9690 0.0000 5.5905 0.0000
# 3 22.8291 39.9690 76.2139 0.0000 -3.2946 0.0000
# 4 0.0000 0.0000 0.0000 20.7230 0.0000 -10.1388
# 5 -0.3944 5.5905 -3.2946 0.0000 24.5144 0.0000
# 6 0.0000 0.0000 0.0000 -10.1388 0.0000 41.4498
#
#
#
# Elastic Compliance Matrix: (Units=1/GPa)
#
#
# Indices 1 2 3 4 5 6 
#
# 1 0.013701 -0.003183 -0.002408 0.000000 0.000623 0.000000
# 2 -0.003183 0.013398 -0.006243 0.000000 -0.003946 0.000000
# 3 -0.002408 -0.006243 0.017277 0.000000 0.003707 0.000000
# 4 0.000000 0.000000 0.000000 0.054815 0.000000 0.013408
# 5 0.000623 -0.003946 0.003707 0.000000 0.042200 0.000000
# 6 0.000000 0.000000 0.000000 0.013408 0.000000 0.027405
#
#
# Mechanical properties :
#
#
# Convention : Reuss Voigt Hill
#
# Bulk Modulus (GPa) = 48.29216 49.89736 49.09476
# Shear Modulus (GPa) = 25.07934 28.61567 26.84751
#
# Velocity S-wave (km/s) = 3.62106 3.86794 3.74653
# Velocity P-wave (km/s) = 6.53689 6.78494 6.66207
#
# Compressibility (1/GPa) = 0.02070730
#
# Stress axis : x y z
#
# Youngs Moduli (GPa) = 72.98511 74.64062 57.88165
#
# Poissons Ratio (x) = 0.23758 0.13938
# Poissons Ratio (y) = 0.23231 0.36137
# Poissons Ratio (z) = 0.17574 0.46600
#
# Static dielectric constant tensor:
#      x y z
#    x 1.701300 0.000000 -0.022210 
#    y 0.000000 1.693010 0.000000 
#    z -0.022210 0.000000 1.630020 
# 
# From -- ./inp_files/48094.got.cif
#   From: 2010.05.17/outbox.cif.g08.bks.cpg/sg14_25_cif.got.tgz:48094.got - 2010.06.03 17:49:19.
