data_PCOD9248092
_publ_section_title
;
Structure prediction by ZEFSAII (Michael W. Deem and Ramdas Pophale) SiO2 
 PCOD9248092
Probable space group: P 21/C
;
_chemical_formula_sum "Si O2"
_cell_formula_units_Z 24
_cell_length_a 11.020997
_cell_length_b 13.250080
_cell_length_c 13.497184
_cell_angle_alpha 90.000000
_cell_angle_beta 28.316029
_cell_angle_gamma 90.000000
_cell_volume 934.904559
_symmetry_space_group_name_H-M "P 21/C"
_symmetry_group_IT_number 14
_symmetry_cell_setting 'monoclinic'
loop_
_space_group_symop_operation_xyz
x,y,z
-x,1/2+y,1/2-z
-x,-y,-z
x,1/2-y,1/2+z
loop_
_atom_site_type_symbol
_atom_site_label
_atom_site_fract_x
_atom_site_fract_y
_atom_site_fract_z
Si Si1 0.299949 0.510380 0.552941
Si Si2 0.738832 0.528139 0.742238
Si Si3 0.445434 0.603380 0.774929
Si Si4 0.102087 0.639006 0.843670
Si Si5 0.530460 0.327726 0.944430
Si Si6 0.465862 0.180761 0.255363
O O1 0.500000 0.500000 0.500000
O O2 0.314827 0.409568 0.476096
O O3 0.066271 0.557071 0.781387
O O4 0.399762 0.594206 0.404163
O O5 0.526727 0.535992 0.808178
O O6 0.694796 0.430166 0.842041
O O7 0.000000 0.500000 0.500000
O O8 0.719842 0.635552 0.813823
O O9 0.214154 0.589805 0.864061
O O10 0.406595 0.711299 0.852578
O O11 0.304818 0.725232 0.660452
O O12 0.829700 0.685830 0.062639
O O13 0.475290 0.326447 0.867230
#
# Coordination Sequence:
#
# PCOD9248092 Si02
#       6
#     4   4   4   4   4   4
#     4  10  22  42  63  96 134 167 227 280 325 408
#     4  11  22  40  64  91 133 173 219 274 340 389
#     4  10  22  41  64  96 132 170 224 277 320 408
#     4  10  23  42  65  93 135 175 219 278 338 396
#     4  10  23  40  61  98 128 169 228 272 323 418
#     4  11  22  42  67  95 133 178 224 273 347 394
#
# _framework density 25.67107
#
# number of rings (size 3 to 8) (size 9 to 14) (size 15 to 20)
#    0.000    1.667    1.667    2.000    2.333    2.667 
#    0.000   15.000    0.000    0.000    0.000    0.000 
#    0.000    0.000    0.000    0.000    0.000    0.000 
#
# Total GULP energy -133819.028187 kJ/mol
# GULP energy per Si atom -5575.792841 kJ/mol
# Density = 2.561264 g / cm^3
# Si number density = 25.671070 Si / 1000 Ang^3
#
#
#
# Elastic Constant Matrix: (Units=GPa)
#
#
# Indices 1 2 3 4 5 6 
#
# 1 100.8554 -0.6480 21.6227 0.0000 17.1748 0.0000
# 2 -0.6480 82.6245 10.5666 0.0000 17.2544 0.0000
# 3 21.6227 10.5666 71.4755 0.0000 13.7987 0.0000
# 4 0.0000 0.0000 0.0000 29.0604 0.0000 21.3990
# 5 17.1748 17.2544 13.7987 0.0000 37.0481 0.0000
# 6 0.0000 0.0000 0.0000 21.3990 0.0000 50.4615
#
#
#
# Elastic Compliance Matrix: (Units=1/GPa)
#
#
# Indices 1 2 3 4 5 6 
#
# 1 0.011343 0.001465 -0.002695 0.000000 -0.004937 0.000000
# 2 0.001465 0.013643 -0.001188 0.000000 -0.006590 0.000000
# 3 -0.002695 -0.001188 0.015767 0.000000 -0.004070 0.000000
# 4 0.000000 0.000000 0.000000 0.050035 0.000000 -0.021218
# 5 -0.004937 -0.006590 -0.004070 0.000000 0.033866 0.000000
# 6 0.000000 0.000000 0.000000 -0.021218 0.000000 0.028815
#
#
# Mechanical properties :
#
#
# Convention : Reuss Voigt Hill
#
# Bulk Modulus (GPa) = 27.84192 35.33756 31.58974
# Shear Modulus (GPa) = 29.36379 38.20826 33.78602
#
# Velocity S-wave (km/s) = 3.38575 3.86214 3.63176
# Velocity P-wave (km/s) = 5.11406 5.80375 5.46979
#
# Compressibility (1/GPa) = 0.03591706
#
# Stress axis : x y z
#
# Youngs Moduli (GPa) = 88.15968 73.29993 63.42193
#
# Poissons Ratio (x) = -0.10735 0.17092
# Poissons Ratio (y) = -0.12911 0.07532
# Poissons Ratio (z) = 0.23758 0.08705
#
# Static dielectric constant tensor:
#      x y z
#    x 2.009760 0.000000 0.038160 
#    y 0.000000 2.199170 0.000000 
#    z 0.038160 0.000000 2.178090 
# 
# From -- ./inp_files/44884.got.cif
#   From: 2010.05.17/outbox.cif.g08.bks.cpg/sg14_23_cif.got.tgz:44884.got - 2010.06.03 17:49:19.
