data_PCOD9248513
_publ_section_title
;
Structure prediction by ZEFSAII (Michael W. Deem and Ramdas Pophale) SiO2 
 PCOD9248513
Probable space group: P 21/C
;
_chemical_formula_sum "Si O2"
_cell_formula_units_Z 24
_cell_length_a 17.302487
_cell_length_b 5.071519
_cell_length_c 11.751768
_cell_angle_alpha 90.000000
_cell_angle_beta 100.190251
_cell_angle_gamma 90.000000
_cell_volume 1014.949677
_symmetry_space_group_name_H-M "P 21/C"
_symmetry_group_IT_number 14
_symmetry_cell_setting 'monoclinic'
loop_
_space_group_symop_operation_xyz
x,y,z
-x,1/2+y,1/2-z
-x,-y,-z
x,1/2-y,1/2+z
loop_
_atom_site_type_symbol
_atom_site_label
_atom_site_fract_x
_atom_site_fract_y
_atom_site_fract_z
Si Si1 0.243740 0.445440 0.461203
Si Si2 0.014321 0.790240 0.905826
Si Si3 0.581340 0.664347 0.528499
Si Si4 0.837651 0.047370 0.468967
Si Si5 0.127413 0.044775 0.750328
Si Si6 0.452745 0.376925 0.225437
O O1 0.336199 0.472654 0.476678
O O2 0.208976 0.732370 0.474970
O O3 0.201894 0.344149 0.334986
O O4 0.209222 0.226953 0.538554
O O5 0.072175 0.550877 0.961204
O O6 0.929595 0.737707 0.831887
O O7 0.067838 0.916945 0.822591
O O8 0.000000 0.000000 0.000000
O O9 0.500000 0.500000 0.500000
O O10 0.576495 0.855257 0.414197
O O11 0.588191 0.730344 0.666966
O O12 0.842317 0.145066 0.340567
O O13 0.471576 0.682611 0.252940
#
# Coordination Sequence:
#
# PCOD9248513 Si02
#       6
#     4   4   4   4   4   4
#     4  11  27  44  67 102 138 185 230 300 354 430
#     4  11  22  41  69 102 135 187 238 290 352 430
#     4  10  24  48  72 108 141 191 242 297 366 432
#     4  11  25  44  65 100 139 178 236 285 358 420
#     4  11  22  41  68  96 139 180 231 285 357 414
#     4  10  22  42  72 102 137 175 234 291 352 425
#
# _framework density 23.646494000000001
#
# number of rings (size 3 to 8) (size 9 to 14) (size 15 to 20)
#    0.000    1.333    0.000    5.000    2.333    9.333 
#    6.000    0.000    0.000    0.000    0.000    0.000 
#    0.000    0.000    0.000    0.000    0.000    0.000 
#
# Total GULP energy -133720.322919 kJ/mol
# GULP energy per Si atom -5571.680122 kJ/mol
# Density = 2.359267 g / cm^3
# Si number density = 23.646494 Si / 1000 Ang^3
#
#
#
# Elastic Constant Matrix: (Units=GPa)
#
#
# Indices 1 2 3 4 5 6 
#
# 1 149.8770 16.9113 8.1236 0.0000 4.9164 0.0000
# 2 16.9113 41.9264 -8.2411 0.0000 7.8584 0.0000
# 3 8.1236 -8.2411 120.4507 0.0000 -16.4482 0.0000
# 4 0.0000 0.0000 0.0000 14.9533 0.0000 1.5611
# 5 4.9164 7.8584 -16.4482 0.0000 15.0063 0.0000
# 6 0.0000 0.0000 0.0000 1.5611 0.0000 19.7624
#
#
#
# Elastic Compliance Matrix: (Units=1/GPa)
#
#
# Indices 1 2 3 4 5 6 
#
# 1 0.007088 -0.002678 -0.000925 0.000000 -0.001934 0.000000
# 2 -0.002678 0.027460 0.000254 0.000000 -0.013225 0.000000
# 3 -0.000925 0.000254 0.009885 0.000000 0.011005 0.000000
# 4 0.000000 0.000000 0.000000 0.067431 0.000000 -0.005326
# 5 -0.001934 -0.013225 0.011005 0.000000 0.086260 0.000000
# 6 0.000000 0.000000 0.000000 -0.005326 0.000000 0.051022
#
#
# Mechanical properties :
#
#
# Convention : Reuss Voigt Hill
#
# Bulk Modulus (GPa) = 26.50245 38.42688 32.46466
# Shear Modulus (GPa) = 18.62726 29.64174 24.13450
#
# Velocity S-wave (km/s) = 2.80971 3.54437 3.19821
# Velocity P-wave (km/s) = 4.66456 5.74769 5.23422
#
# Compressibility (1/GPa) = 0.03773236
#
# Stress axis : x y z
#
# Youngs Moduli (GPa) = 141.08459 36.41631 101.16652
#
# Poissons Ratio (x) = 0.09754 0.09362
# Poissons Ratio (y) = 0.37788 -0.02565
# Poissons Ratio (z) = 0.13056 -0.00923
#
# Static dielectric constant tensor:
#      x y z
#    x 1.891730 0.000000 -0.025040 
#    y 0.000000 2.000530 0.000000 
#    z -0.025040 0.000000 2.005600 
# 
# From -- ./inp_files/33372.got.cif
#   From: 2010.05.17/outbox.cif.g08.bks.cpg/sg14_17_cif.got.tgz:33372.got - 2010.06.03 17:49:19.
