data_PCOD9248219
_publ_section_title
;
Structure prediction by ZEFSAII (Michael W. Deem and Ramdas Pophale) SiO2 
 PCOD9248219
Probable space group: P 21/C
;
_chemical_formula_sum "Si O2"
_cell_formula_units_Z 20
_cell_length_a 5.481783
_cell_length_b 18.808258
_cell_length_c 10.135990
_cell_angle_alpha 90.000000
_cell_angle_beta 58.526216
_cell_angle_gamma 90.000000
_cell_volume 891.300362
_symmetry_space_group_name_H-M "P 21/C"
_symmetry_group_IT_number 14
_symmetry_cell_setting 'monoclinic'
loop_
_space_group_symop_operation_xyz
x,y,z
-x,1/2+y,1/2-z
-x,-y,-z
x,1/2-y,1/2+z
loop_
_atom_site_type_symbol
_atom_site_label
_atom_site_fract_x
_atom_site_fract_y
_atom_site_fract_z
Si Si1 0.123732 0.285831 0.151373
Si Si2 0.992434 0.949323 0.627298
Si Si3 0.898317 0.932710 0.185505
Si Si4 0.791029 0.201139 0.467110
Si Si5 0.421442 0.969206 0.880971
O O1 0.098467 0.363618 0.226645
O O2 0.464698 0.271530 0.050200
O O3 0.968973 0.233543 0.296442
O O4 0.959056 0.284016 0.057405
O O5 0.666710 0.922963 0.744407
O O6 0.204083 0.884039 0.552849
O O7 0.000000 0.000000 0.500000
O O8 0.052967 0.999218 0.734735
O O9 0.612125 0.958498 0.194429
O O10 0.128391 0.928713 0.000232
O O11 0.500000 0.000000 0.000000
#
# Coordination Sequence:
#
# PCOD9248219 Si02
#       5
#     4   4   4   4   4
#     4  12  28  50  73 105 147 193 241 298 362 437
#     4  11  22  41  71 102 138 179 245 289 355 412
#     4  10  22  41  70 100 142 181 236 295 360 421
#     4  12  29  48  76 106 146 196 239 300 362 434
#     4   9  21  37  63 103 135 181 224 294 353 423
#
# _framework density 22.439125000000001
#
# number of rings (size 3 to 8) (size 9 to 14) (size 15 to 20)
#    0.000    1.200    2.000    2.400    8.400    6.400 
#    0.000    0.000    0.000    0.000    0.000    0.000 
#    0.000    0.000    0.000    0.000    0.000    0.000 
#
# Total GULP energy -111684.754561 kJ/mol
# GULP energy per Si atom -5584.237728 kJ/mol
# Density = 2.238805 g / cm^3
# Si number density = 22.439125 Si / 1000 Ang^3
#
#
#
# Elastic Constant Matrix: (Units=GPa)
#
#
# Indices 1 2 3 4 5 6 
#
# 1 88.2404 11.1901 43.2448 0.0000 -9.2152 0.0000
# 2 11.1901 61.6503 27.5927 0.0000 4.2137 0.0000
# 3 43.2448 27.5927 128.0922 0.0000 -8.5588 0.0000
# 4 0.0000 0.0000 0.0000 40.8322 0.0000 -3.1845
# 5 -9.2152 4.2137 -8.5588 0.0000 51.1430 0.0000
# 6 0.0000 0.0000 0.0000 -3.1845 0.0000 17.8150
#
#
#
# Elastic Compliance Matrix: (Units=1/GPa)
#
#
# Indices 1 2 3 4 5 6 
#
# 1 0.013751 -0.000658 -0.004380 0.000000 0.001799 0.000000
# 2 -0.000658 0.018220 -0.003854 0.000000 -0.002265 0.000000
# 3 -0.004380 -0.003854 0.010198 0.000000 0.001235 0.000000
# 4 0.000000 0.000000 0.000000 0.024837 0.000000 0.004440
# 5 0.001799 -0.002265 0.001235 0.000000 0.020270 0.000000
# 6 0.000000 0.000000 0.000000 0.004440 0.000000 0.056926
#
#
# Mechanical properties :
#
#
# Convention : Reuss Voigt Hill
#
# Bulk Modulus (GPa) = 41.01081 49.11534 45.06307
# Shear Modulus (GPa) = 29.39189 35.02172 32.20681
#
# Velocity S-wave (km/s) = 3.62311 3.95491 3.79264
# Velocity P-wave (km/s) = 5.98488 6.54147 6.26935
#
# Compressibility (1/GPa) = 0.02438382
#
# Stress axis : x y z
#
# Youngs Moduli (GPa) = 72.72338 54.88584 98.05481
#
# Poissons Ratio (x) = 0.03613 0.42951
# Poissons Ratio (y) = 0.04788 0.37788
# Poissons Ratio (z) = 0.31855 0.21152
#
# Static dielectric constant tensor:
#      x y z
#    x 2.828690 0.000000 -0.004360 
#    y 0.000000 1.820090 0.000000 
#    z -0.004360 0.000000 1.827650 
# 
# From -- ./inp_files/5818.got.cif
#   From: 2010.05.17/outbox.cif.g08.bks.cpg/sg14_3_cif.got.tgz:5818.got - 2010.06.03 17:49:19.
