data_PCOD9248224
_publ_section_title
;
Structure prediction by ZEFSAII (Michael W. Deem and Ramdas Pophale) SiO2 
 PCOD9248224
Probable space group: P 21/C
;
_chemical_formula_sum "Si O2"
_cell_formula_units_Z 20
_cell_length_a 15.554648
_cell_length_b 5.054516
_cell_length_c 9.666144
_cell_angle_alpha 90.000000
_cell_angle_beta 76.896844
_cell_angle_gamma 90.000000
_cell_volume 740.177190
_symmetry_space_group_name_H-M "P 21/C"
_symmetry_group_IT_number 14
_symmetry_cell_setting 'monoclinic'
loop_
_space_group_symop_operation_xyz
x,y,z
-x,1/2+y,1/2-z
-x,-y,-z
x,1/2-y,1/2+z
loop_
_atom_site_type_symbol
_atom_site_label
_atom_site_fract_x
_atom_site_fract_y
_atom_site_fract_z
Si Si1 0.483330 0.750425 0.908521
Si Si2 0.667868 0.726430 0.761418
Si Si3 0.940844 0.613259 0.264790
Si Si4 0.174396 0.087387 0.465649
Si Si5 0.701532 0.225581 0.944667
O O1 0.562626 0.747785 0.768534
O O2 0.500000 0.500000 0.000000
O O3 0.379509 0.760120 0.915572
O O4 0.500000 0.000000 0.000000
O O5 0.686105 0.462277 0.840455
O O6 0.735998 0.759811 0.612187
O O7 0.692281 0.964736 0.857208
O O8 0.988330 0.344587 0.294796
O O9 0.115381 0.447606 0.851535
O O10 0.879671 0.748468 0.402468
O O11 0.208425 0.809198 0.514363
#
# Coordination Sequence:
#
# PCOD9248224 Si02
#       5
#     4   4   4   4   4
#     4   8  16  36  62  97 145 190 236 285 350 420
#     4  10  22  41  70 107 149 197 245 299 362 448
#     4  12  30  52  78 111 151 195 253 326 408 470
#     4  12  26  50  82 110 153 195 261 316 387 465
#     4  10  22  41  70 107 147 197 245 300 362 445
#
# _framework density 27.020555999999999
#
# number of rings (size 3 to 8) (size 9 to 14) (size 15 to 20)
#    0.000    1.600    2.000    1.200    2.800    4.800 
#    0.000   12.000    0.000    0.000    0.000    0.000 
#    0.000    0.000    0.000    0.000    0.000    0.000 
#
# Total GULP energy -112362.914232 kJ/mol
# GULP energy per Si atom -5618.145712 kJ/mol
# Density = 2.695906 g / cm^3
# Si number density = 27.020556 Si / 1000 Ang^3
#
#
#
# Elastic Constant Matrix: (Units=GPa)
#
#
# Indices 1 2 3 4 5 6 
#
# 1 168.8136 32.3735 61.5230 0.0000 -3.7904 0.0000
# 2 32.3735 162.7209 22.9698 0.0000 8.6836 0.0000
# 3 61.5230 22.9698 139.2594 0.0000 -15.1498 0.0000
# 4 0.0000 0.0000 0.0000 36.9712 0.0000 -11.4736
# 5 -3.7904 8.6836 -15.1498 0.0000 62.3391 0.0000
# 6 0.0000 0.0000 0.0000 -11.4736 0.0000 46.4517
#
#
#
# Elastic Compliance Matrix: (Units=1/GPa)
#
#
# Indices 1 2 3 4 5 6 
#
# 1 0.007220 -0.000998 -0.003043 0.000000 -0.000161 0.000000
# 2 -0.000998 0.006513 -0.000758 0.000000 -0.001152 0.000000
# 3 -0.003043 -0.000758 0.008876 0.000000 0.002078 0.000000
# 4 0.000000 0.000000 0.000000 0.029293 0.000000 0.007235
# 5 -0.000161 -0.001152 0.002078 0.000000 0.016697 0.000000
# 6 0.000000 0.000000 0.000000 0.007235 0.000000 0.023315
#
#
# Mechanical properties :
#
#
# Convention : Reuss Voigt Hill
#
# Bulk Modulus (GPa) = 76.86355 78.28071 77.57213
# Shear Modulus (GPa) = 47.23634 52.74758 49.99196
#
# Velocity S-wave (km/s) = 4.18564 4.42308 4.30600
# Velocity P-wave (km/s) = 7.20191 7.42419 7.31389
#
# Compressibility (1/GPa) = 0.01301007
#
# Stress axis : x y z
#
# Youngs Moduli (GPa) = 138.49546 153.54657 112.66022
#
# Poissons Ratio (x) = 0.15330 0.34280
# Poissons Ratio (y) = 0.13827 0.08545
# Poissons Ratio (z) = 0.42141 0.11646
#
# Static dielectric constant tensor:
#      x y z
#    x 2.105430 0.000000 -0.084190 
#    y 0.000000 2.121580 0.000000 
#    z -0.084190 0.000000 2.090560 
# 
# From -- ./inp_files/33258.got.cif
#   From: 2010.05.17/outbox.cif.g08.bks.cpg/sg14_17_cif.got.tgz:33258.got - 2010.06.03 17:49:19.
