data_PCOD9248564
_publ_section_title
;
Structure prediction by ZEFSAII (Michael W. Deem and Ramdas Pophale) SiO2 
 PCOD9248564
Probable space group: P 21/C
;
_chemical_formula_sum "Si O2"
_cell_formula_units_Z 32
_cell_length_a 19.921967
_cell_length_b 9.300345
_cell_length_c 10.414181
_cell_angle_alpha 90.000000
_cell_angle_beta 46.284666
_cell_angle_gamma 90.000000
_cell_volume 1394.645589
_symmetry_space_group_name_H-M "P 21/C"
_symmetry_group_IT_number 14
_symmetry_cell_setting 'monoclinic'
loop_
_space_group_symop_operation_xyz
x,y,z
-x,1/2+y,1/2-z
-x,-y,-z
x,1/2-y,1/2+z
loop_
_atom_site_type_symbol
_atom_site_label
_atom_site_fract_x
_atom_site_fract_y
_atom_site_fract_z
Si Si1 0.191279 0.852584 0.701010
Si Si2 0.532521 0.601647 0.342220
Si Si3 0.836406 0.422417 0.134852
Si Si4 0.955011 0.243488 0.307991
Si Si5 0.905359 0.536971 0.481734
Si Si6 0.468737 0.068158 0.676640
Si Si7 0.739174 0.585667 0.038003
Si Si8 0.246229 0.095386 0.018388
O O1 0.215477 0.731942 0.773159
O O2 0.137199 0.772845 0.657731
O O3 0.272745 0.951676 0.542392
O O4 0.118038 0.971203 0.849797
O O5 0.500000 0.500000 0.500000
O O6 0.498237 0.765381 0.373101
O O7 0.513083 0.520413 0.234949
O O8 0.641063 0.620000 0.228456
O O9 0.805530 0.523397 0.059386
O O10 0.808072 0.510360 0.298212
O O11 0.936320 0.356548 0.959239
O O12 0.962012 0.407458 0.339523
O O13 0.038647 0.181774 0.114405
O O14 0.806694 0.556305 0.542554
O O15 0.500000 0.000000 0.500000
O O16 0.356415 0.065213 0.855431
O O17 0.769595 0.734752 0.935366
#
# Coordination Sequence:
#
# PCOD9248564 Si02
#       8
#     4   4   4   4   4   4   4   4
#     4  10  22  43  63  94 133 168 224 274 330 392
#     4  11  24  46  68 101 137 179 229 287 341 419
#     4  10  22  44  63  96 135 165 223 277 322 405
#     4  10  23  42  62  96 130 175 222 269 333 391
#     4  11  24  41  65  93 134 173 221 274 327 399
#     4  11  26  46  70 103 139 181 232 285 349 411
#     4  10  25  40  70  96 127 176 223 265 341 399
#     4  11  25  44  66  97 135 175 219 277 337 394
#
# _framework density 22.944897000000001
#
# number of rings (size 3 to 8) (size 9 to 14) (size 15 to 20)
#    0.000    1.500    1.250    1.875    7.000    5.500 
#    2.250    0.000    0.000    0.000    0.000    0.000 
#    0.000    0.000    0.000    0.000    0.000    0.000 
#
# Total GULP energy -178550.920746 kJ/mol
# GULP energy per Si atom -5579.716273 kJ/mol
# Density = 2.289267 g / cm^3
# Si number density = 22.944897 Si / 1000 Ang^3
#
#
#
# Elastic Constant Matrix: (Units=GPa)
#
#
# Indices 1 2 3 4 5 6 
#
# 1 51.1400 16.7366 9.0106 0.0000 5.0234 0.0000
# 2 16.7366 129.2452 28.6177 0.0000 8.1471 0.0000
# 3 9.0106 28.6177 49.0245 0.0000 17.0900 0.0000
# 4 0.0000 0.0000 0.0000 41.6272 0.0000 1.2189
# 5 5.0234 8.1471 17.0900 0.0000 26.6749 0.0000
# 6 0.0000 0.0000 0.0000 1.2189 0.0000 23.5787
#
#
#
# Elastic Compliance Matrix: (Units=1/GPa)
#
#
# Indices 1 2 3 4 5 6 
#
# 1 0.020787 -0.002154 -0.001839 0.000000 -0.002079 0.000000
# 2 -0.002154 0.009122 -0.005278 0.000000 0.001001 0.000000
# 3 -0.001839 -0.005278 0.029787 0.000000 -0.017126 0.000000
# 4 0.000000 0.000000 0.000000 0.024059 0.000000 -0.001244
# 5 -0.002079 0.001001 -0.017126 0.000000 0.048546 0.000000
# 6 0.000000 0.000000 0.000000 -0.001244 0.000000 0.042475
#
#
# Mechanical properties :
#
#
# Convention : Reuss Voigt Hill
#
# Bulk Modulus (GPa) = 24.29830 37.57105 30.93467
# Shear Modulus (GPa) = 24.15047 30.04582 27.09814
#
# Velocity S-wave (km/s) = 3.24781 3.62260 3.44031
# Velocity P-wave (km/s) = 4.96761 5.82302 5.41225
#
# Compressibility (1/GPa) = 0.04115515
#
# Stress axis : x y z
#
# Youngs Moduli (GPa) = 48.10660 109.62942 33.57187
#
# Poissons Ratio (x) = 0.23610 0.06173
# Poissons Ratio (y) = 0.10360 0.17719
# Poissons Ratio (z) = 0.08846 0.57860
#
# Static dielectric constant tensor:
#      x y z
#    x 1.862700 0.000000 0.030180 
#    y 0.000000 1.899110 0.000000 
#    z 0.030180 0.000000 1.871320 
# 
# From -- ./inp_files/35743.got.cif
#   From: 2010.05.17/outbox.cif.g08.bks.cpg/sg14_18_cif.got.tgz:35743.got - 2010.06.03 17:49:19.
