data_PCOD9248121
_publ_section_title
;
Structure prediction by ZEFSAII (Michael W. Deem and Ramdas Pophale) SiO2 
 PCOD9248121
Probable space group: P 21/C
;
_chemical_formula_sum "Si O2"
_cell_formula_units_Z 24
_cell_length_a 13.122789
_cell_length_b 7.293766
_cell_length_c 16.529393
_cell_angle_alpha 90.000000
_cell_angle_beta 138.674351
_cell_angle_gamma 90.000000
_cell_volume 1044.722889
_symmetry_space_group_name_H-M "P 21/C"
_symmetry_group_IT_number 14
_symmetry_cell_setting 'monoclinic'
loop_
_space_group_symop_operation_xyz
x,y,z
-x,1/2+y,1/2-z
-x,-y,-z
x,1/2-y,1/2+z
loop_
_atom_site_type_symbol
_atom_site_label
_atom_site_fract_x
_atom_site_fract_y
_atom_site_fract_z
Si Si1 0.645371 0.534247 0.142052
Si Si2 0.335100 0.350176 0.227804
Si Si3 0.209878 0.094217 0.910623
Si Si4 0.888901 0.238931 0.733413
Si Si5 0.061761 0.165562 0.984270
Si Si6 0.489880 0.737427 0.330954
O O1 0.653312 0.737772 0.181725
O O2 0.790753 0.447310 0.182349
O O3 0.611615 0.408160 0.200547
O O4 0.500000 0.500000 0.000000
O O5 0.164306 0.307263 0.094488
O O6 0.386995 0.556605 0.270074
O O7 0.442838 0.274373 0.218437
O O8 0.209432 0.902401 0.863462
O O9 0.054266 0.201582 0.788276
O O10 0.163711 0.061976 0.976773
O O11 0.369390 0.201968 0.020421
O O12 0.940094 0.274468 0.856439
O O13 0.000000 0.000000 0.000000
#
# Coordination Sequence:
#
# PCOD9248121 Si02
#       6
#     4   4   4   4   4   4
#     4  12  26  41  69 101 136 173 226 284 337 395
#     4  11  21  43  68  95 134 174 223 275 332 408
#     4   9  22  40  65  88 131 170 221 268 335 396
#     4  10  22  41  65  95 128 173 223 268 340 394
#     4   9  19  40  65  89 129 175 218 277 329 388
#     4  11  24  42  68  99 131 178 224 272 341 398
#
# _framework density 22.972601000000001
#
# number of rings (size 3 to 8) (size 9 to 14) (size 15 to 20)
#    1.000    0.667    3.333    1.000    2.333    2.667 
#    6.000    0.833    0.000    0.000    0.000    0.000 
#    0.000    0.000    0.000    0.000    0.000    0.000 
#
# Total GULP energy -133937.274899 kJ/mol
# GULP energy per Si atom -5580.719787 kJ/mol
# Density = 2.292031 g / cm^3
# Si number density = 22.972601 Si / 1000 Ang^3
#
#
#
# Elastic Constant Matrix: (Units=GPa)
#
#
# Indices 1 2 3 4 5 6 
#
# 1 57.5957 25.8103 3.3831 0.0000 4.1331 0.0000
# 2 25.8103 61.0012 -18.9475 0.0000 1.5842 0.0000
# 3 3.3831 -18.9475 56.2083 0.0000 -5.6409 0.0000
# 4 0.0000 0.0000 0.0000 37.8890 0.0000 -0.5509
# 5 4.1331 1.5842 -5.6409 0.0000 32.9051 0.0000
# 6 0.0000 0.0000 0.0000 -0.5509 0.0000 39.9478
#
#
#
# Elastic Compliance Matrix: (Units=1/GPa)
#
#
# Indices 1 2 3 4 5 6 
#
# 1 0.023026 -0.011382 -0.005553 0.000000 -0.003296 0.000000
# 2 -0.011382 0.023937 0.008936 0.000000 0.001809 0.000000
# 3 -0.005553 0.008936 0.021535 0.000000 0.003959 0.000000
# 4 0.000000 0.000000 0.000000 0.026398 0.000000 0.000364
# 5 -0.003296 0.001809 0.003959 0.000000 0.031396 0.000000
# 6 0.000000 0.000000 0.000000 0.000364 0.000000 0.025038
#
#
# Mechanical properties :
#
#
# Convention : Reuss Voigt Hill
#
# Bulk Modulus (GPa) = 19.04797 21.69967 20.37382
# Shear Modulus (GPa) = 27.05215 33.11899 30.08557
#
# Velocity S-wave (km/s) = 3.43532 3.80106 3.62280
# Velocity P-wave (km/s) = 4.90355 5.36008 5.13689
#
# Compressibility (1/GPa) = 0.05249903
#
# Stress axis : x y z
#
# Youngs Moduli (GPa) = 43.42985 41.77562 46.43659
#
# Poissons Ratio (x) = 0.47548 0.25788
# Poissons Ratio (y) = 0.49431 -0.41495
# Poissons Ratio (z) = 0.24118 -0.37330
#
# Static dielectric constant tensor:
#      x y z
#    x 1.914360 0.000000 0.020400 
#    y 0.000000 1.859920 0.000000 
#    z 0.020400 0.000000 1.873270 
# 
# From -- ./inp_files/59128.got.cif
#   From: 2010.05.17/outbox.cif.g08.bks.cpg/sg14_30_cif.got.tgz:59128.got - 2010.06.03 17:49:19.
