data_PCOD9248727
_publ_section_title
;
Structure prediction by ZEFSAII (Michael W. Deem and Ramdas Pophale) SiO2 
 PCOD9248727
Probable space group: P 21/C
;
_chemical_formula_sum "Si O2"
_cell_formula_units_Z 32
_cell_length_a 5.727255
_cell_length_b 14.823318
_cell_length_c 17.709795
_cell_angle_alpha 90.000000
_cell_angle_beta 77.265520
_cell_angle_gamma 90.000000
_cell_volume 1466.523919
_symmetry_space_group_name_H-M "P 21/C"
_symmetry_group_IT_number 14
_symmetry_cell_setting 'monoclinic'
loop_
_space_group_symop_operation_xyz
x,y,z
-x,1/2+y,1/2-z
-x,-y,-z
x,1/2-y,1/2+z
loop_
_atom_site_type_symbol
_atom_site_label
_atom_site_fract_x
_atom_site_fract_y
_atom_site_fract_z
Si Si1 0.179936 0.072451 0.822053
Si Si2 0.007697 0.660676 0.514043
Si Si3 0.888574 0.595097 0.294118
Si Si4 0.540672 0.593657 0.453952
Si Si5 0.056951 0.145447 0.522508
Si Si6 0.644968 0.505221 0.066291
Si Si7 0.640095 0.049625 0.721425
Si Si8 0.027911 0.194577 0.691900
O O1 0.047206 0.116338 0.901659
O O2 0.464642 0.064722 0.803991
O O3 0.137586 0.136756 0.752490
O O4 0.080100 0.971694 0.818685
O O5 0.762894 0.640358 0.484392
O O6 0.267936 0.628539 0.467774
O O7 0.042196 0.767235 0.510832
O O8 0.653931 0.594499 0.363116
O O9 0.817254 0.534691 0.226095
O O10 0.971090 0.699467 0.286592
O O11 0.500000 0.500000 0.500000
O O12 0.143668 0.175632 0.600638
O O13 0.246380 0.104152 0.450782
O O14 0.858862 0.068027 0.548899
O O15 0.511864 0.482668 0.153486
O O16 0.500000 0.500000 0.000000
O O17 0.770832 0.145377 0.701336
#
# Coordination Sequence:
#
# PCOD9248727 Si02
#       8
#     4   4   4   4   4   4   4   4
#     4  11  25  44  66 100 144 180 234 293 352 427
#     4  12  27  43  73 107 142 184 239 296 351 434
#     4  11  24  43  70  99 139 187 233 285 363 427
#     4  12  25  45  72 103 142 185 232 290 355 427
#     4  10  23  43  67 102 135 182 242 293 358 424
#     4  10  22  43  71  98 138 184 238 303 361 420
#     4  10  24  43  68 101 140 182 237 294 359 434
#     4  10  23  45  65  97 138 188 232 291 357 432
#
# _framework density 21.820305999999999
#
# number of rings (size 3 to 8) (size 9 to 14) (size 15 to 20)
#    0.000    1.250    2.500    1.875    7.000    4.000 
#    0.000    0.000    0.000    0.000    0.000    0.000 
#    0.000    0.000    0.000    0.000    0.000    0.000 
#
# Total GULP energy -178278.475107 kJ/mol
# GULP energy per Si atom -5571.202347 kJ/mol
# Density = 2.177064 g / cm^3
# Si number density = 21.820306 Si / 1000 Ang^3
#
#
#
# Elastic Constant Matrix: (Units=GPa)
#
#
# Indices 1 2 3 4 5 6 
#
# 1 47.8063 21.8302 28.6231 0.0000 -5.0477 0.0000
# 2 21.8302 166.4939 39.6305 0.0000 -1.5495 0.0000
# 3 28.6231 39.6305 63.5915 0.0000 -12.7165 0.0000
# 4 0.0000 0.0000 0.0000 24.5800 0.0000 6.9659
# 5 -5.0477 -1.5495 -12.7165 0.0000 37.9563 0.0000
# 6 0.0000 0.0000 0.0000 6.9659 0.0000 14.1073
#
#
#
# Elastic Compliance Matrix: (Units=1/GPa)
#
#
# Indices 1 2 3 4 5 6 
#
# 1 0.028733 -0.000791 -0.012521 0.000000 -0.000406 0.000000
# 2 -0.000791 0.007132 -0.004342 0.000000 -0.001269 0.000000
# 3 -0.012521 -0.004342 0.025401 0.000000 0.006668 0.000000
# 4 0.000000 0.000000 0.000000 0.047303 0.000000 -0.023357
# 5 -0.000406 -0.001269 0.006668 0.000000 0.028474 0.000000
# 6 0.000000 0.000000 0.000000 -0.023357 0.000000 0.082418
#
#
# Mechanical properties :
#
#
# Convention : Reuss Voigt Hill
#
# Bulk Modulus (GPa) = 38.52589 50.89548 44.71069
# Shear Modulus (GPa) = 18.98096 27.84924 23.41510
#
# Velocity S-wave (km/s) = 2.95257 3.57641 3.27936
# Velocity P-wave (km/s) = 5.41459 6.35844 5.90540
#
# Compressibility (1/GPa) = 0.02595657
#
# Stress axis : x y z
#
# Youngs Moduli (GPa) = 34.80335 140.21903 39.36870
#
# Poissons Ratio (x) = 0.11087 0.49295
# Poissons Ratio (y) = 0.02752 0.17095
# Poissons Ratio (z) = 0.43579 0.60888
#
# Static dielectric constant tensor:
#      x y z
#    x 1.737350 0.000000 0.182630 
#    y 0.000000 1.818090 0.000000 
#    z 0.182630 0.000000 1.704560 
# 
# From -- ./inp_files/53447.got.cif
#   From: 2010.05.17/outbox.cif.g08.bks.cpg/sg14_27_cif.got.tgz:53447.got - 2010.06.03 17:49:19.
