data_PCOD9248995
_publ_section_title
;
Structure prediction by ZEFSAII (Michael W. Deem and Ramdas Pophale) SiO2 
 PCOD9248995
Probable space group: P 21/C
;
_chemical_formula_sum "Si O2"
_cell_formula_units_Z 24
_cell_length_a 7.814559
_cell_length_b 21.815128
_cell_length_c 10.984070
_cell_angle_alpha 90.000000
_cell_angle_beta 143.496652
_cell_angle_gamma 90.000000
_cell_volume 1113.903126
_symmetry_space_group_name_H-M "P 21/C"
_symmetry_group_IT_number 14
_symmetry_cell_setting 'monoclinic'
loop_
_space_group_symop_operation_xyz
x,y,z
-x,1/2+y,1/2-z
-x,-y,-z
x,1/2-y,1/2+z
loop_
_atom_site_type_symbol
_atom_site_label
_atom_site_fract_x
_atom_site_fract_y
_atom_site_fract_z
Si Si1 0.173705 0.803073 0.287157
Si Si2 0.915539 0.089606 0.928211
Si Si3 0.500204 0.322553 0.559615
Si Si4 0.184576 0.513652 0.868092
Si Si5 0.433327 0.885024 0.646837
Si Si6 0.330898 0.944430 0.968561
O O1 0.195986 0.843343 0.175815
O O2 0.303517 0.735787 0.354405
O O3 0.349337 0.840110 0.489564
O O4 0.834440 0.803415 0.124467
O O5 0.948855 0.053431 0.819808
O O6 0.712564 0.056142 0.909932
O O7 0.232180 0.095641 0.166343
O O8 0.596249 0.350773 0.743395
O O9 0.537629 0.379048 0.489111
O O10 0.988011 0.454592 0.769770
O O11 0.500000 0.500000 0.000000
O O12 0.228044 0.556289 0.010020
O O13 0.500000 0.000000 0.000000
#
# Coordination Sequence:
#
# PCOD9248995 Si02
#       6
#     4   4   4   4   4   4
#     4  10  25  47  70  96 132 180 233 275 354 405
#     4  10  23  44  70  97 138 182 221 285 340 410
#     4  11  27  44  69 101 137 176 229 295 334 418
#     4  11  23  42  71  98 134 186 226 273 347 411
#     4  10  22  45  68  98 132 178 228 280 339 411
#     4  12  25  43  67 104 143 176 230 286 345 410
#
# _framework density 21.545860000000001
#
# number of rings (size 3 to 8) (size 9 to 14) (size 15 to 20)
#    0.000    1.333    1.667    3.500    7.000    2.000 
#    6.000    0.000    0.000    0.000    0.000    0.000 
#    0.000    0.000    0.000    0.000    0.000    0.000 
#
# Total GULP energy -134114.630167 kJ/mol
# GULP energy per Si atom -5588.109590 kJ/mol
# Density = 2.149682 g / cm^3
# Si number density = 21.545860 Si / 1000 Ang^3
#
#
#
# Elastic Constant Matrix: (Units=GPa)
#
#
# Indices 1 2 3 4 5 6 
#
# 1 64.4235 24.2295 31.3830 0.0000 6.7843 0.0000
# 2 24.2295 99.2697 25.3019 0.0000 14.6791 0.0000
# 3 31.3830 25.3019 112.8595 0.0000 1.6386 0.0000
# 4 0.0000 0.0000 0.0000 42.5923 0.0000 11.8425
# 5 6.7843 14.6791 1.6386 0.0000 31.4012 0.0000
# 6 0.0000 0.0000 0.0000 11.8425 0.0000 38.7275
#
#
#
# Elastic Compliance Matrix: (Units=1/GPa)
#
#
# Indices 1 2 3 4 5 6 
#
# 1 0.019205 -0.003156 -0.004598 0.000000 -0.002434 0.000000
# 2 -0.003156 0.012004 -0.001743 0.000000 -0.004839 0.000000
# 3 -0.004598 -0.001743 0.010512 0.000000 0.001260 0.000000
# 4 0.000000 0.000000 0.000000 0.025660 0.000000 -0.007847
# 5 -0.002434 -0.004839 0.001260 0.000000 0.034568 0.000000
# 6 0.000000 0.000000 0.000000 -0.007847 0.000000 0.028221
#
#
# Mechanical properties :
#
#
# Convention : Reuss Voigt Hill
#
# Bulk Modulus (GPa) = 44.00043 48.70905 46.35474
# Shear Modulus (GPa) = 31.90032 35.58676 33.74354
#
# Velocity S-wave (km/s) = 3.85200 4.06849 3.96172
# Velocity P-wave (km/s) = 6.34429 6.68778 6.51830
#
# Compressibility (1/GPa) = 0.02272705
#
# Stress axis : x y z
#
# Youngs Moduli (GPa) = 52.06943 83.30804 95.13335
#
# Poissons Ratio (x) = 0.26290 0.43738
# Poissons Ratio (y) = 0.16432 0.16585
# Poissons Ratio (z) = 0.23939 0.14523
#
# Static dielectric constant tensor:
#      x y z
#    x 1.814180 0.000000 0.003850 
#    y 0.000000 1.822780 0.000000 
#    z 0.003850 0.000000 1.791040 
# 
# From -- ./inp_files/27057.got.cif
#   From: 2010.05.17/outbox.cif.g08.bks.cpg/sg14_14_cif.got.tgz:27057.got - 2010.06.03 17:49:19.
