data_PCOD9248581
_publ_section_title
;
Structure prediction by ZEFSAII (Michael W. Deem and Ramdas Pophale) SiO2 
 PCOD9248581
Probable space group: P 21/C
;
_chemical_formula_sum "Si O2"
_cell_formula_units_Z 14
_cell_length_a 9.688187
_cell_length_b 4.867298
_cell_length_c 19.108301
_cell_angle_alpha 90.000000
_cell_angle_beta 30.519754
_cell_angle_gamma 90.000000
_cell_volume 457.588913
_symmetry_space_group_name_H-M "P 21/C"
_symmetry_group_IT_number 14
_symmetry_cell_setting 'monoclinic'
loop_
_space_group_symop_operation_xyz
x,y,z
-x,1/2+y,1/2-z
-x,-y,-z
x,1/2-y,1/2+z
loop_
_atom_site_type_symbol
_atom_site_label
_atom_site_fract_x
_atom_site_fract_y
_atom_site_fract_z
Si Si1 0.909980 0.742859 0.112211
Si Si2 0.055564 0.012887 0.251666
Si Si3 0.500000 0.000000 0.500000
Si Si4 0.415288 0.504071 0.874304
O O1 0.874001 0.542596 0.196358
O O2 0.758841 0.646468 0.108338
O O3 0.725443 0.992466 0.215971
O O4 0.228445 0.783214 0.960133
O O5 0.214546 0.284305 0.147246
O O6 0.789733 0.257125 0.360888
O O7 0.578944 0.932794 0.548265
#
# Coordination Sequence:
#
# PCOD9248581 Si02
#       4
#     4   4   2   4
#     4  10  23  42  68 101 144 187 242 296 366 431
#     4  11  24  44  70 104 141 189 240 301 360 435
#     4  10  22  44  68 102 146 186 244 296 366 430
#     4  10  22  43  65 102 143 188 241 301 361 441
#
# _framework density 30.595147999999998
#
# number of rings (size 3 to 8) (size 9 to 14) (size 15 to 20)
#    0.000    1.714    2.857    0.000    4.000    2.286 
#    0.000    0.000    0.000    0.000    0.000    0.000 
#    0.000    0.000    0.000    0.000    0.000    0.000 
#
# Total GULP energy -77941.385853 kJ/mol
# GULP energy per Si atom -5567.241847 kJ/mol
# Density = 3.052551 g / cm^3
# Si number density = 30.595148 Si / 1000 Ang^3
#
#
#
# Elastic Constant Matrix: (Units=GPa)
#
#
# Indices 1 2 3 4 5 6 
#
# 1 281.5771 85.8567 72.0801 0.0000 62.1813 0.0000
# 2 85.8567 244.1338 41.8839 0.0000 19.8733 0.0000
# 3 72.0801 41.8839 174.2134 0.0000 6.5363 0.0000
# 4 0.0000 0.0000 0.0000 31.9994 0.0000 9.8762
# 5 62.1813 19.8733 6.5363 0.0000 87.3428 0.0000
# 6 0.0000 0.0000 0.0000 9.8762 0.0000 31.4452
#
#
#
# Elastic Compliance Matrix: (Units=1/GPa)
#
#
# Indices 1 2 3 4 5 6 
#
# 1 0.005063 -0.001232 -0.001679 0.000000 -0.003199 0.000000
# 2 -0.001232 0.004644 -0.000602 0.000000 -0.000134 0.000000
# 3 -0.001679 -0.000602 0.006548 0.000000 0.000842 0.000000
# 4 0.000000 0.000000 0.000000 0.034605 0.000000 -0.010869
# 5 -0.003199 -0.000134 0.000842 0.000000 0.013694 0.000000
# 6 0.000000 0.000000 0.000000 -0.010869 0.000000 0.035215
#
#
# Mechanical properties :
#
#
# Convention : Reuss Voigt Hill
#
# Bulk Modulus (GPa) = 108.34643 122.17396 115.26020
# Shear Modulus (GPa) = 45.50847 63.49771 54.50309
#
# Velocity S-wave (km/s) = 3.86092 4.56062 4.22528
# Velocity P-wave (km/s) = 7.44079 8.23113 7.84592
#
# Compressibility (1/GPa) = 0.00922965
#
# Stress axis : x y z
#
# Youngs Moduli (GPa) = 197.50259 215.34996 152.72690
#
# Poissons Ratio (x) = 0.26537 0.25637
# Poissons Ratio (y) = 0.24338 0.09187
# Poissons Ratio (z) = 0.33153 0.12954
#
# Static dielectric constant tensor:
#      x y z
#    x 2.265470 0.000000 -0.298890 
#    y 0.000000 2.627590 0.000000 
#    z -0.298890 0.000000 2.811760 
# 
# From -- ./inp_files/22397.got.cif
#   From: 2010.05.17/outbox.cif.g08.bks.cpg/sg14_12_cif.got.tgz:22397.got - 2010.06.03 17:49:19.
