data_PCOD9248945
_publ_section_title
;
Structure prediction by ZEFSAII (Michael W. Deem and Ramdas Pophale) SiO2 
 PCOD9248945
Probable space group: P 21/C
;
_chemical_formula_sum "Si O2"
_cell_formula_units_Z 22
_cell_length_a 11.104765
_cell_length_b 5.041911
_cell_length_c 24.936654
_cell_angle_alpha 90.000000
_cell_angle_beta 138.536560
_cell_angle_gamma 90.000000
_cell_volume 924.472230
_symmetry_space_group_name_H-M "P 21/C"
_symmetry_group_IT_number 14
_symmetry_cell_setting 'monoclinic'
loop_
_space_group_symop_operation_xyz
x,y,z
-x,1/2+y,1/2-z
-x,-y,-z
x,1/2-y,1/2+z
loop_
_atom_site_type_symbol
_atom_site_label
_atom_site_fract_x
_atom_site_fract_y
_atom_site_fract_z
Si Si1 0.445518 0.753678 0.877181
Si Si2 0.500000 0.000000 0.500000
Si Si3 0.039114 0.250462 0.550537
Si Si4 0.551842 0.899258 0.295367
Si Si5 0.762060 0.452220 0.542891
Si Si6 0.117067 0.394685 0.304014
O O1 0.464770 0.647881 0.824119
O O2 0.288740 0.972696 0.831050
O O3 0.421047 0.519111 0.911529
O O4 0.639787 0.871743 0.962339
O O5 0.627071 0.250572 0.526458
O O6 0.245682 0.217246 0.637246
O O7 0.000000 0.500000 0.500000
O O8 0.911527 0.292060 0.559645
O O9 0.000000 0.000000 0.500000
O O10 0.446594 0.708032 0.218911
O O11 0.836569 0.632722 0.616740
O O12 0.035387 0.127614 0.252051
#
# Coordination Sequence:
#
# PCOD9248945 Si02
#       6
#     4   2   4   4   4   4
#     4  11  26  47  75 103 149 196 257 294 381 451
#     4  10  22  44  76 102 138 192 250 310 364 432
#     4  12  26  49  77 110 142 193 257 307 360 456
#     4  12  29  49  74 110 155 201 241 314 388 444
#     4  11  26  45  77 103 147 192 255 300 373 445
#     4  11  28  44  69 107 145 187 234 310 373 429
#
# _framework density 23.797364000000002
#
# number of rings (size 3 to 8) (size 9 to 14) (size 15 to 20)
#    0.000    0.727    1.818    4.364   17.818    0.000 
#    0.000    0.000    0.000    0.000    0.000    0.000 
#    0.000    0.000    0.000    0.000    0.000    0.000 
#
# Total GULP energy -122831.538275 kJ/mol
# GULP energy per Si atom -5583.251740 kJ/mol
# Density = 2.374320 g / cm^3
# Si number density = 23.797364 Si / 1000 Ang^3
#
#
#
# Elastic Constant Matrix: (Units=GPa)
#
#
# Indices 1 2 3 4 5 6 
#
# 1 97.2405 5.9318 18.8416 0.0000 -20.6217 0.0000
# 2 5.9318 84.2345 -3.0650 0.0000 -0.5522 0.0000
# 3 18.8416 -3.0650 46.7319 0.0000 3.0753 0.0000
# 4 0.0000 0.0000 0.0000 -9.1910 0.0000 12.6987
# 5 -20.6217 -0.5522 3.0753 0.0000 48.3579 0.0000
# 6 0.0000 0.0000 0.0000 12.6987 0.0000 17.3928
#
#
#
# Elastic Compliance Matrix: (Units=1/GPa)
#
#
# Indices 1 2 3 4 5 6 
#
# 1 0.012637 -0.001054 -0.005541 0.000000 0.005729 0.000000
# 2 -0.001054 0.011988 0.001237 0.000000 -0.000391 0.000000
# 3 -0.005541 0.001237 0.023969 0.000000 -0.003873 0.000000
# 4 0.000000 0.000000 0.000000 -0.054164 0.000000 0.039546
# 5 0.005729 -0.000391 -0.003873 0.000000 0.023364 0.000000
# 6 0.000000 0.000000 0.000000 0.039546 0.000000 0.028622
#
#
# Mechanical properties :
#
#
# Convention : Reuss Voigt Hill
#
# Bulk Modulus (GPa) = 26.40079 30.18040 28.29060
# Shear Modulus (GPa) = 71.67638 25.07851 48.37745
#
# Velocity S-wave (km/s) = 5.49407 3.24981 4.51365
# Velocity P-wave (km/s) = 7.16691 5.17604 6.25124
#
# Compressibility (1/GPa) = 0.03787765
#
# Stress axis : x y z
#
# Youngs Moduli (GPa) = 79.13461 83.41481 41.72098
#
# Poissons Ratio (x) = 0.08791 0.23118
# Poissons Ratio (y) = 0.08340 -0.05161
# Poissons Ratio (z) = 0.43849 -0.10318
#
# Static dielectric constant tensor:
#      x y z
#    x 1.935670 0.000000 0.053360 
#    y 0.000000 1.918940 0.000000 
#    z 0.053360 0.000000 1.992000 
# 
# From -- ./inp_files/42628.got.cif
#   From: 2010.05.17/outbox.cif.g08.bks.cpg/sg14_22_cif.got.tgz:42628.got - 2010.06.03 17:49:19.
