data_PCOD9248016
_publ_section_title
;
Structure prediction by ZEFSAII (Michael W. Deem and Ramdas Pophale) SiO2 
 PCOD9248016
Probable space group: P 21/C
;
_chemical_formula_sum "Si O2"
_cell_formula_units_Z 26
_cell_length_a 4.876166
_cell_length_b 10.902296
_cell_length_c 19.417245
_cell_angle_alpha 90.000000
_cell_angle_beta 88.135927
_cell_angle_gamma 90.000000
_cell_volume 1031.701771
_symmetry_space_group_name_H-M "P 21/C"
_symmetry_group_IT_number 14
_symmetry_cell_setting 'monoclinic'
loop_
_space_group_symop_operation_xyz
x,y,z
-x,1/2+y,1/2-z
-x,-y,-z
x,1/2-y,1/2+z
loop_
_atom_site_type_symbol
_atom_site_label
_atom_site_fract_x
_atom_site_fract_y
_atom_site_fract_z
Si Si1 0.104396 0.725586 0.403361
Si Si2 0.400365 0.325472 0.428202
Si Si3 0.715851 0.399241 0.204061
Si Si4 0.223268 0.965261 0.640738
Si Si5 0.400371 0.357803 0.035302
Si Si6 0.104757 0.679937 0.651978
Si Si7 0.000000 0.500000 0.500000
O O1 0.230312 0.762964 0.328159
O O2 0.294735 0.810562 0.451228
O O3 0.106163 0.589113 0.431524
O O4 0.798415 0.778654 0.412222
O O5 0.340841 0.190576 0.459724
O O6 0.717312 0.365884 0.415990
O O7 0.255620 0.409466 0.484519
O O8 0.215992 0.329845 0.360965
O O9 0.424754 0.460048 0.190239
O O10 0.800276 0.392537 0.282429
O O11 0.922743 0.485565 0.160109
O O12 0.320322 0.007945 0.563185
O O13 0.211532 0.820114 0.653007
#
# Coordination Sequence:
#
# PCOD9248016 Si02
#       7
#     4   4   4   4   4   4   2
#     4   9  19  35  61  87 119 161 208 251 302 380
#     4  11  24  39  61  93 129 158 207 263 308 382
#     4  10  22  41  61  88 124 166 210 252 314 380
#     4  10  22  42  64  84 123 164 202 259 309 365
#     4   9  19  38  59  86 116 158 202 246 309 364
#     4  12  25  40  62  96 124 160 213 256 304 380
#     4  10  22  42  64  92 126 162 204 264 328 350
#
# _framework density 25.201082
#
# number of rings (size 3 to 8) (size 9 to 14) (size 15 to 20)
#    0.000    1.846    0.000    3.692    0.000    9.231 
#    0.000    4.615    0.000    0.000    0.000    0.000 
#    0.000    0.000    0.000    0.000    0.000    0.000 
#
# Total GULP energy -144885.902858 kJ/mol
# GULP energy per Si atom -5572.534725 kJ/mol
# Density = 2.514372 g / cm^3
# Si number density = 25.201082 Si / 1000 Ang^3
#
#
#
# Elastic Constant Matrix: (Units=GPa)
#
#
# Indices 1 2 3 4 5 6 
#
# 1 96.0250 -5.1022 -12.3019 0.0000 4.1556 0.0000
# 2 -5.1022 92.6234 -21.0171 0.0000 -15.9037 0.0000
# 3 -12.3019 -21.0171 49.9709 0.0000 6.7782 0.0000
# 4 0.0000 0.0000 0.0000 22.7072 0.0000 -5.5116
# 5 4.1556 -15.9037 6.7782 0.0000 34.7825 0.0000
# 6 0.0000 0.0000 0.0000 -5.5116 0.0000 35.1856
#
#
#
# Elastic Compliance Matrix: (Units=1/GPa)
#
#
# Indices 1 2 3 4 5 6 
#
# 1 0.010968 0.001118 0.003368 0.000000 -0.001455 0.000000
# 2 0.001118 0.012812 0.005020 0.000000 0.004746 0.000000
# 3 0.003368 0.005020 0.023312 0.000000 -0.002650 0.000000
# 4 0.000000 0.000000 0.000000 0.045780 0.000000 0.007171
# 5 -0.001455 0.004746 -0.002650 0.000000 0.031610 0.000000
# 6 0.000000 0.000000 0.000000 0.007171 0.000000 0.029544
#
#
# Mechanical properties :
#
#
# Convention : Reuss Voigt Hill
#
# Bulk Modulus (GPa) = 15.12754 17.97521 16.55137
# Shear Modulus (GPa) = 31.83756 37.00443 34.42100
#
# Velocity S-wave (km/s) = 3.55821 3.83608 3.69976
# Velocity P-wave (km/s) = 4.78507 5.17387 4.98326
#
# Compressibility (1/GPa) = 0.06610462
#
# Stress axis : x y z
#
# Youngs Moduli (GPa) = 91.17572 78.05140 42.89712
#
# Poissons Ratio (x) = -0.08730 -0.14447
# Poissons Ratio (y) = -0.10198 -0.21535
# Poissons Ratio (z) = -0.30707 -0.39183
#
# Static dielectric constant tensor:
#      x y z
#    x 1.947940 0.000000 -0.034760 
#    y 0.000000 1.935430 0.000000 
#    z -0.034760 0.000000 1.987440 
# 
# From -- ./inp_files/52997.got.cif
#   From: 2010.05.17/outbox.cif.g08.bks.cpg/sg14_27_cif.got.tgz:52997.got - 2010.06.03 17:49:19.
