data_PCOD9248354
_publ_section_title
;
Structure prediction by ZEFSAII (Michael W. Deem and Ramdas Pophale) SiO2 
 PCOD9248354
Probable space group: P 21/C
;
_chemical_formula_sum "Si O2"
_cell_formula_units_Z 28
_cell_length_a 19.158435
_cell_length_b 8.756208
_cell_length_c 13.637219
_cell_angle_alpha 90.000000
_cell_angle_beta 146.642434
_cell_angle_gamma 90.000000
_cell_volume 1257.928193
_symmetry_space_group_name_H-M "P 21/C"
_symmetry_group_IT_number 14
_symmetry_cell_setting 'monoclinic'
loop_
_space_group_symop_operation_xyz
x,y,z
-x,1/2+y,1/2-z
-x,-y,-z
x,1/2-y,1/2+z
loop_
_atom_site_type_symbol
_atom_site_label
_atom_site_fract_x
_atom_site_fract_y
_atom_site_fract_z
Si Si1 0.334492 0.179528 0.763099
Si Si2 0.119288 0.284326 0.276259
Si Si3 0.727846 0.509002 0.423423
Si Si4 0.892340 0.244226 0.637451
Si Si5 0.530058 0.893844 0.441019
Si Si6 0.705455 0.518049 0.967665
Si Si7 0.065129 0.364998 0.015361
O O1 0.290037 0.344404 0.667182
O O2 0.206534 0.094375 0.646106
O O3 0.381382 0.079986 0.724902
O O4 0.426033 0.232274 0.959610
O O5 0.224719 0.415755 0.418799
O O6 0.092981 0.244092 0.134019
O O7 0.991856 0.335412 0.181910
O O8 0.176363 0.135187 0.392815
O O9 0.837901 0.394404 0.520345
O O10 0.599547 0.411185 0.272607
O O11 0.772579 0.142612 0.528180
O O12 0.974106 0.297406 0.826699
O O13 0.500000 0.000000 0.500000
O O14 0.635137 0.959040 0.489051
O O15 0.000000 0.500000 0.000000
#
# Coordination Sequence:
#
# PCOD9248354 Si02
#       7
#     4   4   4   4   4   4   4
#     4  10  22  43  68  94 134 180 234 275 357 415
#     4  11  22  40  66  94 136 180 221 278 357 408
#     4  10  22  42  66  92 135 179 225 289 337 419
#     4  12  24  40  64 104 139 170 233 282 354 420
#     4  10  23  44  70  95 133 184 240 279 343 419
#     4  11  23  41  68  98 135 181 222 292 346 409
#     4  12  22  37  67  99 134 175 223 281 347 422
#
# _framework density 22.258821999999999
#
# number of rings (size 3 to 8) (size 9 to 14) (size 15 to 20)
#    0.000    1.143    5.714    1.714    0.000    6.286 
#    0.000    0.714    0.000    0.000    0.000    0.000 
#    0.000    0.000    0.000    0.000    0.000    0.000 
#
# Total GULP energy -156081.167199 kJ/mol
# GULP energy per Si atom -5574.327400 kJ/mol
# Density = 2.220816 g / cm^3
# Si number density = 22.258822 Si / 1000 Ang^3
#
#
#
# Elastic Constant Matrix: (Units=GPa)
#
#
# Indices 1 2 3 4 5 6 
#
# 1 126.7348 12.0956 29.1241 0.0000 -5.0282 0.0000
# 2 12.0956 48.1617 31.5630 0.0000 0.9961 0.0000
# 3 29.1241 31.5630 92.4138 0.0000 4.1433 0.0000
# 4 0.0000 0.0000 0.0000 26.1469 0.0000 4.3294
# 5 -5.0282 0.9961 4.1433 0.0000 25.9417 0.0000
# 6 0.0000 0.0000 0.0000 4.3294 0.0000 25.7973
#
#
#
# Elastic Compliance Matrix: (Units=1/GPa)
#
#
# Indices 1 2 3 4 5 6 
#
# 1 0.008629 -0.000472 -0.002653 0.000000 0.002114 0.000000
# 2 -0.000472 0.026782 -0.009013 0.000000 0.000320 0.000000
# 3 -0.002653 -0.009013 0.014849 0.000000 -0.002540 0.000000
# 4 0.000000 0.000000 0.000000 0.039339 0.000000 -0.006602
# 5 0.002114 0.000320 -0.002540 0.000000 0.039351 0.000000
# 6 0.000000 0.000000 0.000000 -0.006602 0.000000 0.039872
#
#
# Mechanical properties :
#
#
# Convention : Reuss Voigt Hill
#
# Bulk Modulus (GPa) = 38.48469 45.87508 42.17989
# Shear Modulus (GPa) = 24.78213 28.54570 26.66391
#
# Velocity S-wave (km/s) = 3.34033 3.58501 3.46483
# Velocity P-wave (km/s) = 5.67488 6.14744 5.91588
#
# Compressibility (1/GPa) = 0.02598436
#
# Stress axis : x y z
#
# Youngs Moduli (GPa) = 115.88682 37.33877 67.34462
#
# Poissons Ratio (x) = 0.01763 0.17866
# Poissons Ratio (y) = 0.05473 0.60695
# Poissons Ratio (z) = 0.30744 0.33652
#
# Static dielectric constant tensor:
#      x y z
#    x 1.858850 0.000000 -0.050410 
#    y 0.000000 1.867290 0.000000 
#    z -0.050410 0.000000 1.913150 
# 
# From -- ./inp_files/50123.got.cif
#   From: 2010.05.17/outbox.cif.g08.bks.cpg/sg14_26_cif.got.tgz:50123.got - 2010.06.03 17:49:19.
