data_PCOD9248955
_publ_section_title
;
Structure prediction by ZEFSAII (Michael W. Deem and Ramdas Pophale) SiO2 
 PCOD9248955
Probable space group: P 21/C
;
_chemical_formula_sum "Si O2"
_cell_formula_units_Z 28
_cell_length_a 7.262336
_cell_length_b 7.454569
_cell_length_c 20.433535
_cell_angle_alpha 90.000000
_cell_angle_beta 113.877206
_cell_angle_gamma 90.000000
_cell_volume 1011.546271
_symmetry_space_group_name_H-M "P 21/C"
_symmetry_group_IT_number 14
_symmetry_cell_setting 'monoclinic'
loop_
_space_group_symop_operation_xyz
x,y,z
-x,1/2+y,1/2-z
-x,-y,-z
x,1/2-y,1/2+z
loop_
_atom_site_type_symbol
_atom_site_label
_atom_site_fract_x
_atom_site_fract_y
_atom_site_fract_z
Si Si1 0.420608 0.586677 0.282833
Si Si2 0.737879 0.454376 0.093288
Si Si3 0.041362 0.728335 0.269515
Si Si4 0.152555 0.519140 0.673762
Si Si5 0.604477 0.544245 0.861279
Si Si6 0.805039 0.115549 0.024728
Si Si7 0.855059 0.732962 0.001425
O O1 0.215642 0.571426 0.294958
O O2 0.622700 0.470288 0.322411
O O3 0.363690 0.569411 0.198553
O O4 0.490938 0.782386 0.315441
O O5 0.895141 0.381252 0.169407
O O6 0.546058 0.527705 0.104989
O O7 0.685945 0.272130 0.044835
O O8 0.820520 0.604041 0.057092
O O9 0.840885 0.638985 0.269123
O O10 0.066370 0.812305 0.201441
O O11 0.988315 0.444245 0.599719
O O12 0.791470 0.623479 0.927705
O O13 0.270522 0.080503 0.008155
O O14 0.915060 0.209281 0.978961
#
# Coordination Sequence:
#
# PCOD9248955 Si02
#       7
#     4   4   4   4   4   4   4
#     4  11  22  45  64  98 139 171 229 296 340 416
#     4  10  22  45  63 101 135 177 234 279 351 422
#     4  10  25  39  68 103 131 180 234 286 358 417
#     4  11  22  42  67  98 134 179 232 291 351 418
#     4  11  24  45  68 100 135 181 235 286 355 423
#     4  10  24  42  66 101 138 183 229 291 344 420
#     4  11  23  44  69  97 143 183 231 283 351 427
#
# _framework density 27.680394
#
# number of rings (size 3 to 8) (size 9 to 14) (size 15 to 20)
#    0.000    1.429    4.286    0.857    4.000    0.571 
#   12.857    0.000    0.000    0.000    0.000    0.000 
#    0.000    0.000    0.000    0.000    0.000    0.000 
#
# Total GULP energy -156713.728465 kJ/mol
# GULP energy per Si atom -5596.918874 kJ/mol
# Density = 2.761739 g / cm^3
# Si number density = 27.680394 Si / 1000 Ang^3
#
#
#
# Elastic Constant Matrix: (Units=GPa)
#
#
# Indices 1 2 3 4 5 6 
#
# 1 109.9389 31.8081 40.2822 0.0000 -18.5589 0.0000
# 2 31.8081 94.3259 51.1650 0.0000 -10.8131 0.0000
# 3 40.2822 51.1650 127.4146 0.0000 -14.2265 0.0000
# 4 0.0000 0.0000 0.0000 72.5684 0.0000 -25.5435
# 5 -18.5589 -10.8131 -14.2265 0.0000 38.0923 0.0000
# 6 0.0000 0.0000 0.0000 -25.5435 0.0000 44.3094
#
#
#
# Elastic Compliance Matrix: (Units=1/GPa)
#
#
# Indices 1 2 3 4 5 6 
#
# 1 0.011207 -0.002096 -0.002252 0.000000 0.004024 0.000000
# 2 -0.002096 0.014078 -0.004861 0.000000 0.001159 0.000000
# 3 -0.002252 -0.004861 0.010681 0.000000 0.001512 0.000000
# 4 0.000000 0.000000 0.000000 0.017288 0.000000 0.009966
# 5 0.004024 0.001159 0.001512 0.000000 0.029106 0.000000
# 6 0.000000 0.000000 0.000000 0.009966 0.000000 0.028314
#
#
# Mechanical properties :
#
#
# Convention : Reuss Voigt Hill
#
# Bulk Modulus (GPa) = 56.98789 64.24333 60.61561
# Shear Modulus (GPa) = 37.05279 44.88896 40.97087
#
# Velocity S-wave (km/s) = 3.66265 4.03139 3.85143
# Velocity P-wave (km/s) = 6.20638 6.70289 6.45941
#
# Compressibility (1/GPa) = 0.01754759
#
# Stress axis : x y z
#
# Youngs Moduli (GPa) = 89.23071 71.03214 93.62241
#
# Poissons Ratio (x) = 0.14891 0.21083
# Poissons Ratio (y) = 0.18706 0.45510
# Poissons Ratio (z) = 0.20094 0.34529
#
# Static dielectric constant tensor:
#      x y z
#    x 2.226130 0.000000 0.056330 
#    y 0.000000 2.239150 0.000000 
#    z 0.056330 0.000000 2.183270 
# 
# From -- ./inp_files/71790.got.cif
#   From: 2010.05.17/outbox.cif.g08.bks.cpg/sg14_36_cif.got.tgz:71790.got - 2010.06.03 17:49:19.
