data_PCOD9248310
_publ_section_title
;
Structure prediction by ZEFSAII (Michael W. Deem and Ramdas Pophale) SiO2 
 PCOD9248310
Probable space group: P 21/C
;
_chemical_formula_sum "Si O2"
_cell_formula_units_Z 28
_cell_length_a 9.719915
_cell_length_b 7.454014
_cell_length_c 17.883918
_cell_angle_alpha 90.000000
_cell_angle_beta 123.260789
_cell_angle_gamma 90.000000
_cell_volume 1083.469326
_symmetry_space_group_name_H-M "P 21/C"
_symmetry_group_IT_number 14
_symmetry_cell_setting 'monoclinic'
loop_
_space_group_symop_operation_xyz
x,y,z
-x,1/2+y,1/2-z
-x,-y,-z
x,1/2-y,1/2+z
loop_
_atom_site_type_symbol
_atom_site_label
_atom_site_fract_x
_atom_site_fract_y
_atom_site_fract_z
Si Si1 0.299761 0.876241 0.504105
Si Si2 0.031156 0.030662 0.652910
Si Si3 0.361029 0.884692 0.728220
Si Si4 0.460729 0.831716 0.401578
Si Si5 0.288487 0.027341 0.000166
Si Si6 0.999721 0.386170 0.313939
Si Si7 0.732415 0.016850 0.845058
O O1 0.346030 0.918477 0.430366
O O2 0.355115 0.672292 0.527509
O O3 0.408782 0.015211 0.583681
O O4 0.102728 0.899395 0.446437
O O5 0.225153 0.041093 0.690869
O O6 0.002513 0.817034 0.655909
O O7 0.000063 0.115059 0.725091
O O8 0.364009 0.770732 0.807553
O O9 0.294074 0.731642 0.653422
O O10 0.549581 0.942108 0.775745
O O11 0.575511 0.676606 0.468992
O O12 0.206876 0.062165 0.057718
O O13 0.166843 0.029538 0.894887
O O14 0.857740 0.500172 0.313817
#
# Coordination Sequence:
#
# PCOD9248310 Si02
#       7
#     4   4   4   4   4   4   4
#     4  11  22  39  68  99 130 177 219 275 342 384
#     4  11  23  42  67  99 133 173 229 285 328 394
#     4  10  23  43  63  94 135 171 230 272 332 404
#     4  10  22  42  64  97 137 171 223 279 321 405
#     4  11  22  41  66  97 134 177 216 274 340 402
#     4  11  22  42  65  95 137 170 227 279 335 397
#     4  10  24  41  65  92 134 178 216 276 340 397
#
# _framework density 25.84291
#
# number of rings (size 3 to 8) (size 9 to 14) (size 15 to 20)
#    0.000    1.429    1.429    4.286    2.000    3.429 
#    0.000    2.857    0.000    0.000    0.000    0.000 
#    0.000    0.000    0.000    0.000    0.000    0.000 
#
# Total GULP energy -156689.136369 kJ/mol
# GULP energy per Si atom -5596.040585 kJ/mol
# Density = 2.578409 g / cm^3
# Si number density = 25.842910 Si / 1000 Ang^3
#
#
#
# Elastic Constant Matrix: (Units=GPa)
#
#
# Indices 1 2 3 4 5 6 
#
# 1 62.3357 0.3592 14.5538 0.0000 1.4085 0.0000
# 2 0.3592 89.8561 -3.2853 0.0000 11.8589 0.0000
# 3 14.5538 -3.2853 57.6076 0.0000 15.5028 0.0000
# 4 0.0000 0.0000 0.0000 10.5532 0.0000 10.6597
# 5 1.4085 11.8589 15.5028 0.0000 29.8430 0.0000
# 6 0.0000 0.0000 0.0000 10.6597 0.0000 28.5323
#
#
#
# Elastic Compliance Matrix: (Units=1/GPa)
#
#
# Indices 1 2 3 4 5 6 
#
# 1 0.017140 -0.000501 -0.004876 0.000000 0.001923 0.000000
# 2 -0.000501 0.012013 0.002430 0.000000 -0.006012 0.000000
# 3 -0.004876 0.002430 0.022003 0.000000 -0.012165 0.000000
# 4 0.000000 0.000000 0.000000 0.152191 0.000000 -0.056859
# 5 0.001923 -0.006012 -0.012165 0.000000 0.042127 0.000000
# 6 0.000000 0.000000 0.000000 -0.056859 0.000000 0.056291
#
#
# Mechanical properties :
#
#
# Convention : Reuss Voigt Hill
#
# Bulk Modulus (GPa) = 22.09373 25.89499 23.99436
# Shear Modulus (GPa) = 15.49202 26.99713 21.24458
#
# Velocity S-wave (km/s) = 2.45106 3.23563 2.87028
# Velocity P-wave (km/s) = 4.07162 4.89908 4.50439
#
# Compressibility (1/GPa) = 0.04526170
#
# Stress axis : x y z
#
# Youngs Moduli (GPa) = 58.34272 83.24171 45.44804
#
# Poissons Ratio (x) = 0.04167 0.22162
# Poissons Ratio (y) = 0.02921 -0.11042
# Poissons Ratio (z) = 0.28450 -0.20224
#
# Static dielectric constant tensor:
#      x y z
#    x 2.132170 0.000000 -0.036870 
#    y 0.000000 2.030860 0.000000 
#    z -0.036870 0.000000 2.073200 
# 
# From -- ./inp_files/65017.got.cif
#   From: 2010.05.17/outbox.cif.g08.bks.cpg/sg14_33_cif.got.tgz:65017.got - 2010.06.03 17:49:19.
