data_PCOD9248506
_publ_section_title
;
Structure prediction by ZEFSAII (Michael W. Deem and Ramdas Pophale) SiO2 
 PCOD9248506
Probable space group: P 21/C
;
_chemical_formula_sum "Si O2"
_cell_formula_units_Z 32
_cell_length_a 9.152088
_cell_length_b 10.680465
_cell_length_c 19.671684
_cell_angle_alpha 90.000000
_cell_angle_beta 43.070787
_cell_angle_gamma 90.000000
_cell_volume 1313.136558
_symmetry_space_group_name_H-M "P 21/C"
_symmetry_group_IT_number 14
_symmetry_cell_setting 'monoclinic'
loop_
_space_group_symop_operation_xyz
x,y,z
-x,1/2+y,1/2-z
-x,-y,-z
x,1/2-y,1/2+z
loop_
_atom_site_type_symbol
_atom_site_label
_atom_site_fract_x
_atom_site_fract_y
_atom_site_fract_z
Si Si1 0.401303 0.050057 0.893725
Si Si2 0.787727 0.889103 0.740341
Si Si3 0.226391 0.679869 0.075006
Si Si4 0.718077 0.848560 0.360570
Si Si5 0.213647 0.224490 0.516289
Si Si6 0.844313 0.297873 0.537514
Si Si7 0.346483 0.617927 0.172509
Si Si8 0.482813 0.742581 0.251331
O O1 0.428304 0.140854 0.819822
O O2 0.633651 0.990247 0.826985
O O3 0.234401 0.941318 0.931595
O O4 0.324312 0.137605 0.981085
O O5 0.773211 0.765129 0.791789
O O6 0.666416 0.851908 0.712275
O O7 0.032432 0.920154 0.641364
O O8 0.252624 0.708416 0.145796
O O9 0.466960 0.647745 0.970023
O O10 0.139801 0.774873 0.048095
O O11 0.840689 0.818894 0.389570
O O12 0.743215 0.981029 0.313548
O O13 0.396487 0.129927 0.426231
O O14 0.036062 0.249817 0.519187
O O15 0.643981 0.221650 0.637731
O O16 0.318496 0.670452 0.257215
#
# Coordination Sequence:
#
# PCOD9248506 Si02
#       8
#     4   4   4   4   4   4   4   4
#     4  10  22  44  66 101 139 175 232 287 346 413
#     4  11  25  42  67  99 138 175 232 286 347 407
#     4  11  22  44  66 101 131 179 227 283 347 413
#     4  11  24  47  66 100 139 182 227 290 346 414
#     4  10  22  42  71  95 138 177 231 280 349 414
#     4  11  23  42  72 103 138 180 236 282 358 418
#     4  10  24  45  68  94 138 178 231 285 347 410
#     4  10  23  44  68 100 136 182 229 286 344 422
#
# _framework density 24.369135
#
# number of rings (size 3 to 8) (size 9 to 14) (size 15 to 20)
#    0.000    1.500    2.500    3.375    5.250    2.500 
#    6.750    3.750    0.000    0.000    0.000    0.000 
#    0.000    0.000    0.000    0.000    0.000    0.000 
#
# Total GULP energy -178578.770232 kJ/mol
# GULP energy per Si atom -5580.586570 kJ/mol
# Density = 2.431367 g / cm^3
# Si number density = 24.369135 Si / 1000 Ang^3
#
#
#
# Elastic Constant Matrix: (Units=GPa)
#
#
# Indices 1 2 3 4 5 6 
#
# 1 106.6644 40.1033 22.1159 0.0000 7.9292 0.0000
# 2 40.1033 108.1448 18.2194 0.0000 23.4392 0.0000
# 3 22.1159 18.2194 67.0490 0.0000 10.2778 0.0000
# 4 0.0000 0.0000 0.0000 30.4348 0.0000 4.3200
# 5 7.9292 23.4392 10.2778 0.0000 45.9551 0.0000
# 6 0.0000 0.0000 0.0000 4.3200 0.0000 25.9615
#
#
#
# Elastic Compliance Matrix: (Units=1/GPa)
#
#
# Indices 1 2 3 4 5 6 
#
# 1 0.011367 -0.003884 -0.002793 0.000000 0.000645 0.000000
# 2 -0.003884 0.012012 -0.001187 0.000000 -0.005191 0.000000
# 3 -0.002793 -0.001187 0.016559 0.000000 -0.002616 0.000000
# 4 0.000000 0.000000 0.000000 0.033652 0.000000 -0.005600
# 5 0.000645 -0.005191 -0.002616 0.000000 0.024882 0.000000
# 6 0.000000 0.000000 0.000000 -0.005600 0.000000 0.039450
#
#
# Mechanical properties :
#
#
# Convention : Reuss Voigt Hill
#
# Bulk Modulus (GPa) = 41.30496 49.19281 45.24888
# Shear Modulus (GPa) = 30.91744 33.89825 32.40784
#
# Velocity S-wave (km/s) = 3.56576 3.73370 3.65070
# Velocity P-wave (km/s) = 5.82575 6.23039 6.03146
#
# Compressibility (1/GPa) = 0.02421017
#
# Stress axis : x y z
#
# Youngs Moduli (GPa) = 87.97610 83.24708 60.38937
#
# Poissons Ratio (x) = 0.32336 0.16864
# Poissons Ratio (y) = 0.34173 0.07169
# Poissons Ratio (z) = 0.24568 0.09883
#
# Static dielectric constant tensor:
#      x y z
#    x 2.008680 0.000000 -0.058890 
#    y 0.000000 1.953980 0.000000 
#    z -0.058890 0.000000 1.990960 
# 
# From -- ./inp_files/65582.got.cif
#   From: 2010.05.17/outbox.cif.g08.bks.cpg/sg14_33_cif.got.tgz:65582.got - 2010.06.03 17:49:19.
