data_PCOD9248139
_publ_section_title
;
Structure prediction by ZEFSAII (Michael W. Deem and Ramdas Pophale) SiO2 
 PCOD9248139
Probable space group: P 21/C
;
_chemical_formula_sum "Si O2"
_cell_formula_units_Z 28
_cell_length_a 22.375414
_cell_length_b 4.922177
_cell_length_c 11.137046
_cell_angle_alpha 90.000000
_cell_angle_beta 124.626973
_cell_angle_gamma 90.000000
_cell_volume 1009.320275
_symmetry_space_group_name_H-M "P 21/C"
_symmetry_group_IT_number 14
_symmetry_cell_setting 'monoclinic'
loop_
_space_group_symop_operation_xyz
x,y,z
-x,1/2+y,1/2-z
-x,-y,-z
x,1/2-y,1/2+z
loop_
_atom_site_type_symbol
_atom_site_label
_atom_site_fract_x
_atom_site_fract_y
_atom_site_fract_z
Si Si1 0.192871 0.228956 0.354518
Si Si2 0.917743 0.270157 0.496861
Si Si3 0.620503 0.291221 0.662748
Si Si4 0.654342 0.714218 0.062412
Si Si5 0.457096 0.052711 0.239315
Si Si6 0.225235 0.774484 0.048310
Si Si7 0.947518 0.066580 0.298430
O O1 0.259194 0.256531 0.336891
O O2 0.218268 0.420950 0.493370
O O3 0.115199 0.354031 0.231095
O O4 0.195914 0.926599 0.411288
O O5 0.831407 0.238366 0.408169
O O6 0.936272 0.428622 0.641891
O O7 0.969664 0.015340 0.584378
O O8 0.936356 0.317985 0.378225
O O9 0.614162 0.600532 0.615418
O O10 0.558413 0.132336 0.662703
O O11 0.692750 0.287021 0.826584
O O12 0.640011 0.099856 0.571611
O O13 0.616982 0.822586 0.899170
O O14 0.493301 0.821796 0.194491
#
# Coordination Sequence:
#
# PCOD9248139 Si02
#       7
#     4   4   4   4   4   4   4
#     4  11  23  43  73 104 144 191 243 301 370 440
#     4  10  22  41  67 103 152 199 258 317 383 451
#     4  12  26  45  75 107 142 187 246 296 363 443
#     4  12  26  45  74 107 141 189 243 298 361 441
#     4  12  28  48  73 104 147 189 233 302 374 448
#     4  11  23  43  72 104 142 191 241 302 369 439
#     4  10  22  41  66 107 148 202 255 319 381 451
#
# _framework density 27.741444000000001
#
# number of rings (size 3 to 8) (size 9 to 14) (size 15 to 20)
#    0.000    0.857    1.429    5.143    2.000    5.143 
#    0.000    7.143    0.000    0.000    0.000    0.000 
#    0.000    0.000    0.000    0.000    0.000    0.000 
#
# Total GULP energy -156700.126080 kJ/mol
# GULP energy per Si atom -5596.433074 kJ/mol
# Density = 2.767830 g / cm^3
# Si number density = 27.741444 Si / 1000 Ang^3
#
#
#
# Elastic Constant Matrix: (Units=GPa)
#
#
# Indices 1 2 3 4 5 6 
#
# 1 124.4536 41.2535 14.7805 0.0000 -1.8447 0.0000
# 2 41.2535 106.6305 32.7074 0.0000 -0.8293 0.0000
# 3 14.7805 32.7074 109.4180 0.0000 19.2035 0.0000
# 4 0.0000 0.0000 0.0000 46.9831 0.0000 -1.1612
# 5 -1.8447 -0.8293 19.2035 0.0000 32.5259 0.0000
# 6 0.0000 0.0000 0.0000 -1.1612 0.0000 16.8842
#
#
#
# Elastic Compliance Matrix: (Units=1/GPa)
#
#
# Indices 1 2 3 4 5 6 
#
# 1 0.009232 -0.003469 -0.000320 0.000000 0.000624 0.000000
# 2 -0.003469 0.011788 -0.003429 0.000000 0.002128 0.000000
# 3 -0.000320 -0.003429 0.011408 0.000000 -0.006841 0.000000
# 4 0.000000 0.000000 0.000000 0.021320 0.000000 0.001466
# 5 0.000624 0.002128 -0.006841 0.000000 0.034873 0.000000
# 6 0.000000 0.000000 0.000000 0.001466 0.000000 0.059328
#
#
# Mechanical properties :
#
#
# Convention : Reuss Voigt Hill
#
# Bulk Modulus (GPa) = 55.57388 57.55385 56.56386
# Shear Modulus (GPa) = 29.69423 36.06270 32.87846
#
# Velocity S-wave (km/s) = 3.27523 3.60940 3.44637
# Velocity P-wave (km/s) = 5.86338 6.17754 6.02250
#
# Compressibility (1/GPa) = 0.01799406
#
# Stress axis : x y z
#
# Youngs Moduli (GPa) = 108.31670 84.82846 87.65772
#
# Poissons Ratio (x) = 0.29426 0.02802
# Poissons Ratio (y) = 0.37574 0.30056
# Poissons Ratio (z) = 0.03463 0.29086
#
# Static dielectric constant tensor:
#      x y z
#    x 2.208650 0.000000 -0.060420 
#    y 0.000000 2.105030 0.000000 
#    z -0.060420 0.000000 2.202390 
# 
# From -- ./inp_files/34774.got.cif
#   From: 2010.05.17/outbox.cif.g08.bks.cpg/sg14_18_cif.got.tgz:34774.got - 2010.06.03 17:49:19.
