data_PCOD9248478
_publ_section_title
;
Structure prediction by ZEFSAII (Michael W. Deem and Ramdas Pophale) SiO2 
 PCOD9248478
Probable space group: P 21/C
;
_chemical_formula_sum "Si O2"
_cell_formula_units_Z 22
_cell_length_a 13.522949
_cell_length_b 4.843969
_cell_length_c 13.542415
_cell_angle_alpha 90.000000
_cell_angle_beta 103.557025
_cell_angle_gamma 90.000000
_cell_volume 862.375480
_symmetry_space_group_name_H-M "P 21/C"
_symmetry_group_IT_number 14
_symmetry_cell_setting 'monoclinic'
loop_
_space_group_symop_operation_xyz
x,y,z
-x,1/2+y,1/2-z
-x,-y,-z
x,1/2-y,1/2+z
loop_
_atom_site_type_symbol
_atom_site_label
_atom_site_fract_x
_atom_site_fract_y
_atom_site_fract_z
Si Si1 0.239942 0.621565 0.711472
Si Si2 0.422755 0.696410 0.874799
Si Si3 0.000000 0.000000 0.000000
Si Si4 0.373500 0.194654 0.992959
Si Si5 0.941378 0.248205 0.194968
Si Si6 0.810772 0.880600 0.424574
O O1 0.354222 0.712202 0.761796
O O2 0.169441 0.679056 0.789293
O O3 0.228133 0.305176 0.677473
O O4 0.192694 0.803200 0.611393
O O5 0.540538 0.780757 0.901751
O O6 0.412765 0.386774 0.913030
O O7 0.373502 0.890557 0.948167
O O8 0.947250 0.109969 0.090908
O O9 0.919287 0.739529 0.975524
O O10 0.268514 0.309513 0.008335
O O11 0.008569 0.523651 0.219525
#
# Coordination Sequence:
#
# PCOD9248478 Si02
#       6
#     4   4   2   4   4   4
#     4  12  24  44  65 102 138 179 227 306 340 428
#     4  10  22  42  70  94 140 175 234 289 356 414
#     4  12  26  46  72  96 140 194 230 304 348 426
#     4  10  22  43  66 102 129 186 231 285 352 442
#     4  12  25  46  67  98 137 180 237 293 350 427
#     4  12  26  41  68 100 139 180 241 280 365 413
#
# _framework density 25.510928
#
# number of rings (size 3 to 8) (size 9 to 14) (size 15 to 20)
#    0.000    0.727    3.636    3.273    0.000    5.818 
#    0.000    0.000    0.000    0.000    0.000    0.000 
#    0.000    0.000    0.000    0.000    0.000    0.000 
#
# Total GULP energy -122867.029224 kJ/mol
# GULP energy per Si atom -5584.864965 kJ/mol
# Density = 2.545286 g / cm^3
# Si number density = 25.510928 Si / 1000 Ang^3
#
#
#
# Elastic Constant Matrix: (Units=GPa)
#
#
# Indices 1 2 3 4 5 6 
#
# 1 60.0677 2.3043 22.1437 0.0000 1.5031 0.0000
# 2 2.3043 94.9936 13.3725 0.0000 11.3189 0.0000
# 3 22.1437 13.3725 71.1663 0.0000 18.3002 0.0000
# 4 0.0000 0.0000 0.0000 37.6913 0.0000 6.6523
# 5 1.5031 11.3189 18.3002 0.0000 40.1715 0.0000
# 6 0.0000 0.0000 0.0000 6.6523 0.0000 19.6754
#
#
#
# Elastic Compliance Matrix: (Units=1/GPa)
#
#
# Indices 1 2 3 4 5 6 
#
# 1 0.018985 0.000194 -0.006510 0.000000 0.002201 0.000000
# 2 0.000194 0.011024 -0.001508 0.000000 -0.002426 0.000000
# 3 -0.006510 -0.001508 0.018337 0.000000 -0.007685 0.000000
# 4 0.000000 0.000000 0.000000 0.028215 0.000000 -0.009540
# 5 0.002201 -0.002426 -0.007685 0.000000 0.028995 0.000000
# 6 0.000000 0.000000 0.000000 -0.009540 0.000000 0.054050
#
#
# Mechanical properties :
#
#
# Convention : Reuss Voigt Hill
#
# Bulk Modulus (GPa) = 30.58280 33.54095 32.06188
# Shear Modulus (GPa) = 26.85966 32.06811 29.46388
#
# Velocity S-wave (km/s) = 3.24831 3.54931 3.40214
# Velocity P-wave (km/s) = 5.10714 5.47477 5.29414
#
# Compressibility (1/GPa) = 0.03269812
#
# Stress axis : x y z
#
# Youngs Moduli (GPa) = 52.67288 90.71365 54.53603
#
# Poissons Ratio (x) = -0.01756 0.35500
# Poissons Ratio (y) = -0.01020 0.08222
# Poissons Ratio (z) = 0.34288 0.13677
#
# Static dielectric constant tensor:
#      x y z
#    x 2.054910 0.000000 0.095450 
#    y 0.000000 1.912940 0.000000 
#    z 0.095450 0.000000 2.051920 
# 
# From -- ./inp_files/31153.got.cif
#   From: 2010.05.17/outbox.cif.g08.bks.cpg/sg14_16_cif.got.tgz:31153.got - 2010.06.03 17:49:19.
