data_PCOD9248423
_publ_section_title
;
Structure prediction by ZEFSAII (Michael W. Deem and Ramdas Pophale) SiO2 
 PCOD9248423
Probable space group: P 21/C
;
_chemical_formula_sum "Si O2"
_cell_formula_units_Z 32
_cell_length_a 15.180604
_cell_length_b 8.815934
_cell_length_c 13.017442
_cell_angle_alpha 90.000000
_cell_angle_beta 67.823923
_cell_angle_gamma 90.000000
_cell_volume 1613.270811
_symmetry_space_group_name_H-M "P 21/C"
_symmetry_group_IT_number 14
_symmetry_cell_setting 'monoclinic'
loop_
_space_group_symop_operation_xyz
x,y,z
-x,1/2+y,1/2-z
-x,-y,-z
x,1/2-y,1/2+z
loop_
_atom_site_type_symbol
_atom_site_label
_atom_site_fract_x
_atom_site_fract_y
_atom_site_fract_z
Si Si1 0.437478 0.233206 0.679586
Si Si2 0.271327 0.418629 0.388965
Si Si3 0.606449 0.026652 0.685348
Si Si4 0.237015 0.758890 0.814855
Si Si5 0.932473 0.129296 0.485047
Si Si6 0.936784 0.900200 0.104367
Si Si7 0.328829 0.194140 0.527654
Si Si8 0.824800 0.467818 0.832547
O O1 0.349983 0.153003 0.778789
O O2 0.530634 0.144183 0.673571
O O3 0.439723 0.407207 0.715279
O O4 0.414156 0.219042 0.569716
O O5 0.268472 0.599644 0.373760
O O6 0.165256 0.366353 0.403175
O O7 0.296105 0.350230 0.488874
O O8 0.690011 0.121779 0.702693
O O9 0.643771 0.922732 0.575076
O O10 0.229075 0.833215 0.705139
O O11 0.133604 0.703331 0.898048
O O12 0.861411 0.074045 0.428125
O O13 0.002375 0.251565 0.404118
O O14 0.000000 0.000000 0.500000
O O15 0.911281 0.986884 0.219890
O O16 0.000000 0.000000 0.000000
O O17 0.243391 0.112533 0.625476
#
# Coordination Sequence:
#
# PCOD9248423 Si02
#       8
#     4   4   4   4   4   4   4   4
#     4  11  23  44  67 102 130 176 217 277 340 401
#     4  10  22  42  68  94 135 170 220 277 332 394
#     4  11  25  44  72  98 138 175 223 277 341 401
#     4  11  23  46  66  96 137 179 224 279 338 399
#     4  12  26  41  65  98 134 174 230 276 330 400
#     4  11  22  43  65  93 133 178 220 271 331 390
#     4  11  22  43  71 101 132 176 221 276 338 406
#     4  11  24  42  69  95 134 179 221 278 337 386
#
# _framework density 19.835477999999998
#
# number of rings (size 3 to 8) (size 9 to 14) (size 15 to 20)
#    0.000    1.000    6.250    1.875    3.500    2.000 
#    0.000    3.125    0.000    0.000    0.000    0.000 
#    0.000    0.000    0.000    0.000    0.000    0.000 
#
# Total GULP energy -178736.988216 kJ/mol
# GULP energy per Si atom -5585.530882 kJ/mol
# Density = 1.979033 g / cm^3
# Si number density = 19.835478 Si / 1000 Ang^3
#
#
#
# Elastic Constant Matrix: (Units=GPa)
#
#
# Indices 1 2 3 4 5 6 
#
# 1 61.9098 28.7568 7.1870 0.0000 4.1469 0.0000
# 2 28.7568 103.2442 14.3199 0.0000 16.8249 0.0000
# 3 7.1870 14.3199 56.5019 0.0000 16.4415 0.0000
# 4 0.0000 0.0000 0.0000 32.2594 0.0000 2.2153
# 5 4.1469 16.8249 16.4415 0.0000 29.0095 0.0000
# 6 0.0000 0.0000 0.0000 2.2153 0.0000 46.6882
#
#
#
# Elastic Compliance Matrix: (Units=1/GPa)
#
#
# Indices 1 2 3 4 5 6 
#
# 1 0.018646 -0.005185 -0.001386 0.000000 0.001127 0.000000
# 2 -0.005185 0.012194 -0.000705 0.000000 -0.005932 0.000000
# 3 -0.001386 -0.000705 0.021407 0.000000 -0.011526 0.000000
# 4 0.000000 0.000000 0.000000 0.031100 0.000000 -0.001476
# 5 0.001127 -0.005932 -0.011526 0.000000 0.044283 0.000000
# 6 0.000000 0.000000 0.000000 -0.001476 0.000000 0.021489
#
#
# Mechanical properties :
#
#
# Convention : Reuss Voigt Hill
#
# Bulk Modulus (GPa) = 26.52746 35.79816 31.16281
# Shear Modulus (GPa) = 28.37085 33.01756 30.69420
#
# Velocity S-wave (km/s) = 3.78604 4.08434 3.93802
# Velocity P-wave (km/s) = 5.70219 6.35053 6.03507
#
# Compressibility (1/GPa) = 0.03769678
#
# Stress axis : x y z
#
# Youngs Moduli (GPa) = 53.62982 82.00479 46.71275
#
# Poissons Ratio (x) = 0.42520 0.06473
# Poissons Ratio (y) = 0.27807 0.03293
# Poissons Ratio (z) = 0.07431 0.05781
#
# Static dielectric constant tensor:
#      x y z
#    x 1.699930 0.000000 0.018820 
#    y 0.000000 1.704230 0.000000 
#    z 0.018820 0.000000 1.723620 
# 
# From -- ./inp_files/31785.got.cif
#   From: 2010.05.17/outbox.cif.g08.bks.cpg/sg14_16_cif.got.tgz:31785.got - 2010.06.03 17:49:19.
