data_PCOD9248992
_publ_section_title
;
Structure prediction by ZEFSAII (Michael W. Deem and Ramdas Pophale) SiO2 
 PCOD9248992
Probable space group: P 21/C
;
_chemical_formula_sum "Si O2"
_cell_formula_units_Z 26
_cell_length_a 5.758018
_cell_length_b 17.853562
_cell_length_c 11.202688
_cell_angle_alpha 90.000000
_cell_angle_beta 107.515780
_cell_angle_gamma 90.000000
_cell_volume 1098.251754
_symmetry_space_group_name_H-M "P 21/C"
_symmetry_group_IT_number 14
_symmetry_cell_setting 'monoclinic'
loop_
_space_group_symop_operation_xyz
x,y,z
-x,1/2+y,1/2-z
-x,-y,-z
x,1/2-y,1/2+z
loop_
_atom_site_type_symbol
_atom_site_label
_atom_site_fract_x
_atom_site_fract_y
_atom_site_fract_z
Si Si1 0.500000 0.500000 0.500000
Si Si2 0.239166 0.367006 0.441138
Si Si3 0.622205 0.137986 0.577926
Si Si4 0.072840 0.769691 0.550583
Si Si5 0.228750 0.125704 0.326199
Si Si6 0.811790 0.025657 0.809590
Si Si7 0.424811 0.226013 0.752585
O O1 0.476501 0.408118 0.527148
O O2 0.385685 0.520948 0.615870
O O3 0.288217 0.330217 0.320390
O O4 0.105150 0.301026 0.489480
O O5 0.064070 0.439555 0.397898
O O6 0.829122 0.191055 0.553652
O O7 0.462531 0.104531 0.445131
O O8 0.722288 0.078303 0.687287
O O9 0.443281 0.191608 0.625289
O O10 0.302151 0.733813 0.654647
O O11 0.965474 0.835597 0.616432
O O12 0.315171 0.192624 0.255077
O O13 0.138307 0.055457 0.238207
#
# Coordination Sequence:
#
# PCOD9248992 Si02
#       7
#     2   4   4   4   4   4   4
#     4  12  26  44  70 102 140 188 236 294 348 416
#     4  11  23  45  69 100 140 191 237 288 351 420
#     4  11  23  44  74 102 142 188 229 296 353 429
#     4  10  23  43  68 101 135 188 237 283 354 421
#     4  10  26  42  69 110 138 181 234 294 358 425
#     4  12  26  45  71 105 147 185 232 295 362 421
#     4  10  22  45  68  94 140 184 237 283 341 422
#
# _framework density 23.67399
#
# number of rings (size 3 to 8) (size 9 to 14) (size 15 to 20)
#    0.000    1.231    3.077    0.923    2.154    9.231 
#    0.000    0.000    0.000    0.000    0.000    0.000 
#    0.000    0.000    0.000    0.000    0.000    0.000 
#
# Total GULP energy -145060.373943 kJ/mol
# GULP energy per Si atom -5579.245152 kJ/mol
# Density = 2.362011 g / cm^3
# Si number density = 23.673990 Si / 1000 Ang^3
#
#
#
# Elastic Constant Matrix: (Units=GPa)
#
#
# Indices 1 2 3 4 5 6 
#
# 1 34.9528 20.7486 28.0040 0.0000 -17.3505 0.0000
# 2 20.7486 145.7851 27.6980 0.0000 -3.1438 0.0000
# 3 28.0040 27.6980 88.8127 0.0000 -8.1800 0.0000
# 4 0.0000 0.0000 0.0000 42.5019 0.0000 0.4955
# 5 -17.3505 -3.1438 -8.1800 0.0000 28.1694 0.0000
# 6 0.0000 0.0000 0.0000 0.4955 0.0000 41.8785
#
#
#
# Elastic Compliance Matrix: (Units=1/GPa)
#
#
# Indices 1 2 3 4 5 6 
#
# 1 0.058252 -0.004968 -0.013937 0.000000 0.031278 0.000000
# 2 -0.004968 0.007716 -0.001071 0.000000 -0.002510 0.000000
# 3 -0.013937 -0.001071 0.015604 0.000000 -0.004173 0.000000
# 4 0.000000 0.000000 0.000000 0.023532 0.000000 -0.000278
# 5 0.031278 -0.002510 -0.004173 0.000000 0.053272 0.000000
# 6 0.000000 0.000000 0.000000 -0.000278 0.000000 0.023882
#
#
# Mechanical properties :
#
#
# Convention : Reuss Voigt Hill
#
# Bulk Modulus (GPa) = 24.02776 46.93908 35.48342
# Shear Modulus (GPa) = 21.17894 35.38331 28.28112
#
# Velocity S-wave (km/s) = 2.99424 3.87021 3.46006
# Velocity P-wave (km/s) = 4.70377 6.31203 5.56629
#
# Compressibility (1/GPa) = 0.04161853
#
# Stress axis : x y z
#
# Youngs Moduli (GPa) = 17.16686 129.60360 64.08609
#
# Poissons Ratio (x) = 0.64388 0.89320
# Poissons Ratio (y) = 0.08529 0.06864
# Poissons Ratio (z) = 0.23926 0.13881
#
# Static dielectric constant tensor:
#      x y z
#    x 2.219450 0.000000 0.121290 
#    y 0.000000 1.934270 0.000000 
#    z 0.121290 0.000000 1.906120 
# 
# From -- ./inp_files/21252.got.cif
#   From: 2010.05.17/outbox.cif.g08.bks.cpg/sg14_11_cif.got.tgz:21252.got - 2010.06.03 17:49:19.
