data_PCOD9248889
_publ_section_title
;
Structure prediction by ZEFSAII (Michael W. Deem and Ramdas Pophale) SiO2 
 PCOD9248889
Probable space group: P 21/C
;
_chemical_formula_sum "Si O2"
_cell_formula_units_Z 30
_cell_length_a 9.585640
_cell_length_b 13.457319
_cell_length_c 10.918866
_cell_angle_alpha 90.000000
_cell_angle_beta 124.870267
_cell_angle_gamma 90.000000
_cell_volume 1155.602880
_symmetry_space_group_name_H-M "P 21/C"
_symmetry_group_IT_number 14
_symmetry_cell_setting 'monoclinic'
loop_
_space_group_symop_operation_xyz
x,y,z
-x,1/2+y,1/2-z
-x,-y,-z
x,1/2-y,1/2+z
loop_
_atom_site_type_symbol
_atom_site_label
_atom_site_fract_x
_atom_site_fract_y
_atom_site_fract_z
Si Si1 0.577017 0.198354 0.374158
Si Si2 0.078800 0.047694 0.391499
Si Si3 0.437590 0.035794 0.685054
Si Si4 0.798400 0.473269 0.296200
Si Si5 0.565798 0.783961 0.955560
Si Si6 0.500000 0.000000 0.000000
Si Si7 0.953085 0.170943 0.522850
Si Si8 0.111043 0.346438 0.498417
O O1 0.490511 0.246484 0.210516
O O2 0.481342 0.220244 0.451346
O O3 0.777984 0.219707 0.479644
O O4 0.574922 0.080944 0.352586
O O5 0.255651 0.074144 0.548107
O O6 0.947007 0.127607 0.378968
O O7 0.126940 0.040373 0.274994
O O8 0.019259 0.934441 0.394113
O O9 0.606535 0.062574 0.693154
O O10 0.464835 0.048679 0.842922
O O11 0.808979 0.548905 0.416373
O O12 0.922396 0.379598 0.367637
O O13 0.475590 0.889391 0.932701
O O14 0.766683 0.807585 0.046109
O O15 0.089982 0.258878 0.586712
#
# Coordination Sequence:
#
# PCOD9248889 Si02
#       8
#     4   4   4   4   4   2   4   4
#     4  10  24  45  71 102 145 183 249 285 368 434
#     4  10  24  46  73 102 148 184 240 302 373 420
#     4  10  22  47  70 105 134 193 239 298 356 433
#     4  11  24  45  69 107 146 186 246 307 352 441
#     4  11  25  46  72 106 139 196 238 300 358 443
#     4  10  22  44  70  94 140 186 240 288 356 436
#     4  10  25  46  66 107 142 192 230 305 362 433
#     4  11  26  44  70 106 145 191 244 289 367 426
#
# _framework density 25.960476
#
# number of rings (size 3 to 8) (size 9 to 14) (size 15 to 20)
#    0.000    1.600    2.667    0.400    3.733   10.667 
#    0.000    0.000    0.000    0.000    0.000    0.000 
#    0.000    0.000    0.000    0.000    0.000    0.000 
#
# Total GULP energy -167341.686967 kJ/mol
# GULP energy per Si atom -5578.056232 kJ/mol
# Density = 2.590139 g / cm^3
# Si number density = 25.960476 Si / 1000 Ang^3
#
#
#
# Elastic Constant Matrix: (Units=GPa)
#
#
# Indices 1 2 3 4 5 6 
#
# 1 147.6780 33.9144 34.8280 0.0000 -7.8385 0.0000
# 2 33.9144 86.3228 22.9475 0.0000 -3.3936 0.0000
# 3 34.8280 22.9475 60.8605 0.0000 -29.4804 0.0000
# 4 0.0000 0.0000 0.0000 27.0673 0.0000 -9.1013
# 5 -7.8385 -3.3936 -29.4804 0.0000 38.1512 0.0000
# 6 0.0000 0.0000 0.0000 -9.1013 0.0000 37.1670
#
#
#
# Elastic Compliance Matrix: (Units=1/GPa)
#
#
# Indices 1 2 3 4 5 6 
#
# 1 0.008327 -0.001979 -0.005236 0.000000 -0.002511 0.000000
# 2 -0.001979 0.013773 -0.005856 0.000000 -0.003707 0.000000
# 3 -0.005236 -0.005856 0.033342 0.000000 0.024167 0.000000
# 4 0.000000 0.000000 0.000000 0.040260 0.000000 0.009859
# 5 -0.002511 -0.003707 0.024167 0.000000 0.044041 0.000000
# 6 0.000000 0.000000 0.000000 0.009859 0.000000 0.029320
#
#
# Mechanical properties :
#
#
# Convention : Reuss Voigt Hill
#
# Bulk Modulus (GPa) = 34.12842 53.13789 43.63316
# Shear Modulus (GPa) = 24.39381 34.02187 29.20784
#
# Velocity S-wave (km/s) = 3.06870 3.62405 3.35787
# Velocity P-wave (km/s) = 5.07255 6.16643 5.64604
#
# Compressibility (1/GPa) = 0.02930109
#
# Stress axis : x y z
#
# Youngs Moduli (GPa) = 120.08634 72.60671 29.99243
#
# Poissons Ratio (x) = 0.14366 0.15703
# Poissons Ratio (y) = 0.23760 0.17564
# Poissons Ratio (z) = 0.62872 0.42521
#
# Static dielectric constant tensor:
#      x y z
#    x 2.092760 0.000000 0.026800 
#    y 0.000000 2.080870 0.000000 
#    z 0.026800 0.000000 2.064570 
# 
# From -- ./inp_files/40371.got.cif
#   From: 2010.05.17/outbox.cif.g08.bks.cpg/sg14_21_cif.got.tgz:40371.got - 2010.06.03 17:49:19.
