data_PCOD9248597
_publ_section_title
;
Structure prediction by ZEFSAII (Michael W. Deem and Ramdas Pophale) SiO2 
 PCOD9248597
Probable space group: P 21/C
;
_chemical_formula_sum "Si O2"
_cell_formula_units_Z 28
_cell_length_a 13.646833
_cell_length_b 8.773201
_cell_length_c 12.577073
_cell_angle_alpha 90.000000
_cell_angle_beta 53.870483
_cell_angle_gamma 90.000000
_cell_volume 1216.220230
_symmetry_space_group_name_H-M "P 21/C"
_symmetry_group_IT_number 14
_symmetry_cell_setting 'monoclinic'
loop_
_space_group_symop_operation_xyz
x,y,z
-x,1/2+y,1/2-z
-x,-y,-z
x,1/2-y,1/2+z
loop_
_atom_site_type_symbol
_atom_site_label
_atom_site_fract_x
_atom_site_fract_y
_atom_site_fract_z
Si Si1 0.526794 0.033891 0.694203
Si Si2 0.260934 0.571460 0.295244
Si Si3 0.920354 0.114798 0.903299
Si Si4 0.689644 0.652134 0.924637
Si Si5 0.102939 0.358472 0.730503
Si Si6 0.491442 0.346880 0.604258
Si Si7 0.739864 0.125268 0.833120
O O1 0.386769 0.981403 0.769103
O O2 0.612434 0.942934 0.558027
O O3 0.562520 0.980771 0.788749
O O4 0.529879 0.210736 0.661499
O O5 0.148683 0.563652 0.447154
O O6 0.253773 0.462265 0.197874
O O7 0.268330 0.743200 0.247642
O O8 0.819523 0.179290 0.884814
O O9 0.018922 0.246383 0.850398
O O10 0.966532 0.965937 0.809106
O O11 0.798416 0.757251 0.896793
O O12 0.596592 0.760478 0.920552
O O13 0.183841 0.475488 0.748171
O O14 0.609212 0.404825 0.467532
#
# Coordination Sequence:
#
# PCOD9248597 Si02
#       7
#     4   4   4   4   4   4   4
#     4  11  22  38  66  99 140 178 212 264 341 406
#     4  11  21  43  70  95 136 177 220 272 343 395
#     4  10  25  47  67  94 132 177 228 277 332 396
#     4  11  24  40  65 104 134 173 220 274 336 414
#     4  10  26  44  65  97 132 177 227 280 332 394
#     4  11  22  40  64 102 138 176 213 271 341 405
#     4  10  22  43  66 100 133 174 225 274 333 394
#
# _framework density 23.022144999999998
#
# number of rings (size 3 to 8) (size 9 to 14) (size 15 to 20)
#    0.857    0.571    4.286    0.857    8.000    2.857 
#    0.000    0.000    0.000    0.000    0.000    0.000 
#    0.000    0.000    0.000    0.000    0.000    0.000 
#
# Total GULP energy -156547.423812 kJ/mol
# GULP energy per Si atom -5590.979422 kJ/mol
# Density = 2.296975 g / cm^3
# Si number density = 23.022145 Si / 1000 Ang^3
#
#
#
# Elastic Constant Matrix: (Units=GPa)
#
#
# Indices 1 2 3 4 5 6 
#
# 1 49.4919 30.5329 30.5733 0.0000 -9.6966 0.0000
# 2 30.5329 130.0128 50.2932 0.0000 -6.3129 0.0000
# 3 30.5733 50.2932 123.3813 0.0000 -3.2767 0.0000
# 4 0.0000 0.0000 0.0000 48.2480 0.0000 -8.6778
# 5 -9.6966 -6.3129 -3.2767 0.0000 31.7131 0.0000
# 6 0.0000 0.0000 0.0000 -8.6778 0.0000 47.3457
#
#
#
# Elastic Compliance Matrix: (Units=1/GPa)
#
#
# Indices 1 2 3 4 5 6 
#
# 1 0.027127 -0.004160 -0.004841 0.000000 0.006966 0.000000
# 2 -0.004160 0.009835 -0.002968 0.000000 0.000379 0.000000
# 3 -0.004841 -0.002968 0.010488 0.000000 -0.000987 0.000000
# 4 0.000000 0.000000 0.000000 0.021433 0.000000 0.003928
# 5 0.006966 0.000379 -0.000987 0.000000 0.033636 0.000000
# 6 0.000000 0.000000 0.000000 0.003928 0.000000 0.021841
#
#
# Mechanical properties :
#
#
# Convention : Reuss Voigt Hill
#
# Bulk Modulus (GPa) = 42.53146 58.40943 50.47044
# Shear Modulus (GPa) = 32.02332 38.22713 35.12523
#
# Velocity S-wave (km/s) = 3.73363 4.07928 3.91028
# Velocity P-wave (km/s) = 6.09105 6.90025 6.50824
#
# Compressibility (1/GPa) = 0.02351201
#
# Stress axis : x y z
#
# Youngs Moduli (GPa) = 36.86357 101.67743 95.34427
#
# Poissons Ratio (x) = 0.42294 0.46160
# Poissons Ratio (y) = 0.15334 0.28300
# Poissons Ratio (z) = 0.17847 0.30180
#
# Static dielectric constant tensor:
#      x y z
#    x 1.914330 0.000000 -0.008320 
#    y 0.000000 1.868350 0.000000 
#    z -0.008320 0.000000 1.789570 
# 
# From -- ./inp_files/48520.got.cif
#   From: 2010.05.17/outbox.cif.g08.bks.cpg/sg14_25_cif.got.tgz:48520.got - 2010.06.03 17:49:19.
