data_PCOD9248167
_publ_section_title
;
Structure prediction by ZEFSAII (Michael W. Deem and Ramdas Pophale) SiO2 
 PCOD9248167
Probable space group: P 21/C
;
_chemical_formula_sum "Si O2"
_cell_formula_units_Z 32
_cell_length_a 11.906184
_cell_length_b 8.224375
_cell_length_c 23.143473
_cell_angle_alpha 90.000000
_cell_angle_beta 34.373566
_cell_angle_gamma 90.000000
_cell_volume 1279.482461
_symmetry_space_group_name_H-M "P 21/C"
_symmetry_group_IT_number 14
_symmetry_cell_setting 'monoclinic'
loop_
_space_group_symop_operation_xyz
x,y,z
-x,1/2+y,1/2-z
-x,-y,-z
x,1/2-y,1/2+z
loop_
_atom_site_type_symbol
_atom_site_label
_atom_site_fract_x
_atom_site_fract_y
_atom_site_fract_z
Si Si1 0.018334 0.396391 0.176121
Si Si2 0.403081 0.713054 0.130717
Si Si3 0.301986 0.168699 0.902633
Si Si4 0.425551 0.997760 0.286640
Si Si5 0.619223 0.150162 0.977265
Si Si6 0.058926 0.270528 0.276702
Si Si7 0.022634 0.617784 0.934049
Si Si8 0.450006 0.346478 0.153385
O O1 0.815371 0.288422 0.263089
O O2 0.981983 0.580807 0.209343
O O3 0.091305 0.411099 0.078731
O O4 0.138164 0.322665 0.179577
O O5 0.571572 0.819839 0.091754
O O6 0.418646 0.715162 0.055483
O O7 0.427177 0.528971 0.139621
O O8 0.373452 0.015548 0.835532
O O9 0.377241 0.326933 0.833627
O O10 0.069710 0.207871 0.009904
O O11 0.249790 0.922156 0.322839
O O12 0.437233 0.874394 0.335445
O O13 0.858495 0.129989 0.875728
O O14 0.549290 0.219027 0.067980
O O15 0.500000 0.000000 0.000000
O O16 0.222524 0.291253 0.256605
O O17 0.000000 0.500000 0.000000
#
# Coordination Sequence:
#
# PCOD9248167 Si02
#       8
#     4   4   4   4   4   4   4   4
#     4  11  23  44  71 100 139 175 238 285 347 431
#     4  10  22  42  64  98 134 181 223 289 352 405
#     4  10  22  41  67  92 127 178 224 284 347 403
#     4  10  23  41  66  97 135 175 233 284 342 412
#     4  11  25  43  66 103 141 180 232 284 353 422
#     4  11  25  41  71 101 136 185 222 290 356 412
#     4  10  23  41  71  96 130 185 232 274 350 415
#     4  11  24  41  67  98 144 178 236 290 350 426
#
# _framework density 25.010113
#
# number of rings (size 3 to 8) (size 9 to 14) (size 15 to 20)
#    0.000    1.500    1.250    3.375   10.500    1.000 
#    0.000    0.625    0.000    0.000    0.000    0.000 
#    0.000    0.000    0.000    0.000    0.000    0.000 
#
# Total GULP energy -178757.330165 kJ/mol
# GULP energy per Si atom -5586.166568 kJ/mol
# Density = 2.495319 g / cm^3
# Si number density = 25.010113 Si / 1000 Ang^3
#
#
#
# Elastic Constant Matrix: (Units=GPa)
#
#
# Indices 1 2 3 4 5 6 
#
# 1 58.7876 3.5903 8.1625 0.0000 6.7095 0.0000
# 2 3.5903 75.5099 9.5507 0.0000 10.6552 0.0000
# 3 8.1625 9.5507 59.7145 0.0000 -8.5182 0.0000
# 4 0.0000 0.0000 0.0000 30.6068 0.0000 7.0910
# 5 6.7095 10.6552 -8.5182 0.0000 36.3570 0.0000
# 6 0.0000 0.0000 0.0000 7.0910 0.0000 26.3525
#
#
#
# Elastic Compliance Matrix: (Units=1/GPa)
#
#
# Indices 1 2 3 4 5 6 
#
# 1 0.017887 0.000104 -0.003039 0.000000 -0.004044 0.000000
# 2 0.000104 0.014312 -0.003005 0.000000 -0.004918 0.000000
# 3 -0.003039 -0.003005 0.018465 0.000000 0.005768 0.000000
# 4 0.000000 0.000000 0.000000 0.034845 0.000000 -0.009376
# 5 -0.004044 -0.004918 0.005768 0.000000 0.031044 0.000000
# 6 0.000000 0.000000 0.000000 -0.009376 0.000000 0.040470
#
#
# Mechanical properties :
#
#
# Convention : Reuss Voigt Hill
#
# Bulk Modulus (GPa) = 25.78206 26.29101 26.03654
# Shear Modulus (GPa) = 27.49817 30.17717 28.83767
#
# Velocity S-wave (km/s) = 3.31944 3.47738 3.39933
# Velocity P-wave (km/s) = 5.00226 5.16313 5.08333
#
# Compressibility (1/GPa) = 0.03878666
#
# Stress axis : x y z
#
# Youngs Moduli (GPa) = 55.90532 69.86972 54.15646
#
# Poissons Ratio (x) = -0.00729 0.16456
# Poissons Ratio (y) = -0.00584 0.16273
# Poissons Ratio (z) = 0.16987 0.20995
#
# Static dielectric constant tensor:
#      x y z
#    x 1.965250 0.000000 -0.003700 
#    y 0.000000 1.946570 0.000000 
#    z -0.003700 0.000000 2.099560 
# 
# From -- ./inp_files/73102.got.cif
#   From: 2010.05.17/outbox.cif.g08.bks.cpg/sg14_37_cif.got.tgz:73102.got - 2010.06.03 17:49:19.
