data_PCOD9248675
_publ_section_title
;
Structure prediction by ZEFSAII (Michael W. Deem and Ramdas Pophale) SiO2 
 PCOD9248675
Probable space group: P 21/C
;
_chemical_formula_sum "Si O2"
_cell_formula_units_Z 28
_cell_length_a 14.290098
_cell_length_b 8.621613
_cell_length_c 10.536867
_cell_angle_alpha 90.000000
_cell_angle_beta 115.803851
_cell_angle_gamma 90.000000
_cell_volume 1168.738695
_symmetry_space_group_name_H-M "P 21/C"
_symmetry_group_IT_number 14
_symmetry_cell_setting 'monoclinic'
loop_
_space_group_symop_operation_xyz
x,y,z
-x,1/2+y,1/2-z
-x,-y,-z
x,1/2-y,1/2+z
loop_
_atom_site_type_symbol
_atom_site_label
_atom_site_fract_x
_atom_site_fract_y
_atom_site_fract_z
Si Si1 0.531007 0.583715 0.207849
Si Si2 0.279448 0.132310 0.981115
Si Si3 0.300953 0.607190 0.813484
Si Si4 0.775206 0.209429 0.990057
Si Si5 0.014359 0.602497 0.884612
Si Si6 0.566046 0.905998 0.141094
Si Si7 0.863829 0.636995 0.203488
O O1 0.623514 0.626622 0.364303
O O2 0.587388 0.469111 0.143070
O O3 0.506659 0.746564 0.132120
O O4 0.440076 0.500672 0.231824
O O5 0.326691 0.130434 0.866026
O O6 0.207499 0.283558 0.948308
O O7 0.220684 0.970895 0.967997
O O8 0.280308 0.713133 0.678887
O O9 0.281971 0.699063 0.931092
O O10 0.215225 0.468570 0.762546
O O11 0.887232 0.285004 0.041616
O O12 0.048200 0.480037 0.795866
O O13 0.918066 0.715027 0.799418
O O14 0.000000 0.500000 0.000000
O O15 0.500000 0.000000 0.000000
#
# Coordination Sequence:
#
# PCOD9248675 Si02
#       7
#     4   4   4   4   4   4   4
#     4  10  22  43  69 104 134 179 226 287 347 418
#     4  10  22  43  69  95 139 181 232 278 351 419
#     4  10  23  45  69 100 141 183 237 284 357 412
#     4  10  24  43  68 100 137 187 230 290 345 417
#     4  11  27  41  66  98 135 181 239 290 352 402
#     4  10  22  43  68  99 135 173 227 282 347 415
#     4  11  24  44  66  97 137 187 231 292 347 415
#
# _framework density 23.957452
#
# number of rings (size 3 to 8) (size 9 to 14) (size 15 to 20)
#    0.000    1.714    1.429    0.857   12.000    0.571 
#    2.571    2.857    0.000    0.000    0.000    0.000 
#    0.000    0.000    0.000    0.000    0.000    0.000 
#
# Total GULP energy -156756.000764 kJ/mol
# GULP energy per Si atom -5598.428599 kJ/mol
# Density = 2.390292 g / cm^3
# Si number density = 23.957452 Si / 1000 Ang^3
#
#
#
# Elastic Constant Matrix: (Units=GPa)
#
#
# Indices 1 2 3 4 5 6 
#
# 1 96.6547 40.9719 55.4608 0.0000 -17.0613 0.0000
# 2 40.9719 127.0420 50.6660 0.0000 -4.0117 0.0000
# 3 55.4608 50.6660 81.2155 0.0000 -8.1287 0.0000
# 4 0.0000 0.0000 0.0000 41.8273 0.0000 1.5200
# 5 -17.0613 -4.0117 -8.1287 0.0000 37.3878 0.0000
# 6 0.0000 0.0000 0.0000 1.5200 0.0000 46.9855
#
#
#
# Elastic Compliance Matrix: (Units=1/GPa)
#
#
# Indices 1 2 3 4 5 6 
#
# 1 0.018286 -0.001285 -0.011105 0.000000 0.005792 0.000000
# 2 -0.001285 0.010572 -0.005789 0.000000 -0.000711 0.000000
# 3 -0.011105 -0.005789 0.023449 0.000000 -0.000591 0.000000
# 4 0.000000 0.000000 0.000000 0.023936 0.000000 -0.000774
# 5 0.005792 -0.000711 -0.000591 0.000000 0.029185 0.000000
# 6 0.000000 0.000000 0.000000 -0.000774 0.000000 0.021308
#
#
# Mechanical properties :
#
#
# Convention : Reuss Voigt Hill
#
# Bulk Modulus (GPa) = 62.70573 66.56773 64.63673
# Shear Modulus (GPa) = 29.68928 35.76102 32.72515
#
# Velocity S-wave (km/s) = 3.52412 3.86772 3.69991
# Velocity P-wave (km/s) = 6.54139 6.91317 6.72985
#
# Compressibility (1/GPa) = 0.01594751
#
# Stress axis : x y z
#
# Youngs Moduli (GPa) = 54.68747 94.58819 42.64604
#
# Poissons Ratio (x) = 0.12158 0.47360
# Poissons Ratio (y) = 0.07029 0.24687
# Poissons Ratio (z) = 0.60733 0.54755
#
# Static dielectric constant tensor:
#      x y z
#    x 1.908720 0.000000 0.003310 
#    y 0.000000 1.893800 0.000000 
#    z 0.003310 0.000000 1.942540 
# 
# From -- ./inp_files/31611.got.cif
#   From: 2010.05.17/outbox.cif.g08.bks.cpg/sg14_16_cif.got.tgz:31611.got - 2010.06.03 17:49:19.
