data_PCOD9248469
_publ_section_title
;
Structure prediction by ZEFSAII (Michael W. Deem and Ramdas Pophale) SiO2 
 PCOD9248469
Probable space group: P 21/C
;
_chemical_formula_sum "Si O2"
_cell_formula_units_Z 30
_cell_length_a 16.372046
_cell_length_b 11.168776
_cell_length_c 7.392097
_cell_angle_alpha 90.000000
_cell_angle_beta 118.109839
_cell_angle_gamma 90.000000
_cell_volume 1192.250227
_symmetry_space_group_name_H-M "P 21/C"
_symmetry_group_IT_number 14
_symmetry_cell_setting 'monoclinic'
loop_
_space_group_symop_operation_xyz
x,y,z
-x,1/2+y,1/2-z
-x,-y,-z
x,1/2-y,1/2+z
loop_
_atom_site_type_symbol
_atom_site_label
_atom_site_fract_x
_atom_site_fract_y
_atom_site_fract_z
Si Si1 0.645906 0.902489 0.176007
Si Si2 0.052369 0.345239 0.477401
Si Si3 0.346830 0.852989 0.974861
Si Si4 0.294850 0.905636 0.300193
Si Si5 0.500000 0.500000 0.000000
Si Si6 0.885785 0.033943 0.674350
Si Si7 0.460799 0.267717 0.731483
Si Si8 0.856002 0.602381 0.796769
O O1 0.622776 0.825330 0.326829
O O2 0.747205 0.872681 0.208413
O O3 0.564536 0.853443 0.960900
O O4 0.637642 0.045756 0.159366
O O5 0.063731 0.424078 0.670190
O O6 0.089301 0.215145 0.562696
O O7 0.112578 0.403872 0.377682
O O8 0.947857 0.352603 0.293652
O O9 0.287414 0.911732 0.074247
O O10 0.444694 0.810996 0.166984
O O11 0.300755 0.735684 0.848592
O O12 0.393299 0.964313 0.442076
O O13 0.214370 0.958788 0.338181
O O14 0.533279 0.634027 0.104531
O O15 0.878548 0.008546 0.453740
#
# Coordination Sequence:
#
# PCOD9248469 Si02
#       8
#     4   4   4   4   2   4   4   4
#     4  12  26  43  71 107 143 196 248 312 376 452
#     4  11  25  49  75 110 146 190 248 314 382 457
#     4  11  25  47  65 102 146 193 250 310 363 458
#     4  11  25  46  70 103 145 192 247 302 375 441
#     4  10  22  42  70 102 150 194 246 314 360 448
#     4  11  27  49  77 105 150 201 242 318 383 459
#     4  11  24  43  70 102 144 201 245 307 375 441
#     4  12  25  47  76 112 150 185 258 313 385 460
#
# _framework density 25.162503000000001
#
# number of rings (size 3 to 8) (size 9 to 14) (size 15 to 20)
#    0.000    0.800    2.667    4.000    3.733    2.133 
#    2.400    0.000    0.000    0.000    0.000    0.000 
#    0.000    0.000    0.000    0.000    0.000    0.000 
#
# Total GULP energy -167556.217598 kJ/mol
# GULP energy per Si atom -5585.207253 kJ/mol
# Density = 2.510523 g / cm^3
# Si number density = 25.162503 Si / 1000 Ang^3
#
#
#
# Elastic Constant Matrix: (Units=GPa)
#
#
# Indices 1 2 3 4 5 6 
#
# 1 82.5791 -5.3977 -0.4190 0.0000 8.7703 0.0000
# 2 -5.3977 85.3889 7.0252 0.0000 10.5992 0.0000
# 3 -0.4190 7.0252 59.5534 0.0000 -13.1722 0.0000
# 4 0.0000 0.0000 0.0000 -5.3373 0.0000 14.4361
# 5 8.7703 10.5992 -13.1722 0.0000 40.7178 0.0000
# 6 0.0000 0.0000 0.0000 14.4361 0.0000 33.2290
#
#
#
# Elastic Compliance Matrix: (Units=1/GPa)
#
#
# Indices 1 2 3 4 5 6 
#
# 1 0.012537 0.001265 -0.000787 0.000000 -0.003284 0.000000
# 2 0.001265 0.012526 -0.002424 0.000000 -0.004317 0.000000
# 3 -0.000787 -0.002424 0.018578 0.000000 0.006811 0.000000
# 4 0.000000 0.000000 0.000000 -0.086140 0.000000 0.037423
# 5 -0.003284 -0.004317 0.006811 0.000000 0.028594 0.000000
# 6 0.000000 0.000000 0.000000 0.037423 0.000000 0.013836
#
#
# Mechanical properties :
#
#
# Convention : Reuss Voigt Hill
#
# Bulk Modulus (GPa) = 25.15750 25.54872 25.35311
# Shear Modulus (GPa) = 292.85595 28.80945 160.83270
#
# Velocity S-wave (km/s) = 10.79993 3.38736 8.00352
# Velocity P-wave (km/s) = 12.86615 5.04723 9.77272
#
# Compressibility (1/GPa) = 0.03974957
#
# Stress axis : x y z
#
# Youngs Moduli (GPa) = 79.76325 79.83157 53.82597
#
# Poissons Ratio (x) = -0.10099 0.04239
# Poissons Ratio (y) = -0.10090 0.13046
# Poissons Ratio (z) = 0.06281 0.19348
#
# Static dielectric constant tensor:
#      x y z
#    x 1.982370 0.000000 -0.071730 
#    y 0.000000 1.979840 0.000000 
#    z -0.071730 0.000000 2.123720 
# 
# From -- ./inp_files/15829.got.cif
#   From: 2010.05.17/outbox.cif.g08.bks.cpg/sg14_8_cif.got.tgz:15829.got - 2010.06.03 17:49:19.
