data_PCOD9248207
_publ_section_title
;
Structure prediction by ZEFSAII (Michael W. Deem and Ramdas Pophale) SiO2 
 PCOD9248207
Probable space group: P 21/C
;
_chemical_formula_sum "Si O2"
_cell_formula_units_Z 28
_cell_length_a 12.033824
_cell_length_b 15.828742
_cell_length_c 9.209472
_cell_angle_alpha 90.000000
_cell_angle_beta 127.087219
_cell_angle_gamma 90.000000
_cell_volume 1399.376040
_symmetry_space_group_name_H-M "P 21/C"
_symmetry_group_IT_number 14
_symmetry_cell_setting 'monoclinic'
loop_
_space_group_symop_operation_xyz
x,y,z
-x,1/2+y,1/2-z
-x,-y,-z
x,1/2-y,1/2+z
loop_
_atom_site_type_symbol
_atom_site_label
_atom_site_fract_x
_atom_site_fract_y
_atom_site_fract_z
Si Si1 0.822994 0.812488 0.327100
Si Si2 0.456278 0.757828 0.885201
Si Si3 0.006386 0.759606 0.726454
Si Si4 0.621313 0.830034 0.750582
Si Si5 0.815175 0.331265 0.377151
Si Si6 0.460578 0.084611 0.883916
Si Si7 0.601909 0.478947 0.213257
O O1 0.751886 0.720459 0.292166
O O2 0.698104 0.880920 0.228200
O O3 0.920756 0.817707 0.545529
O O4 0.909529 0.802536 0.247347
O O5 0.568368 0.780340 0.850646
O O6 0.312254 0.733682 0.700893
O O7 0.506116 0.684964 0.034178
O O8 0.446676 0.841010 0.975310
O O9 0.105019 0.701632 0.703064
O O10 0.087108 0.818163 0.906163
O O11 0.644289 0.927497 0.802019
O O12 0.738888 0.421496 0.297500
O O13 0.507046 0.068390 0.756914
O O14 0.500000 0.000000 0.000000
O O15 0.500000 0.500000 0.000000
#
# Coordination Sequence:
#
# PCOD9248207 Si02
#       7
#     4   4   4   4   4   4   4
#     4  10  22  41  69  91 126 175 225 247 321 393
#     4  11  21  39  66  98 126 169 212 270 333 382
#     4  10  23  41  67  91 127 191 215 249 297 413
#     4  11  22  38  68  98 127 163 212 277 332 380
#     4  11  22  42  66  93 131 171 221 259 322 384
#     4  11  23  40  66  99 128 160 207 284 332 372
#     4  12  25  39  65 106 133 157 209 290 338 365
#
# _framework density 20.008918999999999
#
# number of rings (size 3 to 8) (size 9 to 14) (size 15 to 20)
#    0.000    1.143    2.857    5.143    2.000    0.000 
#    0.000    2.857    6.286    3.429    0.000    0.000 
#    0.000    0.000    0.000    0.000    0.000    0.000 
#
# Total GULP energy -156338.646680 kJ/mol
# GULP energy per Si atom -5583.523096 kJ/mol
# Density = 1.996338 g / cm^3
# Si number density = 20.008919 Si / 1000 Ang^3
#
#
#
# Elastic Constant Matrix: (Units=GPa)
#
#
# Indices 1 2 3 4 5 6 
#
# 1 119.3582 48.0950 32.8331 0.0000 -13.1887 0.0000
# 2 48.0950 130.9828 28.6168 0.0000 5.6318 0.0000
# 3 32.8331 28.6168 106.0964 0.0000 -2.6346 0.0000
# 4 0.0000 0.0000 0.0000 29.9807 0.0000 -3.8323
# 5 -13.1887 5.6318 -2.6346 0.0000 36.4799 0.0000
# 6 0.0000 0.0000 0.0000 -3.8323 0.0000 21.2955
#
#
#
# Elastic Compliance Matrix: (Units=1/GPa)
#
#
# Indices 1 2 3 4 5 6 
#
# 1 0.010993 -0.003725 -0.002288 0.000000 0.004384 0.000000
# 2 -0.003725 0.009448 -0.001468 0.000000 -0.002911 0.000000
# 3 -0.002288 -0.001468 0.010533 0.000000 0.000160 0.000000
# 4 0.000000 0.000000 0.000000 0.034140 0.000000 0.006144
# 5 0.004384 -0.002911 0.000160 0.000000 0.029458 0.000000
# 6 0.000000 0.000000 0.000000 0.006144 0.000000 0.048064
#
#
# Mechanical properties :
#
#
# Convention : Reuss Voigt Hill
#
# Bulk Modulus (GPa) = 62.45284 63.94748 63.20016
# Shear Modulus (GPa) = 30.68664 34.01071 32.34868
#
# Velocity S-wave (km/s) = 3.92043 4.12731 4.02520
# Velocity P-wave (km/s) = 7.19537 7.39877 7.29778
#
# Compressibility (1/GPa) = 0.01601208
#
# Stress axis : x y z
#
# Youngs Moduli (GPa) = 90.96654 105.83954 94.93537
#
# Poissons Ratio (x) = 0.39426 0.21725
# Poissons Ratio (y) = 0.33885 0.13936
# Poissons Ratio (z) = 0.20816 0.15537
#
# Static dielectric constant tensor:
#      x y z
#    x 1.721130 0.000000 -0.012120 
#    y 0.000000 1.720560 0.000000 
#    z -0.012120 0.000000 1.790810 
# 
# From -- ./inp_files/13178.got.cif
#   From: 2010.05.17/outbox.cif.g08.bks.cpg/sg14_7_cif.got.tgz:13178.got - 2010.06.03 17:49:19.
