data_PCOD9248735
_publ_section_title
;
Structure prediction by ZEFSAII (Michael W. Deem and Ramdas Pophale) SiO2 
 PCOD9248735
Probable space group: P 21/C
;
_chemical_formula_sum "Si O2"
_cell_formula_units_Z 24
_cell_length_a 12.581398
_cell_length_b 10.537019
_cell_length_c 18.828909
_cell_angle_alpha 90.000000
_cell_angle_beta 22.322462
_cell_angle_gamma 90.000000
_cell_volume 948.087303
_symmetry_space_group_name_H-M "P 21/C"
_symmetry_group_IT_number 14
_symmetry_cell_setting 'monoclinic'
loop_
_space_group_symop_operation_xyz
x,y,z
-x,1/2+y,1/2-z
-x,-y,-z
x,1/2-y,1/2+z
loop_
_atom_site_type_symbol
_atom_site_label
_atom_site_fract_x
_atom_site_fract_y
_atom_site_fract_z
Si Si1 0.294558 0.391492 0.829115
Si Si2 0.372144 0.375698 0.616685
Si Si3 0.934446 0.299850 0.620633
Si Si4 0.969895 0.259298 0.255012
Si Si5 0.471718 0.121292 0.728551
Si Si6 0.585526 0.957531 0.525550
O O1 0.266294 0.396918 0.762086
O O2 0.513453 0.273760 0.709974
O O3 0.392067 0.523124 0.801332
O O4 0.016044 0.338796 0.040717
O O5 0.500000 0.500000 0.500000
O O6 0.129239 0.312498 0.719516
O O7 0.639495 0.282503 0.458468
O O8 0.619007 0.346612 0.818299
O O9 0.036762 0.307518 0.638781
O O10 0.137793 0.385444 0.447700
O O11 0.108965 0.398489 0.166433
O O12 0.552607 0.068776 0.602164
O O13 0.500000 0.000000 0.500000
#
# Coordination Sequence:
#
# PCOD9248735 Si02
#       6
#     4   4   4   4   4   4
#     4  10  24  46  75 113 155 211 264 339 408 491
#     4  12  29  50  81 117 161 213 278 345 411 505
#     4  10  24  45  72 105 156 201 263 330 398 492
#     4  12  26  49  71 113 157 203 265 340 411 486
#     4  10  22  43  72 109 151 207 265 324 402 487
#     4  12  24  42  75 110 150 210 267 332 408 486
#
# _framework density 25.314125000000001
#
# number of rings (size 3 to 8) (size 9 to 14) (size 15 to 20)
#    1.000    0.000    3.333    2.500    4.667    1.333 
#    0.000    0.833    0.000    0.000    0.000    0.000 
#    0.000    0.000    0.000    0.000    0.000    0.000 
#
# Total GULP energy -134347.639081 kJ/mol
# GULP energy per Si atom -5597.818295 kJ/mol
# Density = 2.525651 g / cm^3
# Si number density = 25.314125 Si / 1000 Ang^3
#
#
#
# Elastic Constant Matrix: (Units=GPa)
#
#
# Indices 1 2 3 4 5 6 
#
# 1 150.6185 66.5948 40.1810 0.0000 17.7903 0.0000
# 2 66.5948 134.7479 32.4127 0.0000 -2.9481 0.0000
# 3 40.1810 32.4127 82.3438 0.0000 -8.1337 0.0000
# 4 0.0000 0.0000 0.0000 56.8536 0.0000 -8.7823
# 5 17.7903 -2.9481 -8.1337 0.0000 44.4086 0.0000
# 6 0.0000 0.0000 0.0000 -8.7823 0.0000 48.5415
#
#
#
# Elastic Compliance Matrix: (Units=1/GPa)
#
#
# Indices 1 2 3 4 5 6 
#
# 1 0.010089 -0.004189 -0.003769 0.000000 -0.005010 0.000000
# 2 -0.004189 0.009937 -0.001667 0.000000 0.002033 0.000000
# 3 -0.003769 -0.001667 0.015050 0.000000 0.004156 0.000000
# 4 0.000000 0.000000 0.000000 0.018095 0.000000 0.003274
# 5 -0.005010 0.002033 0.004156 0.000000 0.025421 0.000000
# 6 0.000000 0.000000 0.000000 0.003274 0.000000 0.021193
#
#
# Mechanical properties :
#
#
# Convention : Reuss Voigt Hill
#
# Bulk Modulus (GPa) = 63.18552 71.78748 67.48650
# Shear Modulus (GPa) = 40.22242 45.19553 42.70897
#
# Velocity S-wave (km/s) = 3.99047 4.22997 4.11196
# Velocity P-wave (km/s) = 6.80048 7.23029 7.01867
#
# Compressibility (1/GPa) = 0.01582641
#
# Stress axis : x y z
#
# Youngs Moduli (GPa) = 99.12178 100.63506 66.44623
#
# Poissons Ratio (x) = 0.42156 0.25043
# Poissons Ratio (y) = 0.41522 0.11074
# Poissons Ratio (z) = 0.37358 0.16771
#
# Static dielectric constant tensor:
#      x y z
#    x 1.954760 0.000000 -0.008050 
#    y 0.000000 2.060740 0.000000 
#    z -0.008050 0.000000 1.996830 
# 
# From -- ./inp_files/57659.got.cif
#   From: 2010.05.17/outbox.cif.g08.bks.cpg/sg14_29_cif.got.tgz:57659.got - 2010.06.03 17:49:19.
