data_PCOD9248743
_publ_section_title
;
Structure prediction by ZEFSAII (Michael W. Deem and Ramdas Pophale) SiO2 
 PCOD9248743
Probable space group: P 21/C
;
_chemical_formula_sum "Si O2"
_cell_formula_units_Z 32
_cell_length_a 16.814333
_cell_length_b 15.863199
_cell_length_c 10.143093
_cell_angle_alpha 90.000000
_cell_angle_beta 30.164276
_cell_angle_gamma 90.000000
_cell_volume 1359.441253
_symmetry_space_group_name_H-M "P 21/C"
_symmetry_group_IT_number 14
_symmetry_cell_setting 'monoclinic'
loop_
_space_group_symop_operation_xyz
x,y,z
-x,1/2+y,1/2-z
-x,-y,-z
x,1/2-y,1/2+z
loop_
_atom_site_type_symbol
_atom_site_label
_atom_site_fract_x
_atom_site_fract_y
_atom_site_fract_z
Si Si1 0.762699 0.494488 0.749315
Si Si2 0.925799 0.770762 0.427378
Si Si3 0.876229 0.574856 0.193628
Si Si4 0.603888 0.174955 0.549513
Si Si5 0.676603 0.016398 0.794988
Si Si6 0.920476 0.582490 0.760446
Si Si7 0.737709 0.293717 0.132178
Si Si8 0.298860 0.360138 0.323676
O O1 0.864879 0.556557 0.695703
O O2 0.650724 0.557429 0.829640
O O3 0.899492 0.446040 0.472169
O O4 0.671806 0.420567 0.955342
O O5 0.926696 0.845421 0.533001
O O6 0.905145 0.820117 0.317979
O O7 0.772595 0.712958 0.664114
O O8 0.090765 0.721623 0.179796
O O9 0.712385 0.530780 0.380873
O O10 0.850102 0.608048 0.376898
O O11 0.000000 0.500000 0.000000
O O12 0.703185 0.227186 0.297632
O O13 0.620068 0.210994 0.674034
O O14 0.430205 0.172724 0.735383
O O15 0.716493 0.114843 0.729314
O O16 0.800990 0.969226 0.522812
O O17 0.500000 0.000000 0.000000
#
# Coordination Sequence:
#
# PCOD9248743 Si02
#       8
#     4   4   4   4   4   4   4   4
#     4  11  23  47  72 101 141 196 239 304 362 445
#     4  11  26  44  73 106 143 191 245 306 370 442
#     4  11  26  46  72 106 142 191 248 305 366 454
#     4  12  29  46  75 107 154 191 251 303 386 435
#     4  11  24  45  74 100 143 191 239 294 371 437
#     4  10  22  43  73 101 138 185 245 290 365 437
#     4  12  27  49  72 109 146 198 246 313 364 456
#     4  12  28  44  74 105 150 184 250 308 373 442
#
# _framework density 23.539083999999999
#
# number of rings (size 3 to 8) (size 9 to 14) (size 15 to 20)
#    0.000    0.750    2.500    4.125   12.250    0.000 
#    0.000    0.000    0.000    0.000    0.000    0.000 
#    0.000    0.000    0.000    0.000    0.000    0.000 
#
# Total GULP energy -179001.227071 kJ/mol
# GULP energy per Si atom -5593.788346 kJ/mol
# Density = 2.348551 g / cm^3
# Si number density = 23.539084 Si / 1000 Ang^3
#
#
#
# Elastic Constant Matrix: (Units=GPa)
#
#
# Indices 1 2 3 4 5 6 
#
# 1 62.1970 27.8375 -13.4702 0.0000 -2.4049 0.0000
# 2 27.8375 118.9428 19.1251 0.0000 -10.7094 0.0000
# 3 -13.4702 19.1251 40.6588 0.0000 -9.4673 0.0000
# 4 0.0000 0.0000 0.0000 25.1424 0.0000 -0.8914
# 5 -2.4049 -10.7094 -9.4673 0.0000 33.8868 0.0000
# 6 0.0000 0.0000 0.0000 -0.8914 0.0000 45.2116
#
#
#
# Elastic Compliance Matrix: (Units=1/GPa)
#
#
# Indices 1 2 3 4 5 6 
#
# 1 0.021413 -0.006516 0.010732 0.000000 0.002459 0.000000
# 2 -0.006516 0.011181 -0.007169 0.000000 0.001068 0.000000
# 3 0.010732 -0.007169 0.033341 0.000000 0.007811 0.000000
# 4 0.000000 0.000000 0.000000 0.039801 0.000000 0.000785
# 5 0.002459 0.001068 0.007811 0.000000 0.032204 0.000000
# 6 0.000000 0.000000 0.000000 0.000785 0.000000 0.022134
#
#
# Mechanical properties :
#
#
# Convention : Reuss Voigt Hill
#
# Bulk Modulus (GPa) = 16.65863 32.08707 24.37285
# Shear Modulus (GPa) = 26.88283 33.40190 30.14237
#
# Velocity S-wave (km/s) = 3.38309 3.77104 3.58232
# Velocity P-wave (km/s) = 4.72787 5.71157 5.24284
#
# Compressibility (1/GPa) = 0.06002894
#
# Stress axis : x y z
#
# Youngs Moduli (GPa) = 46.69955 89.43460 29.99280
#
# Poissons Ratio (x) = 0.58274 -0.32187
# Poissons Ratio (y) = 0.30429 0.21503
# Poissons Ratio (z) = -0.50116 0.64119
#
# Static dielectric constant tensor:
#      x y z
#    x 1.989870 0.000000 0.000100 
#    y 0.000000 1.887370 0.000000 
#    z 0.000100 0.000000 1.870060 
# 
# From -- ./inp_files/34215.got.cif
#   From: 2010.05.17/outbox.cif.g08.bks.cpg/sg14_18_cif.got.tgz:34215.got - 2010.06.03 17:49:19.
