data_PCOD9248546
_publ_section_title
;
Structure prediction by ZEFSAII (Michael W. Deem and Ramdas Pophale) SiO2 
 PCOD9248546
Probable space group: P 21/C
;
_chemical_formula_sum "Si O2"
_cell_formula_units_Z 16
_cell_length_a 15.100121
_cell_length_b 5.465993
_cell_length_c 19.961463
_cell_angle_alpha 90.000000
_cell_angle_beta 159.401403
_cell_angle_gamma 90.000000
_cell_volume 579.643299
_symmetry_space_group_name_H-M "P 21/C"
_symmetry_group_IT_number 14
_symmetry_cell_setting 'monoclinic'
loop_
_space_group_symop_operation_xyz
x,y,z
-x,1/2+y,1/2-z
-x,-y,-z
x,1/2-y,1/2+z
loop_
_atom_site_type_symbol
_atom_site_label
_atom_site_fract_x
_atom_site_fract_y
_atom_site_fract_z
Si Si1 0.627193 0.841502 0.988673
Si Si2 0.341024 0.007270 0.212352
Si Si3 0.312213 0.234129 0.825996
Si Si4 0.130963 0.363586 0.952786
O O1 0.397029 0.775260 0.774398
O O2 0.558884 0.099349 0.971417
O O3 0.638152 0.674243 0.063239
O O4 0.873812 0.790843 0.120079
O O5 0.238589 0.106275 0.210455
O O6 0.635540 0.048352 0.398760
O O7 0.198514 0.156497 0.054715
O O8 0.096406 0.030005 0.684824
#
# Coordination Sequence:
#
# PCOD9248546 Si02
#       4
#     4   4   4   4
#     4   9  24  41  64  97 135 174 228 276 329 410
#     4  10  22  43  61 100 135 173 223 279 325 408
#     4  11  21  44  66  95 136 176 225 276 338 396
#     4  10  23  41  68  96 137 177 222 276 339 395
#
# _framework density 27.603182
#
# number of rings (size 3 to 8) (size 9 to 14) (size 15 to 20)
#    1.500    0.500    0.000    3.000    0.000    5.000 
#    9.000    0.000    0.000    0.000    0.000    0.000 
#    0.000    0.000    0.000    0.000    0.000    0.000 
#
# Total GULP energy -89108.132055 kJ/mol
# GULP energy per Si atom -5569.258253 kJ/mol
# Density = 2.754036 g / cm^3
# Si number density = 27.603182 Si / 1000 Ang^3
#
#
#
# Elastic Constant Matrix: (Units=GPa)
#
#
# Indices 1 2 3 4 5 6 
#
# 1 215.7507 48.5342 57.7720 0.0000 -12.5577 0.0000
# 2 48.5342 46.8623 31.9004 0.0000 11.6320 0.0000
# 3 57.7720 31.9004 68.4036 0.0000 21.1301 0.0000
# 4 0.0000 0.0000 0.0000 47.4348 0.0000 10.0200
# 5 -12.5577 11.6320 21.1301 0.0000 51.3488 0.0000
# 6 0.0000 0.0000 0.0000 10.0200 0.0000 61.7487
#
#
#
# Elastic Compliance Matrix: (Units=1/GPa)
#
#
# Indices 1 2 3 4 5 6 
#
# 1 0.007689 -0.005493 -0.005611 0.000000 0.005434 0.000000
# 2 -0.005493 0.035257 -0.010220 0.000000 -0.005124 0.000000
# 3 -0.005611 -0.010220 0.027304 0.000000 -0.010293 0.000000
# 4 0.000000 0.000000 0.000000 0.021830 0.000000 -0.003542
# 5 0.005434 -0.005124 -0.010293 0.000000 0.026200 0.000000
# 6 0.000000 0.000000 0.000000 -0.003542 0.000000 0.016770
#
#
# Mechanical properties :
#
#
# Convention : Reuss Voigt Hill
#
# Bulk Modulus (GPa) = 36.22954 67.49219 51.86087
# Shear Modulus (GPa) = 26.75246 44.96044 35.85645
#
# Velocity S-wave (km/s) = 3.11654 4.04023 3.60807
# Velocity P-wave (km/s) = 5.10922 6.80210 6.01551
#
# Compressibility (1/GPa) = 0.02760178
#
# Stress axis : x y z
#
# Youngs Moduli (GPa) = 130.04906 28.36316 36.62474
#
# Poissons Ratio (x) = 0.15579 0.20551
# Poissons Ratio (y) = 0.71433 0.37432
# Poissons Ratio (z) = 0.72973 0.28988
#
# Static dielectric constant tensor:
#      x y z
#    x 2.180170 0.000000 -0.120990 
#    y 0.000000 2.379970 0.000000 
#    z -0.120990 0.000000 2.409930 
# 
# From -- ./inp_files/67936.got.cif
#   From: 2010.05.17/outbox.cif.g08.bks.cpg/sg14_34_cif.got.tgz:67936.got - 2010.06.03 17:49:19.
