data_PCOD9248960
_publ_section_title
;
Structure prediction by ZEFSAII (Michael W. Deem and Ramdas Pophale) SiO2 
 PCOD9248960
Probable space group: P 21/C
;
_chemical_formula_sum "Si O2"
_cell_formula_units_Z 16
_cell_length_a 7.902241
_cell_length_b 10.771861
_cell_length_c 9.951804
_cell_angle_alpha 90.000000
_cell_angle_beta 136.058456
_cell_angle_gamma 90.000000
_cell_volume 587.834130
_symmetry_space_group_name_H-M "P 21/C"
_symmetry_group_IT_number 14
_symmetry_cell_setting 'monoclinic'
loop_
_space_group_symop_operation_xyz
x,y,z
-x,1/2+y,1/2-z
-x,-y,-z
x,1/2-y,1/2+z
loop_
_atom_site_type_symbol
_atom_site_label
_atom_site_fract_x
_atom_site_fract_y
_atom_site_fract_z
Si Si1 0.204894 0.572579 0.033446
Si Si2 0.346549 0.681901 0.531025
Si Si3 0.398641 0.218164 0.095893
Si Si4 0.984324 0.536889 0.645943
O O1 0.148699 0.721055 0.977659
O O2 0.199143 0.522821 0.876760
O O3 0.461253 0.600654 0.252795
O O4 0.000000 0.500000 0.000000
O O5 0.479875 0.737992 0.478189
O O6 0.541993 0.673419 0.764792
O O7 0.220253 0.556606 0.414621
O O8 0.124212 0.175489 0.918805
O O9 0.000000 0.500000 0.500000
#
# Coordination Sequence:
#
# PCOD9248960 Si02
#       4
#     4   4   4   4
#     4  10  23  44  71  99 138 180 227 288 339 410
#     4  10  22  45  65 100 135 180 230 273 353 404
#     4  10  24  45  64 100 140 174 230 285 333 411
#     4  12  24  43  67 101 138 178 233 281 340 412
#
# _framework density 27.218563
#
# number of rings (size 3 to 8) (size 9 to 14) (size 15 to 20)
#    1.500    0.000    2.500    2.250    0.000    3.000 
#    4.500    0.000    0.000    0.000    0.000    0.000 
#    0.000    0.000    0.000    0.000    0.000    0.000 
#
# Total GULP energy -89300.805673 kJ/mol
# GULP energy per Si atom -5581.300355 kJ/mol
# Density = 2.715661 g / cm^3
# Si number density = 27.218563 Si / 1000 Ang^3
#
#
#
# Elastic Constant Matrix: (Units=GPa)
#
#
# Indices 1 2 3 4 5 6 
#
# 1 101.7853 -0.7190 41.7866 0.0000 -34.2394 0.0000
# 2 -0.7190 51.0474 -12.2056 0.0000 3.8187 0.0000
# 3 41.7866 -12.2056 129.7999 0.0000 -30.5161 0.0000
# 4 0.0000 0.0000 0.0000 32.9555 0.0000 5.4237
# 5 -34.2394 3.8187 -30.5161 0.0000 46.7695 0.0000
# 6 0.0000 0.0000 0.0000 5.4237 0.0000 44.2501
#
#
#
# Elastic Compliance Matrix: (Units=1/GPa)
#
#
# Indices 1 2 3 4 5 6 
#
# 1 0.013701 -0.001043 -0.002517 0.000000 0.008473 0.000000
# 2 -0.001043 0.020129 0.001964 0.000000 -0.001125 0.000000
# 3 -0.002517 0.001964 0.009719 0.000000 0.004339 0.000000
# 4 0.000000 0.000000 0.000000 0.030969 0.000000 -0.003796
# 5 0.008473 -0.001125 0.004339 0.000000 0.030507 0.000000
# 6 0.000000 0.000000 0.000000 -0.003796 0.000000 0.023064
#
#
# Mechanical properties :
#
#
# Convention : Reuss Voigt Hill
#
# Bulk Modulus (GPa) = 24.77852 37.81742 31.29797
# Shear Modulus (GPa) = 34.54660 41.71304 38.12982
#
# Velocity S-wave (km/s) = 3.56649 3.91899 3.74689
# Velocity P-wave (km/s) = 5.10716 5.86533 5.49933
#
# Compressibility (1/GPa) = 0.04035754
#
# Stress axis : x y z
#
# Youngs Moduli (GPa) = 72.98902 49.68028 102.89052
#
# Poissons Ratio (x) = 0.05180 0.25894
# Poissons Ratio (y) = 0.07610 -0.20206
# Poissons Ratio (z) = 0.18369 -0.09756
#
# Static dielectric constant tensor:
#      x y z
#    x 2.079180 0.000000 -0.013420 
#    y 0.000000 2.266570 0.000000 
#    z -0.013420 0.000000 2.192200 
# 
# From -- ./inp_files/8018.got.cif
#   From: 2010.05.17/outbox.cif.g08.bks.cpg/sg14_5_cif.got.tgz:8018.got - 2010.06.03 17:49:19.
