data_PCOD9248565
_publ_section_title
;
Structure prediction by ZEFSAII (Michael W. Deem and Ramdas Pophale) SiO2 
 PCOD9248565
Probable space group: P 21/C
;
_chemical_formula_sum "Si O2"
_cell_formula_units_Z 28
_cell_length_a 24.260984
_cell_length_b 7.049123
_cell_length_c 14.619798
_cell_angle_alpha 90.000000
_cell_angle_beta 26.231573
_cell_angle_gamma 90.000000
_cell_volume 1105.114711
_symmetry_space_group_name_H-M "P 21/C"
_symmetry_group_IT_number 14
_symmetry_cell_setting 'monoclinic'
loop_
_space_group_symop_operation_xyz
x,y,z
-x,1/2+y,1/2-z
-x,-y,-z
x,1/2-y,1/2+z
loop_
_atom_site_type_symbol
_atom_site_label
_atom_site_fract_x
_atom_site_fract_y
_atom_site_fract_z
Si Si1 0.808546 0.377163 0.877868
Si Si2 0.317318 0.274846 0.990481
Si Si3 0.570118 0.193148 0.427671
Si Si4 0.420509 0.424754 0.508334
Si Si5 0.153112 0.141759 0.507106
Si Si6 0.244948 0.493454 0.448620
Si Si7 0.958450 0.694982 0.019439
O O1 0.692841 0.500409 0.011696
O O2 0.852227 0.487288 0.904907
O O3 0.773651 0.162451 0.953640
O O4 0.929685 0.344212 0.635238
O O5 0.404484 0.187110 0.937760
O O6 0.174577 0.243632 0.238133
O O7 0.333150 0.156081 0.873080
O O8 0.531166 0.333564 0.402761
O O9 0.567041 0.345871 0.514872
O O10 0.500000 0.000000 0.500000
O O11 0.707882 0.105283 0.211489
O O12 0.292092 0.381431 0.755763
O O13 0.140490 0.347884 0.572876
O O14 0.062264 0.150213 0.556891
O O15 0.000000 0.500000 0.000000
#
# Coordination Sequence:
#
# PCOD9248565 Si02
#       7
#     4   4   4   4   4   4   4
#     4  11  23  41  66  92 132 170 219 270 325 396
#     4  10  24  44  62  95 134 167 214 272 332 389
#     4  11  22  41  69  94 129 170 223 270 328 397
#     4  10  22  43  63  95 128 172 218 269 331 396
#     4  10  23  41  65  93 129 171 222 267 329 400
#     4  11  22  43  64  95 126 171 217 273 324 394
#     4  11  23  43  65  96 131 171 214 271 328 399
#
# _framework density 25.336735999999998
#
# number of rings (size 3 to 8) (size 9 to 14) (size 15 to 20)
#    0.000    1.429    4.286    0.429    2.000    1.143 
#   10.286    0.000    0.000    0.000    0.000    0.000 
#    0.000    0.000    0.000    0.000    0.000    0.000 
#
# Total GULP energy -156284.409146 kJ/mol
# GULP energy per Si atom -5581.586041 kJ/mol
# Density = 2.527907 g / cm^3
# Si number density = 25.336736 Si / 1000 Ang^3
#
#
#
# Elastic Constant Matrix: (Units=GPa)
#
#
# Indices 1 2 3 4 5 6 
#
# 1 106.4090 48.4603 -15.7021 0.0000 -5.0026 0.0000
# 2 48.4603 205.3948 35.5168 0.0000 3.9512 0.0000
# 3 -15.7021 35.5168 37.4710 0.0000 -0.8784 0.0000
# 4 0.0000 0.0000 0.0000 49.3252 0.0000 6.8843
# 5 -5.0026 3.9512 -0.8784 0.0000 24.2067 0.0000
# 6 0.0000 0.0000 0.0000 6.8843 0.0000 34.1866
#
#
#
# Elastic Compliance Matrix: (Units=1/GPa)
#
#
# Indices 1 2 3 4 5 6 
#
# 1 0.013450 -0.005072 0.010538 0.000000 0.003990 0.000000
# 2 -0.005072 0.007768 -0.009551 0.000000 -0.002663 0.000000
# 3 0.010538 -0.009551 0.040278 0.000000 0.005198 0.000000
# 4 0.000000 0.000000 0.000000 0.020860 0.000000 -0.004201
# 5 0.003990 -0.002663 0.005198 0.000000 0.042759 0.000000
# 6 0.000000 0.000000 0.000000 -0.004201 0.000000 0.030097
#
#
# Mechanical properties :
#
#
# Convention : Reuss Voigt Hill
#
# Bulk Modulus (GPa) = 18.75295 53.98051 36.36673
# Shear Modulus (GPa) = 27.60010 40.27701 33.93855
#
# Velocity S-wave (km/s) = 3.30408 3.99139 3.66389
# Velocity P-wave (km/s) = 4.68759 6.52634 5.68184
#
# Compressibility (1/GPa) = 0.05332494
#
# Stress axis : x y z
#
# Youngs Moduli (GPa) = 74.34781 128.72964 24.82750
#
# Poissons Ratio (x) = 0.65296 -0.26162
# Poissons Ratio (y) = 0.37712 0.23713
# Poissons Ratio (z) = -0.78345 1.22951
#
# Static dielectric constant tensor:
#      x y z
#    x 2.056800 0.000000 0.003480 
#    y 0.000000 2.054500 0.000000 
#    z 0.003480 0.000000 2.246330 
# 
# From -- ./inp_files/58506.got.cif
#   From: 2010.05.17/outbox.cif.g08.bks.cpg/sg14_30_cif.got.tgz:58506.got - 2010.06.03 17:49:19.
