data_PCOD9248093
_publ_section_title
;
Structure prediction by ZEFSAII (Michael W. Deem and Ramdas Pophale) SiO2 
 PCOD9248093
Probable space group: P 21/C
;
_chemical_formula_sum "Si O2"
_cell_formula_units_Z 20
_cell_length_a 9.182638
_cell_length_b 8.805721
_cell_length_c 12.330610
_cell_angle_alpha 90.000000
_cell_angle_beta 73.950290
_cell_angle_gamma 90.000000
_cell_volume 958.187195
_symmetry_space_group_name_H-M "P 21/C"
_symmetry_group_IT_number 14
_symmetry_cell_setting 'monoclinic'
loop_
_space_group_symop_operation_xyz
x,y,z
-x,1/2+y,1/2-z
-x,-y,-z
x,1/2-y,1/2+z
loop_
_atom_site_type_symbol
_atom_site_label
_atom_site_fract_x
_atom_site_fract_y
_atom_site_fract_z
Si Si1 0.537774 0.023062 0.115591
Si Si2 0.855520 0.177266 0.048944
Si Si3 0.867409 0.497974 0.115150
Si Si4 0.026877 0.443986 0.312957
Si Si5 0.669551 0.764120 0.221297
O O1 0.711574 0.071349 0.076706
O O2 0.424152 0.151132 0.182682
O O3 0.548097 0.870991 0.185695
O O4 0.500000 0.000000 0.000000
O O5 0.792803 0.338721 0.099191
O O6 0.959697 0.100574 0.120509
O O7 0.938362 0.167536 0.915307
O O8 0.760742 0.643859 0.127443
O O9 0.936769 0.479438 0.221654
O O10 0.000000 0.500000 0.000000
O O11 0.193427 0.368906 0.258032
#
# Coordination Sequence:
#
# PCOD9248093 Si02
#       5
#     4   4   4   4   4
#     4  11  25  45  69  91 142 176 217 275 331 396
#     4  10  22  41  64  97 127 177 216 274 334 386
#     4  12  23  38  66 100 130 165 223 276 325 391
#     4  10  22  41  67  93 136 168 221 276 331 387
#     4  11  24  44  65 101 130 180 223 264 332 401
#
# _framework density 20.872748999999999
#
# number of rings (size 3 to 8) (size 9 to 14) (size 15 to 20)
#    0.000    1.200    2.000    3.600    2.800    0.000 
#    3.600    2.000    0.000    0.000    0.000    0.000 
#    0.000    0.000    0.000    0.000    0.000    0.000 
#
# Total GULP energy -111574.179533 kJ/mol
# GULP energy per Si atom -5578.708977 kJ/mol
# Density = 2.082524 g / cm^3
# Si number density = 20.872749 Si / 1000 Ang^3
#
#
#
# Elastic Constant Matrix: (Units=GPa)
#
#
# Indices 1 2 3 4 5 6 
#
# 1 38.2619 8.4059 32.3512 0.0000 -13.9038 0.0000
# 2 8.4059 85.2367 21.2325 0.0000 6.8375 0.0000
# 3 32.3512 21.2325 116.7307 0.0000 -7.0052 0.0000
# 4 0.0000 0.0000 0.0000 28.6644 0.0000 -19.8734
# 5 -13.9038 6.8375 -7.0052 0.0000 27.8505 0.0000
# 6 0.0000 0.0000 0.0000 -19.8734 0.0000 38.4098
#
#
#
# Elastic Compliance Matrix: (Units=1/GPa)
#
#
# Indices 1 2 3 4 5 6 
#
# 1 0.042347 -0.003249 -0.009979 0.000000 0.019428 0.000000
# 2 -0.003249 0.012911 -0.001762 0.000000 -0.005235 0.000000
# 3 -0.009979 -0.001762 0.011554 0.000000 -0.001643 0.000000
# 4 0.000000 0.000000 0.000000 0.054402 0.000000 0.028148
# 5 0.019428 -0.005235 -0.001643 0.000000 0.046477 0.000000
# 6 0.000000 0.000000 0.000000 0.028148 0.000000 0.040599
#
#
# Mechanical properties :
#
#
# Convention : Reuss Voigt Hill
#
# Bulk Modulus (GPa) = 27.15034 40.46760 33.80897
# Shear Modulus (GPa) = 19.95620 30.86759 25.41189
#
# Velocity S-wave (km/s) = 3.09542 3.84975 3.49301
# Velocity P-wave (km/s) = 5.08048 6.26024 5.70096
#
# Compressibility (1/GPa) = 0.03683195
#
# Stress axis : x y z
#
# Youngs Moduli (GPa) = 23.61432 77.45126 86.54717
#
# Poissons Ratio (x) = 0.25163 0.86369
# Poissons Ratio (y) = 0.07672 0.15252
# Poissons Ratio (z) = 0.23566 0.13649
#
# Static dielectric constant tensor:
#      x y z
#    x 1.712770 0.000000 -0.040430 
#    y 0.000000 1.820100 0.000000 
#    z -0.040430 0.000000 1.737780 
# 
# From -- ./inp_files/22974.got.cif
#   From: 2010.05.17/outbox.cif.g08.bks.cpg/sg14_12_cif.got.tgz:22974.got - 2010.06.03 17:49:19.
