data_PCOD9248153
_publ_section_title
;
Structure prediction by ZEFSAII (Michael W. Deem and Ramdas Pophale) SiO2 
 PCOD9248153
Probable space group: P 21/C
;
_chemical_formula_sum "Si O2"
_cell_formula_units_Z 28
_cell_length_a 16.311907
_cell_length_b 6.924395
_cell_length_c 12.418418
_cell_angle_alpha 90.000000
_cell_angle_beta 125.853510
_cell_angle_gamma 90.000000
_cell_volume 1136.881130
_symmetry_space_group_name_H-M "P 21/C"
_symmetry_group_IT_number 14
_symmetry_cell_setting 'monoclinic'
loop_
_space_group_symop_operation_xyz
x,y,z
-x,1/2+y,1/2-z
-x,-y,-z
x,1/2-y,1/2+z
loop_
_atom_site_type_symbol
_atom_site_label
_atom_site_fract_x
_atom_site_fract_y
_atom_site_fract_z
Si Si1 0.962848 0.049357 0.830827
Si Si2 0.648268 0.922170 0.373588
Si Si3 0.454198 0.588653 0.855253
Si Si4 0.381787 0.967202 0.886231
Si Si5 0.117202 0.772339 0.037663
Si Si6 0.874593 0.613483 0.049962
Si Si7 0.314886 0.619980 0.565806
O O1 0.053448 0.204398 0.905869
O O2 0.921178 0.013245 0.681731
O O3 0.009616 0.851136 0.912176
O O4 0.875674 0.132753 0.839860
O O5 0.641932 0.909386 0.238406
O O6 0.758543 0.842173 0.487670
O O7 0.646383 0.154118 0.404290
O O8 0.553231 0.842199 0.366025
O O9 0.377894 0.749679 0.840441
O O10 0.385208 0.503785 0.705268
O O11 0.500000 0.500000 0.000000
O O12 0.322965 0.969790 0.953182
O O13 0.500000 0.000000 0.000000
O O14 0.125121 0.541131 0.047338
O O15 0.202699 0.855751 0.025237
#
# Coordination Sequence:
#
# PCOD9248153 Si02
#       7
#     4   4   4   4   4   4   4
#     4  11  23  45  67  98 131 172 223 281 342 401
#     4  10  23  40  64 100 129 175 219 267 336 395
#     4  11  22  39  65  93 131 170 214 265 323 395
#     4  11  22  41  63  93 137 171 219 271 318 397
#     4  10  24  43  68  96 131 172 224 278 336 409
#     4  11  23  43  70  97 134 172 224 279 344 405
#     4  10  22  41  66  95 129 179 215 268 338 393
#
# _framework density 24.628785000000001
#
# number of rings (size 3 to 8) (size 9 to 14) (size 15 to 20)
#    0.000    1.429    4.286    0.429    2.000    4.571 
#    5.143    0.000    0.000    0.000    0.000    0.000 
#    0.000    0.000    0.000    0.000    0.000    0.000 
#
# Total GULP energy -156497.505376 kJ/mol
# GULP energy per Si atom -5589.196621 kJ/mol
# Density = 2.457273 g / cm^3
# Si number density = 24.628785 Si / 1000 Ang^3
#
#
#
# Elastic Constant Matrix: (Units=GPa)
#
#
# Indices 1 2 3 4 5 6 
#
# 1 136.7695 33.9820 56.9817 0.0000 -3.9060 0.0000
# 2 33.9820 58.7865 25.7132 0.0000 -8.5593 0.0000
# 3 56.9817 25.7132 102.4165 0.0000 -17.4628 0.0000
# 4 0.0000 0.0000 0.0000 33.7308 0.0000 0.1717
# 5 -3.9060 -8.5593 -17.4628 0.0000 43.6173 0.0000
# 6 0.0000 0.0000 0.0000 0.1717 0.0000 37.2592
#
#
#
# Elastic Compliance Matrix: (Units=1/GPa)
#
#
# Indices 1 2 3 4 5 6 
#
# 1 0.010382 -0.004055 -0.005082 0.000000 -0.001901 0.000000
# 2 -0.004055 0.020851 -0.002515 0.000000 0.002722 0.000000
# 3 -0.005082 -0.002515 0.014018 0.000000 0.004664 0.000000
# 4 0.000000 0.000000 0.000000 0.029647 0.000000 -0.000137
# 5 -0.001901 0.002722 0.004664 0.000000 0.025158 0.000000
# 6 0.000000 0.000000 0.000000 -0.000137 0.000000 0.026840
#
#
# Mechanical properties :
#
#
# Convention : Reuss Voigt Hill
#
# Bulk Modulus (GPa) = 45.56419 59.03627 52.30023
# Shear Modulus (GPa) = 31.74263 35.00781 33.37522
#
# Velocity S-wave (km/s) = 3.59394 3.77426 3.68520
# Velocity P-wave (km/s) = 5.98017 6.55865 6.27608
#
# Compressibility (1/GPa) = 0.02194706
#
# Stress axis : x y z
#
# Youngs Moduli (GPa) = 96.31740 47.95908 71.33522
#
# Poissons Ratio (x) = 0.19449 0.36255
# Poissons Ratio (y) = 0.39060 0.17938
# Poissons Ratio (z) = 0.48952 0.12060
#
# Static dielectric constant tensor:
#      x y z
#    x 1.902910 0.000000 -0.035880 
#    y 0.000000 2.152890 0.000000 
#    z -0.035880 0.000000 2.004690 
# 
# From -- ./inp_files/31661.got.cif
#   From: 2010.05.17/outbox.cif.g08.bks.cpg/sg14_16_cif.got.tgz:31661.got - 2010.06.03 17:49:19.
