data_PCOD9248084
_publ_section_title
;
Structure prediction by ZEFSAII (Michael W. Deem and Ramdas Pophale) SiO2 
 PCOD9248084
Probable space group: P 21/C
;
_chemical_formula_sum "Si O2"
_cell_formula_units_Z 20
_cell_length_a 8.876901
_cell_length_b 7.818405
_cell_length_c 12.707711
_cell_angle_alpha 90.000000
_cell_angle_beta 111.316191
_cell_angle_gamma 90.000000
_cell_volume 821.620009
_symmetry_space_group_name_H-M "P 21/C"
_symmetry_group_IT_number 14
_symmetry_cell_setting 'monoclinic'
loop_
_space_group_symop_operation_xyz
x,y,z
-x,1/2+y,1/2-z
-x,-y,-z
x,1/2-y,1/2+z
loop_
_atom_site_type_symbol
_atom_site_label
_atom_site_fract_x
_atom_site_fract_y
_atom_site_fract_z
Si Si1 0.807567 0.615849 0.737736
Si Si2 0.224009 0.343791 0.503894
Si Si3 0.112123 0.688380 0.118380
Si Si4 0.608138 0.522322 0.877749
Si Si5 0.751281 0.986012 0.764859
O O1 0.779712 0.568697 0.610205
O O2 0.925199 0.489611 0.831034
O O3 0.646430 0.590964 0.768217
O O4 0.845463 0.816608 0.752422
O O5 0.340140 0.179084 0.535818
O O6 0.267634 0.458996 0.613844
O O7 0.043591 0.267531 0.475753
O O8 0.263848 0.633362 0.083619
O O9 0.168093 0.828548 0.218612
O O10 0.421213 0.482853 0.835149
#
# Coordination Sequence:
#
# PCOD9248084 Si02
#       5
#     4   4   4   4   4
#     4   9  24  39  64  96 127 157 223 254 308 384
#     4  11  22  42  66  93 128 172 210 256 324 369
#     4  10  22  41  64  93 129 166 207 265 306 375
#     4   9  22  43  62  91 135 158 209 267 303 376
#     4  11  22  43  66  91 130 169 207 261 319 374
#
# _framework density 24.34215
#
# number of rings (size 3 to 8) (size 9 to 14) (size 15 to 20)
#    1.200    0.800    0.000    3.600    2.800    1.600 
#    3.600    0.000    0.000    0.000    0.000    0.000 
#    0.000    0.000    0.000    0.000    0.000    0.000 
#
# Total GULP energy -111655.213526 kJ/mol
# GULP energy per Si atom -5582.760676 kJ/mol
# Density = 2.428675 g / cm^3
# Si number density = 24.342150 Si / 1000 Ang^3
#
#
#
# Elastic Constant Matrix: (Units=GPa)
#
#
# Indices 1 2 3 4 5 6 
#
# 1 44.1136 16.1272 18.3436 0.0000 10.1530 0.0000
# 2 16.1272 85.3586 -22.0760 0.0000 21.3144 0.0000
# 3 18.3436 -22.0760 61.7050 0.0000 12.0812 0.0000
# 4 0.0000 0.0000 0.0000 35.1660 0.0000 1.4673
# 5 10.1530 21.3144 12.0812 0.0000 40.8989 0.0000
# 6 0.0000 0.0000 0.0000 1.4673 0.0000 23.3889
#
#
#
# Elastic Compliance Matrix: (Units=1/GPa)
#
#
# Indices 1 2 3 4 5 6 
#
# 1 0.031265 -0.009485 -0.012881 0.000000 0.000986 0.000000
# 2 -0.009485 0.019432 0.011987 0.000000 -0.011313 0.000000
# 3 -0.012881 0.011987 0.026451 0.000000 -0.010863 0.000000
# 4 0.000000 0.000000 0.000000 0.028511 0.000000 -0.001789
# 5 0.000986 -0.011313 -0.010863 0.000000 0.033310 0.000000
# 6 0.000000 0.000000 0.000000 -0.001789 0.000000 0.042868
#
#
# Mechanical properties :
#
#
# Convention : Reuss Voigt Hill
#
# Bulk Modulus (GPa) = 17.73335 23.99631 20.86483
# Shear Modulus (GPa) = 22.58430 31.80957 27.19693
#
# Velocity S-wave (km/s) = 3.04926 3.61885 3.34620
# Velocity P-wave (km/s) = 4.43826 5.22884 4.84969
#
# Compressibility (1/GPa) = 0.05639094
#
# Stress axis : x y z
#
# Youngs Moduli (GPa) = 31.98414 51.46028 37.80607
#
# Poissons Ratio (x) = 0.48809 0.48698
# Poissons Ratio (y) = 0.30336 -0.45318
# Poissons Ratio (z) = 0.41199 -0.61685
#
# Static dielectric constant tensor:
#      x y z
#    x 1.970310 0.000000 -0.032560 
#    y 0.000000 1.980630 0.000000 
#    z -0.032560 0.000000 1.881810 
# 
# From -- ./inp_files/42728.got.cif
#   From: 2010.05.17/outbox.cif.g08.bks.cpg/sg14_22_cif.got.tgz:42728.got - 2010.06.03 17:49:19.
