data_PCOD9248859
_publ_section_title
;
Structure prediction by ZEFSAII (Michael W. Deem and Ramdas Pophale) SiO2 
 PCOD9248859
Probable space group: P 21/C
;
_chemical_formula_sum "Si O2"
_cell_formula_units_Z 20
_cell_length_a 6.924990
_cell_length_b 7.835339
_cell_length_c 15.719944
_cell_angle_alpha 90.000000
_cell_angle_beta 98.603107
_cell_angle_gamma 90.000000
_cell_volume 843.361310
_symmetry_space_group_name_H-M "P 21/C"
_symmetry_group_IT_number 14
_symmetry_cell_setting 'monoclinic'
loop_
_space_group_symop_operation_xyz
x,y,z
-x,1/2+y,1/2-z
-x,-y,-z
x,1/2-y,1/2+z
loop_
_atom_site_type_symbol
_atom_site_label
_atom_site_fract_x
_atom_site_fract_y
_atom_site_fract_z
Si Si1 0.467005 0.613344 0.691215
Si Si2 0.824469 0.897130 0.331517
Si Si3 0.357612 0.618165 0.045071
Si Si4 0.962303 0.515713 0.319842
Si Si5 0.673211 0.430492 0.569869
O O1 0.605598 0.632451 0.780604
O O2 0.473400 0.772805 0.625793
O O3 0.239123 0.585341 0.691256
O O4 0.562117 0.446211 0.652220
O O5 0.916574 0.710361 0.340259
O O6 0.798954 0.003439 0.415562
O O7 0.946106 0.998972 0.267805
O O8 0.500000 0.500000 0.000000
O O9 0.274308 0.754413 0.972164
O O10 0.129969 0.462268 0.398696
O O11 0.500000 0.500000 0.500000
#
# Coordination Sequence:
#
# PCOD9248859 Si02
#       5
#     4   4   4   4   4
#     4  10  22  44  69  91 129 176 219 269 323 388
#     4  11  24  41  67  98 130 172 220 271 324 389
#     4  11  23  40  64  96 132 167 211 269 328 383
#     4  11  23  42  68  96 129 173 222 267 324 387
#     4   9  22  42  65  94 129 171 215 265 324 384
#
# _framework density 23.714625999999999
#
# number of rings (size 3 to 8) (size 9 to 14) (size 15 to 20)
#    0.000    1.600    0.000    3.600    0.000   10.400 
#    0.000   10.000    0.000    0.000    0.000    0.000 
#    0.000    0.000    0.000    0.000    0.000    0.000 
#
# Total GULP energy -111686.426137 kJ/mol
# GULP energy per Si atom -5584.321307 kJ/mol
# Density = 2.366065 g / cm^3
# Si number density = 23.714626 Si / 1000 Ang^3
#
#
#
# Elastic Constant Matrix: (Units=GPa)
#
#
# Indices 1 2 3 4 5 6 
#
# 1 168.7877 39.7582 59.0444 0.0000 9.0099 0.0000
# 2 39.7582 95.5618 39.6737 0.0000 -22.5111 0.0000
# 3 59.0444 39.6737 64.2053 0.0000 -9.7666 0.0000
# 4 0.0000 0.0000 0.0000 43.9817 0.0000 -24.7215
# 5 9.0099 -22.5111 -9.7666 0.0000 41.5851 0.0000
# 6 0.0000 0.0000 0.0000 -24.7215 0.0000 35.3784
#
#
#
# Elastic Compliance Matrix: (Units=1/GPa)
#
#
# Indices 1 2 3 4 5 6 
#
# 1 0.009556 -0.001586 -0.008559 0.000000 -0.004939 0.000000
# 2 -0.001586 0.015821 -0.007221 0.000000 0.007212 0.000000
# 3 -0.008559 -0.007221 0.028618 0.000000 0.004667 0.000000
# 4 0.000000 0.000000 0.000000 0.037444 0.000000 0.026165
# 5 -0.004939 0.007212 0.004667 0.000000 0.030117 0.000000
# 6 0.000000 0.000000 0.000000 0.026165 0.000000 0.046549
#
#
# Mechanical properties :
#
#
# Convention : Reuss Voigt Hill
#
# Bulk Modulus (GPa) = 51.91190 67.27860 59.59525
# Shear Modulus (GPa) = 23.89408 36.86095 30.37751
#
# Velocity S-wave (km/s) = 3.17766 3.94681 3.58293
# Velocity P-wave (km/s) = 5.94989 7.01437 6.50394
#
# Compressibility (1/GPa) = 0.01926341
#
# Stress axis : x y z
#
# Youngs Moduli (GPa) = 104.64742 63.20791 34.94304
#
# Poissons Ratio (x) = 0.10023 0.29909
# Poissons Ratio (y) = 0.16594 0.25231
# Poissons Ratio (z) = 0.89570 0.45641
#
# Static dielectric constant tensor:
#      x y z
#    x 1.973030 0.000000 0.114090 
#    y 0.000000 1.964200 0.000000 
#    z 0.114090 0.000000 2.095170 
# 
# From -- ./inp_files/52684.got.cif
#   From: 2010.05.17/outbox.cif.g08.bks.cpg/sg14_27_cif.got.tgz:52684.got - 2010.06.03 17:49:19.
