data_PCOD9248021
_publ_section_title
;
Structure prediction by ZEFSAII (Michael W. Deem and Ramdas Pophale) SiO2 
 PCOD9248021
Probable space group: P 21/C
;
_chemical_formula_sum "Si O2"
_cell_formula_units_Z 32
_cell_length_a 5.335141
_cell_length_b 28.303334
_cell_length_c 7.880578
_cell_angle_alpha 90.000000
_cell_angle_beta 88.786933
_cell_angle_gamma 90.000000
_cell_volume 1189.718529
_symmetry_space_group_name_H-M "P 21/C"
_symmetry_group_IT_number 14
_symmetry_cell_setting 'monoclinic'
loop_
_space_group_symop_operation_xyz
x,y,z
-x,1/2+y,1/2-z
-x,-y,-z
x,1/2-y,1/2+z
loop_
_atom_site_type_symbol
_atom_site_label
_atom_site_fract_x
_atom_site_fract_y
_atom_site_fract_z
Si Si1 0.682900 0.310268 0.885827
Si Si2 0.729816 0.086172 0.226033
Si Si3 0.517186 0.595245 0.598655
Si Si4 0.109674 0.048577 0.711715
Si Si5 0.771197 0.967315 0.665988
Si Si6 0.589009 0.756649 0.326159
Si Si7 0.858812 0.147561 0.700300
Si Si8 0.830504 0.683236 0.528033
O O1 0.678431 0.361819 0.801940
O O2 0.656126 0.272745 0.733209
O O3 0.464452 0.289805 0.011891
O O4 0.881438 0.319170 0.036147
O O5 0.994165 0.066715 0.287966
O O6 0.493012 0.053708 0.277252
O O7 0.714115 0.086823 0.022946
O O8 0.687560 0.550644 0.642365
O O9 0.404867 0.620564 0.768140
O O10 0.698119 0.633020 0.502003
O O11 0.228955 0.029039 0.537634
O O12 0.045423 0.103524 0.682722
O O13 0.861985 0.017367 0.740446
O O14 0.793847 0.716443 0.367515
O O15 0.672718 0.790148 0.174855
O O16 0.911549 0.174940 0.875885
#
# Coordination Sequence:
#
# PCOD9248021 Si02
#       8
#     4   4   4   4   4   4   4   4
#     4  11  22  42  67 100 136 180 233 291 355 415
#     4  12  27  45  72 105 148 189 236 296 354 427
#     4  11  24  44  68  98 142 187 233 292 359 424
#     4  10  25  45  73 102 142 182 238 291 358 427
#     4  11  27  47  74 109 141 189 240 293 356 429
#     4  10  22  41  66  93 139 171 235 296 346 429
#     4  11  23  42  69  97 135 187 228 288 357 422
#     4  10  22  41  61  96 130 179 227 291 354 417
#
# _framework density 26.897117999999999
#
# number of rings (size 3 to 8) (size 9 to 14) (size 15 to 20)
#    0.000    1.250    3.750    0.750    7.000    3.000 
#    0.000    2.500    0.000    0.000    0.000    0.000 
#    0.000    0.000    0.000    0.000    0.000    0.000 
#
# Total GULP energy -179019.841429 kJ/mol
# GULP energy per Si atom -5594.370045 kJ/mol
# Density = 2.683590 g / cm^3
# Si number density = 26.897118 Si / 1000 Ang^3
#
#
#
# Elastic Constant Matrix: (Units=GPa)
#
#
# Indices 1 2 3 4 5 6 
#
# 1 102.0580 39.7542 15.4394 0.0000 13.5053 0.0000
# 2 39.7542 114.7942 33.2815 0.0000 4.4997 0.0000
# 3 15.4394 33.2815 106.8193 0.0000 10.9152 0.0000
# 4 0.0000 0.0000 0.0000 29.4361 0.0000 15.2655
# 5 13.5053 4.4997 10.9152 0.0000 29.0757 0.0000
# 6 0.0000 0.0000 0.0000 15.2655 0.0000 37.4500
#
#
#
# Elastic Compliance Matrix: (Units=1/GPa)
#
#
# Indices 1 2 3 4 5 6 
#
# 1 0.011997 -0.003962 0.000008 0.000000 -0.004962 0.000000
# 2 -0.003962 0.010889 -0.002949 0.000000 0.001262 0.000000
# 3 0.000008 -0.002949 0.010641 0.000000 -0.003542 0.000000
# 4 0.000000 0.000000 0.000000 0.043078 0.000000 -0.017560
# 5 -0.004962 0.001262 -0.003542 0.000000 0.037832 0.000000
# 6 0.000000 0.000000 0.000000 -0.017560 0.000000 0.033860
#
#
# Mechanical properties :
#
#
# Convention : Reuss Voigt Hill
#
# Bulk Modulus (GPa) = 50.71022 55.62462 53.16742
# Shear Modulus (GPa) = 29.64213 34.87214 32.25714
#
# Velocity S-wave (km/s) = 3.32332 3.60460 3.46682
# Velocity P-wave (km/s) = 5.79830 6.16844 5.98623
#
# Compressibility (1/GPa) = 0.01971989
#
# Stress axis : x y z
#
# Youngs Moduli (GPa) = 83.35181 91.83614 93.97415
#
# Poissons Ratio (x) = 0.36390 -0.00071
# Poissons Ratio (y) = 0.33028 0.27712
# Poissons Ratio (z) = -0.00063 0.27082
#
# Static dielectric constant tensor:
#      x y z
#    x 2.170520 0.000000 0.030350 
#    y 0.000000 2.122070 0.000000 
#    z 0.030350 0.000000 2.120110 
# 
# From -- ./inp_files/6990.got.cif
#   From: 2010.05.17/outbox.cif.g08.bks.cpg/sg14_4_cif.got.tgz:6990.got - 2010.06.03 17:49:19.
