data_PCOD9248326
_publ_section_title
;
Structure prediction by ZEFSAII (Michael W. Deem and Ramdas Pophale) SiO2 
 PCOD9248326
Probable space group: P 21/C
;
_chemical_formula_sum "Si O2"
_cell_formula_units_Z 26
_cell_length_a 8.336699
_cell_length_b 8.983597
_cell_length_c 19.099512
_cell_angle_alpha 90.000000
_cell_angle_beta 58.228571
_cell_angle_gamma 90.000000
_cell_volume 1216.087852
_symmetry_space_group_name_H-M "P 21/C"
_symmetry_group_IT_number 14
_symmetry_cell_setting 'monoclinic'
loop_
_space_group_symop_operation_xyz
x,y,z
-x,1/2+y,1/2-z
-x,-y,-z
x,1/2-y,1/2+z
loop_
_atom_site_type_symbol
_atom_site_label
_atom_site_fract_x
_atom_site_fract_y
_atom_site_fract_z
Si Si1 0.601692 0.039867 0.681799
Si Si2 0.007460 0.967492 0.651960
Si Si3 0.965471 0.775229 0.786009
Si Si4 0.342988 0.069284 0.486181
Si Si5 0.000000 0.500000 0.500000
Si Si6 0.282605 0.862105 0.824994
Si Si7 0.695576 0.909176 0.955536
O O1 0.603285 0.217012 0.677637
O O2 0.796618 0.992471 0.673782
O O3 0.604539 0.965781 0.605113
O O4 0.425154 0.986382 0.766531
O O5 0.147945 0.989411 0.554477
O O6 0.066020 0.100916 0.691700
O O7 0.010596 0.817389 0.696115
O O8 0.144724 0.817136 0.792898
O O9 0.789069 0.869072 0.858353
O O10 0.328151 0.245797 0.503062
O O11 0.500000 0.000000 0.500000
O O12 0.156319 0.584956 0.417339
O O13 0.149832 0.492562 0.533248
O O14 0.500000 0.000000 0.000000
#
# Coordination Sequence:
#
# PCOD9248326 Si02
#       7
#     4   4   4   4   2   4   4
#     4  11  25  43  69 101 134 183 238 289 359 422
#     4  10  22  42  65  93 136 177 226 286 347 426
#     4   9  21  42  61  93 131 173 221 278 342 417
#     4  11  25  44  66 100 142 179 235 296 355 431
#     4  10  24  46  70  98 146 182 234 302 352 428
#     4  10  24  44  67  97 137 180 232 289 357 423
#     4  10  24  43  71  98 135 185 237 280 360 425
#
# _framework density 21.380033999999998
#
# number of rings (size 3 to 8) (size 9 to 14) (size 15 to 20)
#    0.000    1.846    0.000    2.308    6.462    4.923 
#    5.538    0.000    0.000    0.000    0.000    0.000 
#    0.000    0.000    0.000    0.000    0.000    0.000 
#
# Total GULP energy -144867.993858 kJ/mol
# GULP energy per Si atom -5571.845918 kJ/mol
# Density = 2.133137 g / cm^3
# Si number density = 21.380034 Si / 1000 Ang^3
#
#
#
# Elastic Constant Matrix: (Units=GPa)
#
#
# Indices 1 2 3 4 5 6 
#
# 1 20.4283 9.4045 -2.8534 0.0000 -0.4701 0.0000
# 2 9.4045 45.5926 47.2657 0.0000 -2.7539 0.0000
# 3 -2.8534 47.2657 -60.0566 0.0000 1.8157 0.0000
# 4 0.0000 0.0000 0.0000 30.4975 0.0000 -0.4715
# 5 -0.4701 -2.7539 1.8157 0.0000 38.0826 0.0000
# 6 0.0000 0.0000 0.0000 -0.4715 0.0000 17.4230
#
#
#
# Elastic Compliance Matrix: (Units=1/GPa)
#
#
# Indices 1 2 3 4 5 6 
#
# 1 0.050151 -0.004327 -0.005771 0.000000 0.000581 0.000000
# 2 -0.004327 0.012459 0.010022 0.000000 0.000370 0.000000
# 3 -0.005771 0.010022 -0.008457 0.000000 0.001057 0.000000
# 4 0.000000 0.000000 0.000000 0.032803 0.000000 0.000888
# 5 0.000581 0.000370 0.001057 0.000000 0.026242 0.000000
# 6 0.000000 0.000000 0.000000 0.000888 0.000000 0.057419
#
#
# Mechanical properties :
#
#
# Convention : Reuss Voigt Hill
#
# Bulk Modulus (GPa) = 18.51839 12.62197 15.57018
# Shear Modulus (GPa) = 26.48737 14.01045 20.24891
#
# Velocity S-wave (km/s) = 3.52360 2.56267 3.08083
# Velocity P-wave (km/s) = 5.02341 3.83051 4.46696
#
# Compressibility (1/GPa) = 0.05400036
#
# Stress axis : x y z
#
# Youngs Moduli (GPa) = 19.93975 80.26587 -118.23979
#
# Poissons Ratio (x) = 0.34732 -0.68233
# Poissons Ratio (y) = 0.08628 1.18499
# Poissons Ratio (z) = 0.11507 -0.80442
#
# Static dielectric constant tensor:
#      x y z
#    x 1.754460 0.000000 -0.014620 
#    y 0.000000 1.799870 0.000000 
#    z -0.014620 0.000000 1.720980 
# 
# From -- ./inp_files/64771.got.cif
#   From: 2010.05.17/outbox.cif.g08.bks.cpg/sg14_33_cif.got.tgz:64771.got - 2010.06.03 17:49:19.
