data_PCOD9248147
_publ_section_title
;
Structure prediction by ZEFSAII (Michael W. Deem and Ramdas Pophale) SiO2 
 PCOD9248147
Probable space group: P 21/C
;
_chemical_formula_sum "Si O2"
_cell_formula_units_Z 20
_cell_length_a 7.339713
_cell_length_b 15.787089
_cell_length_c 9.804701
_cell_angle_alpha 90.000000
_cell_angle_beta 45.480734
_cell_angle_gamma 90.000000
_cell_volume 810.054033
_symmetry_space_group_name_H-M "P 21/C"
_symmetry_group_IT_number 14
_symmetry_cell_setting 'monoclinic'
loop_
_space_group_symop_operation_xyz
x,y,z
-x,1/2+y,1/2-z
-x,-y,-z
x,1/2-y,1/2+z
loop_
_atom_site_type_symbol
_atom_site_label
_atom_site_fract_x
_atom_site_fract_y
_atom_site_fract_z
Si Si1 0.039749 0.406179 0.913868
Si Si2 0.735609 0.505380 0.715886
Si Si3 0.913060 0.867005 0.312520
Si Si4 0.576323 0.354843 0.637906
Si Si5 0.465396 0.669207 0.869026
O O1 0.043754 0.351988 0.052792
O O2 0.814968 0.364190 0.943518
O O3 0.000000 0.500000 0.000000
O O4 0.319050 0.392027 0.704019
O O5 0.608095 0.416892 0.750549
O O6 0.577639 0.584933 0.737934
O O7 0.000000 0.500000 0.500000
O O8 0.804489 0.538042 0.830893
O O9 0.683894 0.812974 0.367415
O O10 0.177272 0.858626 0.090411
O O11 0.555887 0.257972 0.694366
#
# Coordination Sequence:
#
# PCOD9248147 Si02
#       5
#     4   4   4   4   4
#     4  12  24  40  66 101 121 163 223 264 307 386
#     4   8  18  40  64  87 127 172 205 260 325 376
#     4   9  23  44  61  89 134 168 205 258 333 376
#     4  11  21  42  68  90 130 172 211 269 317 376
#     4  10  22  41  66  93 130 168 217 264 318 381
#
# _framework density 24.689710999999999
#
# number of rings (size 3 to 8) (size 9 to 14) (size 15 to 20)
#    1.200    0.800    2.000    1.200    0.000    5.600 
#    0.000    4.000    0.000    0.000    0.000    0.000 
#    0.000    0.000    0.000    0.000    0.000    0.000 
#
# Total GULP energy -111490.438030 kJ/mol
# GULP energy per Si atom -5574.521902 kJ/mol
# Density = 2.463352 g / cm^3
# Si number density = 24.689711 Si / 1000 Ang^3
#
#
#
# Elastic Constant Matrix: (Units=GPa)
#
#
# Indices 1 2 3 4 5 6 
#
# 1 77.1106 19.4507 51.0442 0.0000 -37.3585 0.0000
# 2 19.4507 174.0170 16.6273 0.0000 -17.5043 0.0000
# 3 51.0442 16.6273 103.5757 0.0000 -29.8001 0.0000
# 4 0.0000 0.0000 0.0000 23.5316 0.0000 -2.3509
# 5 -37.3585 -17.5043 -29.8001 0.0000 51.8563 0.0000
# 6 0.0000 0.0000 0.0000 -2.3509 0.0000 21.6714
#
#
#
# Elastic Compliance Matrix: (Units=1/GPa)
#
#
# Indices 1 2 3 4 5 6 
#
# 1 0.025030 -0.000686 -0.008511 0.000000 0.012909 0.000000
# 2 -0.000686 0.005985 -0.000220 0.000000 0.001400 0.000000
# 3 -0.008511 -0.000220 0.014496 0.000000 0.002125 0.000000
# 4 0.000000 0.000000 0.000000 0.042962 0.000000 0.004660
# 5 0.012909 0.001400 0.002125 0.000000 0.030278 0.000000
# 6 0.000000 0.000000 0.000000 0.004660 0.000000 0.046649
#
#
# Mechanical properties :
#
#
# Convention : Reuss Voigt Hill
#
# Bulk Modulus (GPa) = 37.48569 58.77194 48.12882
# Shear Modulus (GPa) = 25.89003 37.25060 31.57032
#
# Velocity S-wave (km/s) = 3.24175 3.88848 3.57975
# Velocity P-wave (km/s) = 5.40625 6.63447 6.05160
#
# Compressibility (1/GPa) = 0.02667684
#
# Stress axis : x y z
#
# Youngs Moduli (GPa) = 39.95278 167.08292 68.98634
#
# Poissons Ratio (x) = 0.11460 0.58712
# Poissons Ratio (y) = 0.02740 0.01518
# Poissons Ratio (z) = 0.34003 0.03677
#
# Static dielectric constant tensor:
#      x y z
#    x 2.093260 0.000000 -0.064360 
#    y 0.000000 2.193920 0.000000 
#    z -0.064360 0.000000 1.943400 
# 
# From -- ./inp_files/25700.got.cif
#   From: 2010.05.17/outbox.cif.g08.bks.cpg/sg14_13_cif.got.tgz:25700.got - 2010.06.03 17:49:19.
