data_PCOD9248778
_publ_section_title
;
Structure prediction by ZEFSAII (Michael W. Deem and Ramdas Pophale) SiO2 
 PCOD9248778
Probable space group: P 21/C
;
_chemical_formula_sum "Si O2"
_cell_formula_units_Z 30
_cell_length_a 9.085433
_cell_length_b 25.340417
_cell_length_c 8.760802
_cell_angle_alpha 90.000000
_cell_angle_beta 136.673611
_cell_angle_gamma 90.000000
_cell_volume 1383.963126
_symmetry_space_group_name_H-M "P 21/C"
_symmetry_group_IT_number 14
_symmetry_cell_setting 'monoclinic'
loop_
_space_group_symop_operation_xyz
x,y,z
-x,1/2+y,1/2-z
-x,-y,-z
x,1/2-y,1/2+z
loop_
_atom_site_type_symbol
_atom_site_label
_atom_site_fract_x
_atom_site_fract_y
_atom_site_fract_z
Si Si1 0.000000 0.000000 0.000000
Si Si2 0.256829 0.239645 0.278632
Si Si3 0.647091 0.317074 0.533894
Si Si4 0.952004 0.221303 0.789016
Si Si5 0.475315 0.923028 0.907528
Si Si6 0.141727 0.492056 0.257239
Si Si7 0.578569 0.342378 0.142734
Si Si8 0.569707 0.554245 0.132227
O O1 0.177557 0.047783 0.151006
O O2 0.980257 0.995473 0.174648
O O3 0.444158 0.278329 0.368727
O O4 0.375433 0.196935 0.474354
O O5 0.074188 0.273613 0.223126
O O6 0.138070 0.210984 0.051316
O O7 0.842157 0.279047 0.727578
O O8 0.591197 0.363362 0.608486
O O9 0.674362 0.340623 0.384927
O O10 0.762082 0.179883 0.668129
O O11 0.315965 0.960609 0.882300
O O12 0.465913 0.937151 0.720992
O O13 0.715689 0.938606 0.141703
O O14 0.000000 0.500000 0.000000
O O15 0.503862 0.399299 0.033588
O O16 0.500000 0.500000 0.000000
#
# Coordination Sequence:
#
# PCOD9248778 Si02
#       8
#     2   4   4   4   4   4   4   4
#     4  10  24  42  66  96 124 176 234 276 338 416
#     4  11  24  45  67  98 138 177 223 281 347 421
#     4  11  25  42  67 104 137 175 230 286 343 421
#     4  11  24  45  68 100 136 179 223 278 353 422
#     4  10  25  42  65  98 133 177 221 288 340 408
#     4  10  22  44  65  91 132 177 230 283 342 402
#     4  11  26  42  70 101 137 179 230 289 346 419
#     4  11  26  46  67  96 138 181 231 291 343 409
#
# _framework density 21.676879
#
# number of rings (size 3 to 8) (size 9 to 14) (size 15 to 20)
#    0.000    1.333    2.667    0.800   11.200    3.200 
#    2.400    0.000    0.000    0.000    0.000    0.000 
#    0.000    0.000    0.000    0.000    0.000    0.000 
#
# Total GULP energy -167112.568529 kJ/mol
# GULP energy per Si atom -5570.418951 kJ/mol
# Density = 2.162754 g / cm^3
# Si number density = 21.676879 Si / 1000 Ang^3
#
#
#
# Elastic Constant Matrix: (Units=GPa)
#
#
# Indices 1 2 3 4 5 6 
#
# 1 68.2188 -2.2385 14.6865 0.0000 -10.4715 0.0000
# 2 -2.2385 61.5349 7.8585 0.0000 -7.7943 0.0000
# 3 14.6865 7.8585 78.5639 0.0000 -19.0802 0.0000
# 4 0.0000 0.0000 0.0000 25.9660 0.0000 -10.8382
# 5 -10.4715 -7.7943 -19.0802 0.0000 35.4682 0.0000
# 6 0.0000 0.0000 0.0000 -10.8382 0.0000 19.7816
#
#
#
# Elastic Compliance Matrix: (Units=1/GPa)
#
#
# Indices 1 2 3 4 5 6 
#
# 1 0.015747 0.001327 -0.002159 0.000000 0.003780 0.000000
# 2 0.001327 0.016883 -0.001082 0.000000 0.003520 0.000000
# 3 -0.002159 -0.001082 0.014986 0.000000 0.007186 0.000000
# 4 0.000000 0.000000 0.000000 0.049931 0.000000 0.027357
# 5 0.003780 0.003520 0.007186 0.000000 0.033950 0.000000
# 6 0.000000 0.000000 0.000000 0.027357 0.000000 0.065541
#
#
# Mechanical properties :
#
#
# Convention : Reuss Voigt Hill
#
# Bulk Modulus (GPa) = 22.83663 27.65895 25.24779
# Shear Modulus (GPa) = 23.20613 28.77722 25.99167
#
# Velocity S-wave (km/s) = 3.27547 3.64751 3.46649
# Velocity P-wave (km/s) = 4.98627 5.52508 5.26257
#
# Compressibility (1/GPa) = 0.04378930
#
# Stress axis : x y z
#
# Youngs Moduli (GPa) = 63.50363 59.23022 66.73084
#
# Poissons Ratio (x) = -0.07861 0.14404
# Poissons Ratio (y) = -0.08429 0.07220
# Poissons Ratio (z) = 0.13708 0.06409
#
# Static dielectric constant tensor:
#      x y z
#    x 1.785970 0.000000 0.011830 
#    y 0.000000 1.759090 0.000000 
#    z 0.011830 0.000000 1.813640 
# 
# From -- ./inp_files/11214.got.cif
#   From: 2010.05.17/outbox.cif.g08.bks.cpg/sg14_6_cif.got.tgz:11214.got - 2010.06.03 17:49:19.
