data_PCOD9248209
_publ_section_title
;
Structure prediction by ZEFSAII (Michael W. Deem and Ramdas Pophale) SiO2 
 PCOD9248209
Probable space group: P 21/C
;
_chemical_formula_sum "Si O2"
_cell_formula_units_Z 28
_cell_length_a 8.780006
_cell_length_b 33.190551
_cell_length_c 5.158663
_cell_angle_alpha 90.000000
_cell_angle_beta 120.360717
_cell_angle_gamma 90.000000
_cell_volume 1297.140373
_symmetry_space_group_name_H-M "P 21/C"
_symmetry_group_IT_number 14
_symmetry_cell_setting 'monoclinic'
loop_
_space_group_symop_operation_xyz
x,y,z
-x,1/2+y,1/2-z
-x,-y,-z
x,1/2-y,1/2+z
loop_
_atom_site_type_symbol
_atom_site_label
_atom_site_fract_x
_atom_site_fract_y
_atom_site_fract_z
Si Si1 0.604108 0.275387 0.874389
Si Si2 0.222627 0.907317 0.413211
Si Si3 0.586714 0.157046 0.719964
Si Si4 0.488002 0.028093 0.239051
Si Si5 0.833366 0.913288 0.910994
Si Si6 0.873653 0.324908 0.861976
Si Si7 0.227752 0.138749 0.648634
O O1 0.556349 0.255261 0.562385
O O2 0.807538 0.289665 0.995339
O O3 0.529654 0.317488 0.919483
O O4 0.343861 0.886657 0.298736
O O5 0.347429 0.941018 0.640131
O O6 0.173945 0.869080 0.555491
O O7 0.038915 0.923686 0.138971
O O8 0.422902 0.153793 0.766234
O O9 0.752183 0.178065 0.002982
O O10 0.500000 0.000000 0.500000
O O11 0.306286 0.052815 0.125375
O O12 0.500000 0.000000 0.000000
O O13 0.793621 0.877564 0.080248
O O14 0.807369 0.896447 0.597188
O O15 0.078550 0.327558 0.977524
#
# Coordination Sequence:
#
# PCOD9248209 Si02
#       7
#     4   4   4   4   4   4   4
#     4  11  23  41  64  94 135 173 205 251 322 386
#     4  10  23  40  67  93 125 167 220 266 320 373
#     4  11  21  40  71  93 125 168 212 269 312 371
#     4  12  27  42  63  93 133 172 211 263 335 388
#     4  11  23  42  64  93 128 163 213 272 311 380
#     4  10  22  41  69  96 123 169 216 264 316 373
#     4  11  23  38  68 101 121 156 226 267 309 365
#
# _framework density 21.585944000000001
#
# number of rings (size 3 to 8) (size 9 to 14) (size 15 to 20)
#    0.000    1.143    4.286    1.714    4.000    1.143 
#    0.000    1.429    0.000    0.000    0.000    0.000 
#    0.000    0.000    0.000    0.000    0.000    0.000 
#
# Total GULP energy -156302.180757 kJ/mol
# GULP energy per Si atom -5582.220741 kJ/mol
# Density = 2.153681 g / cm^3
# Si number density = 21.585944 Si / 1000 Ang^3
#
#
#
# Elastic Constant Matrix: (Units=GPa)
#
#
# Indices 1 2 3 4 5 6 
#
# 1 75.9187 0.3790 10.4093 0.0000 10.2262 0.0000
# 2 0.3790 38.2024 21.4437 0.0000 7.9926 0.0000
# 3 10.4093 21.4437 78.5746 0.0000 -10.0855 0.0000
# 4 0.0000 0.0000 0.0000 30.0836 0.0000 -10.7306
# 5 10.2262 7.9926 -10.0855 0.0000 37.8351 0.0000
# 6 0.0000 0.0000 0.0000 -10.7306 0.0000 26.7953
#
#
#
# Elastic Compliance Matrix: (Units=1/GPa)
#
#
# Indices 1 2 3 4 5 6 
#
# 1 0.014346 0.002881 -0.003378 0.000000 -0.005387 0.000000
# 2 0.002881 0.034836 -0.011321 0.000000 -0.011155 0.000000
# 3 -0.003378 -0.011321 0.017279 0.000000 0.007911 0.000000
# 4 0.000000 0.000000 0.000000 0.038780 0.000000 0.015530
# 5 -0.005387 -0.011155 0.007911 0.000000 0.032352 0.000000
# 6 0.000000 0.000000 0.000000 0.015530 0.000000 0.043539
#
#
# Mechanical properties :
#
#
# Convention : Reuss Voigt Hill
#
# Bulk Modulus (GPa) = 23.35036 28.57329 25.96182
# Shear Modulus (GPa) = 22.82647 29.64038 26.23343
#
# Velocity S-wave (km/s) = 3.25540 3.70960 3.48990
# Velocity P-wave (km/s) = 4.99711 5.62263 5.31907
#
# Compressibility (1/GPa) = 0.04282589
#
# Stress axis : x y z
#
# Youngs Moduli (GPa) = 69.70401 28.70582 57.87320
#
# Poissons Ratio (x) = -0.08270 0.19551
# Poissons Ratio (y) = -0.20081 0.65516
# Poissons Ratio (z) = 0.23547 0.32497
#
# Static dielectric constant tensor:
#      x y z
#    x 1.788290 0.000000 -0.005830 
#    y 0.000000 1.835050 0.000000 
#    z -0.005830 0.000000 1.842310 
# 
# From -- ./inp_files/2277.got.cif
#   From: 2010.05.17/outbox.cif.g08.bks.cpg/sg14_2_cif.got.tgz:2277.got - 2010.06.03 17:49:19.
