data_PCOD9248319
_publ_section_title
;
Structure prediction by ZEFSAII (Michael W. Deem and Ramdas Pophale) SiO2 
 PCOD9248319
Probable space group: P 21/C
;
_chemical_formula_sum "Si O2"
_cell_formula_units_Z 28
_cell_length_a 5.417925
_cell_length_b 15.663857
_cell_length_c 16.095297
_cell_angle_alpha 90.000000
_cell_angle_beta 64.804181
_cell_angle_gamma 90.000000
_cell_volume 1235.979255
_symmetry_space_group_name_H-M "P 21/C"
_symmetry_group_IT_number 14
_symmetry_cell_setting 'monoclinic'
loop_
_space_group_symop_operation_xyz
x,y,z
-x,1/2+y,1/2-z
-x,-y,-z
x,1/2-y,1/2+z
loop_
_atom_site_type_symbol
_atom_site_label
_atom_site_fract_x
_atom_site_fract_y
_atom_site_fract_z
Si Si1 0.887678 0.926408 0.575396
Si Si2 0.408784 0.505309 0.418392
Si Si3 0.989347 0.141688 0.001770
Si Si4 0.277091 0.562576 0.776480
Si Si5 0.641456 0.778020 0.500720
Si Si6 0.726891 0.832782 0.312900
Si Si7 0.905347 0.231344 0.360719
O O1 0.767035 0.859545 0.527628
O O2 0.068353 0.865524 0.609707
O O3 0.708467 0.981372 0.664245
O O4 0.000000 0.000000 0.500000
O O5 0.500000 0.500000 0.500000
O O6 0.168302 0.436523 0.442805
O O7 0.643158 0.474257 0.324388
O O8 0.283345 0.599283 0.423439
O O9 0.959768 0.205245 0.929471
O O10 0.154951 0.199224 0.042236
O O11 0.507027 0.626135 0.781168
O O12 0.975846 0.605174 0.809521
O O13 0.559981 0.804983 0.419258
O O14 0.415840 0.750727 0.601387
O O15 0.893691 0.757883 0.241474
#
# Coordination Sequence:
#
# PCOD9248319 Si02
#       7
#     4   4   4   4   4   4   4
#     4  11  25  47  71 107 146 195 249 308 369 451
#     4  11  23  42  71 101 147 190 245 305 377 444
#     4  10  22  42  65 102 137 184 241 299 374 433
#     4  12  27  47  74 107 149 197 252 307 378 448
#     4  11  25  44  75 101 151 194 251 311 375 447
#     4  12  27  48  74 106 150 196 250 307 382 442
#     4  11  25  45  71 104 148 192 248 309 374 446
#
# _framework density 22.654102999999999
#
# number of rings (size 3 to 8) (size 9 to 14) (size 15 to 20)
#    0.000    0.857    2.857    3.429    8.000    4.571 
#    0.000    0.000    0.000    0.000    0.000    0.000 
#    0.000    0.000    0.000    0.000    0.000    0.000 
#
# Total GULP energy -156230.796392 kJ/mol
# GULP energy per Si atom -5579.671300 kJ/mol
# Density = 2.260254 g / cm^3
# Si number density = 22.654103 Si / 1000 Ang^3
#
#
#
# Elastic Constant Matrix: (Units=GPa)
#
#
# Indices 1 2 3 4 5 6 
#
# 1 62.0773 22.4750 2.2290 0.0000 -4.2343 0.0000
# 2 22.4750 103.1545 19.1350 0.0000 -3.4010 0.0000
# 3 2.2290 19.1350 100.5680 0.0000 5.2490 0.0000
# 4 0.0000 0.0000 0.0000 38.2496 0.0000 -6.1572
# 5 -4.2343 -3.4010 5.2490 0.0000 25.9014 0.0000
# 6 0.0000 0.0000 0.0000 -6.1572 0.0000 14.3978
#
#
#
# Elastic Compliance Matrix: (Units=1/GPa)
#
#
# Indices 1 2 3 4 5 6 
#
# 1 0.017639 -0.003805 0.000211 0.000000 0.002341 0.000000
# 2 -0.003805 0.010947 -0.002063 0.000000 0.001233 0.000000
# 3 0.000211 -0.002063 0.010454 0.000000 -0.002355 0.000000
# 4 0.000000 0.000000 0.000000 0.028077 0.000000 0.012007
# 5 0.002341 0.001233 -0.002355 0.000000 0.039630 0.000000
# 6 0.000000 0.000000 0.000000 0.012007 0.000000 0.074590
#
#
# Mechanical properties :
#
#
# Convention : Reuss Voigt Hill
#
# Bulk Modulus (GPa) = 36.06790 39.27531 37.67161
# Shear Modulus (GPa) = 24.76573 30.50715 27.63644
#
# Velocity S-wave (km/s) = 3.30996 3.67365 3.49654
# Velocity P-wave (km/s) = 5.52843 5.94718 5.74162
#
# Compressibility (1/GPa) = 0.02772548
#
# Stress axis : x y z
#
# Youngs Moduli (GPa) = 56.69368 91.35321 95.65480
#
# Poissons Ratio (x) = 0.34760 -0.02017
# Poissons Ratio (y) = 0.21572 0.19732
# Poissons Ratio (z) = -0.01195 0.18845
#
# Static dielectric constant tensor:
#      x y z
#    x 1.496340 0.000000 0.258160 
#    y 0.000000 1.920050 0.000000 
#    z 0.258160 0.000000 1.498220 
# 
# From -- ./inp_files/53397.got.cif
#   From: 2010.05.17/outbox.cif.g08.bks.cpg/sg14_27_cif.got.tgz:53397.got - 2010.06.03 17:49:19.
