data_PCOD9248417
_publ_section_title
;
Structure prediction by ZEFSAII (Michael W. Deem and Ramdas Pophale) SiO2 
 PCOD9248417
Probable space group: P 21/C
;
_chemical_formula_sum "Si O2"
_cell_formula_units_Z 18
_cell_length_a 8.022425
_cell_length_b 4.830024
_cell_length_c 20.969576
_cell_angle_alpha 90.000000
_cell_angle_beta 61.568718
_cell_angle_gamma 90.000000
_cell_volume 714.538305
_symmetry_space_group_name_H-M "P 21/C"
_symmetry_group_IT_number 14
_symmetry_cell_setting 'monoclinic'
loop_
_space_group_symop_operation_xyz
x,y,z
-x,1/2+y,1/2-z
-x,-y,-z
x,1/2-y,1/2+z
loop_
_atom_site_type_symbol
_atom_site_label
_atom_site_fract_x
_atom_site_fract_y
_atom_site_fract_z
Si Si1 0.521652 0.467995 0.393750
Si Si2 0.205782 0.833906 0.494017
Si Si3 0.829770 0.715569 0.114518
Si Si4 0.120877 0.296159 0.745283
Si Si5 0.500000 0.000000 0.500000
O O1 0.420361 0.702762 0.457353
O O2 0.352723 0.384143 0.375877
O O3 0.697152 0.603741 0.326869
O O4 0.573561 0.202877 0.424941
O O5 0.033828 0.668290 0.554565
O O6 0.171721 0.937924 0.428913
O O7 0.269875 0.091935 0.525122
O O8 0.833057 0.671242 0.188483
O O9 0.057097 0.985175 0.742409
#
# Coordination Sequence:
#
# PCOD9248417 Si02
#       5
#     4   4   4   4   2
#     4  11  25  44  79 104 154 201 260 318 390 455
#     4  10  22  43  74 106 148 194 257 317 379 455
#     4  10  25  45  72 109 147 195 261 308 391 457
#     4  12  31  50  76 113 159 206 257 321 394 464
#     4  10  22  42  68 110 136 194 250 316 374 456
#
# _framework density 25.191092999999999
#
# number of rings (size 3 to 8) (size 9 to 14) (size 15 to 20)
#    0.000    1.333    0.000    2.667   15.556    0.000 
#    4.000    0.000    0.000    0.000    0.000    0.000 
#    0.000    0.000    0.000    0.000    0.000    0.000 
#
# Total GULP energy -100425.234578 kJ/mol
# GULP energy per Si atom -5579.179699 kJ/mol
# Density = 2.513376 g / cm^3
# Si number density = 25.191093 Si / 1000 Ang^3
#
#
#
# Elastic Constant Matrix: (Units=GPa)
#
#
# Indices 1 2 3 4 5 6 
#
# 1 129.9401 0.4610 75.8893 0.0000 7.7475 0.0000
# 2 0.4610 71.1213 32.0723 0.0000 -4.2813 0.0000
# 3 75.8893 32.0723 163.5240 0.0000 3.4910 0.0000
# 4 0.0000 0.0000 0.0000 32.5857 0.0000 -1.9736
# 5 7.7475 -4.2813 3.4910 0.0000 63.6434 0.0000
# 6 0.0000 0.0000 0.0000 -1.9736 0.0000 47.4087
#
#
#
# Elastic Compliance Matrix: (Units=1/GPa)
#
#
# Indices 1 2 3 4 5 6 
#
# 1 0.010975 0.002375 -0.005541 0.000000 -0.000872 0.000000
# 2 0.002375 0.016032 -0.004268 0.000000 0.001023 0.000000
# 3 -0.005541 -0.004268 0.009527 0.000000 -0.000135 0.000000
# 4 0.000000 0.000000 0.000000 0.030766 0.000000 0.001281
# 5 -0.000872 0.001023 -0.000135 0.000000 0.015895 0.000000
# 6 0.000000 0.000000 0.000000 0.001281 0.000000 0.021146
#
#
# Mechanical properties :
#
#
# Convention : Reuss Voigt Hill
#
# Bulk Modulus (GPa) = 46.15644 64.60338 55.37991
# Shear Modulus (GPa) = 39.54726 45.80508 42.67617
#
# Velocity S-wave (km/s) = 3.96648 4.26878 4.12041
# Velocity P-wave (km/s) = 6.27213 7.07091 6.68346
#
# Compressibility (1/GPa) = 0.02166545
#
# Stress axis : x y z
#
# Youngs Moduli (GPa) = 91.11279 62.37718 104.96789
#
# Poissons Ratio (x) = -0.14814 0.58160
# Poissons Ratio (y) = -0.21639 0.44804
# Poissons Ratio (z) = 0.50483 0.26625
#
# Static dielectric constant tensor:
#      x y z
#    x 2.187750 0.000000 0.040090 
#    y 0.000000 2.321970 0.000000 
#    z 0.040090 0.000000 2.018600 
# 
# From -- ./inp_files/53938.got.cif
#   From: 2010.05.17/outbox.cif.g08.bks.cpg/sg14_27_cif.got.tgz:53938.got - 2010.06.03 17:49:19.
