data_PCOD9248069
_publ_section_title
;
Structure prediction by ZEFSAII (Michael W. Deem and Ramdas Pophale) SiO2 
 PCOD9248069
Probable space group: P 21/C
;
_chemical_formula_sum "Si O2"
_cell_formula_units_Z 24
_cell_length_a 5.852843
_cell_length_b 14.079790
_cell_length_c 15.133576
_cell_angle_alpha 90.000000
_cell_angle_beta 125.254473
_cell_angle_gamma 90.000000
_cell_volume 1018.385310
_symmetry_space_group_name_H-M "P 21/C"
_symmetry_group_IT_number 14
_symmetry_cell_setting 'monoclinic'
loop_
_space_group_symop_operation_xyz
x,y,z
-x,1/2+y,1/2-z
-x,-y,-z
x,1/2-y,1/2+z
loop_
_atom_site_type_symbol
_atom_site_label
_atom_site_fract_x
_atom_site_fract_y
_atom_site_fract_z
Si Si1 0.556890 0.862225 0.276693
Si Si2 0.587473 0.893490 0.490927
Si Si3 0.059298 0.772671 0.681549
Si Si4 0.112839 0.750579 0.892100
Si Si5 0.097761 0.559479 0.439001
Si Si6 0.296887 0.416235 0.365864
O O1 0.533237 0.891337 0.372952
O O2 0.566591 0.937520 0.199290
O O3 0.869764 0.825410 0.336661
O O4 0.333192 0.779554 0.202273
O O5 0.895218 0.855417 0.591579
O O6 0.379315 0.810815 0.480027
O O7 0.500000 0.000000 0.500000
O O8 0.847901 0.684511 0.649778
O O9 0.149216 0.796686 0.802491
O O10 0.978007 0.835648 0.918249
O O11 0.070607 0.493255 0.347226
O O12 0.427760 0.585018 0.512283
O O13 0.000000 0.500000 0.500000
#
# Coordination Sequence:
#
# PCOD9248069 Si02
#       6
#     4   4   4   4   4   4
#     4  10  24  42  72 100 141 183 231 290 355 418
#     4  11  25  46  73 100 139 192 240 288 358 435
#     4  10  22  43  68  97 141 180 227 294 346 421
#     4  10  24  44  65 103 136 178 236 289 352 420
#     4  11  23  38  71  99 132 178 227 283 350 413
#     4  10  22  41  64 100 137 170 223 286 338 416
#
# _framework density 23.56672
#
# number of rings (size 3 to 8) (size 9 to 14) (size 15 to 20)
#    0.000    1.667    1.667    1.000    4.667    7.333 
#    0.000    5.000    0.000    0.000    0.000    0.000 
#    0.000    0.000    0.000    0.000    0.000    0.000 
#
# Total GULP energy -133664.625923 kJ/mol
# GULP energy per Si atom -5569.359413 kJ/mol
# Density = 2.351308 g / cm^3
# Si number density = 23.566720 Si / 1000 Ang^3
#
#
#
# Elastic Constant Matrix: (Units=GPa)
#
#
# Indices 1 2 3 4 5 6 
#
# 1 62.2088 -4.2344 12.2119 0.0000 -5.3327 0.0000
# 2 -4.2344 90.6037 31.3330 0.0000 -23.1368 0.0000
# 3 12.2119 31.3330 71.9419 0.0000 -0.5711 0.0000
# 4 0.0000 0.0000 0.0000 28.0704 0.0000 -7.7751
# 5 -5.3327 -23.1368 -0.5711 0.0000 36.1262 0.0000
# 6 0.0000 0.0000 0.0000 -7.7751 0.0000 22.8247
#
#
#
# Elastic Compliance Matrix: (Units=1/GPa)
#
#
# Indices 1 2 3 4 5 6 
#
# 1 0.017629 0.003633 -0.004536 0.000000 0.004857 0.000000
# 2 0.003633 0.016760 -0.007828 0.000000 0.011147 0.000000
# 3 -0.004536 -0.007828 0.018037 0.000000 -0.005398 0.000000
# 4 0.000000 0.000000 0.000000 0.039336 0.000000 0.013400
# 5 0.004857 0.011147 -0.005398 0.000000 0.035451 0.000000
# 6 0.000000 0.000000 0.000000 0.013400 0.000000 0.048377
#
#
# Mechanical properties :
#
#
# Convention : Reuss Voigt Hill
#
# Bulk Modulus (GPa) = 28.60099 33.70840 31.15469
# Shear Modulus (GPa) = 24.42516 29.76718 27.09617
#
# Velocity S-wave (km/s) = 3.22285 3.55787 3.39450
# Velocity P-wave (km/s) = 5.10015 5.58680 5.34901
#
# Compressibility (1/GPa) = 0.03496382
#
# Stress axis : x y z
#
# Youngs Moduli (GPa) = 56.72452 59.66454 55.44300
#
# Poissons Ratio (x) = -0.21676 0.25150
# Poissons Ratio (y) = -0.20608 0.43400
# Poissons Ratio (z) = 0.25731 0.46705
#
# Static dielectric constant tensor:
#      x y z
#    x 1.900340 0.000000 -0.014990 
#    y 0.000000 2.290180 0.000000 
#    z -0.014990 0.000000 2.249440 
# 
# From -- ./inp_files/37392.got.cif
#   From: 2010.05.17/outbox.cif.g08.bks.cpg/sg14_19_cif.got.tgz:37392.got - 2010.06.03 17:49:19.
