data_PCOD9248750
_publ_section_title
;
Structure prediction by ZEFSAII (Michael W. Deem and Ramdas Pophale) SiO2 
 PCOD9248750
Probable space group: P 21/C
;
_chemical_formula_sum "Si O2"
_cell_formula_units_Z 20
_cell_length_a 5.256200
_cell_length_b 26.715519
_cell_length_c 5.660535
_cell_angle_alpha 90.000000
_cell_angle_beta 85.775382
_cell_angle_gamma 90.000000
_cell_volume 792.704562
_symmetry_space_group_name_H-M "P 21/C"
_symmetry_group_IT_number 14
_symmetry_cell_setting 'monoclinic'
loop_
_space_group_symop_operation_xyz
x,y,z
-x,1/2+y,1/2-z
-x,-y,-z
x,1/2-y,1/2+z
loop_
_atom_site_type_symbol
_atom_site_label
_atom_site_fract_x
_atom_site_fract_y
_atom_site_fract_z
Si Si1 0.749915 0.401054 0.332217
Si Si2 0.758782 0.883606 0.881340
Si Si3 0.894514 0.170867 0.443763
Si Si4 0.262965 0.007111 0.342711
Si Si5 0.590962 0.255895 0.690081
O O1 0.491027 0.377570 0.446110
O O2 0.791576 0.380393 0.064015
O O3 0.726220 0.461067 0.340539
O O4 0.998800 0.386236 0.461926
O O5 0.827516 0.842514 0.676006
O O6 0.733114 0.937727 0.762824
O O7 0.818020 0.214026 0.638037
O O8 0.735087 0.192991 0.237436
O O9 0.500000 0.000000 0.500000
O O10 0.000000 0.000000 0.500000
O O11 0.452072 0.256734 0.447020
#
# Coordination Sequence:
#
# PCOD9248750 Si02
#       5
#     4   4   4   4   4
#     4  12  26  45  74 106 145 196 246 303 375 448
#     4  12  26  45  74 106 145 196 246 303 375 448
#     4  10  22  43  74 104 150 185 256 302 386 430
#     4  12  24  46  70 105 149 192 242 307 371 443
#     4   8  18  40  70 104 146 190 246 312 372 434
#
# _framework density 25.230080000000001
#
# number of rings (size 3 to 8) (size 9 to 14) (size 15 to 20)
#    1.200    0.000    2.000    4.800    0.000    0.000 
#    0.000    2.000    0.000    0.000    0.000    0.000 
#    0.000    0.000    0.000    0.000    0.000    0.000 
#
# Total GULP energy -111830.396085 kJ/mol
# GULP energy per Si atom -5591.519804 kJ/mol
# Density = 2.517266 g / cm^3
# Si number density = 25.230080 Si / 1000 Ang^3
#
#
#
# Elastic Constant Matrix: (Units=GPa)
#
#
# Indices 1 2 3 4 5 6 
#
# 1 152.8514 16.5840 44.7227 0.0000 -15.4245 0.0000
# 2 16.5840 85.1416 24.7045 0.0000 19.9392 0.0000
# 3 44.7227 24.7045 134.4854 0.0000 -10.7552 0.0000
# 4 0.0000 0.0000 0.0000 56.0258 0.0000 4.8743
# 5 -15.4245 19.9392 -10.7552 0.0000 37.8097 0.0000
# 6 0.0000 0.0000 0.0000 4.8743 0.0000 28.9923
#
#
#
# Elastic Compliance Matrix: (Units=1/GPa)
#
#
# Indices 1 2 3 4 5 6 
#
# 1 0.007653 -0.001743 -0.001946 0.000000 0.003487 0.000000
# 2 -0.001743 0.015189 -0.002976 0.000000 -0.009567 0.000000
# 3 -0.001946 -0.002976 0.008894 0.000000 0.003305 0.000000
# 4 0.000000 0.000000 0.000000 0.018114 0.000000 -0.003045
# 5 0.003487 -0.009567 0.003305 0.000000 0.033856 0.000000
# 6 0.000000 0.000000 0.000000 -0.003045 0.000000 0.035004
#
#
# Mechanical properties :
#
#
# Convention : Reuss Voigt Hill
#
# Bulk Modulus (GPa) = 54.32850 60.50007 57.41429
# Shear Modulus (GPa) = 36.18653 43.66338 39.92495
#
# Velocity S-wave (km/s) = 3.79127 4.16457 3.98230
# Velocity P-wave (km/s) = 6.38318 6.86704 6.62953
#
# Compressibility (1/GPa) = 0.01840655
#
# Stress axis : x y z
#
# Youngs Moduli (GPa) = 130.67400 65.83926 112.43807
#
# Poissons Ratio (x) = 0.11474 0.21879
# Poissons Ratio (y) = 0.22773 0.33458
# Poissons Ratio (z) = 0.25427 0.19591
#
# Static dielectric constant tensor:
#      x y z
#    x 1.900930 0.000000 0.014140 
#    y 0.000000 2.003630 0.000000 
#    z 0.014140 0.000000 2.051090 
# 
# From -- ./inp_files/719.got.cif
#   From: 2010.05.17/outbox.cif.g08.bks.cpg/sg14_1_cif.got.tgz:719.got - 2010.06.03 17:49:19.
