data_PCOD9248421
_publ_section_title
;
Structure prediction by ZEFSAII (Michael W. Deem and Ramdas Pophale) SiO2 
 PCOD9248421
Probable space group: P 21/C
;
_chemical_formula_sum "Si O2"
_cell_formula_units_Z 28
_cell_length_a 27.315843
_cell_length_b 7.907155
_cell_length_c 9.106542
_cell_angle_alpha 90.000000
_cell_angle_beta 144.089493
_cell_angle_gamma 90.000000
_cell_volume 1153.644082
_symmetry_space_group_name_H-M "P 21/C"
_symmetry_group_IT_number 14
_symmetry_cell_setting 'monoclinic'
loop_
_space_group_symop_operation_xyz
x,y,z
-x,1/2+y,1/2-z
-x,-y,-z
x,1/2-y,1/2+z
loop_
_atom_site_type_symbol
_atom_site_label
_atom_site_fract_x
_atom_site_fract_y
_atom_site_fract_z
Si Si1 0.037450 0.074607 0.237893
Si Si2 0.504342 0.371380 0.815967
Si Si3 0.776249 0.532455 0.796144
Si Si4 0.601357 0.556907 0.828701
Si Si5 0.373868 0.888477 0.913016
Si Si6 0.073583 0.035398 0.790015
Si Si7 0.755073 0.885821 0.909784
O O1 0.126242 0.981345 0.484361
O O2 0.066110 0.267711 0.310779
O O3 0.956957 0.067245 0.146044
O O4 0.000000 0.000000 0.000000
O O5 0.534659 0.416002 0.721762
O O6 0.450173 0.543593 0.704620
O O7 0.439751 0.235518 0.724812
O O8 0.592283 0.285164 0.075772
O O9 0.711984 0.395624 0.706876
O O10 0.770510 0.691527 0.895481
O O11 0.745432 0.596064 0.561155
O O12 0.630318 0.520174 0.733986
O O13 0.679425 0.549891 0.127876
O O14 0.163194 0.009346 0.939178
O O15 0.000000 0.000000 0.500000
#
# Coordination Sequence:
#
# PCOD9248421 Si02
#       7
#     4   4   4   4   4   4   4
#     4  11  25  43  73 101 135 187 225 286 341 404
#     4  10  22  42  68  94 134 172 226 272 338 395
#     4  11  24  42  67 101 135 177 226 272 343 404
#     4  11  24  43  68 101 133 178 225 280 336 398
#     4  11  24  43  68 100 135 176 227 278 336 405
#     4  11  23  47  69 101 139 179 233 276 342 415
#     4  11  24  41  69  98 137 178 222 280 334 407
#
# _framework density 24.270918000000002
#
# number of rings (size 3 to 8) (size 9 to 14) (size 15 to 20)
#    0.000    1.143    2.857    3.429    8.000    3.429 
#    5.143    7.143    0.000    0.000    0.000    0.000 
#    0.000    0.000    0.000    0.000    0.000    0.000 
#
# Total GULP energy -155995.376752 kJ/mol
# GULP energy per Si atom -5571.263455 kJ/mol
# Density = 2.421568 g / cm^3
# Si number density = 24.270918 Si / 1000 Ang^3
#
#
#
# Elastic Constant Matrix: (Units=GPa)
#
#
# Indices 1 2 3 4 5 6 
#
# 1 126.8357 19.0513 7.6520 0.0000 10.9652 0.0000
# 2 19.0513 52.1652 -1.8926 0.0000 6.7765 0.0000
# 3 7.6520 -1.8926 66.2026 0.0000 19.2986 0.0000
# 4 0.0000 0.0000 0.0000 23.0873 0.0000 2.6820
# 5 10.9652 6.7765 19.2986 0.0000 47.0229 0.0000
# 6 0.0000 0.0000 0.0000 2.6820 0.0000 39.3631
#
#
#
# Elastic Compliance Matrix: (Units=1/GPa)
#
#
# Indices 1 2 3 4 5 6 
#
# 1 0.008480 -0.002958 -0.000696 0.000000 -0.001266 0.000000
# 2 -0.002958 0.020711 0.001821 0.000000 -0.003042 0.000000
# 3 -0.000696 0.001821 0.017341 0.000000 -0.007217 0.000000
# 4 0.000000 0.000000 0.000000 0.043659 0.000000 -0.002975
# 5 -0.001266 -0.003042 -0.007217 0.000000 0.024962 0.000000
# 6 0.000000 0.000000 0.000000 -0.002975 0.000000 0.025607
#
#
# Mechanical properties :
#
#
# Convention : Reuss Voigt Hill
#
# Bulk Modulus (GPa) = 23.32780 32.75830 28.04305
# Shear Modulus (GPa) = 31.50290 36.58754 34.04522
#
# Velocity S-wave (km/s) = 3.60664 3.88682 3.74935
# Velocity P-wave (km/s) = 5.19385 5.80253 5.50661
#
# Compressibility (1/GPa) = 0.04286730
#
# Stress axis : x y z
#
# Youngs Moduli (GPa) = 117.92626 48.28274 57.66515
#
# Poissons Ratio (x) = 0.14281 0.04012
# Poissons Ratio (y) = 0.34880 -0.10500
# Poissons Ratio (z) = 0.08205 -0.08791
#
# Static dielectric constant tensor:
#      x y z
#    x 1.870740 0.000000 0.048230 
#    y 0.000000 2.023440 0.000000 
#    z 0.048230 0.000000 1.969190 
# 
# From -- ./inp_files/18761.got.cif
#   From: 2010.05.17/outbox.cif.g08.bks.cpg/sg14_10_cif.got.tgz:18761.got - 2010.06.03 17:49:19.
