data_PCOD9248162
_publ_section_title
;
Structure prediction by ZEFSAII (Michael W. Deem and Ramdas Pophale) SiO2 
 PCOD9248162
Probable space group: P 21/C
;
_chemical_formula_sum "Si O2"
_cell_formula_units_Z 32
_cell_length_a 13.399028
_cell_length_b 13.775941
_cell_length_c 19.238116
_cell_angle_alpha 90.000000
_cell_angle_beta 158.908036
_cell_angle_gamma 90.000000
_cell_volume 1277.902937
_symmetry_space_group_name_H-M "P 21/C"
_symmetry_group_IT_number 14
_symmetry_cell_setting 'monoclinic'
loop_
_space_group_symop_operation_xyz
x,y,z
-x,1/2+y,1/2-z
-x,-y,-z
x,1/2-y,1/2+z
loop_
_atom_site_type_symbol
_atom_site_label
_atom_site_fract_x
_atom_site_fract_y
_atom_site_fract_z
Si Si1 0.519688 0.517218 0.406825
Si Si2 0.732344 0.404085 0.253695
Si Si3 0.692831 0.505908 0.364050
Si Si4 0.650223 0.183181 0.384331
Si Si5 0.521754 0.807548 0.521386
Si Si6 0.160351 0.812730 0.643535
Si Si7 0.373016 0.181498 0.792725
Si Si8 0.043736 0.160782 0.758078
O O1 0.531849 0.498768 0.331605
O O2 0.278670 0.596319 0.262980
O O3 0.460094 0.409882 0.395928
O O4 0.806509 0.565403 0.615326
O O5 0.630782 0.426273 0.265493
O O6 0.509885 0.402611 0.047174
O O7 0.840870 0.291990 0.321450
O O8 0.983129 0.479773 0.408112
O O9 0.597497 0.607219 0.267132
O O10 0.654295 0.198503 0.305173
O O11 0.619636 0.284814 0.403087
O O12 0.907223 0.138564 0.593887
O O13 0.687571 0.776007 0.698877
O O14 0.703087 0.737571 0.586863
O O15 0.208412 0.804435 0.354654
O O16 0.873913 0.838160 0.420377
#
# Coordination Sequence:
#
# PCOD9248162 Si02
#       8
#     4   4   4   4   4   4   4   4
#     4  11  23  41  64 101 137 182 229 292 341 426
#     4  11  21  41  69  99 130 181 230 296 346 409
#     4  10  22  41  66  99 135 171 240 288 349 413
#     4  10  22  42  64  93 136 177 224 291 350 414
#     4  11  24  46  69  97 139 181 232 281 357 412
#     4  11  21  40  67  93 136 176 234 284 352 412
#     4  11  23  42  64  95 132 184 228 277 357 420
#     4  11  23  45  67  99 140 183 232 289 350 421
#
# _framework density 25.041027
#
# number of rings (size 3 to 8) (size 9 to 14) (size 15 to 20)
#    0.000    1.250    5.000    1.125    0.000    0.500 
#    6.750    2.500    0.000    0.000    0.000    0.000 
#    0.000    0.000    0.000    0.000    0.000    0.000 
#
# Total GULP energy -178235.477557 kJ/mol
# GULP energy per Si atom -5569.858674 kJ/mol
# Density = 2.498403 g / cm^3
# Si number density = 25.041027 Si / 1000 Ang^3
#
#
#
# Elastic Constant Matrix: (Units=GPa)
#
#
# Indices 1 2 3 4 5 6 
#
# 1 71.1434 -1.5796 -14.7194 0.0000 -7.5245 0.0000
# 2 -1.5796 66.5088 1.1985 0.0000 -9.2058 0.0000
# 3 -14.7194 1.1985 61.3755 0.0000 -8.0425 0.0000
# 4 0.0000 0.0000 0.0000 19.2919 0.0000 -6.8509
# 5 -7.5245 -9.2058 -8.0425 0.0000 37.1188 0.0000
# 6 0.0000 0.0000 0.0000 -6.8509 0.0000 27.8679
#
#
#
# Elastic Compliance Matrix: (Units=1/GPa)
#
#
# Indices 1 2 3 4 5 6 
#
# 1 0.015402 0.000879 0.004235 0.000000 0.004258 0.000000
# 2 0.000879 0.015623 0.000450 0.000000 0.004150 0.000000
# 3 0.004235 0.000450 0.017936 0.000000 0.004856 0.000000
# 4 0.000000 0.000000 0.000000 0.056793 0.000000 0.013962
# 5 0.004258 0.004150 0.004856 0.000000 0.029885 0.000000
# 6 0.000000 0.000000 0.000000 0.013962 0.000000 0.039316
#
#
# Mechanical properties :
#
#
# Convention : Reuss Voigt Hill
#
# Bulk Modulus (GPa) = 16.64255 18.75852 17.70053
# Shear Modulus (GPa) = 27.19482 31.13095 29.16288
#
# Velocity S-wave (km/s) = 3.29904 3.52973 3.41633
# Velocity P-wave (km/s) = 4.60132 4.91114 4.75875
#
# Compressibility (1/GPa) = 0.06008696
#
# Stress axis : x y z
#
# Youngs Moduli (GPa) = 64.92637 64.00897 55.75294
#
# Poissons Ratio (x) = -0.05625 -0.23609
# Poissons Ratio (y) = -0.05706 -0.02506
# Poissons Ratio (z) = -0.27493 -0.02877
#
# Static dielectric constant tensor:
#      x y z
#    x 2.074750 0.000000 0.018780 
#    y 0.000000 2.083270 0.000000 
#    z 0.018780 0.000000 2.039000 
# 
# From -- ./inp_files/68663.got.cif
#   From: 2010.05.17/outbox.cif.g08.bks.cpg/sg14_35_cif.got.tgz:68663.got - 2010.06.03 17:49:19.
