data_PCOD9248071
_publ_section_title
;
Structure prediction by ZEFSAII (Michael W. Deem and Ramdas Pophale) SiO2 
 PCOD9248071
Probable space group: P 21/C
;
_chemical_formula_sum "Si O2"
_cell_formula_units_Z 20
_cell_length_a 17.119181
_cell_length_b 5.317642
_cell_length_c 9.893324
_cell_angle_alpha 90.000000
_cell_angle_beta 122.537068
_cell_angle_gamma 90.000000
_cell_volume 759.266744
_symmetry_space_group_name_H-M "P 21/C"
_symmetry_group_IT_number 14
_symmetry_cell_setting 'monoclinic'
loop_
_space_group_symop_operation_xyz
x,y,z
-x,1/2+y,1/2-z
-x,-y,-z
x,1/2-y,1/2+z
loop_
_atom_site_type_symbol
_atom_site_label
_atom_site_fract_x
_atom_site_fract_y
_atom_site_fract_z
Si Si1 0.515191 0.871722 0.845307
Si Si2 0.152831 0.468566 0.165962
Si Si3 0.294130 0.158952 0.394637
Si Si4 0.999300 0.736614 0.665131
Si Si5 0.669795 0.263174 0.186495
O O1 0.503292 0.648055 0.726061
O O2 0.433640 0.803887 0.874464
O O3 0.619657 0.831108 0.993615
O O4 0.196202 0.285556 0.320861
O O5 0.248188 0.581427 0.196456
O O6 0.091310 0.695005 0.165668
O O7 0.087904 0.309886 0.008256
O O8 0.306493 0.052862 0.250105
O O9 0.312580 0.868673 0.452500
O O10 0.002065 0.952287 0.784178
#
# Coordination Sequence:
#
# PCOD9248071 Si02
#       5
#     4   4   4   4   4
#     4  12  24  38  60  96 128 162 216 267 303 371
#     4   9  26  43  70  92 132 171 210 267 330 374
#     4  10  22  41  64  84 125 170 209 245 324 375
#     4  11  26  43  68  98 130 163 216 269 326 388
#     4  10  22  41  64  84 125 170 209 245 324 375
#
# _framework density 26.341206
#
# number of rings (size 3 to 8) (size 9 to 14) (size 15 to 20)
#    1.200    0.400    0.000    3.600    5.600    4.800 
#    0.000    0.000    0.000    0.000    0.000    0.000 
#    0.000    0.000    0.000    0.000    0.000    0.000 
#
# Total GULP energy -111468.905923 kJ/mol
# GULP energy per Si atom -5573.445296 kJ/mol
# Density = 2.628125 g / cm^3
# Si number density = 26.341206 Si / 1000 Ang^3
#
#
#
# Elastic Constant Matrix: (Units=GPa)
#
#
# Indices 1 2 3 4 5 6 
#
# 1 93.0652 19.4979 57.4500 0.0000 21.9836 0.0000
# 2 19.4979 84.1611 18.6477 0.0000 0.2580 0.0000
# 3 57.4500 18.6477 92.9507 0.0000 42.0047 0.0000
# 4 0.0000 0.0000 0.0000 38.3255 0.0000 -3.7044
# 5 21.9836 0.2580 42.0047 0.0000 43.6147 0.0000
# 6 0.0000 0.0000 0.0000 -3.7044 0.0000 45.5649
#
#
#
# Elastic Compliance Matrix: (Units=1/GPa)
#
#
# Indices 1 2 3 4 5 6 
#
# 1 0.017748 -0.001519 -0.011732 0.000000 0.002362 0.000000
# 2 -0.001519 0.012998 -0.003506 0.000000 0.004065 0.000000
# 3 -0.011732 -0.003506 0.028385 0.000000 -0.021403 0.000000
# 4 0.000000 0.000000 0.000000 0.026299 0.000000 0.002138
# 5 0.002362 0.004065 -0.021403 0.000000 0.042326 0.000000
# 6 0.000000 0.000000 0.000000 0.002138 0.000000 0.022121
#
#
# Mechanical properties :
#
#
# Convention : Reuss Voigt Hill
#
# Bulk Modulus (GPa) = 39.03710 51.26312 45.15011
# Shear Modulus (GPa) = 26.05116 37.13979 31.59547
#
# Velocity S-wave (km/s) = 3.14823 3.75900 3.46709
# Velocity P-wave (km/s) = 5.29784 6.19222 5.76241
#
# Compressibility (1/GPa) = 0.02561666
#
# Stress axis : x y z
#
# Youngs Moduli (GPa) = 56.34508 76.93320 35.22984
#
# Poissons Ratio (x) = 0.11689 0.41332
# Poissons Ratio (y) = 0.08561 0.12350
# Poissons Ratio (z) = 0.66105 0.26970
#
# Static dielectric constant tensor:
#      x y z
#    x 2.055190 0.000000 -0.144540 
#    y 0.000000 2.089590 0.000000 
#    z -0.144540 0.000000 2.161370 
# 
# From -- ./inp_files/2479.got.cif
#   From: 2010.05.17/outbox.cif.g08.bks.cpg/sg14_2_cif.got.tgz:2479.got - 2010.06.03 17:49:19.
