data_PCOD9248657
_publ_section_title
;
Structure prediction by ZEFSAII (Michael W. Deem and Ramdas Pophale) SiO2 
 PCOD9248657
Probable space group: P 21/C
;
_chemical_formula_sum "Si O2"
_cell_formula_units_Z 32
_cell_length_a 12.917974
_cell_length_b 7.564183
_cell_length_c 13.978681
_cell_angle_alpha 90.000000
_cell_angle_beta 78.106495
_cell_angle_gamma 90.000000
_cell_volume 1336.588798
_symmetry_space_group_name_H-M "P 21/C"
_symmetry_group_IT_number 14
_symmetry_cell_setting 'monoclinic'
loop_
_space_group_symop_operation_xyz
x,y,z
-x,1/2+y,1/2-z
-x,-y,-z
x,1/2-y,1/2+z
loop_
_atom_site_type_symbol
_atom_site_label
_atom_site_fract_x
_atom_site_fract_y
_atom_site_fract_z
Si Si1 0.779811 0.403560 0.972417
Si Si2 0.456142 0.917568 0.409277
Si Si3 0.174818 0.295341 0.186719
Si Si4 0.360958 0.454648 0.258741
Si Si5 0.283428 0.683703 0.701279
Si Si6 0.893714 0.096278 0.641546
Si Si7 0.006820 0.570222 0.271939
Si Si8 0.500720 0.492452 0.612276
O O1 0.668858 0.421238 0.050338
O O2 0.869168 0.376956 0.035977
O O3 0.801609 0.583906 0.910407
O O4 0.763533 0.254479 0.892128
O O5 0.486301 0.716602 0.375874
O O6 0.500000 0.000000 0.500000
O O7 0.527856 0.007519 0.314507
O O8 0.285663 0.310855 0.222539
O O9 0.111500 0.118511 0.166154
O O10 0.084998 0.401692 0.266839
O O11 0.297717 0.636695 0.259404
O O12 0.398143 0.414148 0.358215
O O13 0.214670 0.558452 0.782110
O O14 0.393961 0.587734 0.663970
O O15 0.929600 0.272543 0.690925
O O16 0.977509 0.951568 0.664018
O O17 0.500000 0.500000 0.500000
#
# Coordination Sequence:
#
# PCOD9248657 Si02
#       8
#     4   4   4   4   4   4   4   4
#     4  11  22  43  72  93 130 180 216 263 344 396
#     4  12  23  41  65  99 133 167 218 266 320 404
#     4  10  22  43  68  94 130 169 220 273 330 387
#     4  11  22  42  64  92 134 179 209 270 330 379
#     4  11  23  42  63  96 133 177 218 271 328 391
#     4  11  23  44  70  92 131 172 220 277 338 386
#     4  10  23  41  66  94 126 164 222 274 324 390
#     4  12  24  38  63  96 134 173 218 258 321 399
#
# _framework density 23.941545000000001
#
# number of rings (size 3 to 8) (size 9 to 14) (size 15 to 20)
#    0.000    1.000    6.250    2.250    1.750    2.000 
#    4.500    0.625    5.500    0.000    0.000    0.000 
#    0.000    0.000    0.000    0.000    0.000    0.000 
#
# Total GULP energy -178153.017116 kJ/mol
# GULP energy per Si atom -5567.281785 kJ/mol
# Density = 2.388705 g / cm^3
# Si number density = 23.941545 Si / 1000 Ang^3
#
#
#
# Elastic Constant Matrix: (Units=GPa)
#
#
# Indices 1 2 3 4 5 6 
#
# 1 94.5817 9.8186 82.2267 0.0000 25.7507 0.0000
# 2 9.8186 50.9990 8.4115 0.0000 3.3117 0.0000
# 3 82.2267 8.4115 102.3512 0.0000 39.8560 0.0000
# 4 0.0000 0.0000 0.0000 16.8380 0.0000 -10.8835
# 5 25.7507 3.3117 39.8560 0.0000 57.9232 0.0000
# 6 0.0000 0.0000 0.0000 -10.8835 0.0000 47.8609
#
#
#
# Elastic Compliance Matrix: (Units=1/GPa)
#
#
# Indices 1 2 3 4 5 6 
#
# 1 0.036484 -0.002224 -0.031229 0.000000 0.005396 0.000000
# 2 -0.002224 0.020013 0.000276 0.000000 -0.000346 0.000000
# 3 -0.031229 0.000276 0.040210 0.000000 -0.013800 0.000000
# 4 0.000000 0.000000 0.000000 0.069623 0.000000 0.015832
# 5 0.005396 -0.000346 -0.013800 0.000000 0.024381 0.000000
# 6 0.000000 0.000000 0.000000 0.015832 0.000000 0.024494
#
#
# Mechanical properties :
#
#
# Convention : Reuss Voigt Hill
#
# Bulk Modulus (GPa) = 32.94337 49.87170 41.40754
# Shear Modulus (GPa) = 17.14223 34.35609 25.74916
#
# Velocity S-wave (km/s) = 2.67873 3.79225 3.28304
# Velocity P-wave (km/s) = 4.83293 6.32856 5.63063
#
# Compressibility (1/GPa) = 0.03035512
#
# Stress axis : x y z
#
# Youngs Moduli (GPa) = 27.40892 49.96694 24.86923
#
# Poissons Ratio (x) = 0.11112 0.77664
# Poissons Ratio (y) = 0.06095 -0.00688
# Poissons Ratio (z) = 0.85596 -0.01381
#
# Static dielectric constant tensor:
#      x y z
#    x 2.064530 0.000000 0.015000 
#    y 0.000000 2.375130 0.000000 
#    z 0.015000 0.000000 1.934280 
# 
# From -- ./inp_files/43761.got.cif
#   From: 2010.05.17/outbox.cif.g08.bks.cpg/sg14_22_cif.got.tgz:43761.got - 2010.06.03 17:49:19.
