data_PCOD9248077
_publ_section_title
;
Structure prediction by ZEFSAII (Michael W. Deem and Ramdas Pophale) SiO2 
 PCOD9248077
Probable space group: P 21/C
;
_chemical_formula_sum "Si O2"
_cell_formula_units_Z 32
_cell_length_a 12.616322
_cell_length_b 19.840035
_cell_length_c 11.679344
_cell_angle_alpha 90.000000
_cell_angle_beta 31.437656
_cell_angle_gamma 90.000000
_cell_volume 1524.778154
_symmetry_space_group_name_H-M "P 21/C"
_symmetry_group_IT_number 14
_symmetry_cell_setting 'monoclinic'
loop_
_space_group_symop_operation_xyz
x,y,z
-x,1/2+y,1/2-z
-x,-y,-z
x,1/2-y,1/2+z
loop_
_atom_site_type_symbol
_atom_site_label
_atom_site_fract_x
_atom_site_fract_y
_atom_site_fract_z
Si Si1 0.322205 0.112471 0.520221
Si Si2 0.775314 0.876043 0.969953
Si Si3 0.026397 0.164711 0.430991
Si Si4 0.357525 0.422828 0.747810
Si Si5 0.736994 0.427099 0.737781
Si Si6 0.933440 0.684084 0.562743
Si Si7 0.622761 0.081254 0.774841
Si Si8 0.985238 0.003950 0.193675
O O1 0.421890 0.117847 0.302887
O O2 0.499472 0.080067 0.434730
O O3 0.220945 0.170585 0.689402
O O4 0.131858 0.063490 0.666938
O O5 0.833521 0.849378 0.041447
O O6 0.541248 0.891975 0.165138
O O7 0.856183 0.826754 0.797683
O O8 0.895464 0.946449 0.833335
O O9 0.155727 0.112615 0.387115
O O10 0.020266 0.237631 0.494689
O O11 0.811789 0.130856 0.603915
O O12 0.330174 0.502872 0.794521
O O13 0.519367 0.417232 0.495886
O O14 0.840588 0.481352 0.557120
O O15 0.858674 0.357337 0.606004
O O16 0.809772 0.452070 0.794444
#
# Coordination Sequence:
#
# PCOD9248077 Si02
#       8
#     4   4   4   4   4   4   4   4
#     4  11  21  36  63  93 128 167 203 257 317 368
#     4  10  22  41  64  91 125 163 212 259 312 380
#     4  11  24  43  63  86 125 171 207 261 318 366
#     4  10  23  39  65  98 126 158 214 268 309 373
#     4   9  19  35  57  90 125 164 204 249 306 373
#     4  10  25  41  59  91 129 166 211 260 310 383
#     4  10  22  43  68  95 121 167 215 262 318 378
#     4   9  18  34  58  92 128 156 202 259 306 365
#
# _framework density 20.986661000000002
#
# number of rings (size 3 to 8) (size 9 to 14) (size 15 to 20)
#    0.000    2.000    0.000    3.000    1.750    9.000 
#    0.000    0.000    0.000    0.000    0.000    0.000 
#    0.000    0.000    0.000    0.000    0.000    0.000 
#
# Total GULP energy -178586.634147 kJ/mol
# GULP energy per Si atom -5580.832317 kJ/mol
# Density = 2.093889 g / cm^3
# Si number density = 20.986661 Si / 1000 Ang^3
#
#
#
# Elastic Constant Matrix: (Units=GPa)
#
#
# Indices 1 2 3 4 5 6 
#
# 1 80.0968 39.8540 26.4889 0.0000 -7.6045 0.0000
# 2 39.8540 108.9591 45.1065 0.0000 -15.9404 0.0000
# 3 26.4889 45.1065 56.6844 0.0000 -19.0461 0.0000
# 4 0.0000 0.0000 0.0000 19.8675 0.0000 4.5678
# 5 -7.6045 -15.9404 -19.0461 0.0000 29.1690 0.0000
# 6 0.0000 0.0000 0.0000 4.5678 0.0000 18.8720
#
#
#
# Elastic Compliance Matrix: (Units=1/GPa)
#
#
# Indices 1 2 3 4 5 6 
#
# 1 0.015925 -0.004103 -0.004528 0.000000 -0.001048 0.000000
# 2 -0.004103 0.014749 -0.009570 0.000000 0.000742 0.000000
# 3 -0.004528 -0.009570 0.032307 0.000000 0.014685 0.000000
# 4 0.000000 0.000000 0.000000 0.053300 0.000000 -0.012901
# 5 -0.001048 0.000742 0.014685 0.000000 0.044004 0.000000
# 6 0.000000 0.000000 0.000000 -0.012901 0.000000 0.056111
#
#
# Mechanical properties :
#
#
# Convention : Reuss Voigt Hill
#
# Bulk Modulus (GPa) = 37.62584 52.07099 44.84841
# Shear Modulus (GPa) = 19.10903 22.53443 20.82173
#
# Velocity S-wave (km/s) = 3.02078 3.28037 3.15324
# Velocity P-wave (km/s) = 5.48946 6.26203 5.88843
#
# Compressibility (1/GPa) = 0.02657748
#
# Stress axis : x y z
#
# Youngs Moduli (GPa) = 62.79526 67.80250 30.95329
#
# Poissons Ratio (x) = 0.27822 0.14017
# Poissons Ratio (y) = 0.25767 0.29621
# Poissons Ratio (z) = 0.28437 0.64884
#
# Static dielectric constant tensor:
#      x y z
#    x 1.772320 0.000000 0.051590 
#    y 0.000000 1.758750 0.000000 
#    z 0.051590 0.000000 1.786160 
# 
# From -- ./inp_files/30717.got.cif
#   From: 2010.05.17/outbox.cif.g08.bks.cpg/sg14_16_cif.got.tgz:30717.got - 2010.06.03 17:49:19.
