data_PCOD9248262
_publ_section_title
;
Structure prediction by ZEFSAII (Michael W. Deem and Ramdas Pophale) SiO2 
 PCOD9248262
Probable space group: P 21/C
;
_chemical_formula_sum "Si O2"
_cell_formula_units_Z 16
_cell_length_a 11.299906
_cell_length_b 9.353781
_cell_length_c 13.068591
_cell_angle_alpha 90.000000
_cell_angle_beta 153.823582
_cell_angle_gamma 90.000000
_cell_volume 609.345778
_symmetry_space_group_name_H-M "P 21/C"
_symmetry_group_IT_number 14
_symmetry_cell_setting 'monoclinic'
loop_
_space_group_symop_operation_xyz
x,y,z
-x,1/2+y,1/2-z
-x,-y,-z
x,1/2-y,1/2+z
loop_
_atom_site_type_symbol
_atom_site_label
_atom_site_fract_x
_atom_site_fract_y
_atom_site_fract_z
Si Si1 0.098499 0.303984 0.007487
Si Si2 0.858572 0.928221 0.246825
Si Si3 0.428524 0.893949 0.598932
Si Si4 0.553286 0.195188 0.624934
O O1 0.929232 0.402504 0.796778
O O2 0.867735 0.214682 0.885244
O O3 0.334792 0.195356 0.164307
O O4 0.202619 0.405547 0.179716
O O5 0.136523 0.862641 0.418628
O O6 0.618925 0.841336 0.008028
O O7 0.460307 0.855557 0.504180
O O8 0.462271 0.065615 0.626944
#
# Coordination Sequence:
#
# PCOD9248262 Si02
#       4
#     4   4   4   4
#     4  10  22  42  61  92 126 162 212 263 313 382
#     4  10  23  39  62  94 123 165 212 259 318 379
#     4  10  23  39  62  94 123 165 212 259 318 379
#     4  10  22  42  61  92 126 162 212 263 313 382
#
# _framework density 26.257669
#
# number of rings (size 3 to 8) (size 9 to 14) (size 15 to 20)
#    0.000    2.000    0.000    1.500    7.000    0.000 
#    0.000    0.000    0.000    0.000    0.000    0.000 
#    0.000    0.000    0.000    0.000    0.000    0.000 
#
# Total GULP energy -89318.791252 kJ/mol
# GULP energy per Si atom -5582.424453 kJ/mol
# Density = 2.619791 g / cm^3
# Si number density = 26.257669 Si / 1000 Ang^3
#
#
#
# Elastic Constant Matrix: (Units=GPa)
#
#
# Indices 1 2 3 4 5 6 
#
# 1 85.0750 31.5521 28.1497 0.0000 3.6963 0.0000
# 2 31.5521 141.9513 62.3009 0.0000 4.8910 0.0000
# 3 28.1497 62.3009 116.6083 0.0000 49.6916 0.0000
# 4 0.0000 0.0000 0.0000 56.5156 0.0000 9.3294
# 5 3.6963 4.8910 49.6916 0.0000 53.9528 0.0000
# 6 0.0000 0.0000 0.0000 9.3294 0.0000 33.9875
#
#
#
# Elastic Compliance Matrix: (Units=1/GPa)
#
#
# Indices 1 2 3 4 5 6 
#
# 1 0.013353 -0.001561 -0.003391 0.000000 0.002350 0.000000
# 2 -0.001561 0.010781 -0.008250 0.000000 0.006728 0.000000
# 3 -0.003391 -0.008250 0.022032 0.000000 -0.019311 0.000000
# 4 0.000000 0.000000 0.000000 0.018534 0.000000 -0.005087
# 5 0.002350 0.006728 -0.019311 0.000000 0.035550 0.000000
# 6 0.000000 0.000000 0.000000 -0.005087 0.000000 0.030819
#
#
# Mechanical properties :
#
#
# Convention : Reuss Voigt Hill
#
# Bulk Modulus (GPa) = 50.60388 65.29333 57.94860
# Shear Modulus (GPa) = 30.47668 43.66664 37.07166
#
# Velocity S-wave (km/s) = 3.41057 4.08242 3.76152
# Velocity P-wave (km/s) = 5.90112 6.86600 6.40176
#
# Compressibility (1/GPa) = 0.01976133
#
# Stress axis : x y z
#
# Youngs Moduli (GPa) = 74.88904 92.75796 45.38919
#
# Poissons Ratio (x) = 0.14477 0.15391
# Poissons Ratio (y) = 0.11688 0.37448
# Poissons Ratio (z) = 0.25395 0.76529
#
# Static dielectric constant tensor:
#      x y z
#    x 2.047250 0.000000 -0.040380 
#    y 0.000000 2.086190 0.000000 
#    z -0.040380 0.000000 2.058240 
# 
# From -- ./inp_files/36732.got.cif
#   From: 2010.05.17/outbox.cif.g08.bks.cpg/sg14_19_cif.got.tgz:36732.got - 2010.06.03 17:49:19.
