data_PCOD9248099
_publ_section_title
;
Structure prediction by ZEFSAII (Michael W. Deem and Ramdas Pophale) SiO2 
 PCOD9248099
Probable space group: P 21/C
;
_chemical_formula_sum "Si O2"
_cell_formula_units_Z 24
_cell_length_a 14.788128
_cell_length_b 8.256555
_cell_length_c 19.711535
_cell_angle_alpha 90.000000
_cell_angle_beta 24.830110
_cell_angle_gamma 90.000000
_cell_volume 1010.667903
_symmetry_space_group_name_H-M "P 21/C"
_symmetry_group_IT_number 14
_symmetry_cell_setting 'monoclinic'
loop_
_space_group_symop_operation_xyz
x,y,z
-x,1/2+y,1/2-z
-x,-y,-z
x,1/2-y,1/2+z
loop_
_atom_site_type_symbol
_atom_site_label
_atom_site_fract_x
_atom_site_fract_y
_atom_site_fract_z
Si Si1 0.108825 0.345478 0.961680
Si Si2 0.202776 0.695379 0.244235
Si Si3 0.033249 0.154531 0.890229
Si Si4 0.558926 0.764772 0.607863
Si Si5 0.556943 0.451144 0.697670
Si Si6 0.613175 0.824788 0.927954
O O1 0.006010 0.310645 0.106545
O O2 0.671649 0.250394 0.272773
O O3 0.000000 0.500000 0.000000
O O4 0.067946 0.182545 0.946421
O O5 0.131320 0.511585 0.295764
O O6 0.637872 0.877227 0.712329
O O7 0.400109 0.715164 0.057325
O O8 0.181169 0.295982 0.758223
O O9 0.780344 0.147481 0.045507
O O10 0.591217 0.626754 0.642129
O O11 0.538720 0.934683 0.660863
O O12 0.695827 0.725245 0.447564
O O13 0.500000 0.000000 0.000000
#
# Coordination Sequence:
#
# PCOD9248099 Si02
#       6
#     4   4   4   4   4   4
#     4  12  22  42  69 100 138 184 230 283 347 403
#     4  10  22  41  65 100 128 177 235 271 344 397
#     4  12  23  41  72  98 136 182 225 292 338 419
#     4  10  24  41  65  99 133 174 230 277 341 410
#     4  12  23  42  66 102 137 177 233 284 341 408
#     4  10  22  45  68  98 138 180 229 277 358 415
#
# _framework density 23.746673000000001
#
# number of rings (size 3 to 8) (size 9 to 14) (size 15 to 20)
#    1.000    0.000    3.333    4.000    2.333    0.000 
#    0.000   11.667    0.000    0.000    0.000    0.000 
#    0.000    0.000    0.000    0.000    0.000    0.000 
#
# Total GULP energy -133665.819087 kJ/mol
# GULP energy per Si atom -5569.409129 kJ/mol
# Density = 2.369262 g / cm^3
# Si number density = 23.746673 Si / 1000 Ang^3
#
#
#
# Elastic Constant Matrix: (Units=GPa)
#
#
# Indices 1 2 3 4 5 6 
#
# 1 48.8304 3.1207 28.8571 0.0000 -3.3253 0.0000
# 2 3.1207 63.5061 26.1209 0.0000 -14.5050 0.0000
# 3 28.8571 26.1209 113.7134 0.0000 -27.2452 0.0000
# 4 0.0000 0.0000 0.0000 44.5437 0.0000 -6.1998
# 5 -3.3253 -14.5050 -27.2452 0.0000 49.9013 0.0000
# 6 0.0000 0.0000 0.0000 -6.1998 0.0000 32.5569
#
#
#
# Elastic Compliance Matrix: (Units=1/GPa)
#
#
# Indices 1 2 3 4 5 6 
#
# 1 0.024350 0.001230 -0.006889 0.000000 -0.001781 0.000000
# 2 0.001230 0.017939 -0.003640 0.000000 0.003309 0.000000
# 3 -0.006889 -0.003640 0.012673 0.000000 0.005402 0.000000
# 4 0.000000 0.000000 0.000000 0.023061 0.000000 0.004392
# 5 -0.001781 0.003309 0.005402 0.000000 0.023832 0.000000
# 6 0.000000 0.000000 0.000000 0.004392 0.000000 0.031552
#
#
# Mechanical properties :
#
#
# Convention : Reuss Voigt Hill
#
# Bulk Modulus (GPa) = 27.49936 38.02748 32.76342
# Shear Modulus (GPa) = 30.46454 36.59711 33.53083
#
# Velocity S-wave (km/s) = 3.58564 3.93000 3.76176
# Velocity P-wave (km/s) = 5.36170 6.05325 5.71794
#
# Compressibility (1/GPa) = 0.03636449
#
# Stress axis : x y z
#
# Youngs Moduli (GPa) = 41.06772 55.74424 78.91069
#
# Poissons Ratio (x) = -0.06857 0.54358
# Poissons Ratio (y) = -0.05051 0.28724
# Poissons Ratio (z) = 0.28290 0.20291
#
# Static dielectric constant tensor:
#      x y z
#    x 1.972020 0.000000 0.022520 
#    y 0.000000 1.980520 0.000000 
#    z 0.022520 0.000000 2.022980 
# 
# From -- ./inp_files/74138.got.cif
#   From: 2010.05.17/outbox.cif.g08.bks.cpg/sg14_38_cif.got.tgz:74138.got - 2010.06.03 17:49:19.
