data_PCOD9248602
_publ_section_title
;
Structure prediction by ZEFSAII (Michael W. Deem and Ramdas Pophale) SiO2 
 PCOD9248602
Probable space group: P 21/C
;
_chemical_formula_sum "Si O2"
_cell_formula_units_Z 28
_cell_length_a 5.253009
_cell_length_b 27.553119
_cell_length_c 8.623522
_cell_angle_alpha 90.000000
_cell_angle_beta 67.314030
_cell_angle_gamma 90.000000
_cell_volume 1151.575362
_symmetry_space_group_name_H-M "P 21/C"
_symmetry_group_IT_number 14
_symmetry_cell_setting 'monoclinic'
loop_
_space_group_symop_operation_xyz
x,y,z
-x,1/2+y,1/2-z
-x,-y,-z
x,1/2-y,1/2+z
loop_
_atom_site_type_symbol
_atom_site_label
_atom_site_fract_x
_atom_site_fract_y
_atom_site_fract_z
Si Si1 0.168146 0.056143 0.886890
Si Si2 0.454128 0.593963 0.449589
Si Si3 0.057544 0.114479 0.380031
Si Si4 0.270569 0.807924 0.143020
Si Si5 0.812409 0.015395 0.394011
Si Si6 0.705444 0.201205 0.491148
Si Si7 0.225895 0.361812 0.156725
O O1 0.862554 0.077394 0.993578
O O2 0.370794 0.056197 0.985880
O O3 0.326673 0.095322 0.740045
O O4 0.120985 0.010306 0.786352
O O5 0.443075 0.647394 0.533197
O O6 0.642582 0.601062 0.254408
O O7 0.855113 0.072865 0.367131
O O8 0.958120 0.169172 0.365750
O O9 0.041947 0.112194 0.570007
O O10 0.312699 0.756134 0.056311
O O11 0.300335 0.801416 0.320597
O O12 0.954326 0.825266 0.198808
O O13 0.500000 0.000000 0.500000
O O14 0.000000 0.000000 0.500000
O O15 0.439449 0.169771 0.510676
#
# Coordination Sequence:
#
# PCOD9248602 Si02
#       7
#     4   4   4   4   4   4   4
#     4  11  23  46  71 100 141 186 226 290 346 418
#     4  11  26  45  69 102 148 178 230 290 361 403
#     4  11  27  43  68 106 135 185 233 297 341 426
#     4  10  25  40  65  96 133 188 224 291 343 422
#     4  12  25  43  78 104 138 185 241 283 355 416
#     4  11  24  43  67  95 139 179 243 279 353 411
#     4  10  22  43  66  94 137 179 234 283 345 411
#
# _framework density 24.314520000000002
#
# number of rings (size 3 to 8) (size 9 to 14) (size 15 to 20)
#    0.000    1.143    2.857    1.714    8.000    3.429 
#    0.000    0.000    0.000    0.000    0.000    0.000 
#    0.000    0.000    0.000    0.000    0.000    0.000 
#
# Total GULP energy -156579.294704 kJ/mol
# GULP energy per Si atom -5592.117668 kJ/mol
# Density = 2.425918 g / cm^3
# Si number density = 24.314520 Si / 1000 Ang^3
#
#
#
# Elastic Constant Matrix: (Units=GPa)
#
#
# Indices 1 2 3 4 5 6 
#
# 1 100.3185 21.7398 23.8358 0.0000 -11.1155 0.0000
# 2 21.7398 134.9631 41.4201 0.0000 6.7539 0.0000
# 3 23.8358 41.4201 79.6824 0.0000 -14.8227 0.0000
# 4 0.0000 0.0000 0.0000 50.6521 0.0000 0.6356
# 5 -11.1155 6.7539 -14.8227 0.0000 41.8429 0.0000
# 6 0.0000 0.0000 0.0000 0.6356 0.0000 28.3913
#
#
#
# Elastic Compliance Matrix: (Units=1/GPa)
#
#
# Indices 1 2 3 4 5 6 
#
# 1 0.011019 -0.001205 -0.002236 0.000000 0.002329 0.000000
# 2 -0.001205 0.009384 -0.005201 0.000000 -0.003677 0.000000
# 3 -0.002236 -0.005201 0.017095 0.000000 0.006301 0.000000
# 4 0.000000 0.000000 0.000000 0.019748 0.000000 -0.000442
# 5 0.002329 -0.003677 0.006301 0.000000 0.027343 0.000000
# 6 0.000000 0.000000 0.000000 -0.000442 0.000000 0.035232
#
#
# Mechanical properties :
#
#
# Convention : Reuss Voigt Hill
#
# Bulk Modulus (GPa) = 49.47650 54.32838 51.90244
# Shear Modulus (GPa) = 34.75982 39.37514 37.06748
#
# Velocity S-wave (km/s) = 3.78510 4.02855 3.90872
# Velocity P-wave (km/s) = 6.28453 6.63562 6.46246
#
# Compressibility (1/GPa) = 0.02021162
#
# Stress axis : x y z
#
# Youngs Moduli (GPa) = 90.75333 106.56533 58.49744
#
# Poissons Ratio (x) = 0.12843 0.13082
# Poissons Ratio (y) = 0.10937 0.30427
# Poissons Ratio (z) = 0.20296 0.55430
#
# Static dielectric constant tensor:
#      x y z
#    x 2.031760 0.000000 -0.002550 
#    y 0.000000 1.932970 0.000000 
#    z -0.002550 0.000000 1.961610 
# 
# From -- ./inp_files/6891.got.cif
#   From: 2010.05.17/outbox.cif.g08.bks.cpg/sg14_4_cif.got.tgz:6891.got - 2010.06.03 17:49:19.
