data_PCOD9248761
_publ_section_title
;
Structure prediction by ZEFSAII (Michael W. Deem and Ramdas Pophale) SiO2 
 PCOD9248761
Probable space group: P 21/C
;
_chemical_formula_sum "Si O2"
_cell_formula_units_Z 16
_cell_length_a 7.805673
_cell_length_b 16.938254
_cell_length_c 7.406609
_cell_angle_alpha 90.000000
_cell_angle_beta 62.526140
_cell_angle_gamma 90.000000
_cell_volume 868.821228
_symmetry_space_group_name_H-M "P 21/C"
_symmetry_group_IT_number 14
_symmetry_cell_setting 'monoclinic'
loop_
_space_group_symop_operation_xyz
x,y,z
-x,1/2+y,1/2-z
-x,-y,-z
x,1/2-y,1/2+z
loop_
_atom_site_type_symbol
_atom_site_label
_atom_site_fract_x
_atom_site_fract_y
_atom_site_fract_z
Si Si1 0.477734 0.585833 0.422001
Si Si2 0.190342 0.364297 0.974041
Si Si3 0.029400 0.916914 0.086169
Si Si4 0.797555 0.814428 0.918447
O O1 0.500000 0.500000 0.500000
O O2 0.255278 0.601657 0.492866
O O3 0.583797 0.647774 0.503866
O O4 0.607966 0.594258 0.177972
O O5 0.218964 0.278922 0.051925
O O6 0.061896 0.415989 0.169355
O O7 0.105406 0.342830 0.817327
O O8 0.915727 0.852822 0.022713
O O9 0.000000 0.000000 0.000000
#
# Coordination Sequence:
#
# PCOD9248761 Si02
#       4
#     4   4   4   4
#     4  10  23  41  63  96 123 162 212 251 309 373
#     4  10  23  44  63  91 129 160 207 262 300 377
#     4  12  22  41  67  92 125 168 202 258 317 357
#     4  10  22  44  62  92 129 157 212 257 303 375
#
# _framework density 18.415756999999999
#
# number of rings (size 3 to 8) (size 9 to 14) (size 15 to 20)
#    1.500    0.000    5.000    0.000    0.000    7.000 
#    4.500    0.000    0.000    0.000    0.000    0.000 
#    0.000    0.000    0.000    0.000    0.000    0.000 
#
# Total GULP energy -89089.328141 kJ/mol
# GULP energy per Si atom -5568.083009 kJ/mol
# Density = 1.837384 g / cm^3
# Si number density = 18.415757 Si / 1000 Ang^3
#
#
#
# Elastic Constant Matrix: (Units=GPa)
#
#
# Indices 1 2 3 4 5 6 
#
# 1 107.1424 7.6427 45.4837 0.0000 -5.8129 0.0000
# 2 7.6427 79.7528 32.4393 0.0000 3.6492 0.0000
# 3 45.4837 32.4393 159.8225 0.0000 -2.4981 0.0000
# 4 0.0000 0.0000 0.0000 36.5017 0.0000 5.6819
# 5 -5.8129 3.6492 -2.4981 0.0000 27.4952 0.0000
# 6 0.0000 0.0000 0.0000 5.6819 0.0000 2.5158
#
#
#
# Elastic Compliance Matrix: (Units=1/GPa)
#
#
# Indices 1 2 3 4 5 6 
#
# 1 0.010725 0.000121 -0.003046 0.000000 0.001975 0.000000
# 2 0.000121 0.013787 -0.002865 0.000000 -0.002065 0.000000
# 3 -0.003046 -0.002865 0.007712 0.000000 0.000437 0.000000
# 4 0.000000 0.000000 0.000000 0.042249 0.000000 -0.095419
# 5 0.001975 -0.002065 0.000437 0.000000 0.037101 0.000000
# 6 0.000000 0.000000 0.000000 -0.095419 0.000000 0.612997
#
#
# Mechanical properties :
#
#
# Convention : Reuss Voigt Hill
#
# Bulk Modulus (GPa) = 48.44057 57.53877 52.98967
# Shear Modulus (GPa) = 6.72918 30.71268 18.72093
#
# Velocity S-wave (km/s) = 1.91363 4.08823 3.19183
# Velocity P-wave (km/s) = 5.58960 7.32099 6.51308
#
# Compressibility (1/GPa) = 0.02064385
#
# Stress axis : x y z
#
# Youngs Moduli (GPa) = 93.24097 72.53225 129.66657
#
# Poissons Ratio (x) = -0.00876 0.39494
# Poissons Ratio (y) = -0.01126 0.37149
# Poissons Ratio (z) = 0.28400 0.20780
#
# Static dielectric constant tensor:
#      x y z
#    x 1.648280 0.000000 0.042060 
#    y 0.000000 1.628490 0.000000 
#    z 0.042060 0.000000 1.669800 
# 
# From -- ./inp_files/8128.got.cif
#   From: 2010.05.17/outbox.cif.g08.bks.cpg/sg14_5_cif.got.tgz:8128.got - 2010.06.03 17:49:19.
