data_PCOD9248333
_publ_section_title
;
Structure prediction by ZEFSAII (Michael W. Deem and Ramdas Pophale) SiO2 
 PCOD9248333
Probable space group: P 21/C
;
_chemical_formula_sum "Si O2"
_cell_formula_units_Z 32
_cell_length_a 11.447200
_cell_length_b 14.736403
_cell_length_c 15.602696
_cell_angle_alpha 90.000000
_cell_angle_beta 29.611419
_cell_angle_gamma 90.000000
_cell_volume 1300.524608
_symmetry_space_group_name_H-M "P 21/C"
_symmetry_group_IT_number 14
_symmetry_cell_setting 'monoclinic'
loop_
_space_group_symop_operation_xyz
x,y,z
-x,1/2+y,1/2-z
-x,-y,-z
x,1/2-y,1/2+z
loop_
_atom_site_type_symbol
_atom_site_label
_atom_site_fract_x
_atom_site_fract_y
_atom_site_fract_z
Si Si1 0.754431 0.007636 0.995761
Si Si2 0.298854 0.518296 0.882920
Si Si3 0.617865 0.333310 0.487594
Si Si4 0.558211 0.673179 0.804166
Si Si5 0.023429 0.886991 0.940478
Si Si6 0.122250 0.091236 0.254480
Si Si7 0.467588 0.325673 0.825839
Si Si8 0.947379 0.756429 0.826184
O O1 0.493554 0.964192 0.182781
O O2 0.710867 0.113916 0.012244
O O3 0.867800 0.974990 0.834136
O O4 0.924849 0.982410 0.965758
O O5 0.423016 0.578506 0.878833
O O6 0.317075 0.410615 0.884759
O O7 0.030095 0.553659 0.068218
O O8 0.522443 0.233159 0.565759
O O9 0.396608 0.391859 0.599661
O O10 0.853286 0.318668 0.283900
O O11 0.508434 0.740874 0.754895
O O12 0.835000 0.652392 0.627679
O O13 0.289532 0.868578 0.796580
O O14 0.974559 0.826564 0.886257
O O15 0.024563 0.186969 0.279606
O O16 0.311486 0.285789 0.002862
#
# Coordination Sequence:
#
# PCOD9248333 Si02
#       8
#     4   4   4   4   4   4   4   4
#     4  10  23  43  62  98 132 166 227 276 321 409
#     4  11  23  44  67  98 138 170 228 277 326 404
#     4  12  22  42  64  94 131 176 218 277 338 386
#     4  10  23  40  63  98 131 165 228 275 316 417
#     4   9  22  42  67  93 130 176 215 276 338 389
#     4  11  24  42  66  94 135 179 216 281 334 392
#     4  11  22  44  69  96 132 181 216 278 346 384
#     4  10  22  42  65  97 134 168 228 274 327 407
#
# _framework density 24.605454000000002
#
# number of rings (size 3 to 8) (size 9 to 14) (size 15 to 20)
#    0.000    1.500    2.500    2.625    1.750    2.500 
#    4.500    3.125    0.000    0.000    0.000    0.000 
#    0.000    0.000    0.000    0.000    0.000    0.000 
#
# Total GULP energy -178667.140291 kJ/mol
# GULP energy per Si atom -5583.348134 kJ/mol
# Density = 2.454945 g / cm^3
# Si number density = 24.605454 Si / 1000 Ang^3
#
#
#
# Elastic Constant Matrix: (Units=GPa)
#
#
# Indices 1 2 3 4 5 6 
#
# 1 44.6054 4.8394 10.7401 0.0000 -12.1505 0.0000
# 2 4.8394 74.6461 14.9006 0.0000 -4.7565 0.0000
# 3 10.7401 14.9006 126.7958 0.0000 -12.6310 0.0000
# 4 0.0000 0.0000 0.0000 41.4204 0.0000 -6.5467
# 5 -12.1505 -4.7565 -12.6310 0.0000 32.0936 0.0000
# 6 0.0000 0.0000 0.0000 -6.5467 0.0000 18.4230
#
#
#
# Elastic Compliance Matrix: (Units=1/GPa)
#
#
# Indices 1 2 3 4 5 6 
#
# 1 0.025231 -0.000835 -0.001145 0.000000 0.008978 0.000000
# 2 -0.000835 0.013812 -0.001436 0.000000 0.001166 0.000000
# 3 -0.001145 -0.001436 0.008418 0.000000 0.002667 0.000000
# 4 0.000000 0.000000 0.000000 0.025579 0.000000 0.009090
# 5 0.008978 0.001166 0.002667 0.000000 0.035780 0.000000
# 6 0.000000 0.000000 0.000000 0.009090 0.000000 0.057510
#
#
# Mechanical properties :
#
#
# Convention : Reuss Voigt Hill
#
# Bulk Modulus (GPa) = 24.61338 34.11193 29.36266
# Shear Modulus (GPa) = 26.78021 32.75853 29.76937
#
# Velocity S-wave (km/s) = 3.30265 3.65273 3.48209
# Velocity P-wave (km/s) = 4.95664 5.62882 5.30339
#
# Compressibility (1/GPa) = 0.04062831
#
# Stress axis : x y z
#
# Youngs Moduli (GPa) = 39.63439 72.40260 118.79167
#
# Poissons Ratio (x) = 0.06047 0.13597
# Poissons Ratio (y) = 0.03310 0.17061
# Poissons Ratio (z) = 0.04537 0.10399
#
# Static dielectric constant tensor:
#      x y z
#    x 1.964830 0.000000 0.012800 
#    y 0.000000 1.985060 0.000000 
#    z 0.012800 0.000000 2.003890 
# 
# From -- ./inp_files/68653.got.cif
#   From: 2010.05.17/outbox.cif.g08.bks.cpg/sg14_35_cif.got.tgz:68653.got - 2010.06.03 17:49:19.
