data_PCOD9248126
_publ_section_title
;
Structure prediction by ZEFSAII (Michael W. Deem and Ramdas Pophale) SiO2 
 PCOD9248126
Probable space group: P 21/C
;
_chemical_formula_sum "Si O2"
_cell_formula_units_Z 20
_cell_length_a 10.277300
_cell_length_b 10.465532
_cell_length_c 9.818214
_cell_angle_alpha 90.000000
_cell_angle_beta 44.456062
_cell_angle_gamma 90.000000
_cell_volume 739.597560
_symmetry_space_group_name_H-M "P 21/C"
_symmetry_group_IT_number 14
_symmetry_cell_setting 'monoclinic'
loop_
_space_group_symop_operation_xyz
x,y,z
-x,1/2+y,1/2-z
-x,-y,-z
x,1/2-y,1/2+z
loop_
_atom_site_type_symbol
_atom_site_label
_atom_site_fract_x
_atom_site_fract_y
_atom_site_fract_z
Si Si1 0.718513 0.994746 0.227921
Si Si2 0.007914 0.907781 0.214883
Si Si3 0.573632 0.250553 0.318759
Si Si4 0.039487 0.851146 0.572644
Si Si5 0.351835 0.276553 0.738125
O O1 0.615419 0.872718 0.244603
O O2 0.811482 0.925850 0.288111
O O3 0.644958 0.124793 0.345190
O O4 0.853079 0.041493 0.006503
O O5 0.009744 0.009109 0.334692
O O6 0.039133 0.755529 0.195558
O O7 0.437789 0.315500 0.528939
O O8 0.473181 0.171297 0.271155
O O9 0.755252 0.332927 0.144163
O O10 0.866651 0.807915 0.605376
#
# Coordination Sequence:
#
# PCOD9248126 Si02
#       5
#     4   4   4   4   4
#     4   9  19  38  64  89 124 174 221 254 314 396
#     4   9  18  38  67  92 124 172 213 263 322 378
#     4  11  23  39  65  94 124 167 217 265 317 382
#     4  10  22  41  65  96 133 168 216 268 319 382
#     4  11  23  40  66  93 126 171 215 263 324 381
#
# _framework density 27.041733000000001
#
# number of rings (size 3 to 8) (size 9 to 14) (size 15 to 20)
#    0.000    2.000    0.000    4.200    0.000    3.200 
#    0.000   11.000    0.000   51.600    0.000    0.000 
#    0.000    0.000    0.000    0.000    0.000    0.000 
#
# Total GULP energy -111691.852633 kJ/mol
# GULP energy per Si atom -5584.592632 kJ/mol
# Density = 2.698018 g / cm^3
# Si number density = 27.041733 Si / 1000 Ang^3
#
#
#
# Elastic Constant Matrix: (Units=GPa)
#
#
# Indices 1 2 3 4 5 6 
#
# 1 86.9534 2.8557 54.1507 0.0000 1.1074 0.0000
# 2 2.8557 102.8415 18.2396 0.0000 -6.1039 0.0000
# 3 54.1507 18.2396 172.6228 0.0000 -7.8635 0.0000
# 4 0.0000 0.0000 0.0000 15.0054 0.0000 29.5864
# 5 1.1074 -6.1039 -7.8635 0.0000 30.5058 0.0000
# 6 0.0000 0.0000 0.0000 29.5864 0.0000 4.4881
#
#
#
# Elastic Compliance Matrix: (Units=1/GPa)
#
#
# Indices 1 2 3 4 5 6 
#
# 1 0.014390 0.000322 -0.004623 0.000000 -0.001650 0.000000
# 2 0.000322 0.010008 -0.001081 0.000000 0.001712 0.000000
# 3 -0.004623 -0.001081 0.007443 0.000000 0.001870 0.000000
# 4 0.000000 0.000000 0.000000 -0.005555 0.000000 0.036616
# 5 -0.001650 0.001712 0.001870 0.000000 0.033665 0.000000
# 6 0.000000 0.000000 0.000000 0.036616 0.000000 -0.018571
#
#
# Mechanical properties :
#
#
# Convention : Reuss Voigt Hill
#
# Bulk Modulus (GPa) = 47.44319 56.98996 52.21657
# Shear Modulus (GPa) = 84.50327 29.14465 56.82396
#
# Velocity S-wave (km/s) = 5.59616 3.28650 4.58901
# Velocity P-wave (km/s) = 7.70315 5.96003 6.88696
#
# Compressibility (1/GPa) = 0.02107784
#
# Stress axis : x y z
#
# Youngs Moduli (GPa) = 69.49269 99.91973 134.36092
#
# Poissons Ratio (x) = -0.03222 0.62119
# Poissons Ratio (y) = -0.02241 0.14519
# Poissons Ratio (z) = 0.32128 0.10798
#
# Static dielectric constant tensor:
#      x y z
#    x 2.731180 0.000000 0.166940 
#    y 0.000000 2.396690 0.000000 
#    z 0.166940 0.000000 2.218180 
# 
# From -- ./inp_files/23932.got.cif
#   From: 2010.05.17/outbox.cif.g08.bks.cpg/sg14_12_cif.got.tgz:23932.got - 2010.06.03 17:49:19.
