data_PCOD9248472
_publ_section_title
;
Structure prediction by ZEFSAII (Michael W. Deem and Ramdas Pophale) SiO2 
 PCOD9248472
Probable space group: P 21/C
;
_chemical_formula_sum "Si O2"
_cell_formula_units_Z 28
_cell_length_a 13.036613
_cell_length_b 9.018484
_cell_length_c 19.613839
_cell_angle_alpha 90.000000
_cell_angle_beta 30.000499
_cell_angle_gamma 90.000000
_cell_volume 1153.021682
_symmetry_space_group_name_H-M "P 21/C"
_symmetry_group_IT_number 14
_symmetry_cell_setting 'monoclinic'
loop_
_space_group_symop_operation_xyz
x,y,z
-x,1/2+y,1/2-z
-x,-y,-z
x,1/2-y,1/2+z
loop_
_atom_site_type_symbol
_atom_site_label
_atom_site_fract_x
_atom_site_fract_y
_atom_site_fract_z
Si Si1 0.475010 0.139300 0.329787
Si Si2 0.090158 0.664920 0.447621
Si Si3 0.224535 0.659342 0.632792
Si Si4 0.199813 0.160069 0.284447
Si Si5 0.488674 0.098496 0.573238
Si Si6 0.969991 0.866982 0.395254
Si Si7 0.464784 0.067523 0.922457
O O1 0.670674 0.157761 0.169073
O O2 0.243387 0.104970 0.443230
O O3 0.435670 0.296410 0.389528
O O4 0.531426 0.009718 0.350783
O O5 0.000000 0.500000 0.500000
O O6 0.941950 0.760680 0.579578
O O7 0.086574 0.748901 0.376438
O O8 0.307149 0.800528 0.544043
O O9 0.399289 0.630663 0.591973
O O10 0.259583 0.513922 0.566531
O O11 0.009985 0.687074 0.794561
O O12 0.297582 0.288586 0.182365
O O13 0.397986 0.061385 0.191702
O O14 0.063132 0.030335 0.332875
O O15 0.500000 0.000000 0.500000
#
# Coordination Sequence:
#
# PCOD9248472 Si02
#       7
#     4   4   4   4   4   4   4
#     4  12  24  40  67  99 130 173 230 271 324 400
#     4  12  24  46  66  90 130 175 222 281 334 383
#     4   9  18  37  61  89 129 168 204 260 332 388
#     4  10  22  42  70  88 128 179 213 267 343 393
#     4  11  20  38  67  96 132 174 212 267 331 399
#     4  11  25  42  65  99 130 173 227 276 329 396
#     4   9  18  37  65  91 121 169 213 259 335 394
#
# _framework density 24.284016999999999
#
# number of rings (size 3 to 8) (size 9 to 14) (size 15 to 20)
#    0.000    1.429    5.714    1.286    0.000    2.286 
#    0.000    1.429    0.000    0.000    0.000    0.000 
#    0.000    0.000    0.000    0.000    0.000    0.000 
#
# Total GULP energy -156271.344114 kJ/mol
# GULP energy per Si atom -5581.119433 kJ/mol
# Density = 2.422875 g / cm^3
# Si number density = 24.284017 Si / 1000 Ang^3
#
#
#
# Elastic Constant Matrix: (Units=GPa)
#
#
# Indices 1 2 3 4 5 6 
#
# 1 16.4117 9.7073 12.6367 0.0000 -8.5115 0.0000
# 2 9.7073 140.0684 45.2781 0.0000 9.3638 0.0000
# 3 12.6367 45.2781 177.4297 0.0000 2.6068 0.0000
# 4 0.0000 0.0000 0.0000 52.8760 0.0000 0.6439
# 5 -8.5115 9.3638 2.6068 0.0000 23.2025 0.0000
# 6 0.0000 0.0000 0.0000 0.6439 0.0000 10.9020
#
#
#
# Elastic Compliance Matrix: (Units=1/GPa)
#
#
# Indices 1 2 3 4 5 6 
#
# 1 0.087051 -0.006776 -0.004988 0.000000 0.035228 0.000000
# 2 -0.006776 0.008512 -0.001605 0.000000 -0.005740 0.000000
# 3 -0.004988 -0.001605 0.006429 0.000000 -0.001904 0.000000
# 4 0.000000 0.000000 0.000000 0.018926 0.000000 -0.001118
# 5 0.035228 -0.005740 -0.001904 0.000000 0.058552 0.000000
# 6 0.000000 0.000000 0.000000 -0.001118 0.000000 0.091792
#
#
# Mechanical properties :
#
#
# Convention : Reuss Voigt Hill
#
# Bulk Modulus (GPa) = 13.28845 52.12821 32.70833
# Shear Modulus (GPa) = 15.47583 35.14861 25.31222
#
# Velocity S-wave (km/s) = 2.52719 3.80859 3.23203
# Velocity P-wave (km/s) = 3.74160 6.39165 5.23702
#
# Compressibility (1/GPa) = 0.07525331
#
# Stress axis : x y z
#
# Youngs Moduli (GPa) = 11.48753 117.48735 155.54735
#
# Poissons Ratio (x) = 0.79604 0.77593
# Poissons Ratio (y) = 0.07783 0.24968
# Poissons Ratio (z) = 0.05730 0.18859
#
# Static dielectric constant tensor:
#      x y z
#    x 2.044420 0.000000 0.009190 
#    y 0.000000 1.740200 0.000000 
#    z 0.009190 0.000000 2.122350 
# 
# From -- ./inp_files/68309.got.cif
#   From: 2010.05.17/outbox.cif.g08.bks.cpg/sg14_35_cif.got.tgz:68309.got - 2010.06.03 17:49:19.
