data_PCOD9248654
_publ_section_title
;
Structure prediction by ZEFSAII (Michael W. Deem and Ramdas Pophale) SiO2 
 PCOD9248654
Probable space group: P 21/C
;
_chemical_formula_sum "Si O2"
_cell_formula_units_Z 32
_cell_length_a 5.470879
_cell_length_b 8.802734
_cell_length_c 28.622753
_cell_angle_alpha 90.000000
_cell_angle_beta 85.535657
_cell_angle_gamma 90.000000
_cell_volume 1374.252149
_symmetry_space_group_name_H-M "P 21/C"
_symmetry_group_IT_number 14
_symmetry_cell_setting 'monoclinic'
loop_
_space_group_symop_operation_xyz
x,y,z
-x,1/2+y,1/2-z
-x,-y,-z
x,1/2-y,1/2+z
loop_
_atom_site_type_symbol
_atom_site_label
_atom_site_fract_x
_atom_site_fract_y
_atom_site_fract_z
Si Si1 0.616415 0.593678 0.833750
Si Si2 0.218840 0.620775 0.989471
Si Si3 0.466060 0.902416 0.578137
Si Si4 0.007851 0.917576 0.951399
Si Si5 0.847333 0.134950 0.721695
Si Si6 0.698006 0.633277 0.623492
Si Si7 0.935785 0.466648 0.698997
Si Si8 0.317937 0.108169 0.119976
O O1 0.664476 0.476173 0.875178
O O2 0.379611 0.565503 0.804451
O O3 0.538660 0.751858 0.860392
O O4 0.874117 0.608042 0.802362
O O5 0.418330 0.534030 0.955319
O O6 0.137093 0.759754 0.959032
O O7 0.304275 0.676922 0.039954
O O8 0.000000 0.500000 0.000000
O O9 0.668105 0.795509 0.599774
O O10 0.745312 0.878093 0.933058
O O11 0.144487 0.030420 0.914163
O O12 0.000000 0.000000 0.000000
O O13 0.810198 0.319431 0.725420
O O14 0.868978 0.046025 0.770123
O O15 0.786510 0.601513 0.675183
O O16 0.432890 0.554933 0.626299
O O17 0.070630 0.386511 0.653630
#
# Coordination Sequence:
#
# PCOD9248654 Si02
#       8
#     4   4   4   4   4   4   4   4
#     4  11  25  45  70 101 137 186 226 282 353 407
#     4  11  24  42  65  95 138 175 233 285 341 412
#     4  11  26  40  65 100 131 183 226 287 343 411
#     4  11  23  40  67  96 133 180 223 286 344 411
#     4  11  26  45  73 101 139 181 231 285 352 413
#     4  11  23  43  65  95 137 172 232 279 347 415
#     4  10  25  44  67 102 134 176 227 284 343 417
#     4  10  22  43  68  93 131 178 224 280 341 412
#
# _framework density 23.285392999999999
#
# number of rings (size 3 to 8) (size 9 to 14) (size 15 to 20)
#    0.000    1.250    1.250    3.000    8.750    6.000 
#    0.000    0.000    0.000    0.000    0.000    0.000 
#    0.000    0.000    0.000    0.000    0.000    0.000 
#
# Total GULP energy -178501.186428 kJ/mol
# GULP energy per Si atom -5578.162076 kJ/mol
# Density = 2.323239 g / cm^3
# Si number density = 23.285393 Si / 1000 Ang^3
#
#
#
# Elastic Constant Matrix: (Units=GPa)
#
#
# Indices 1 2 3 4 5 6 
#
# 1 64.9103 -8.9730 22.7522 0.0000 21.6975 0.0000
# 2 -8.9730 43.1915 21.7020 0.0000 7.2804 0.0000
# 3 22.7522 21.7020 96.4734 0.0000 36.4750 0.0000
# 4 0.0000 0.0000 0.0000 30.5409 0.0000 6.1786
# 5 21.6975 7.2804 36.4750 0.0000 45.6305 0.0000
# 6 0.0000 0.0000 0.0000 6.1786 0.0000 28.4809
#
#
#
# Elastic Compliance Matrix: (Units=1/GPa)
#
#
# Indices 1 2 3 4 5 6 
#
# 1 0.020305 0.007272 -0.003347 0.000000 -0.008140 0.000000
# 2 0.007272 0.028726 -0.007362 0.000000 -0.002157 0.000000
# 3 -0.003347 -0.007362 0.016861 0.000000 -0.010712 0.000000
# 4 0.000000 0.000000 0.000000 0.034246 0.000000 -0.007429
# 5 -0.008140 -0.002157 -0.010712 0.000000 0.034692 0.000000
# 6 0.000000 0.000000 0.000000 -0.007429 0.000000 0.036723
#
#
# Mechanical properties :
#
#
# Convention : Reuss Voigt Hill
#
# Bulk Modulus (GPa) = 16.94359 30.61526 23.77943
# Shear Modulus (GPa) = 25.23982 32.20340 28.72161
#
# Velocity S-wave (km/s) = 3.29589 3.72289 3.51588
# Velocity P-wave (km/s) = 4.66649 5.62639 5.16877
#
# Compressibility (1/GPa) = 0.05901938
#
# Stress axis : x y z
#
# Youngs Moduli (GPa) = 49.24798 34.81164 59.30885
#
# Poissons Ratio (x) = -0.25316 0.19851
# Poissons Ratio (y) = -0.35815 0.43661
# Poissons Ratio (z) = 0.16484 0.25627
#
# Static dielectric constant tensor:
#      x y z
#    x 1.818350 0.000000 0.050620 
#    y 0.000000 1.916930 0.000000 
#    z 0.050620 0.000000 1.902390 
# 
# From -- ./inp_files/78813.got.cif
#   From: 2010.05.17/outbox.cif.g08.bks.cpg/sg14_40_cif.got.tgz:78813.got - 2010.06.03 17:49:19.
