data_PCOD9248808
_publ_section_title
;
Structure prediction by ZEFSAII (Michael W. Deem and Ramdas Pophale) SiO2 
 PCOD9248808
Probable space group: P 21/C
;
_chemical_formula_sum "Si O2"
_cell_formula_units_Z 22
_cell_length_a 11.726666
_cell_length_b 12.362973
_cell_length_c 13.378435
_cell_angle_alpha 90.000000
_cell_angle_beta 31.183850
_cell_angle_gamma 90.000000
_cell_volume 1004.275801
_symmetry_space_group_name_H-M "P 21/C"
_symmetry_group_IT_number 14
_symmetry_cell_setting 'monoclinic'
loop_
_space_group_symop_operation_xyz
x,y,z
-x,1/2+y,1/2-z
-x,-y,-z
x,1/2-y,1/2+z
loop_
_atom_site_type_symbol
_atom_site_label
_atom_site_fract_x
_atom_site_fract_y
_atom_site_fract_z
Si Si1 0.424224 0.885240 0.104573
Si Si2 0.886004 0.913086 0.810357
Si Si3 0.656474 0.554360 0.800325
Si Si4 0.000000 0.500000 0.000000
Si Si5 0.123783 0.898414 0.021230
Si Si6 0.692034 0.221222 0.486253
O O1 0.371209 0.798852 0.058566
O O2 0.651019 0.852648 0.989239
O O3 0.209891 0.915123 0.328337
O O4 0.500000 0.000000 0.000000
O O5 0.082075 0.840853 0.706918
O O6 0.950453 0.949587 0.650053
O O7 0.871239 0.019319 0.889494
O O8 0.756757 0.458859 0.658646
O O9 0.867485 0.617651 0.686403
O O10 0.500000 0.500000 0.000000
O O11 0.503379 0.635970 0.853778
O O12 0.254647 0.793696 0.957762
#
# Coordination Sequence:
#
# PCOD9248808 Si02
#       6
#     4   4   4   2   4   4
#     4  10  22  44  67 105 144 179 253 299 343 451
#     4  11  24  44  71 107 145 192 243 305 359 438
#     4  11  26  49  73 107 149 194 248 305 362 449
#     4  10  22  44  74  98 144 184 238 300 354 424
#     4  11  25  51  69 106 154 183 253 308 356 446
#     4  12  24  47  77 105 148 210 231 304 391 412
#
# _framework density 21.906333
#
# number of rings (size 3 to 8) (size 9 to 14) (size 15 to 20)
#    0.000    1.091    5.455    1.091    2.545    1.455 
#    9.818    0.000    0.000    0.000    0.000    0.000 
#    0.000    0.000    0.000    0.000    0.000    0.000 
#
# Total GULP energy -122494.386882 kJ/mol
# GULP energy per Si atom -5567.926676 kJ/mol
# Density = 2.185647 g / cm^3
# Si number density = 21.906333 Si / 1000 Ang^3
#
#
#
# Elastic Constant Matrix: (Units=GPa)
#
#
# Indices 1 2 3 4 5 6 
#
# 1 87.9359 35.8841 52.9511 0.0000 -34.1555 0.0000
# 2 35.8841 73.0007 23.2018 0.0000 -22.2399 0.0000
# 3 52.9511 23.2018 126.8725 0.0000 -8.5954 0.0000
# 4 0.0000 0.0000 0.0000 19.1697 0.0000 -20.9606
# 5 -34.1555 -22.2399 -8.5954 0.0000 59.1002 0.0000
# 6 0.0000 0.0000 0.0000 -20.9606 0.0000 57.7341
#
#
#
# Elastic Compliance Matrix: (Units=1/GPa)
#
#
# Indices 1 2 3 4 5 6 
#
# 1 0.021736 -0.005448 -0.007436 0.000000 0.009430 0.000000
# 2 -0.005448 0.017637 -0.000722 0.000000 0.003383 0.000000
# 3 -0.007436 -0.000722 0.010916 0.000000 -0.002982 0.000000
# 4 0.000000 0.000000 0.000000 0.086506 0.000000 0.031406
# 5 0.009430 0.003383 -0.002982 0.000000 0.023210 0.000000
# 6 0.000000 0.000000 0.000000 0.031406 0.000000 0.028723
#
#
# Mechanical properties :
#
#
# Convention : Reuss Voigt Hill
#
# Bulk Modulus (GPa) = 43.33755 56.87593 50.10674
# Shear Modulus (GPa) = 22.35821 38.91894 30.63858
#
# Velocity S-wave (km/s) = 3.19819 4.21955 3.74387
# Velocity P-wave (km/s) = 5.78481 7.05401 6.45070
#
# Compressibility (1/GPa) = 0.02307468
#
# Stress axis : x y z
#
# Youngs Moduli (GPa) = 46.00739 56.69954 91.61177
#
# Poissons Ratio (x) = 0.30890 0.68126
# Poissons Ratio (y) = 0.25065 0.06618
# Poissons Ratio (z) = 0.34213 0.04096
#
# Static dielectric constant tensor:
#      x y z
#    x 1.905840 0.000000 -0.073140 
#    y 0.000000 1.825700 0.000000 
#    z -0.073140 0.000000 1.791550 
# 
# From -- ./inp_files/44579.got.cif
#   From: 2010.05.17/outbox.cif.g08.bks.cpg/sg14_23_cif.got.tgz:44579.got - 2010.06.03 17:49:19.
