data_PCOD9248796
_publ_section_title
;
Structure prediction by ZEFSAII (Michael W. Deem and Ramdas Pophale) SiO2 
 PCOD9248796
Probable space group: P 21/C
;
_chemical_formula_sum "Si O2"
_cell_formula_units_Z 28
_cell_length_a 8.784058
_cell_length_b 11.666395
_cell_length_c 14.255933
_cell_angle_alpha 90.000000
_cell_angle_beta 62.840109
_cell_angle_gamma 90.000000
_cell_volume 1299.836560
_symmetry_space_group_name_H-M "P 21/C"
_symmetry_group_IT_number 14
_symmetry_cell_setting 'monoclinic'
loop_
_space_group_symop_operation_xyz
x,y,z
-x,1/2+y,1/2-z
-x,-y,-z
x,1/2-y,1/2+z
loop_
_atom_site_type_symbol
_atom_site_label
_atom_site_fract_x
_atom_site_fract_y
_atom_site_fract_z
Si Si1 0.643527 0.020299 0.879365
Si Si2 0.436248 0.909800 0.406975
Si Si3 0.885914 0.321203 0.906886
Si Si4 0.511811 0.267190 0.292712
Si Si5 0.756570 0.597943 0.154911
Si Si6 0.737355 0.059355 0.287287
Si Si7 0.980960 0.439683 0.404878
O O1 0.588089 0.141062 0.845124
O O2 0.820712 0.019169 0.886953
O O3 0.677137 0.934926 0.780512
O O4 0.500000 0.000000 0.000000
O O5 0.311912 0.838118 0.508299
O O6 0.485429 0.826687 0.308311
O O7 0.310345 0.003140 0.397285
O O8 0.607544 0.980275 0.385708
O O9 0.871486 0.360127 0.803467
O O10 0.944962 0.195222 0.917219
O O11 0.039157 0.399900 0.901425
O O12 0.321472 0.218107 0.359988
O O13 0.623716 0.150652 0.262800
O O14 0.843923 0.971474 0.196075
O O15 0.000000 0.500000 0.500000
#
# Coordination Sequence:
#
# PCOD9248796 Si02
#       7
#     4   4   4   4   4   4   4
#     4  11  25  43  66 101 135 175 229 283 335 409
#     4  10  23  40  68  93 132 178 220 274 340 410
#     4  12  23  43  66  99 133 173 225 280 341 400
#     4  10  22  44  66  96 135 180 216 280 343 407
#     4  10  23  42  67  94 134 173 221 279 339 404
#     4  11  23  44  67  98 137 177 228 282 344 403
#     4  12  27  44  69 101 137 179 229 284 336 412
#
# _framework density 21.541170000000001
#
# number of rings (size 3 to 8) (size 9 to 14) (size 15 to 20)
#    0.000    1.143    2.857    2.571   10.000    0.000 
#    0.000    0.000    0.000    0.000    0.000    0.000 
#    0.000    0.000    0.000    0.000    0.000    0.000 
#
# Total GULP energy -156090.508537 kJ/mol
# GULP energy per Si atom -5574.661019 kJ/mol
# Density = 2.149214 g / cm^3
# Si number density = 21.541170 Si / 1000 Ang^3
#
#
#
# Elastic Constant Matrix: (Units=GPa)
#
#
# Indices 1 2 3 4 5 6 
#
# 1 105.6855 27.8878 13.0400 0.0000 -5.9151 0.0000
# 2 27.8878 111.3901 35.6660 0.0000 -2.5678 0.0000
# 3 13.0400 35.6660 83.4909 0.0000 -18.1149 0.0000
# 4 0.0000 0.0000 0.0000 14.3421 0.0000 -0.7055
# 5 -5.9151 -2.5678 -18.1149 0.0000 37.2706 0.0000
# 6 0.0000 0.0000 0.0000 -0.7055 0.0000 42.3948
#
#
#
# Elastic Compliance Matrix: (Units=1/GPa)
#
#
# Indices 1 2 3 4 5 6 
#
# 1 0.010213 -0.002442 -0.000265 0.000000 0.001324 0.000000
# 2 -0.002442 0.011071 -0.004770 0.000000 -0.001943 0.000000
# 3 -0.000265 -0.004770 0.015623 0.000000 0.007223 0.000000
# 4 0.000000 0.000000 0.000000 0.069782 0.000000 0.001161
# 5 0.001324 -0.001943 0.007223 0.000000 0.030418 0.000000
# 6 0.000000 0.000000 0.000000 0.001161 0.000000 0.023607
#
#
# Mechanical properties :
#
#
# Convention : Reuss Voigt Hill
#
# Bulk Modulus (GPa) = 45.54693 50.41713 47.98203
# Shear Modulus (GPa) = 27.32462 33.73301 30.52881
#
# Velocity S-wave (km/s) = 3.56544 3.96154 3.76870
# Velocity P-wave (km/s) = 6.17575 6.66190 6.42342
#
# Compressibility (1/GPa) = 0.02195538
#
# Stress axis : x y z
#
# Youngs Moduli (GPa) = 97.91346 90.32480 64.00664
#
# Poissons Ratio (x) = 0.22054 0.01695
# Poissons Ratio (y) = 0.23907 0.30529
# Poissons Ratio (z) = 0.02593 0.43082
#
# Static dielectric constant tensor:
#      x y z
#    x 1.816650 0.000000 0.012370 
#    y 0.000000 1.809240 0.000000 
#    z 0.012370 0.000000 1.851420 
# 
# From -- ./inp_files/39960.got.cif
#   From: 2010.05.17/outbox.cif.g08.bks.cpg/sg14_20_cif.got.tgz:39960.got - 2010.06.03 17:49:19.
