data_PCOD9248065
_publ_section_title
;
Structure prediction by ZEFSAII (Michael W. Deem and Ramdas Pophale) SiO2 
 PCOD9248065
Probable space group: P 21/C
;
_chemical_formula_sum "Si O2"
_cell_formula_units_Z 32
_cell_length_a 15.112659
_cell_length_b 5.089826
_cell_length_c 17.678449
_cell_angle_alpha 90.000000
_cell_angle_beta 71.080164
_cell_angle_gamma 90.000000
_cell_volume 1286.372638
_symmetry_space_group_name_H-M "P 21/C"
_symmetry_group_IT_number 14
_symmetry_cell_setting 'monoclinic'
loop_
_space_group_symop_operation_xyz
x,y,z
-x,1/2+y,1/2-z
-x,-y,-z
x,1/2-y,1/2+z
loop_
_atom_site_type_symbol
_atom_site_label
_atom_site_fract_x
_atom_site_fract_y
_atom_site_fract_z
Si Si1 0.981938 0.755156 0.056084
Si Si2 0.064930 0.476075 0.159033
Si Si3 0.364727 0.389306 0.237395
Si Si4 0.782794 0.939001 0.630240
Si Si5 0.851024 0.294411 0.242495
Si Si6 0.442899 0.869134 0.861711
Si Si7 0.649469 0.877386 0.538371
Si Si8 0.237530 0.223442 0.639871
O O1 0.875488 0.735760 0.111558
O O2 0.048100 0.722984 0.110295
O O3 0.000000 0.500000 0.000000
O O4 0.000000 0.000000 0.000000
O O5 0.144246 0.285051 0.107782
O O6 0.961692 0.379814 0.205514
O O7 0.129633 0.533995 0.214436
O O8 0.301910 0.196633 0.304452
O O9 0.451562 0.220640 0.182551
O O10 0.399166 0.610824 0.287842
O O11 0.297052 0.457459 0.186165
O O12 0.811690 0.199685 0.668592
O O13 0.746077 0.948722 0.556313
O O14 0.791840 0.509924 0.305736
O O15 0.404283 0.648996 0.930125
O O16 0.414247 0.148522 0.906001
O O17 0.681170 0.781366 0.447384
#
# Coordination Sequence:
#
# PCOD9248065 Si02
#       8
#     4   4   4   4   4   4   4   4
#     4  11  26  43  66  98 142 189 227 279 346 407
#     4  11  23  39  68  94 141 187 238 291 338 401
#     4  10  23  47  76 100 134 180 242 285 348 421
#     4   9  22  42  65 101 129 187 231 285 328 418
#     4  10  22  41  63  95 137 188 242 285 335 404
#     4  11  25  48  73 101 136 183 223 292 354 423
#     4  11  26  45  70 103 146 174 226 289 362 417
#     4  11  25  43  67 107 138 186 230 293 350 418
#
# _framework density 24.876152000000001
#
# number of rings (size 3 to 8) (size 9 to 14) (size 15 to 20)
#    0.000    1.500    1.250    2.250    7.000    4.000 
#    2.250    0.000    0.000    0.000    0.000    0.000 
#    0.000    0.000    0.000    0.000    0.000    0.000 
#
# Total GULP energy -178346.728986 kJ/mol
# GULP energy per Si atom -5573.335281 kJ/mol
# Density = 2.481953 g / cm^3
# Si number density = 24.876152 Si / 1000 Ang^3
#
#
#
# Elastic Constant Matrix: (Units=GPa)
#
#
# Indices 1 2 3 4 5 6 
#
# 1 121.5343 6.7953 17.3262 0.0000 -20.1021 0.0000
# 2 6.7953 113.3342 23.6127 0.0000 -38.7611 0.0000
# 3 17.3262 23.6127 115.6879 0.0000 -39.3565 0.0000
# 4 0.0000 0.0000 0.0000 56.0331 0.0000 -6.5487
# 5 -20.1021 -38.7611 -39.3565 0.0000 37.2954 0.0000
# 6 0.0000 0.0000 0.0000 -6.5487 0.0000 30.0585
#
#
#
# Elastic Compliance Matrix: (Units=1/GPa)
#
#
# Indices 1 2 3 4 5 6 
#
# 1 0.009325 0.002027 0.000961 0.000000 0.008148 0.000000
# 2 0.002027 0.014930 0.003587 0.000000 0.020395 0.000000
# 3 0.000961 0.003587 0.014372 0.000000 0.019413 0.000000
# 4 0.000000 0.000000 0.000000 0.018313 0.000000 0.003990
# 5 0.008148 0.020395 0.019413 0.000000 0.072886 0.000000
# 6 0.000000 0.000000 0.000000 0.003990 0.000000 0.034138
#
#
# Mechanical properties :
#
#
# Convention : Reuss Voigt Hill
#
# Bulk Modulus (GPa) = 19.31302 49.55833 34.43567
# Shear Modulus (GPa) = 29.74928 44.86554 37.30741
#
# Velocity S-wave (km/s) = 3.46192 4.25144 3.87683
# Velocity P-wave (km/s) = 4.87447 6.63814 5.82346
#
# Compressibility (1/GPa) = 0.05177855
#
# Stress axis : x y z
#
# Youngs Moduli (GPa) = 107.23430 66.98106 69.58044
#
# Poissons Ratio (x) = -0.13578 -0.06690
# Poissons Ratio (y) = -0.21738 -0.24961
# Poissons Ratio (z) = -0.10310 -0.24028
#
# Static dielectric constant tensor:
#      x y z
#    x 1.956190 0.000000 0.077270 
#    y 0.000000 1.974080 0.000000 
#    z 0.077270 0.000000 2.037550 
# 
# From -- ./inp_files/58590.got.cif
#   From: 2010.05.17/outbox.cif.g08.bks.cpg/sg14_30_cif.got.tgz:58590.got - 2010.06.03 17:49:19.
