data_PCOD9248839
_publ_section_title
;
Structure prediction by ZEFSAII (Michael W. Deem and Ramdas Pophale) SiO2 
 PCOD9248839
Probable space group: P 21/C
;
_chemical_formula_sum "Si O2"
_cell_formula_units_Z 22
_cell_length_a 29.244386
_cell_length_b 4.751065
_cell_length_c 10.241799
_cell_angle_alpha 90.000000
_cell_angle_beta 147.349932
_cell_angle_gamma 90.000000
_cell_volume 767.726650
_symmetry_space_group_name_H-M "P 21/C"
_symmetry_group_IT_number 14
_symmetry_cell_setting 'monoclinic'
loop_
_space_group_symop_operation_xyz
x,y,z
-x,1/2+y,1/2-z
-x,-y,-z
x,1/2-y,1/2+z
loop_
_atom_site_type_symbol
_atom_site_label
_atom_site_fract_x
_atom_site_fract_y
_atom_site_fract_z
Si Si1 0.443500 0.824044 0.588436
Si Si2 0.204086 0.724705 0.385710
Si Si3 0.666323 0.596709 0.955738
Si Si4 0.816739 0.722538 0.993184
Si Si5 0.500000 0.000000 0.500000
Si Si6 0.053290 0.559265 0.350759
O O1 0.507546 0.089973 0.708420
O O2 0.371103 0.935785 0.504634
O O3 0.448816 0.730249 0.453202
O O4 0.286224 0.880352 0.526623
O O5 0.176754 0.905292 0.446191
O O6 0.215310 0.409976 0.461965
O O7 0.127252 0.774344 0.103074
O O8 0.745299 0.765707 0.210860
O O9 0.595240 0.816651 0.737164
O O10 0.902646 0.872511 0.154608
O O11 0.988127 0.809166 0.160915
#
# Coordination Sequence:
#
# PCOD9248839 Si02
#       6
#     4   4   4   4   2   4
#     4  10  23  40  62  92 124 164 218 279 345 411
#     4  11  25  44  70 102 143 190 233 294 362 422
#     4  10  24  43  69 100 136 180 238 293 354 428
#     4  11  25  44  69 103 143 190 238 288 358 431
#     4  10  22  44  68  94 130 174 224 292 354 402
#     4  11  24  43  70 108 147 185 239 292 348 432
#
# _framework density 28.656030000000001
#
# number of rings (size 3 to 8) (size 9 to 14) (size 15 to 20)
#    0.000    1.455    0.000    3.273    0.000   20.364 
#    0.000    0.000    0.000    0.000    0.000    0.000 
#    0.000    0.000    0.000    0.000    0.000    0.000 
#
# Total GULP energy -122997.814975 kJ/mol
# GULP energy per Si atom -5590.809772 kJ/mol
# Density = 2.859081 g / cm^3
# Si number density = 28.656030 Si / 1000 Ang^3
#
#
#
# Elastic Constant Matrix: (Units=GPa)
#
#
# Indices 1 2 3 4 5 6 
#
# 1 154.6003 46.7594 43.1558 0.0000 12.6895 0.0000
# 2 46.7594 129.4797 30.1476 0.0000 4.9262 0.0000
# 3 43.1558 30.1476 100.2282 0.0000 17.4431 0.0000
# 4 0.0000 0.0000 0.0000 40.7802 0.0000 -2.6658
# 5 12.6895 4.9262 17.4431 0.0000 28.5658 0.0000
# 6 0.0000 0.0000 0.0000 -2.6658 0.0000 52.6480
#
#
#
# Elastic Compliance Matrix: (Units=1/GPa)
#
#
# Indices 1 2 3 4 5 6 
#
# 1 0.007971 -0.002240 -0.002472 0.000000 -0.001645 0.000000
# 2 -0.002240 0.008935 -0.001821 0.000000 0.000567 0.000000
# 3 -0.002472 -0.001821 0.012693 0.000000 -0.006338 0.000000
# 4 0.000000 0.000000 0.000000 0.024603 0.000000 0.001246
# 5 -0.001645 0.000567 -0.006338 0.000000 0.039510 0.000000
# 6 0.000000 0.000000 0.000000 0.001246 0.000000 0.019057
#
#
# Mechanical properties :
#
#
# Convention : Reuss Voigt Hill
#
# Bulk Modulus (GPa) = 60.49331 69.38154 64.93743
# Shear Modulus (GPa) = 38.06717 42.01516 40.04117
#
# Velocity S-wave (km/s) = 3.64870 3.83324 3.74211
# Velocity P-wave (km/s) = 6.23752 6.62239 6.43283
#
# Compressibility (1/GPa) = 0.01653075
#
# Stress axis : x y z
#
# Youngs Moduli (GPa) = 125.45532 111.92121 78.78660
#
# Poissons Ratio (x) = 0.25075 0.19475
# Poissons Ratio (y) = 0.28108 0.14351
# Poissons Ratio (z) = 0.31011 0.20386
#
# Static dielectric constant tensor:
#      x y z
#    x 2.779610 0.000000 -0.337550 
#    y 0.000000 2.174280 0.000000 
#    z -0.337550 0.000000 2.451640 
# 
# From -- ./inp_files/36343.got.cif
#   From: 2010.05.17/outbox.cif.g08.bks.cpg/sg14_19_cif.got.tgz:36343.got - 2010.06.03 17:49:19.
