data_PCOD9248460
_publ_section_title
;
Structure prediction by ZEFSAII (Michael W. Deem and Ramdas Pophale) SiO2 
 PCOD9248460
Probable space group: P 21/C
;
_chemical_formula_sum "Si O2"
_cell_formula_units_Z 28
_cell_length_a 13.414079
_cell_length_b 10.274408
_cell_length_c 8.792328
_cell_angle_alpha 90.000000
_cell_angle_beta 114.920953
_cell_angle_gamma 90.000000
_cell_volume 1098.945494
_symmetry_space_group_name_H-M "P 21/C"
_symmetry_group_IT_number 14
_symmetry_cell_setting 'monoclinic'
loop_
_space_group_symop_operation_xyz
x,y,z
-x,1/2+y,1/2-z
-x,-y,-z
x,1/2-y,1/2+z
loop_
_atom_site_type_symbol
_atom_site_label
_atom_site_fract_x
_atom_site_fract_y
_atom_site_fract_z
Si Si1 0.296871 0.524479 0.146025
Si Si2 0.520934 0.111481 0.678014
Si Si3 0.011893 0.769792 0.659942
Si Si4 0.844978 0.818798 0.286976
Si Si5 0.727320 0.539340 0.196522
Si Si6 0.898930 0.417992 0.503607
Si Si7 0.559287 0.141309 0.034134
O O1 0.406857 0.449537 0.160371
O O2 0.235268 0.435239 0.228508
O O3 0.339720 0.638246 0.282846
O O4 0.239542 0.534451 0.942124
O O5 0.603047 0.006435 0.654941
O O6 0.493603 0.234599 0.554198
O O7 0.579957 0.161604 0.870473
O O8 0.918137 0.817580 0.486176
O O9 0.938555 0.674111 0.718597
O O10 0.101034 0.707446 0.606714
O O11 0.068614 0.870875 0.809354
O O12 0.771534 0.688306 0.210289
O O13 0.791241 0.494925 0.390169
O O14 0.000000 0.500000 0.500000
O O15 0.500000 0.000000 0.000000
#
# Coordination Sequence:
#
# PCOD9248460 Si02
#       7
#     4   4   4   4   4   4   4
#     4  11  25  41  72 101 143 182 241 278 345 414
#     4  11  26  43  68 101 146 183 230 286 348 405
#     4  10  22  42  69  98 131 172 227 285 345 414
#     4  11  22  41  71 105 130 181 239 277 346 424
#     4  12  25  42  72 100 142 187 229 291 353 412
#     4  11  22  44  68  97 137 174 222 288 350 402
#     4  10  25  44  66  96 140 186 237 274 342 403
#
# _framework density 25.47897
#
# number of rings (size 3 to 8) (size 9 to 14) (size 15 to 20)
#    0.000    1.143    4.286    1.286   10.000    2.286 
#    0.000    7.857    0.000    0.000    0.000    0.000 
#    0.000    0.000    0.000    0.000    0.000    0.000 
#
# Total GULP energy -156347.562703 kJ/mol
# GULP energy per Si atom -5583.841525 kJ/mol
# Density = 2.542098 g / cm^3
# Si number density = 25.478970 Si / 1000 Ang^3
#
#
#
# Elastic Constant Matrix: (Units=GPa)
#
#
# Indices 1 2 3 4 5 6 
#
# 1 75.7162 15.4569 4.6508 0.0000 -1.4853 0.0000
# 2 15.4569 56.5423 32.1443 0.0000 0.0152 0.0000
# 3 4.6508 32.1443 150.0540 0.0000 -15.6822 0.0000
# 4 0.0000 0.0000 0.0000 38.3841 0.0000 -10.0845
# 5 -1.4853 0.0152 -15.6822 0.0000 41.3269 0.0000
# 6 0.0000 0.0000 0.0000 -10.0845 0.0000 33.0190
#
#
#
# Elastic Compliance Matrix: (Units=1/GPa)
#
#
# Indices 1 2 3 4 5 6 
#
# 1 0.014033 -0.004134 0.000524 0.000000 0.000705 0.000000
# 2 -0.004134 0.021474 -0.004674 0.000000 -0.001930 0.000000
# 3 0.000524 -0.004674 0.007967 0.000000 0.003044 0.000000
# 4 0.000000 0.000000 0.000000 0.028325 0.000000 0.008651
# 5 0.000705 -0.001930 0.003044 0.000000 0.025378 0.000000
# 6 0.000000 0.000000 0.000000 0.008651 0.000000 0.032928
#
#
# Mechanical properties :
#
#
# Convention : Reuss Voigt Hill
#
# Bulk Modulus (GPa) = 37.16583 42.97961 40.07272
# Shear Modulus (GPa) = 32.12517 37.88337 35.00427
#
# Velocity S-wave (km/s) = 3.55470 3.86015 3.71057
# Velocity P-wave (km/s) = 5.60949 6.06407 5.84120
#
# Compressibility (1/GPa) = 0.02690643
#
# Stress axis : x y z
#
# Youngs Moduli (GPa) = 71.26138 46.56894 125.51298
#
# Poissons Ratio (x) = 0.19254 -0.06582
# Poissons Ratio (y) = 0.29463 0.58660
# Poissons Ratio (z) = -0.03737 0.21764
#
# Static dielectric constant tensor:
#      x y z
#    x 2.001290 0.000000 0.023000 
#    y 0.000000 2.092050 0.000000 
#    z 0.023000 0.000000 2.158230 
# 
# From -- ./inp_files/15872.got.cif
#   From: 2010.05.17/outbox.cif.g08.bks.cpg/sg14_8_cif.got.tgz:15872.got - 2010.06.03 17:49:19.
