data_PCOD9248548
_publ_section_title
;
Structure prediction by ZEFSAII (Michael W. Deem and Ramdas Pophale) SiO2 
 PCOD9248548
Probable space group: P 21/C
;
_chemical_formula_sum "Si O2"
_cell_formula_units_Z 28
_cell_length_a 15.946204
_cell_length_b 11.180111
_cell_length_c 18.386509
_cell_angle_alpha 90.000000
_cell_angle_beta 22.023380
_cell_angle_gamma 90.000000
_cell_volume 1229.182866
_symmetry_space_group_name_H-M "P 21/C"
_symmetry_group_IT_number 14
_symmetry_cell_setting 'monoclinic'
loop_
_space_group_symop_operation_xyz
x,y,z
-x,1/2+y,1/2-z
-x,-y,-z
x,1/2-y,1/2+z
loop_
_atom_site_type_symbol
_atom_site_label
_atom_site_fract_x
_atom_site_fract_y
_atom_site_fract_z
Si Si1 0.384481 0.443353 0.979325
Si Si2 0.151457 0.289693 0.456891
Si Si3 0.276573 0.849727 0.169148
Si Si4 0.539378 0.550731 0.584772
Si Si5 0.360496 0.343915 0.152319
Si Si6 0.084578 0.476364 0.625034
Si Si7 0.476779 0.863087 0.789386
O O1 0.315565 0.361707 0.103519
O O2 0.155216 0.512582 0.146827
O O3 0.566574 0.532779 0.867642
O O4 0.473815 0.383870 0.834708
O O5 0.161742 0.294082 0.361608
O O6 0.074268 0.413750 0.554991
O O7 0.403014 0.256620 0.280528
O O8 0.977691 0.191556 0.625077
O O9 0.368515 0.871208 0.176777
O O10 0.428802 0.744754 0.013864
O O11 0.334070 0.965827 0.075588
O O12 0.745435 0.605358 0.464215
O O13 0.419319 0.466373 0.741041
O O14 0.216604 0.603295 0.512821
#
# Coordination Sequence:
#
# PCOD9248548 Si02
#       7
#     4   4   4   4   4   4   4
#     4  11  23  41  67  89 134 170 205 266 331 366
#     4  12  23  41  68  92 128 171 214 262 326 375
#     4  11  22  43  65  93 129 170 207 271 317 383
#     4   9  22  44  63  89 134 161 216 263 315 381
#     4  11  23  41  62  99 124 167 214 260 317 400
#     4  10  22  43  61  93 127 165 209 270 314 381
#     4  10  23  41  63  93 128 164 216 266 309 388
#
# _framework density 22.779361000000002
#
# number of rings (size 3 to 8) (size 9 to 14) (size 15 to 20)
#    0.857    0.571    4.286    0.857    2.000    2.286 
#    2.571    0.000    0.000    0.000    0.000    0.000 
#    0.000    0.000    0.000    0.000    0.000    0.000 
#
# Total GULP energy -156159.165613 kJ/mol
# GULP energy per Si atom -5577.113058 kJ/mol
# Density = 2.272751 g / cm^3
# Si number density = 22.779361 Si / 1000 Ang^3
#
#
#
# Elastic Constant Matrix: (Units=GPa)
#
#
# Indices 1 2 3 4 5 6 
#
# 1 82.3733 -9.0674 15.2294 0.0000 23.0868 0.0000
# 2 -9.0674 13.7946 -1.6575 0.0000 -0.4981 0.0000
# 3 15.2294 -1.6575 48.8760 0.0000 0.6328 0.0000
# 4 0.0000 0.0000 0.0000 18.8905 0.0000 10.4414
# 5 23.0868 -0.4981 0.6328 0.0000 33.3705 0.0000
# 6 0.0000 0.0000 0.0000 10.4414 0.0000 24.4661
#
#
#
# Elastic Compliance Matrix: (Units=1/GPa)
#
#
# Indices 1 2 3 4 5 6 
#
# 1 0.017544 0.010507 -0.004956 0.000000 -0.011887 0.000000
# 2 0.010507 0.079118 -0.000512 0.000000 -0.006079 0.000000
# 3 -0.004956 -0.000512 0.021948 0.000000 0.003005 0.000000
# 4 0.000000 0.000000 0.000000 0.069279 0.000000 -0.029566
# 5 -0.011887 -0.006079 0.003005 0.000000 0.038043 0.000000
# 6 0.000000 0.000000 0.000000 -0.029566 0.000000 0.053491
#
#
# Mechanical properties :
#
#
# Convention : Reuss Voigt Hill
#
# Bulk Modulus (GPa) = 7.77077 17.11699 12.44388
# Shear Modulus (GPa) = 16.01329 24.71472 20.36400
#
# Velocity S-wave (km/s) = 2.65424 3.29745 2.99317
# Velocity P-wave (km/s) = 3.57939 4.69341 4.17374
#
# Compressibility (1/GPa) = 0.12868742
#
# Stress axis : x y z
#
# Youngs Moduli (GPa) = 56.99818 12.63941 45.56209
#
# Poissons Ratio (x) = -0.13281 0.22583
# Poissons Ratio (y) = -0.59891 0.02334
# Poissons Ratio (z) = 0.28251 0.00648
#
# Static dielectric constant tensor:
#      x y z
#    x 1.903610 0.000000 -0.010800 
#    y 0.000000 1.910810 0.000000 
#    z -0.010800 0.000000 1.812870 
# 
# From -- ./inp_files/69271.got.cif
#   From: 2010.05.17/outbox.cif.g08.bks.cpg/sg14_35_cif.got.tgz:69271.got - 2010.06.03 17:49:19.
