data_PCOD9248517
_publ_section_title
;
Structure prediction by ZEFSAII (Michael W. Deem and Ramdas Pophale) SiO2 
 PCOD9248517
Probable space group: P 21/C
;
_chemical_formula_sum "Si O2"
_cell_formula_units_Z 26
_cell_length_a 11.851391
_cell_length_b 10.622227
_cell_length_c 15.916527
_cell_angle_alpha 90.000000
_cell_angle_beta 151.535421
_cell_angle_gamma 90.000000
_cell_volume 954.995359
_symmetry_space_group_name_H-M "P 21/C"
_symmetry_group_IT_number 14
_symmetry_cell_setting 'monoclinic'
loop_
_space_group_symop_operation_xyz
x,y,z
-x,1/2+y,1/2-z
-x,-y,-z
x,1/2-y,1/2+z
loop_
_atom_site_type_symbol
_atom_site_label
_atom_site_fract_x
_atom_site_fract_y
_atom_site_fract_z
Si Si1 0.317065 0.350659 0.729431
Si Si2 0.835031 0.525057 0.211551
Si Si3 0.500000 0.500000 0.500000
Si Si4 0.128445 0.723198 0.654358
Si Si5 0.656060 0.366640 0.482860
Si Si6 0.572050 0.100240 0.239179
Si Si7 0.049284 0.013760 0.396135
O O1 0.336018 0.405593 0.834902
O O2 0.499082 0.234790 0.835160
O O3 0.387623 0.428541 0.692392
O O4 0.044000 0.322223 0.534034
O O5 0.867064 0.389122 0.275727
O O6 0.792303 0.508766 0.084488
O O7 0.078661 0.608391 0.368179
O O8 0.607290 0.353743 0.549143
O O9 0.796858 0.546382 0.707439
O O10 0.370215 0.768153 0.766598
O O11 0.986154 0.843290 0.597436
O O12 0.522102 0.506407 0.396364
O O13 0.816640 0.056357 0.440894
#
# Coordination Sequence:
#
# PCOD9248517 Si02
#       7
#     4   4   2   4   4   4   4
#     4  12  26  45  74 103 148 188 249 306 362 441
#     4  11  28  48  72 112 149 191 245 312 374 432
#     4  10  22  42  72 104 144 184 244 298 356 440
#     4  12  24  44  76 106 147 191 245 309 361 446
#     4  11  23  46  72 103 142 196 241 300 370 433
#     4  12  25  45  73 107 138 199 247 293 365 447
#     4  11  25  47  73 110 150 196 251 295 379 440
#
# _framework density 27.225265
#
# number of rings (size 3 to 8) (size 9 to 14) (size 15 to 20)
#    0.000    0.615    4.615    2.769    2.154    6.769 
#    0.000    0.000    0.000    0.000    0.000    0.000 
#    0.000    0.000    0.000    0.000    0.000    0.000 
#
# Total GULP energy -145083.734451 kJ/mol
# GULP energy per Si atom -5580.143633 kJ/mol
# Density = 2.716330 g / cm^3
# Si number density = 27.225265 Si / 1000 Ang^3
#
#
#
# Elastic Constant Matrix: (Units=GPa)
#
#
# Indices 1 2 3 4 5 6 
#
# 1 201.9376 25.9737 35.3211 0.0000 14.6626 0.0000
# 2 25.9737 70.1949 4.4397 0.0000 2.6677 0.0000
# 3 35.3211 4.4397 104.4002 0.0000 -8.1206 0.0000
# 4 0.0000 0.0000 0.0000 26.3485 0.0000 1.5893
# 5 14.6626 2.6677 -8.1206 0.0000 57.4847 0.0000
# 6 0.0000 0.0000 0.0000 1.5893 0.0000 31.8692
#
#
#
# Elastic Compliance Matrix: (Units=1/GPa)
#
#
# Indices 1 2 3 4 5 6 
#
# 1 0.005659 -0.001908 -0.001960 0.000000 -0.001632 0.000000
# 2 -0.001908 0.014960 -0.000007 0.000000 -0.000209 0.000000
# 3 -0.001960 -0.000007 0.010395 0.000000 0.001969 0.000000
# 4 0.000000 0.000000 0.000000 0.038067 0.000000 -0.001898
# 5 -0.001632 -0.000209 0.001969 0.000000 0.018100 0.000000
# 6 0.000000 0.000000 0.000000 -0.001898 0.000000 0.031473
#
#
# Mechanical properties :
#
#
# Convention : Reuss Voigt Hill
#
# Bulk Modulus (GPa) = 42.98466 56.44461 49.71463
# Shear Modulus (GPa) = 37.26908 43.86037 40.56472
#
# Velocity S-wave (km/s) = 3.70390 4.01810 3.86420
# Velocity P-wave (km/s) = 5.84077 6.50418 6.18138
#
# Compressibility (1/GPa) = 0.02326411
#
# Stress axis : x y z
#
# Youngs Moduli (GPa) = 176.71661 66.84321 96.19850
#
# Poissons Ratio (x) = 0.12753 0.18858
# Poissons Ratio (y) = 0.33715 0.00067
# Poissons Ratio (z) = 0.34642 0.00046
#
# Static dielectric constant tensor:
#      x y z
#    x 2.296990 0.000000 -0.075270 
#    y 0.000000 2.178780 0.000000 
#    z -0.075270 0.000000 2.234960 
# 
# From -- ./inp_files/57772.got.cif
#   From: 2010.05.17/outbox.cif.g08.bks.cpg/sg14_29_cif.got.tgz:57772.got - 2010.06.03 17:49:19.
