data_PCOD9248410
_publ_section_title
;
Structure prediction by ZEFSAII (Michael W. Deem and Ramdas Pophale) SiO2 
 PCOD9248410
Probable space group: P 21/C
;
_chemical_formula_sum "Si O2"
_cell_formula_units_Z 20
_cell_length_a 11.225504
_cell_length_b 7.590099
_cell_length_c 10.292402
_cell_angle_alpha 90.000000
_cell_angle_beta 100.652764
_cell_angle_gamma 90.000000
_cell_volume 861.826702
_symmetry_space_group_name_H-M "P 21/C"
_symmetry_group_IT_number 14
_symmetry_cell_setting 'monoclinic'
loop_
_space_group_symop_operation_xyz
x,y,z
-x,1/2+y,1/2-z
-x,-y,-z
x,1/2-y,1/2+z
loop_
_atom_site_type_symbol
_atom_site_label
_atom_site_fract_x
_atom_site_fract_y
_atom_site_fract_z
Si Si1 0.812256 0.595776 0.281011
Si Si2 0.592344 0.039192 0.135259
Si Si3 0.154382 0.494839 0.424505
Si Si4 0.562487 0.048164 0.647968
Si Si5 0.986695 0.177575 0.720828
O O1 0.815642 0.491619 0.418380
O O2 0.676135 0.578642 0.203086
O O3 0.885813 0.776878 0.325782
O O4 0.900593 0.493369 0.197246
O O5 0.719403 0.955586 0.120039
O O6 0.607280 0.250214 0.150881
O O7 0.534813 0.969388 0.256386
O O8 0.500000 0.000000 0.000000
O O9 0.048512 0.352477 0.375582
O O10 0.100823 0.667548 0.343769
O O11 0.500000 0.000000 0.500000
#
# Coordination Sequence:
#
# PCOD9248410 Si02
#       5
#     4   4   4   4   4
#     4  11  24  47  70  99 148 177 239 288 362 422
#     4  12  26  48  75 100 148 192 241 303 365 425
#     4  11  24  46  72 100 142 183 235 291 360 422
#     4  12  28  46  73 110 141 191 249 297 361 433
#     4  10  22  42  68 102 131 183 223 287 345 423
#
# _framework density 23.206522
#
# number of rings (size 3 to 8) (size 9 to 14) (size 15 to 20)
#    0.000    0.800    4.000    3.600    5.600    0.000 
#    7.200    8.000    0.000    0.000    0.000    0.000 
#    0.000    0.000    0.000    0.000    0.000    0.000 
#
# Total GULP energy -111475.716655 kJ/mol
# GULP energy per Si atom -5573.785833 kJ/mol
# Density = 2.315370 g / cm^3
# Si number density = 23.206522 Si / 1000 Ang^3
#
#
#
# Elastic Constant Matrix: (Units=GPa)
#
#
# Indices 1 2 3 4 5 6 
#
# 1 170.4618 4.2046 49.2208 0.0000 2.2741 0.0000
# 2 4.2046 74.9643 20.1580 0.0000 -7.6646 0.0000
# 3 49.2208 20.1580 131.9637 0.0000 17.3585 0.0000
# 4 0.0000 0.0000 0.0000 23.9203 0.0000 4.6790
# 5 2.2741 -7.6646 17.3585 0.0000 40.8208 0.0000
# 6 0.0000 0.0000 0.0000 4.6790 0.0000 34.2798
#
#
#
# Elastic Compliance Matrix: (Units=1/GPa)
#
#
# Indices 1 2 3 4 5 6 
#
# 1 0.006607 0.000424 -0.002639 0.000000 0.000834 0.000000
# 2 0.000424 0.014494 -0.002889 0.000000 0.003926 0.000000
# 3 -0.002639 -0.002889 0.009592 0.000000 -0.004474 0.000000
# 4 0.000000 0.000000 0.000000 0.042952 0.000000 -0.005863
# 5 0.000834 0.003926 -0.004474 0.000000 0.027091 0.000000
# 6 0.000000 0.000000 0.000000 -0.005863 0.000000 0.029972
#
#
# Mechanical properties :
#
#
# Convention : Reuss Voigt Hill
#
# Bulk Modulus (GPa) = 48.81308 58.28406 53.54857
# Shear Modulus (GPa) = 33.84260 40.05793 36.95026
#
# Velocity S-wave (km/s) = 3.82294 4.15920 3.99461
# Velocity P-wave (km/s) = 6.36917 6.94516 6.66339
#
# Compressibility (1/GPa) = 0.02048631
#
# Stress axis : x y z
#
# Youngs Moduli (GPa) = 151.36023 68.99363 104.25521
#
# Poissons Ratio (x) = -0.02927 0.27510
# Poissons Ratio (y) = -0.06421 0.30116
# Poissons Ratio (z) = 0.39939 0.19930
#
# Static dielectric constant tensor:
#      x y z
#    x 1.877550 0.000000 -0.010740 
#    y 0.000000 2.021610 0.000000 
#    z -0.010740 0.000000 1.851870 
# 
# From -- ./inp_files/11779.got.cif
#   From: 2010.05.17/outbox.cif.g08.bks.cpg/sg14_6_cif.got.tgz:11779.got - 2010.06.03 17:49:19.
