data_PCOD9248205
_publ_section_title
;
Structure prediction by ZEFSAII (Michael W. Deem and Ramdas Pophale) SiO2 
 PCOD9248205
Probable space group: P 21/C
;
_chemical_formula_sum "Si O2"
_cell_formula_units_Z 28
_cell_length_a 7.766424
_cell_length_b 11.052206
_cell_length_c 25.258977
_cell_angle_alpha 90.000000
_cell_angle_beta 36.040222
_cell_angle_gamma 90.000000
_cell_volume 1275.627370
_symmetry_space_group_name_H-M "P 21/C"
_symmetry_group_IT_number 14
_symmetry_cell_setting 'monoclinic'
loop_
_space_group_symop_operation_xyz
x,y,z
-x,1/2+y,1/2-z
-x,-y,-z
x,1/2-y,1/2+z
loop_
_atom_site_type_symbol
_atom_site_label
_atom_site_fract_x
_atom_site_fract_y
_atom_site_fract_z
Si Si1 0.676833 0.477108 0.316123
Si Si2 0.810312 0.331002 0.373673
Si Si3 0.147370 0.546172 0.279786
Si Si4 0.424565 0.257098 0.681259
Si Si5 0.575246 0.876724 0.510242
Si Si6 0.194557 0.695144 0.812624
Si Si7 0.654248 0.488370 0.092560
O O1 0.583705 0.386967 0.386768
O O2 0.518486 0.605490 0.350246
O O3 0.700766 0.404052 0.255863
O O4 0.995953 0.512449 0.261167
O O5 0.637232 0.234216 0.450884
O O6 0.973225 0.447884 0.358967
O O7 0.078502 0.265068 0.276543
O O8 0.099282 0.683147 0.306033
O O9 0.492602 0.521548 0.187902
O O10 0.570146 0.234728 0.702292
O O11 0.551510 0.151568 0.611509
O O12 0.909183 0.849138 0.414263
O O13 0.500000 0.000000 0.500000
O O14 0.539446 0.911370 0.580335
O O15 0.000000 0.500000 0.000000
#
# Coordination Sequence:
#
# PCOD9248205 Si02
#       7
#     4   4   4   4   4   4   4
#     4  10  22  41  69  88 127 182 216 253 333 404
#     4   9  23  43  65  93 128 182 214 263 331 407
#     4   9  23  41  70  84 133 177 218 254 337 401
#     4  11  23  39  66  96 133 167 222 270 338 383
#     4  12  25  39  68 100 128 164 233 276 323 392
#     4  12  24  40  67 102 129 168 223 282 321 394
#     4  11  22  42  62  96 130 172 210 280 332 389
#
# _framework density 21.949983
#
# number of rings (size 3 to 8) (size 9 to 14) (size 15 to 20)
#    0.857    0.571    1.429    4.286    6.000    1.714 
#    0.000    0.714    0.000    0.000    0.000    0.000 
#    0.000    0.000    0.000    0.000    0.000    0.000 
#
# Total GULP energy -156040.892111 kJ/mol
# GULP energy per Si atom -5572.889004 kJ/mol
# Density = 2.190002 g / cm^3
# Si number density = 21.949983 Si / 1000 Ang^3
#
#
#
# Elastic Constant Matrix: (Units=GPa)
#
#
# Indices 1 2 3 4 5 6 
#
# 1 48.7803 23.7253 3.2715 0.0000 -4.5908 0.0000
# 2 23.7253 166.0778 30.6815 0.0000 5.1140 0.0000
# 3 3.2715 30.6815 37.0670 0.0000 -3.5297 0.0000
# 4 0.0000 0.0000 0.0000 43.4893 0.0000 7.4788
# 5 -4.5908 5.1140 -3.5297 0.0000 17.0774 0.0000
# 6 0.0000 0.0000 0.0000 7.4788 0.0000 33.5452
#
#
#
# Elastic Compliance Matrix: (Units=1/GPa)
#
#
# Indices 1 2 3 4 5 6 
#
# 1 0.022985 -0.003876 0.001916 0.000000 0.007735 0.000000
# 2 -0.003876 0.007962 -0.006707 0.000000 -0.004812 0.000000
# 3 0.001916 -0.006707 0.033255 0.000000 0.009397 0.000000
# 4 0.000000 0.000000 0.000000 0.023911 0.000000 -0.005331
# 5 0.007735 -0.004812 0.009397 0.000000 0.064020 0.000000
# 6 0.000000 0.000000 0.000000 -0.005331 0.000000 0.030999
#
#
# Mechanical properties :
#
#
# Convention : Reuss Voigt Hill
#
# Bulk Modulus (GPa) = 21.33598 40.80907 31.07253
# Shear Modulus (GPa) = 23.13881 31.77219 27.45550
#
# Velocity S-wave (km/s) = 3.25031 3.80871 3.54053
# Velocity P-wave (km/s) = 4.88133 6.16229 5.55883
#
# Compressibility (1/GPa) = 0.04686919
#
# Stress axis : x y z
#
# Youngs Moduli (GPa) = 43.50749 125.59458 30.07044
#
# Poissons Ratio (x) = 0.48676 -0.05761
# Poissons Ratio (y) = 0.16862 0.20167
# Poissons Ratio (z) = -0.08336 0.84232
#
# Static dielectric constant tensor:
#      x y z
#    x 1.902290 0.000000 -0.010880 
#    y 0.000000 1.955200 0.000000 
#    z -0.010880 0.000000 1.967730 
# 
# From -- ./inp_files/79573.got.cif
#   From: 2010.05.17/outbox.cif.g08.bks.cpg/sg14_40_cif.got.tgz:79573.got - 2010.06.03 17:49:19.
