data_PCOD9248946
_publ_section_title
;
Structure prediction by ZEFSAII (Michael W. Deem and Ramdas Pophale) SiO2 
 PCOD9248946
Probable space group: P 21/C
;
_chemical_formula_sum "Si O2"
_cell_formula_units_Z 20
_cell_length_a 19.674505
_cell_length_b 4.843184
_cell_length_c 10.775418
_cell_angle_alpha 90.000000
_cell_angle_beta 135.058438
_cell_angle_gamma 90.000000
_cell_volume 725.288026
_symmetry_space_group_name_H-M "P 21/C"
_symmetry_group_IT_number 14
_symmetry_cell_setting 'monoclinic'
loop_
_space_group_symop_operation_xyz
x,y,z
-x,1/2+y,1/2-z
-x,-y,-z
x,1/2-y,1/2+z
loop_
_atom_site_type_symbol
_atom_site_label
_atom_site_fract_x
_atom_site_fract_y
_atom_site_fract_z
Si Si1 0.106940 0.872910 0.134822
Si Si2 0.936293 0.424676 0.683428
Si Si3 0.446665 0.256148 0.514538
Si Si4 0.721455 0.793950 0.524537
Si Si5 0.360531 0.666312 0.707644
O O1 0.100500 0.628366 0.225894
O O2 0.189348 0.073987 0.290706
O O3 0.122135 0.807461 0.010263
O O4 0.000000 0.000000 0.000000
O O5 0.964872 0.741429 0.698748
O O6 0.500000 0.500000 0.500000
O O7 0.353155 0.335052 0.471898
O O8 0.532948 0.165936 0.717385
O O9 0.401651 0.987232 0.385122
O O10 0.726362 0.534243 0.441061
O O11 0.677088 0.031736 0.377859
#
# Coordination Sequence:
#
# PCOD9248946 Si02
#       5
#     4   4   4   4   4
#     4  10  25  49  75 113 158 213 263 332 393 478
#     4  10  22  44  76 104 149 205 268 326 398 454
#     4  11  25  49  79 108 156 199 260 328 411 483
#     4  12  27  44  76 112 154 201 263 319 403 480
#     4  11  26  46  73 112 148 195 257 320 399 475
#
# _framework density 27.575251999999999
#
# number of rings (size 3 to 8) (size 9 to 14) (size 15 to 20)
#    0.000    1.200    2.000    1.800    8.400    6.400 
#    7.200    0.000    0.000    0.000    0.000    0.000 
#    0.000    0.000    0.000    0.000    0.000    0.000 
#
# Total GULP energy -111527.241796 kJ/mol
# GULP energy per Si atom -5576.362090 kJ/mol
# Density = 2.751249 g / cm^3
# Si number density = 27.575252 Si / 1000 Ang^3
#
#
#
# Elastic Constant Matrix: (Units=GPa)
#
#
# Indices 1 2 3 4 5 6 
#
# 1 117.1068 42.3798 39.6927 0.0000 -17.0941 0.0000
# 2 42.3798 145.3726 41.2674 0.0000 -10.9471 0.0000
# 3 39.6927 41.2674 157.8763 0.0000 5.5202 0.0000
# 4 0.0000 0.0000 0.0000 49.3676 0.0000 1.2823
# 5 -17.0941 -10.9471 5.5202 0.0000 38.2112 0.0000
# 6 0.0000 0.0000 0.0000 1.2823 0.0000 44.4727
#
#
#
# Elastic Compliance Matrix: (Units=1/GPa)
#
#
# Indices 1 2 3 4 5 6 
#
# 1 0.010756 -0.002141 -0.002303 0.000000 0.004531 0.000000
# 2 -0.002141 0.008086 -0.001631 0.000000 0.001595 0.000000
# 3 -0.002303 -0.001631 0.007429 0.000000 -0.002571 0.000000
# 4 0.000000 0.000000 0.000000 0.020271 0.000000 -0.000585
# 5 0.004531 0.001595 -0.002571 0.000000 0.029026 0.000000
# 6 0.000000 0.000000 0.000000 -0.000585 0.000000 0.022503
#
#
# Mechanical properties :
#
#
# Convention : Reuss Voigt Hill
#
# Bulk Modulus (GPa) = 70.81385 74.11504 72.46445
# Shear Modulus (GPa) = 43.50547 46.21133 44.85840
#
# Velocity S-wave (km/s) = 3.97634 4.09813 4.03769
# Velocity P-wave (km/s) = 6.84234 7.02343 6.93348
#
# Compressibility (1/GPa) = 0.01412153
#
# Stress axis : x y z
#
# Youngs Moduli (GPa) = 92.97187 123.66978 134.60059
#
# Poissons Ratio (x) = 0.26473 0.31000
# Poissons Ratio (y) = 0.19902 0.21956
# Poissons Ratio (z) = 0.21413 0.20173
#
# Static dielectric constant tensor:
#      x y z
#    x 2.395460 0.000000 -0.029160 
#    y 0.000000 2.391050 0.000000 
#    z -0.029160 0.000000 2.237120 
# 
# From -- ./inp_files/34624.got.cif
#   From: 2010.05.17/outbox.cif.g08.bks.cpg/sg14_18_cif.got.tgz:34624.got - 2010.06.03 17:49:19.
