data_PCOD9248073
_publ_section_title
;
Structure prediction by ZEFSAII (Michael W. Deem and Ramdas Pophale) SiO2 
 PCOD9248073
Probable space group: P 21/C
;
_chemical_formula_sum "Si O2"
_cell_formula_units_Z 32
_cell_length_a 8.012430
_cell_length_b 22.588211
_cell_length_c 9.203076
_cell_angle_alpha 90.000000
_cell_angle_beta 113.542988
_cell_angle_gamma 90.000000
_cell_volume 1526.985991
_symmetry_space_group_name_H-M "P 21/C"
_symmetry_group_IT_number 14
_symmetry_cell_setting 'monoclinic'
loop_
_space_group_symop_operation_xyz
x,y,z
-x,1/2+y,1/2-z
-x,-y,-z
x,1/2-y,1/2+z
loop_
_atom_site_type_symbol
_atom_site_label
_atom_site_fract_x
_atom_site_fract_y
_atom_site_fract_z
Si Si1 0.604725 0.357021 0.248032
Si Si2 0.832027 0.775763 0.939469
Si Si3 0.587526 0.217314 0.188932
Si Si4 0.299482 0.627170 0.022419
Si Si5 0.350761 0.082344 0.894401
Si Si6 0.067100 0.321844 0.243777
Si Si7 0.696093 0.051840 0.207726
Si Si8 0.130391 0.852128 0.914293
O O1 0.606132 0.286502 0.227014
O O2 0.584097 0.383350 0.080878
O O3 0.456094 0.384509 0.301683
O O4 0.790045 0.369956 0.400864
O O5 0.626980 0.790330 0.916912
O O6 0.834315 0.714811 0.850509
O O7 0.935349 0.822605 0.871190
O O8 0.950993 0.775698 0.128419
O O9 0.628007 0.178626 0.345971
O O10 0.724553 0.194037 0.110651
O O11 0.111812 0.651963 0.891765
O O12 0.287824 0.569764 0.119324
O O13 0.176809 0.123750 0.853369
O O14 0.294299 0.016737 0.826279
O O15 0.500014 0.074601 0.075065
O O16 0.850129 0.090439 0.179481
#
# Coordination Sequence:
#
# PCOD9248073 Si02
#       8
#     4   4   4   4   4   4   4   4
#     4  11  19  38  61  92 130 166 209 273 330 380
#     4  12  25  40  63  98 133 168 215 262 330 400
#     4  11  23  40  63  95 133 173 215 264 332 400
#     4  11  24  38  64  95 131 170 215 271 331 388
#     4  10  22  45  71  90 127 177 225 272 326 392
#     4  12  25  41  63  99 134 169 216 271 329 401
#     4   9  22  45  70  90 126 179 227 269 327 387
#     4  10  22  41  64  90 129 172 213 267 325 391
#
# _framework density 20.956316000000001
#
# number of rings (size 3 to 8) (size 9 to 14) (size 15 to 20)
#    0.000    1.250    2.500    4.500    5.250    1.000 
#    0.000    0.625    5.500    0.000    0.000    0.000 
#    0.000    0.000    0.000    0.000    0.000    0.000 
#
# Total GULP energy -178666.102002 kJ/mol
# GULP energy per Si atom -5583.315688 kJ/mol
# Density = 2.090862 g / cm^3
# Si number density = 20.956316 Si / 1000 Ang^3
#
#
#
# Elastic Constant Matrix: (Units=GPa)
#
#
# Indices 1 2 3 4 5 6 
#
# 1 67.6755 11.3549 17.7620 0.0000 -0.3636 0.0000
# 2 11.3549 93.4743 13.1489 0.0000 0.4255 0.0000
# 3 17.7620 13.1489 90.0821 0.0000 -10.8193 0.0000
# 4 0.0000 0.0000 0.0000 25.8927 0.0000 6.7694
# 5 -0.3636 0.4255 -10.8193 0.0000 32.5508 0.0000
# 6 0.0000 0.0000 0.0000 6.7694 0.0000 21.0397
#
#
#
# Elastic Compliance Matrix: (Units=1/GPa)
#
#
# Indices 1 2 3 4 5 6 
#
# 1 0.015809 -0.001496 -0.002995 0.000000 -0.000799 0.000000
# 2 -0.001496 0.011079 -0.001397 0.000000 -0.000626 0.000000
# 3 -0.002995 -0.001397 0.012388 0.000000 0.004102 0.000000
# 4 0.000000 0.000000 0.000000 0.042168 0.000000 -0.013567
# 5 -0.000799 -0.000626 0.004102 0.000000 0.032084 0.000000
# 6 0.000000 0.000000 0.000000 -0.013567 0.000000 0.051894
#
#
# Mechanical properties :
#
#
# Convention : Reuss Voigt Hill
#
# Bulk Modulus (GPa) = 36.36264 37.30706 36.83485
# Shear Modulus (GPa) = 26.82896 29.82770 28.32833
#
# Velocity S-wave (km/s) = 3.58192 3.77679 3.68064
# Velocity P-wave (km/s) = 5.87334 6.07123 5.97311
#
# Compressibility (1/GPa) = 0.02750075
#
# Stress axis : x y z
#
# Youngs Moduli (GPa) = 63.25491 90.25893 80.72191
#
# Poissons Ratio (x) = 0.13498 0.24175
# Poissons Ratio (y) = 0.09460 0.11281
# Poissons Ratio (z) = 0.18944 0.12614
#
# Static dielectric constant tensor:
#      x y z
#    x 1.835780 0.000000 -0.016470 
#    y 0.000000 1.751490 0.000000 
#    z -0.016470 0.000000 1.774610 
# 
# From -- ./inp_files/10821.got.cif
#   From: 2010.05.17/outbox.cif.g08.bks.cpg/sg14_6_cif.got.tgz:10821.got - 2010.06.03 17:49:19.
