data_PCOD9248356
_publ_section_title
;
Structure prediction by ZEFSAII (Michael W. Deem and Ramdas Pophale) SiO2 
 PCOD9248356
Probable space group: P 21/C
;
_chemical_formula_sum "Si O2"
_cell_formula_units_Z 24
_cell_length_a 33.181191
_cell_length_b 7.783489
_cell_length_c 9.616244
_cell_angle_alpha 90.000000
_cell_angle_beta 25.030255
_cell_angle_gamma 90.000000
_cell_volume 1050.779228
_symmetry_space_group_name_H-M "P 21/C"
_symmetry_group_IT_number 14
_symmetry_cell_setting 'monoclinic'
loop_
_space_group_symop_operation_xyz
x,y,z
-x,1/2+y,1/2-z
-x,-y,-z
x,1/2-y,1/2+z
loop_
_atom_site_type_symbol
_atom_site_label
_atom_site_fract_x
_atom_site_fract_y
_atom_site_fract_z
Si Si1 0.624816 0.531796 0.455097
Si Si2 0.180030 0.286066 0.257478
Si Si3 0.902267 0.931425 0.242444
Si Si4 0.523522 0.611317 0.290013
Si Si5 0.736794 0.307642 0.316095
Si Si6 0.277960 0.951406 0.858629
O O1 0.562453 0.413574 0.547976
O O2 0.557641 0.693512 0.707374
O O3 0.656683 0.425602 0.491472
O O4 0.719958 0.610011 0.080824
O O5 0.100725 0.375555 0.409303
O O6 0.142978 0.226833 0.524922
O O7 0.203939 0.100845 0.116487
O O8 0.831538 0.092463 0.476812
O O9 0.000000 0.000000 0.000000
O O10 0.500000 0.500000 0.500000
O O11 0.618450 0.524620 0.933607
O O12 0.737650 0.304879 0.478648
O O13 0.728812 0.123758 0.272343
#
# Coordination Sequence:
#
# PCOD9248356 Si02
#       6
#     4   4   4   4   4   4
#     4  10  23  41  60  90 127 169 213 266 310 371
#     4   9  22  41  66  89 129 165 204 261 322 378
#     4  10  22  42  66  94 124 161 208 260 321 383
#     4  11  25  36  63  90 122 169 219 253 310 369
#     4  10  23  41  62  89 128 165 205 269 319 376
#     4  10  23  39  60  90 126 165 209 255 317 366
#
# _framework density 22.840191000000001
#
# number of rings (size 3 to 8) (size 9 to 14) (size 15 to 20)
#    0.000    2.000    0.000    1.000   16.333    4.667 
#    0.000    1.667    0.000    0.000    0.000    0.000 
#    0.000    0.000    0.000    0.000    0.000    0.000 
#
# Total GULP energy -134125.387830 kJ/mol
# GULP energy per Si atom -5588.557826 kJ/mol
# Density = 2.278821 g / cm^3
# Si number density = 22.840191 Si / 1000 Ang^3
#
#
#
# Elastic Constant Matrix: (Units=GPa)
#
#
# Indices 1 2 3 4 5 6 
#
# 1 81.0994 6.6587 24.5948 0.0000 -19.2227 0.0000
# 2 6.6587 41.0151 -1.2292 0.0000 -3.1069 0.0000
# 3 24.5948 -1.2292 31.9234 0.0000 -11.1109 0.0000
# 4 0.0000 0.0000 0.0000 24.9528 0.0000 -1.1731
# 5 -19.2227 -3.1069 -11.1109 0.0000 42.2051 0.0000
# 6 0.0000 0.0000 0.0000 -1.1731 0.0000 37.2245
#
#
#
# Elastic Compliance Matrix: (Units=1/GPa)
#
#
# Indices 1 2 3 4 5 6 
#
# 1 0.017210 -0.002804 -0.011791 0.000000 0.004528 0.000000
# 2 -0.002804 0.025062 0.003658 0.000000 0.001531 0.000000
# 3 -0.011791 0.003658 0.042686 0.000000 0.006136 0.000000
# 4 0.000000 0.000000 0.000000 0.040135 0.000000 0.001265
# 5 0.004528 0.001531 0.006136 0.000000 0.027484 0.000000
# 6 0.000000 0.000000 0.000000 0.001265 0.000000 0.026904
#
#
# Mechanical properties :
#
#
# Convention : Reuss Voigt Hill
#
# Bulk Modulus (GPa) = 15.85196 23.78737 19.81967
# Shear Modulus (GPa) = 22.48370 29.14405 25.81387
#
# Velocity S-wave (km/s) = 3.14091 3.57599 3.36548
# Velocity P-wave (km/s) = 4.48432 5.24286 4.87836
#
# Compressibility (1/GPa) = 0.06308368
#
# Stress axis : x y z
#
# Youngs Moduli (GPa) = 58.10614 39.90082 23.42694
#
# Poissons Ratio (x) = 0.11190 0.27623
# Poissons Ratio (y) = 0.16295 -0.08570
# Poissons Ratio (z) = 0.68514 -0.14597
#
# Static dielectric constant tensor:
#      x y z
#    x 1.839900 0.000000 0.020490 
#    y 0.000000 1.877610 0.000000 
#    z 0.020490 0.000000 1.864220 
# 
# From -- ./inp_files/15091.got.cif
#   From: 2010.05.17/outbox.cif.g08.bks.cpg/sg14_8_cif.got.tgz:15091.got - 2010.06.03 17:49:19.
