data_PCOD9248036
_publ_section_title
;
Structure prediction by ZEFSAII (Michael W. Deem and Ramdas Pophale) SiO2 
 PCOD9248036
Probable space group: P 21/C
;
_chemical_formula_sum "Si O2"
_cell_formula_units_Z 32
_cell_length_a 9.723578
_cell_length_b 12.294112
_cell_length_c 17.177584
_cell_angle_alpha 90.000000
_cell_angle_beta 42.623468
_cell_angle_gamma 90.000000
_cell_volume 1390.553854
_symmetry_space_group_name_H-M "P 21/C"
_symmetry_group_IT_number 14
_symmetry_cell_setting 'monoclinic'
loop_
_space_group_symop_operation_xyz
x,y,z
-x,1/2+y,1/2-z
-x,-y,-z
x,1/2-y,1/2+z
loop_
_atom_site_type_symbol
_atom_site_label
_atom_site_fract_x
_atom_site_fract_y
_atom_site_fract_z
Si Si1 0.625960 0.595165 0.334991
Si Si2 0.116646 0.391924 0.976662
Si Si3 0.548936 0.304833 0.089108
Si Si4 0.997327 0.269725 0.884299
Si Si5 0.984740 0.513903 0.598428
Si Si6 0.462465 0.972588 0.680773
Si Si7 0.343898 0.159213 0.517580
Si Si8 0.403222 0.099696 0.967164
O O1 0.474636 0.686118 0.364020
O O2 0.568496 0.600109 0.451151
O O3 0.562874 0.470003 0.349053
O O4 0.844603 0.647753 0.224227
O O5 0.353403 0.410347 0.853528
O O6 0.132855 0.374468 0.063148
O O7 0.026777 0.295114 0.963892
O O8 0.000000 0.500000 0.000000
O O9 0.519038 0.400628 0.162312
O O10 0.769608 0.305679 0.958182
O O11 0.375586 0.323789 0.095401
O O12 0.022380 0.139387 0.867639
O O13 0.183316 0.454748 0.548264
O O14 0.000000 0.500000 0.500000
O O15 0.770890 0.457757 0.706244
O O16 0.504610 0.933360 0.575151
O O17 0.399652 0.272491 0.451352
#
# Coordination Sequence:
#
# PCOD9248036 Si02
#       8
#     4   4   4   4   4   4   4   4
#     4  10  23  40  68  95 135 178 221 281 333 411
#     4  10  22  41  62  95 130 167 221 278 334 398
#     4  11  20  42  69  97 135 172 228 279 333 413
#     4  12  23  41  70  99 129 183 233 273 349 406
#     4  12  26  42  67  97 136 179 230 283 340 421
#     4  10  23  42  64  97 128 175 222 276 341 398
#     4   9  22  41  67  95 137 170 220 281 338 405
#     4  10  22  45  61  99 140 172 223 278 346 401
#
# _framework density 23.012412000000001
#
# number of rings (size 3 to 8) (size 9 to 14) (size 15 to 20)
#    0.750    0.750    3.750    1.125    3.500    0.000 
#    0.000    3.750    0.000    0.000    0.000    0.000 
#    0.000    0.000    0.000    0.000    0.000    0.000 
#
# Total GULP energy -178216.259045 kJ/mol
# GULP energy per Si atom -5569.258095 kJ/mol
# Density = 2.296004 g / cm^3
# Si number density = 23.012412 Si / 1000 Ang^3
#
#
#
# Elastic Constant Matrix: (Units=GPa)
#
#
# Indices 1 2 3 4 5 6 
#
# 1 70.9301 17.8912 2.9865 0.0000 -9.4621 0.0000
# 2 17.8912 77.8762 0.7194 0.0000 -4.5155 0.0000
# 3 2.9865 0.7194 74.0970 0.0000 -11.6175 0.0000
# 4 0.0000 0.0000 0.0000 27.7752 0.0000 -4.8220
# 5 -9.4621 -4.5155 -11.6175 0.0000 26.2501 0.0000
# 6 0.0000 0.0000 0.0000 -4.8220 0.0000 30.4995
#
#
#
# Elastic Compliance Matrix: (Units=1/GPa)
#
#
# Indices 1 2 3 4 5 6 
#
# 1 0.015606 -0.003289 0.000211 0.000000 0.005153 0.000000
# 2 -0.003289 0.013667 0.000196 0.000000 0.001252 0.000000
# 3 0.000211 0.000196 0.014509 0.000000 0.006531 0.000000
# 4 0.000000 0.000000 0.000000 0.037019 0.000000 0.005853
# 5 0.005153 0.001252 0.006531 0.000000 0.043059 0.000000
# 6 0.000000 0.000000 0.000000 0.005853 0.000000 0.033713
#
#
# Mechanical properties :
#
#
# Convention : Reuss Voigt Hill
#
# Bulk Modulus (GPa) = 26.30187 29.56638 27.93413
# Shear Modulus (GPa) = 28.40746 30.32538 29.36642
#
# Velocity S-wave (km/s) = 3.51727 3.63407 3.57615
# Velocity P-wave (km/s) = 5.28670 5.52128 5.40526
#
# Compressibility (1/GPa) = 0.03802011
#
# Stress axis : x y z
#
# Youngs Moduli (GPa) = 64.07608 73.16778 68.92068
#
# Poissons Ratio (x) = 0.24062 -0.01453
# Poissons Ratio (y) = 0.21072 -0.01352
# Poissons Ratio (z) = -0.01351 -0.01436
#
# Static dielectric constant tensor:
#      x y z
#    x 1.924740 0.000000 0.083720 
#    y 0.000000 1.937440 0.000000 
#    z 0.083720 0.000000 1.785970 
# 
# From -- ./inp_files/73298.got.cif
#   From: 2010.05.17/outbox.cif.g08.bks.cpg/sg14_37_cif.got.tgz:73298.got - 2010.06.03 17:49:19.
