data_PCOD9248719
_publ_section_title
;
Structure prediction by ZEFSAII (Michael W. Deem and Ramdas Pophale) SiO2 
 PCOD9248719
Probable space group: P 21/C
;
_chemical_formula_sum "Si O2"
_cell_formula_units_Z 28
_cell_length_a 12.848191
_cell_length_b 10.435791
_cell_length_c 13.408809
_cell_angle_alpha 90.000000
_cell_angle_beta 42.937400
_cell_angle_gamma 90.000000
_cell_volume 1224.705013
_symmetry_space_group_name_H-M "P 21/C"
_symmetry_group_IT_number 14
_symmetry_cell_setting 'monoclinic'
loop_
_space_group_symop_operation_xyz
x,y,z
-x,1/2+y,1/2-z
-x,-y,-z
x,1/2-y,1/2+z
loop_
_atom_site_type_symbol
_atom_site_label
_atom_site_fract_x
_atom_site_fract_y
_atom_site_fract_z
Si Si1 0.853462 0.755666 0.169676
Si Si2 0.828177 0.474132 0.160992
Si Si3 0.639681 0.421513 0.091302
Si Si4 0.695297 0.870656 0.100421
Si Si5 0.869541 0.096507 0.053513
Si Si6 0.283999 0.729582 0.151957
Si Si7 0.624443 0.684064 0.980791
O O1 0.794305 0.613294 0.229340
O O2 0.811380 0.787372 0.085542
O O3 0.749623 0.847178 0.309636
O O4 0.031120 0.787044 0.061266
O O5 0.729198 0.333278 0.948175
O O6 0.796494 0.365180 0.265989
O O7 0.000000 0.500000 0.000000
O O8 0.473392 0.364496 0.233649
O O9 0.726134 0.441320 0.135501
O O10 0.609495 0.558610 0.059948
O O11 0.685464 0.801100 0.003210
O O12 0.758067 0.015861 0.060516
O O13 0.781219 0.142677 0.212796
O O14 0.000000 0.000000 0.000000
O O15 0.465730 0.727773 0.044130
#
# Coordination Sequence:
#
# PCOD9248719 Si02
#       7
#     4   4   4   4   4   4   4
#     4  11  24  48  68 103 154 189 245 316 365 441
#     4  12  27  51  68 104 160 188 243 323 374 435
#     4  12  24  46  76 104 148 198 253 307 375 449
#     4  11  22  43  75 109 140 197 250 302 378 439
#     4  10  22  43  71 100 149 187 248 308 361 449
#     4  12  24  45  77 107 141 202 246 302 379 447
#     4  12  24  44  77 109 144 192 255 313 366 456
#
# _framework density 22.862649999999999
#
# number of rings (size 3 to 8) (size 9 to 14) (size 15 to 20)
#    0.000    0.571    7.143    2.143    0.000    0.571 
#   15.429    0.000    0.000    0.000    0.000    0.000 
#    0.000    0.000    0.000    0.000    0.000    0.000 
#
# Total GULP energy -156514.293241 kJ/mol
# GULP energy per Si atom -5589.796187 kJ/mol
# Density = 2.281061 g / cm^3
# Si number density = 22.862650 Si / 1000 Ang^3
#
#
#
# Elastic Constant Matrix: (Units=GPa)
#
#
# Indices 1 2 3 4 5 6 
#
# 1 61.6968 31.0735 30.0431 0.0000 1.1776 0.0000
# 2 31.0735 129.2903 25.1938 0.0000 7.5340 0.0000
# 3 30.0431 25.1938 99.3607 0.0000 -5.4768 0.0000
# 4 0.0000 0.0000 0.0000 43.2058 0.0000 0.5151
# 5 1.1776 7.5340 -5.4768 0.0000 29.3671 0.0000
# 6 0.0000 0.0000 0.0000 0.5151 0.0000 28.5088
#
#
#
# Elastic Compliance Matrix: (Units=1/GPa)
#
#
# Indices 1 2 3 4 5 6 
#
# 1 0.020794 -0.003908 -0.005342 0.000000 -0.000827 0.000000
# 2 -0.003908 0.009057 -0.001247 0.000000 -0.002399 0.000000
# 3 -0.005342 -0.001247 0.012150 0.000000 0.002800 0.000000
# 4 0.000000 0.000000 0.000000 0.023150 0.000000 -0.000418
# 5 -0.000827 -0.002399 0.002800 0.000000 0.035223 0.000000
# 6 0.000000 0.000000 0.000000 -0.000418 0.000000 0.035084
#
#
# Mechanical properties :
#
#
# Convention : Reuss Voigt Hill
#
# Bulk Modulus (GPa) = 47.60519 51.44095 49.52307
# Shear Modulus (GPa) = 30.58966 33.81883 32.20424
#
# Velocity S-wave (km/s) = 3.66180 3.85023 3.75720
# Velocity P-wave (km/s) = 6.22462 6.50496 6.36633
#
# Compressibility (1/GPa) = 0.02100611
#
# Stress axis : x y z
#
# Youngs Moduli (GPa) = 48.09130 110.41611 82.30430
#
# Poissons Ratio (x) = 0.43155 0.43966
# Poissons Ratio (y) = 0.18796 0.10262
# Poissons Ratio (z) = 0.25690 0.13768
#
# Static dielectric constant tensor:
#      x y z
#    x 1.818960 0.000000 -0.013330 
#    y 0.000000 2.027770 0.000000 
#    z -0.013330 0.000000 1.847070 
# 
# From -- ./inp_files/46897.got.cif
#   From: 2010.05.17/outbox.cif.g08.bks.cpg/sg14_24_cif.got.tgz:46897.got - 2010.06.03 17:49:19.
