data_PCOD9248453
_publ_section_title
;
Structure prediction by ZEFSAII (Michael W. Deem and Ramdas Pophale) SiO2 
 PCOD9248453
Probable space group: P 21/C
;
_chemical_formula_sum "Si O2"
_cell_formula_units_Z 28
_cell_length_a 11.236619
_cell_length_b 11.533548
_cell_length_c 19.606823
_cell_angle_alpha 90.000000
_cell_angle_beta 150.465855
_cell_angle_gamma 90.000000
_cell_volume 1252.569321
_symmetry_space_group_name_H-M "P 21/C"
_symmetry_group_IT_number 14
_symmetry_cell_setting 'monoclinic'
loop_
_space_group_symop_operation_xyz
x,y,z
-x,1/2+y,1/2-z
-x,-y,-z
x,1/2-y,1/2+z
loop_
_atom_site_type_symbol
_atom_site_label
_atom_site_fract_x
_atom_site_fract_y
_atom_site_fract_z
Si Si1 0.374820 0.410256 0.606217
Si Si2 0.040297 0.947144 0.860919
Si Si3 0.969981 0.312222 0.139345
Si Si4 0.350657 0.608673 0.897107
Si Si5 0.244623 0.546809 0.086216
Si Si6 0.753902 0.829117 0.503970
Si Si7 0.780372 0.451610 0.700410
O O1 0.191664 0.515680 0.502347
O O2 0.550890 0.420659 0.758090
O O3 0.234858 0.288155 0.533319
O O4 0.547105 0.416793 0.625768
O O5 0.933587 0.818290 0.815151
O O6 0.203413 0.944328 0.873049
O O7 0.848609 0.048608 0.750296
O O8 0.783993 0.325852 0.109405
O O9 0.158933 0.415585 0.247652
O O10 0.831411 0.348689 0.001351
O O11 0.547797 0.684684 0.957711
O O12 0.500000 0.500000 0.000000
O O13 0.327548 0.438742 0.081605
O O14 0.000000 0.500000 0.000000
O O15 0.001280 0.870355 0.662498
#
# Coordination Sequence:
#
# PCOD9248453 Si02
#       7
#     4   4   4   4   4   4   4
#     4  12  26  41  69  99 134 171 233 272 314 408
#     4  11  25  38  68 109 124 164 230 280 327 384
#     4  10  22  42  69  94 135 171 219 267 337 393
#     4  11  21  43  69  95 132 172 215 270 339 392
#     4  11  23  48  65  90 131 188 217 255 342 392
#     4  11  24  44  71  91 134 178 221 266 338 395
#     4  10  22  45  65  97 132 179 206 276 348 385
#
# _framework density 22.354051999999999
#
# number of rings (size 3 to 8) (size 9 to 14) (size 15 to 20)
#    0.000    1.143    7.143    1.286    8.000    1.143 
#    2.571    0.714    0.000    0.000    0.000    0.000 
#    0.000    0.000    0.000    0.000    0.000    0.000 
#
# Total GULP energy -156567.844883 kJ/mol
# GULP energy per Si atom -5591.708746 kJ/mol
# Density = 2.230317 g / cm^3
# Si number density = 22.354052 Si / 1000 Ang^3
#
#
#
# Elastic Constant Matrix: (Units=GPa)
#
#
# Indices 1 2 3 4 5 6 
#
# 1 24.6520 -4.5458 10.7091 0.0000 -1.5832 0.0000
# 2 -4.5458 78.0528 31.7887 0.0000 -20.9609 0.0000
# 3 10.7091 31.7887 91.8818 0.0000 -31.6942 0.0000
# 4 0.0000 0.0000 0.0000 -24.2377 0.0000 -15.7942
# 5 -1.5832 -20.9609 -31.6942 0.0000 36.8411 0.0000
# 6 0.0000 0.0000 0.0000 -15.7942 0.0000 8.1051
#
#
#
# Elastic Compliance Matrix: (Units=1/GPa)
#
#
# Indices 1 2 3 4 5 6 
#
# 1 0.044729 0.005263 -0.007591 0.000000 -0.001614 0.000000
# 2 0.005263 0.016443 -0.004262 0.000000 0.005915 0.000000
# 3 -0.007591 -0.004262 0.017482 0.000000 0.012288 0.000000
# 4 0.000000 0.000000 0.000000 -0.018177 0.000000 -0.035421
# 5 -0.001614 0.005915 0.012288 0.000000 0.041011 0.000000
# 6 0.000000 0.000000 0.000000 -0.035421 0.000000 0.054356
#
#
# Mechanical properties :
#
#
# Convention : Reuss Voigt Hill
#
# Bulk Modulus (GPa) = 15.27318 30.05451 22.66384
# Shear Modulus (GPa) = 26.19892 14.58398 20.39145
#
# Velocity S-wave (km/s) = 3.42716 2.55700 3.02355
# Velocity P-wave (km/s) = 4.74424 4.71080 4.72755
#
# Compressibility (1/GPa) = 0.06547424
#
# Stress axis : x y z
#
# Youngs Moduli (GPa) = 22.35678 60.81799 57.20312
#
# Poissons Ratio (x) = -0.32010 0.43422
# Poissons Ratio (y) = -0.11767 0.24379
# Poissons Ratio (z) = 0.16971 0.25920
#
# Static dielectric constant tensor:
#      x y z
#    x 1.862760 0.000000 0.004540 
#    y 0.000000 1.839780 0.000000 
#    z 0.004540 0.000000 1.833510 
# 
# From -- ./inp_files/67362.got.cif
#   From: 2010.05.17/outbox.cif.g08.bks.cpg/sg14_34_cif.got.tgz:67362.got - 2010.06.03 17:49:19.
