data_PCOD9248231
_publ_section_title
;
Structure prediction by ZEFSAII (Michael W. Deem and Ramdas Pophale) SiO2 
 PCOD9248231
Probable space group: P 21/C
;
_chemical_formula_sum "Si O2"
_cell_formula_units_Z 32
_cell_length_a 12.326157
_cell_length_b 10.285337
_cell_length_c 16.824138
_cell_angle_alpha 90.000000
_cell_angle_beta 40.008952
_cell_angle_gamma 90.000000
_cell_volume 1371.283952
_symmetry_space_group_name_H-M "P 21/C"
_symmetry_group_IT_number 14
_symmetry_cell_setting 'monoclinic'
loop_
_space_group_symop_operation_xyz
x,y,z
-x,1/2+y,1/2-z
-x,-y,-z
x,1/2-y,1/2+z
loop_
_atom_site_type_symbol
_atom_site_label
_atom_site_fract_x
_atom_site_fract_y
_atom_site_fract_z
Si Si1 0.686968 0.054578 0.882152
Si Si2 0.868014 0.102258 0.618283
Si Si3 0.120381 0.755816 0.129033
Si Si4 0.219951 0.297494 0.606904
Si Si5 0.793680 0.721147 0.053004
Si Si6 0.689187 0.431574 0.073004
Si Si7 0.916207 0.907550 0.113052
Si Si8 0.394658 0.089410 0.619292
O O1 0.751706 0.057704 0.755716
O O2 0.722792 0.184613 0.911344
O O3 0.801380 0.945307 0.857748
O O4 0.500000 0.000000 0.000000
O O5 0.739207 0.148574 0.623094
O O6 0.004660 0.203132 0.572720
O O7 0.000000 0.000000 0.500000
O O8 0.962296 0.763397 0.275955
O O9 0.057807 0.838198 0.087528
O O10 0.168199 0.612329 0.070539
O O11 0.277039 0.294614 0.483893
O O12 0.340144 0.217212 0.599595
O O13 0.704349 0.580482 0.094121
O O14 0.802815 0.797182 0.130855
O O15 0.516839 0.397860 0.126770
O O16 0.780234 0.971495 0.249119
O O17 0.000000 0.000000 0.000000
O O18 0.500000 0.000000 0.500000
#
# Coordination Sequence:
#
# PCOD9248231 Si02
#       8
#     4   4   4   4   4   4   4   4
#     4  12  26  45  70 113 147 182 246 325 374 427
#     4  10  22  41  70  99 132 190 240 286 362 452
#     4  11  24  43  72 100 141 194 240 305 359 449
#     4  11  23  42  74  99 147 190 252 292 372 453
#     4  11  21  43  71 104 136 195 242 292 355 449
#     4  11  23  43  70 101 143 184 247 291 365 431
#     4  11  26  45  68 106 144 185 243 299 362 436
#     4  11  25  47  69 105 142 197 237 299 370 445
#
# _framework density 23.335795000000001
#
# number of rings (size 3 to 8) (size 9 to 14) (size 15 to 20)
#    0.000    1.000    3.750    3.000    5.250    3.000 
#    4.500    0.000    0.000    0.000    0.000    0.000 
#    0.000    0.000    0.000    0.000    0.000    0.000 
#
# Total GULP energy -178489.729508 kJ/mol
# GULP energy per Si atom -5577.804047 kJ/mol
# Density = 2.328268 g / cm^3
# Si number density = 23.335795 Si / 1000 Ang^3
#
#
#
# Elastic Constant Matrix: (Units=GPa)
#
#
# Indices 1 2 3 4 5 6 
#
# 1 120.8379 5.0833 23.7730 0.0000 5.0165 0.0000
# 2 5.0833 51.0071 21.3799 0.0000 6.6558 0.0000
# 3 23.7730 21.3799 121.1212 0.0000 2.4918 0.0000
# 4 0.0000 0.0000 0.0000 28.6973 0.0000 6.0508
# 5 5.0165 6.6558 2.4918 0.0000 39.1221 0.0000
# 6 0.0000 0.0000 0.0000 6.0508 0.0000 27.9113
#
#
#
# Elastic Compliance Matrix: (Units=1/GPa)
#
#
# Indices 1 2 3 4 5 6 
#
# 1 0.008647 -0.000031 -0.001671 0.000000 -0.000997 0.000000
# 2 -0.000031 0.021624 -0.003740 0.000000 -0.003437 0.000000
# 3 -0.001671 -0.003740 0.009239 0.000000 0.000262 0.000000
# 4 0.000000 0.000000 0.000000 0.036516 0.000000 -0.007916
# 5 -0.000997 -0.003437 0.000262 0.000000 0.026257 0.000000
# 6 0.000000 0.000000 0.000000 -0.007916 0.000000 0.037544
#
#
# Mechanical properties :
#
#
# Convention : Reuss Voigt Hill
#
# Bulk Modulus (GPa) = 34.93418 43.71541 39.32480
# Shear Modulus (GPa) = 31.20051 35.32814 33.26432
#
# Velocity S-wave (km/s) = 3.66050 3.89511 3.77963
# Velocity P-wave (km/s) = 5.73310 6.24524 5.99464
#
# Compressibility (1/GPa) = 0.02862526
#
# Stress axis : x y z
#
# Youngs Moduli (GPa) = 115.64663 46.24406 108.23649
#
# Poissons Ratio (x) = 0.00144 0.18088
# Poissons Ratio (y) = 0.00360 0.40483
# Poissons Ratio (z) = 0.19327 0.17296
#
# Static dielectric constant tensor:
#      x y z
#    x 1.975850 0.000000 0.042510 
#    y 0.000000 1.970420 0.000000 
#    z 0.042510 0.000000 1.956380 
# 
# From -- ./inp_files/57698.got.cif
#   From: 2010.05.17/outbox.cif.g08.bks.cpg/sg14_29_cif.got.tgz:57698.got - 2010.06.03 17:49:19.
