data_PCOD9248300
_publ_section_title
;
Structure prediction by ZEFSAII (Michael W. Deem and Ramdas Pophale) SiO2 
 PCOD9248300
Probable space group: P 21/C
;
_chemical_formula_sum "Si O2"
_cell_formula_units_Z 32
_cell_length_a 11.845669
_cell_length_b 12.136015
_cell_length_c 19.864111
_cell_angle_alpha 90.000000
_cell_angle_beta 30.950349
_cell_angle_gamma 90.000000
_cell_volume 1468.646259
_symmetry_space_group_name_H-M "P 21/C"
_symmetry_group_IT_number 14
_symmetry_cell_setting 'monoclinic'
loop_
_space_group_symop_operation_xyz
x,y,z
-x,1/2+y,1/2-z
-x,-y,-z
x,1/2-y,1/2+z
loop_
_atom_site_type_symbol
_atom_site_label
_atom_site_fract_x
_atom_site_fract_y
_atom_site_fract_z
Si Si1 0.204439 0.314550 0.771066
Si Si2 0.824370 0.589018 0.507118
Si Si3 0.157016 0.965081 0.480062
Si Si4 0.289015 0.314614 0.987144
Si Si5 0.048515 0.748612 0.727086
Si Si6 0.642660 0.900033 0.239743
Si Si7 0.254113 0.908578 0.716270
Si Si8 0.383565 0.932205 0.998845
O O1 0.256148 0.219572 0.798169
O O2 0.422779 0.383153 0.645740
O O3 0.000994 0.391285 0.893891
O O4 0.129033 0.260617 0.740231
O O5 0.691460 0.701301 0.563213
O O6 0.764112 0.549186 0.612339
O O7 0.761504 0.506240 0.478259
O O8 0.076974 0.621642 0.364626
O O9 0.384861 0.899714 0.353416
O O10 0.235673 0.080214 0.470100
O O11 0.000000 0.000000 0.500000
O O12 0.088279 0.301509 0.141263
O O13 0.523704 0.339060 0.899493
O O14 0.136625 0.868854 0.707256
O O15 0.237623 0.665999 0.605141
O O16 0.678705 0.970098 0.290782
O O17 0.500000 0.000000 0.000000
#
# Coordination Sequence:
#
# PCOD9248300 Si02
#       8
#     4   4   4   4   4   4   4   4
#     4  12  25  42  65  96 129 170 219 274 332 399
#     4  11  23  41  66  95 128 170 215 272 333 396
#     4  11  24  44  66  94 131 174 218 269 331 398
#     4  10  23  41  65  94 128 170 216 267 331 397
#     4  11  23  42  65  94 129 172 217 271 333 397
#     4  11  25  42  65  96 132 172 222 277 333 398
#     4  10  22  42  64  92 128 171 216 267 330 397
#     4  12  24  42  65  95 129 169 220 275 330 394
#
# _framework density 21.788772999999999
#
# number of rings (size 3 to 8) (size 9 to 14) (size 15 to 20)
#    0.000    1.000    0.000    7.125    0.000    6.000 
#    0.000    5.000    0.000    0.000    0.000    0.000 
#    0.000    0.000    0.000    0.000    0.000    0.000 
#
# Total GULP energy -178651.455889 kJ/mol
# GULP energy per Si atom -5582.857997 kJ/mol
# Density = 2.173918 g / cm^3
# Si number density = 21.788773 Si / 1000 Ang^3
#
#
#
# Elastic Constant Matrix: (Units=GPa)
#
#
# Indices 1 2 3 4 5 6 
#
# 1 79.9182 22.2395 8.5819 0.0000 -0.5393 0.0000
# 2 22.2395 68.9816 16.4771 0.0000 3.4920 0.0000
# 3 8.5819 16.4771 105.7598 0.0000 -14.8810 0.0000
# 4 0.0000 0.0000 0.0000 29.2913 0.0000 9.8685
# 5 -0.5393 3.4920 -14.8810 0.0000 30.2228 0.0000
# 6 0.0000 0.0000 0.0000 9.8685 0.0000 8.9573
#
#
#
# Elastic Compliance Matrix: (Units=1/GPa)
#
#
# Indices 1 2 3 4 5 6 
#
# 1 0.013775 -0.004386 -0.000353 0.000000 0.000579 0.000000
# 2 -0.004386 0.016731 -0.002722 0.000000 -0.003352 0.000000
# 3 -0.000353 -0.002722 0.010692 0.000000 0.005573 0.000000
# 4 0.000000 0.000000 0.000000 0.054292 0.000000 -0.059815
# 5 0.000579 -0.003352 0.005573 0.000000 0.036229 0.000000
# 6 0.000000 0.000000 0.000000 -0.059815 0.000000 0.177542
#
#
# Mechanical properties :
#
#
# Convention : Reuss Voigt Hill
#
# Bulk Modulus (GPa) = 38.05850 38.80628 38.43239
# Shear Modulus (GPa) = 15.01763 27.51836 21.26799
#
# Velocity S-wave (km/s) = 2.62818 3.55767 3.12765
# Velocity P-wave (km/s) = 5.16863 5.89278 5.54255
#
# Compressibility (1/GPa) = 0.02627534
#
# Stress axis : x y z
#
# Youngs Moduli (GPa) = 72.59455 59.77072 93.52530
#
# Poissons Ratio (x) = 0.26216 0.03302
# Poissons Ratio (y) = 0.31840 0.25460
# Poissons Ratio (z) = 0.02563 0.16271
#
# Static dielectric constant tensor:
#      x y z
#    x 1.821230 0.000000 0.481340 
#    y 0.000000 1.830310 0.000000 
#    z 0.481340 0.000000 3.744950 
# 
# From -- ./inp_files/67417.got.cif
#   From: 2010.05.17/outbox.cif.g08.bks.cpg/sg14_34_cif.got.tgz:67417.got - 2010.06.03 17:49:19.
