data_PCOD9248852
_publ_section_title
;
Structure prediction by ZEFSAII (Michael W. Deem and Ramdas Pophale) SiO2 
 PCOD9248852
Probable space group: P 21/C
;
_chemical_formula_sum "Si O2"
_cell_formula_units_Z 32
_cell_length_a 8.653720
_cell_length_b 14.401732
_cell_length_c 12.197400
_cell_angle_alpha 90.000000
_cell_angle_beta 121.656816
_cell_angle_gamma 90.000000
_cell_volume 1293.957388
_symmetry_space_group_name_H-M "P 21/C"
_symmetry_group_IT_number 14
_symmetry_cell_setting 'monoclinic'
loop_
_space_group_symop_operation_xyz
x,y,z
-x,1/2+y,1/2-z
-x,-y,-z
x,1/2-y,1/2+z
loop_
_atom_site_type_symbol
_atom_site_label
_atom_site_fract_x
_atom_site_fract_y
_atom_site_fract_z
Si Si1 0.338560 0.124274 0.959433
Si Si2 0.924868 0.736010 0.260987
Si Si3 0.220487 0.874643 0.283073
Si Si4 0.356730 0.301528 0.702755
Si Si5 0.062833 0.968978 0.794459
Si Si6 0.534096 0.402596 0.953464
Si Si7 0.795201 0.020933 0.385308
Si Si8 0.527232 0.385984 0.307949
O O1 0.492099 0.101105 0.925104
O O2 0.237532 0.216759 0.873488
O O3 0.194352 0.039308 0.908759
O O4 0.387703 0.145755 0.102070
O O5 0.086973 0.791705 0.263868
O O6 0.996792 0.631637 0.303821
O O7 0.836724 0.750795 0.349992
O O8 0.401371 0.845348 0.417927
O O9 0.284888 0.904911 0.185427
O O10 0.113169 0.964953 0.289731
O O11 0.377121 0.369775 0.814853
O O12 0.503647 0.222789 0.776766
O O13 0.173749 0.947329 0.725857
O O14 0.705056 0.408453 0.935536
O O15 0.500000 0.500000 0.000000
O O16 0.639416 0.941143 0.313449
O O17 0.000000 0.000000 0.500000
#
# Coordination Sequence:
#
# PCOD9248852 Si02
#       8
#     4   4   4   4   4   4   4   4
#     4   9  23  47  66 101 147 188 240 298 369 450
#     4  10  24  43  74 100 138 196 234 304 373 432
#     4  11  23  44  71 111 140 180 257 303 365 446
#     4  11  26  44  69 102 144 192 235 297 380 431
#     4  10  22  44  69 102 140 189 242 298 368 433
#     4  12  25  44  74 108 137 189 247 308 363 441
#     4  11  23  39  72 103 137 186 241 299 360 436
#     4  10  24  43  68 102 145 189 233 310 369 431
#
# _framework density 24.730333999999999
#
# number of rings (size 3 to 8) (size 9 to 14) (size 15 to 20)
#    0.000    1.500    2.500    1.500    7.000    0.500 
#    2.250    3.750    0.000    0.000    0.000    0.000 
#    0.000    0.000    0.000    0.000    0.000    0.000 
#
# Total GULP energy -178276.814730 kJ/mol
# GULP energy per Si atom -5571.150460 kJ/mol
# Density = 2.467405 g / cm^3
# Si number density = 24.730334 Si / 1000 Ang^3
#
#
#
# Elastic Constant Matrix: (Units=GPa)
#
#
# Indices 1 2 3 4 5 6 
#
# 1 147.6767 17.5972 25.2811 0.0000 -24.2947 0.0000
# 2 17.5972 88.9361 14.0456 0.0000 -6.1153 0.0000
# 3 25.2811 14.0456 85.0468 0.0000 -19.1437 0.0000
# 4 0.0000 0.0000 0.0000 26.5884 0.0000 -2.5479
# 5 -24.2947 -6.1153 -19.1437 0.0000 29.9150 0.0000
# 6 0.0000 0.0000 0.0000 -2.5479 0.0000 40.8144
#
#
#
# Elastic Compliance Matrix: (Units=1/GPa)
#
#
# Indices 1 2 3 4 5 6 
#
# 1 0.007989 -0.001044 -0.000923 0.000000 0.005684 0.000000
# 2 -0.001044 0.011727 -0.001493 0.000000 0.000594 0.000000
# 3 -0.000923 -0.001493 0.014068 0.000000 0.007948 0.000000
# 4 0.000000 0.000000 0.000000 0.037837 0.000000 0.002362
# 5 0.005684 0.000594 0.007948 0.000000 0.043252 0.000000
# 6 0.000000 0.000000 0.000000 0.002362 0.000000 0.024649
#
#
# Mechanical properties :
#
#
# Convention : Reuss Voigt Hill
#
# Bulk Modulus (GPa) = 37.22313 48.38970 42.80641
# Shear Modulus (GPa) = 32.17581 37.11260 34.64420
#
# Velocity S-wave (km/s) = 3.61094 3.87808 3.74689
# Velocity P-wave (km/s) = 5.69820 6.29778 6.00548
#
# Compressibility (1/GPa) = 0.02686502
#
# Stress axis : x y z
#
# Youngs Moduli (GPa) = 125.17092 85.27174 71.08237
#
# Poissons Ratio (x) = 0.08904 0.06560
# Poissons Ratio (y) = 0.13070 0.10610
# Poissons Ratio (z) = 0.11552 0.12728
#
# Static dielectric constant tensor:
#      x y z
#    x 2.048170 0.000000 0.100200 
#    y 0.000000 2.037270 0.000000 
#    z 0.100200 0.000000 2.083430 
# 
# From -- ./inp_files/25545.got.cif
#   From: 2010.05.17/outbox.cif.g08.bks.cpg/sg14_13_cif.got.tgz:25545.got - 2010.06.03 17:49:19.
