data_PCOD9248278
_publ_section_title
;
Structure prediction by ZEFSAII (Michael W. Deem and Ramdas Pophale) SiO2 
 PCOD9248278
Probable space group: P 21/C
;
_chemical_formula_sum "Si O2"
_cell_formula_units_Z 26
_cell_length_a 21.816550
_cell_length_b 7.899005
_cell_length_c 9.395212
_cell_angle_alpha 90.000000
_cell_angle_beta 45.420646
_cell_angle_gamma 90.000000
_cell_volume 1153.228046
_symmetry_space_group_name_H-M "P 21/C"
_symmetry_group_IT_number 14
_symmetry_cell_setting 'monoclinic'
loop_
_space_group_symop_operation_xyz
x,y,z
-x,1/2+y,1/2-z
-x,-y,-z
x,1/2-y,1/2+z
loop_
_atom_site_type_symbol
_atom_site_label
_atom_site_fract_x
_atom_site_fract_y
_atom_site_fract_z
Si Si1 0.337922 0.056876 0.457154
Si Si2 0.104391 0.522055 0.658614
Si Si3 0.500000 0.000000 0.000000
Si Si4 0.780375 0.461828 0.072659
Si Si5 0.632859 0.556560 0.527599
Si Si6 0.289661 0.915466 0.829909
Si Si7 0.937642 0.324255 0.967399
O O1 0.369995 0.242073 0.448364
O O2 0.407263 0.987853 0.233494
O O3 0.247348 0.067262 0.520031
O O4 0.326766 0.941678 0.613085
O O5 0.203988 0.470155 0.487733
O O6 0.084166 0.637651 0.553563
O O7 0.036478 0.371456 0.781542
O O8 0.087436 0.635943 0.828482
O O9 0.551727 0.002091 0.069464
O O10 0.721403 0.519677 0.300124
O O11 0.747679 0.271635 0.090265
O O12 0.877350 0.446704 0.968649
O O13 0.640874 0.466273 0.666462
#
# Coordination Sequence:
#
# PCOD9248278 Si02
#       7
#     4   4   2   4   4   4   4
#     4  11  25  42  69  97 129 170 220 268 330 390
#     4  10  23  40  64  95 133 177 221 270 322 380
#     4  10  26  44  62  94 130 164 200 272 330 388
#     4  10  22  42  65  95 133 175 215 271 323 392
#     4  11  23  44  67  96 133 163 222 268 324 396
#     4  11  22  41  68  97 127 178 219 267 328 395
#     4  10  22  42  62  96 137 173 223 270 316 389
#
# _framework density 22.54541
#
# number of rings (size 3 to 8) (size 9 to 14) (size 15 to 20)
#    0.000    1.538    1.538    2.769    6.462    8.615 
#    0.000    0.000    0.000    0.000    0.000    0.000 
#    0.000    0.000    0.000    0.000    0.000    0.000 
#
# Total GULP energy -144871.182889 kJ/mol
# GULP energy per Si atom -5571.968573 kJ/mol
# Density = 2.249410 g / cm^3
# Si number density = 22.545410 Si / 1000 Ang^3
#
#
#
# Elastic Constant Matrix: (Units=GPa)
#
#
# Indices 1 2 3 4 5 6 
#
# 1 94.1030 5.6454 13.7977 0.0000 -11.8423 0.0000
# 2 5.6454 29.6225 -8.6171 0.0000 -10.3677 0.0000
# 3 13.7977 -8.6171 47.2175 0.0000 -22.1071 0.0000
# 4 0.0000 0.0000 0.0000 0.0230 0.0000 -2.2137
# 5 -11.8423 -10.3677 -22.1071 0.0000 9.7005 0.0000
# 6 0.0000 0.0000 0.0000 -2.2137 0.0000 -2.8066
#
#
#
# Elastic Compliance Matrix: (Units=1/GPa)
#
#
# Indices 1 2 3 4 5 6 
#
# 1 0.011380 -0.004177 -0.004876 0.000000 -0.001684 0.000000
# 2 -0.004177 0.004414 -0.027567 0.000000 -0.063206 0.000000
# 3 -0.004876 -0.027567 -0.014792 0.000000 -0.069125 0.000000
# 4 0.000000 0.000000 0.000000 0.565276 0.000000 -0.445859
# 5 -0.001684 -0.063206 -0.069125 0.000000 -0.124055 0.000000
# 6 0.000000 0.000000 0.000000 -0.445859 0.000000 -0.004630
#
#
# Mechanical properties :
#
#
# Convention : Reuss Voigt Hill
#
# Bulk Modulus (GPa) = -13.84316 21.39944 3.77814
# Shear Modulus (GPa) = 10.27212 12.05785 11.16499
#
# Velocity S-wave (km/s) = 2.13684 2.31514 2.22777
# Velocity P-wave (km/s) = 0.25562 4.08152 2.88040
#
# Compressibility (1/GPa) = -0.07223786
#
# Stress axis : x y z
#
# Youngs Moduli (GPa) = 87.87152 226.57738 -67.60604
#
# Poissons Ratio (x) = 0.94639 -0.32967
# Poissons Ratio (y) = 0.36703 -1.86368
# Poissons Ratio (z) = 0.42849 6.24600
#
# Static dielectric constant tensor:
#      x y z
#    x 1.825070 0.000000 0.011230 
#    y 0.000000 1.851000 0.000000 
#    z 0.011230 0.000000 1.796030 
# 
# From -- ./inp_files/17599.got.cif
#   From: 2010.05.17/outbox.cif.g08.bks.cpg/sg14_9_cif.got.tgz:17599.got - 2010.06.03 17:49:19.
