data_PCOD9248646
_publ_section_title
;
Structure prediction by ZEFSAII (Michael W. Deem and Ramdas Pophale) SiO2 
 PCOD9248646
Probable space group: P 21/C
;
_chemical_formula_sum "Si O2"
_cell_formula_units_Z 26
_cell_length_a 15.724888
_cell_length_b 4.993511
_cell_length_c 14.750156
_cell_angle_alpha 90.000000
_cell_angle_beta 80.931456
_cell_angle_gamma 90.000000
_cell_volume 1143.740512
_symmetry_space_group_name_H-M "P 21/C"
_symmetry_group_IT_number 14
_symmetry_cell_setting 'monoclinic'
loop_
_space_group_symop_operation_xyz
x,y,z
-x,1/2+y,1/2-z
-x,-y,-z
x,1/2-y,1/2+z
loop_
_atom_site_type_symbol
_atom_site_label
_atom_site_fract_x
_atom_site_fract_y
_atom_site_fract_z
Si Si1 0.500000 0.000000 0.000000
Si Si2 0.061086 0.748210 0.474390
Si Si3 0.806882 0.258268 0.201906
Si Si4 0.220371 0.749794 0.585102
Si Si5 0.305302 0.276246 0.302625
Si Si6 0.382386 0.979779 0.455619
Si Si7 0.634398 0.642303 0.393363
O O1 0.565943 0.207651 0.055788
O O2 0.435713 0.908690 0.101398
O O3 0.104970 0.743023 0.367972
O O4 0.138994 0.738756 0.533533
O O5 0.000000 0.500000 0.500000
O O6 0.000000 0.000000 0.500000
O O7 0.807797 0.175247 0.307700
O O8 0.771107 0.559291 0.201058
O O9 0.738796 0.056543 0.165372
O O10 0.291894 0.934280 0.524506
O O11 0.275046 0.476690 0.589595
O O12 0.353516 0.304068 0.199018
O O13 0.363289 0.129176 0.366124
O O14 0.420419 0.219298 0.514233
#
# Coordination Sequence:
#
# PCOD9248646 Si02
#       7
#     2   4   4   4   4   4   4
#     4  10  24  42  62 104 144 186 224 306 350 418
#     4  12  27  42  66 103 141 177 230 291 357 425
#     4  11  23  44  68 101 133 179 241 283 349 430
#     4  10  23  42  71  95 137 188 233 290 352 419
#     4  11  23  40  74 100 132 185 240 285 342 431
#     4  11  21  43  70  97 140 184 234 289 358 415
#     4  10  22  43  68 100 137 183 241 284 354 423
#
# _framework density 22.732427999999999
#
# number of rings (size 3 to 8) (size 9 to 14) (size 15 to 20)
#    0.000    1.231    3.077    2.308    4.308    1.231 
#    2.769    0.000    0.000    0.000    0.000    0.000 
#    0.000    0.000    0.000    0.000    0.000    0.000 
#
# Total GULP energy -144930.116311 kJ/mol
# GULP energy per Si atom -5574.235243 kJ/mol
# Density = 2.268069 g / cm^3
# Si number density = 22.732428 Si / 1000 Ang^3
#
#
#
# Elastic Constant Matrix: (Units=GPa)
#
#
# Indices 1 2 3 4 5 6 
#
# 1 160.7013 44.8543 61.7887 0.0000 -10.3027 0.0000
# 2 44.8543 125.9222 25.6972 0.0000 -8.5673 0.0000
# 3 61.7887 25.6972 99.0641 0.0000 -0.2516 0.0000
# 4 0.0000 0.0000 0.0000 30.9613 0.0000 -6.6334
# 5 -10.3027 -8.5673 -0.2516 0.0000 32.1774 0.0000
# 6 0.0000 0.0000 0.0000 -6.6334 0.0000 42.0990
#
#
#
# Elastic Compliance Matrix: (Units=1/GPa)
#
#
# Indices 1 2 3 4 5 6 
#
# 1 0.008840 -0.001975 -0.004996 0.000000 0.002265 0.000000
# 2 -0.001975 0.008988 -0.001095 0.000000 0.001752 0.000000
# 3 -0.004996 -0.001095 0.013490 0.000000 -0.001786 0.000000
# 4 0.000000 0.000000 0.000000 0.033427 0.000000 0.005267
# 5 0.002265 0.001752 -0.001786 0.000000 0.032256 0.000000
# 6 0.000000 0.000000 0.000000 0.005267 0.000000 0.024583
#
#
# Mechanical properties :
#
#
# Convention : Reuss Voigt Hill
#
# Bulk Modulus (GPa) = 65.85041 72.26312 69.05677
# Shear Modulus (GPa) = 35.01961 37.93736 36.47849
#
# Velocity S-wave (km/s) = 3.92920 4.08961 4.01020
# Velocity P-wave (km/s) = 7.04381 7.35917 7.20322
#
# Compressibility (1/GPa) = 0.01518593
#
# Stress axis : x y z
#
# Youngs Moduli (GPa) = 113.12085 111.26361 74.12969
#
# Poissons Ratio (x) = 0.21978 0.37033
# Poissons Ratio (y) = 0.22345 0.08117
# Poissons Ratio (z) = 0.56511 0.12182
#
# Static dielectric constant tensor:
#      x y z
#    x 1.916970 0.000000 0.104360 
#    y 0.000000 2.013360 0.000000 
#    z 0.104360 0.000000 1.983840 
# 
# From -- ./inp_files/45871.got.cif
#   From: 2010.05.17/outbox.cif.g08.bks.cpg/sg14_23_cif.got.tgz:45871.got - 2010.06.03 17:49:19.
