data_PCOD9248400
_publ_section_title
;
Structure prediction by ZEFSAII (Michael W. Deem and Ramdas Pophale) SiO2 
 PCOD9248400
Probable space group: P 21/C
;
_chemical_formula_sum "Si O2"
_cell_formula_units_Z 20
_cell_length_a 11.744994
_cell_length_b 8.165030
_cell_length_c 10.402650
_cell_angle_alpha 90.000000
_cell_angle_beta 124.231425
_cell_angle_gamma 90.000000
_cell_volume 824.784360
_symmetry_space_group_name_H-M "P 21/C"
_symmetry_group_IT_number 14
_symmetry_cell_setting 'monoclinic'
loop_
_space_group_symop_operation_xyz
x,y,z
-x,1/2+y,1/2-z
-x,-y,-z
x,1/2-y,1/2+z
loop_
_atom_site_type_symbol
_atom_site_label
_atom_site_fract_x
_atom_site_fract_y
_atom_site_fract_z
Si Si1 0.797794 0.433565 0.318425
Si Si2 0.640532 0.772839 0.286690
Si Si3 0.993878 0.353784 0.677203
Si Si4 0.122682 0.028802 0.676024
Si Si5 0.478316 0.812227 0.445283
O O1 0.724088 0.601333 0.324189
O O2 0.898687 0.361955 0.490343
O O3 0.677526 0.310523 0.202442
O O4 0.893496 0.500898 0.264609
O O5 0.742807 0.922405 0.318684
O O6 0.576485 0.776119 0.387116
O O7 0.522974 0.783564 0.101492
O O8 0.894454 0.384059 0.733126
O O9 0.085628 0.191824 0.734363
O O10 0.000000 0.000000 0.500000
O O11 0.500000 0.000000 0.500000
#
# Coordination Sequence:
#
# PCOD9248400 Si02
#       5
#     4   4   4   4   4
#     4   9  21  41  69  94 135 181 225 287 342 412
#     4  10  22  43  69  95 142 182 230 288 354 402
#     4  10  23  43  67 101 135 177 234 286 346 412
#     4  11  26  41  71  99 138 181 231 289 352 416
#     4  10  22  42  67  95 132 181 225 278 346 416
#
# _framework density 24.248763
#
# number of rings (size 3 to 8) (size 9 to 14) (size 15 to 20)
#    0.000    2.000    0.000    1.200   16.800    1.600 
#    3.600    5.000    0.000    0.000    0.000    0.000 
#    0.000    0.000    0.000    0.000    0.000    0.000 
#
# Total GULP energy -111911.167017 kJ/mol
# GULP energy per Si atom -5595.558351 kJ/mol
# Density = 2.419357 g / cm^3
# Si number density = 24.248763 Si / 1000 Ang^3
#
#
#
# Elastic Constant Matrix: (Units=GPa)
#
#
# Indices 1 2 3 4 5 6 
#
# 1 102.7098 28.0119 14.3016 0.0000 -6.8409 0.0000
# 2 28.0119 53.2650 -1.8889 0.0000 1.0840 0.0000
# 3 14.3016 -1.8889 57.2538 0.0000 4.7117 0.0000
# 4 0.0000 0.0000 0.0000 34.1590 0.0000 7.7465
# 5 -6.8409 1.0840 4.7117 0.0000 45.0972 0.0000
# 6 0.0000 0.0000 0.0000 7.7465 0.0000 37.6656
#
#
#
# Elastic Compliance Matrix: (Units=1/GPa)
#
#
# Indices 1 2 3 4 5 6 
#
# 1 0.012165 -0.006568 -0.003450 0.000000 0.002364 0.000000
# 2 -0.006568 0.022354 0.002526 0.000000 -0.001798 0.000000
# 3 -0.003450 0.002526 0.018619 0.000000 -0.002529 0.000000
# 4 0.000000 0.000000 0.000000 0.030707 0.000000 -0.006315
# 5 0.002364 -0.001798 -0.002529 0.000000 0.022840 0.000000
# 6 0.000000 0.000000 0.000000 -0.006315 0.000000 0.027848
#
#
# Mechanical properties :
#
#
# Convention : Reuss Voigt Hill
#
# Bulk Modulus (GPa) = 26.20891 32.67532 29.44211
# Shear Modulus (GPa) = 30.81907 34.90463 32.86185
#
# Velocity S-wave (km/s) = 3.56891 3.79811 3.68529
# Velocity P-wave (km/s) = 5.27396 5.72176 5.50242
#
# Compressibility (1/GPa) = 0.03815497
#
# Stress axis : x y z
#
# Youngs Moduli (GPa) = 82.20088 44.73395 53.70750
#
# Poissons Ratio (x) = 0.29382 0.18529
# Poissons Ratio (y) = 0.53991 -0.13567
# Poissons Ratio (z) = 0.28360 -0.11300
#
# Static dielectric constant tensor:
#      x y z
#    x 1.923680 0.000000 0.027140 
#    y 0.000000 2.013230 0.000000 
#    z 0.027140 0.000000 1.944050 
# 
# From -- ./inp_files/27860.got.cif
#   From: 2010.05.17/outbox.cif.g08.bks.cpg/sg14_14_cif.got.tgz:27860.got - 2010.06.03 17:49:19.
