data_PCOD9248433
_publ_section_title
;
Structure prediction by ZEFSAII (Michael W. Deem and Ramdas Pophale) SiO2 
 PCOD9248433
Probable space group: P 21/C
;
_chemical_formula_sum "Si O2"
_cell_formula_units_Z 24
_cell_length_a 19.331259
_cell_length_b 5.995335
_cell_length_c 13.737567
_cell_angle_alpha 90.000000
_cell_angle_beta 139.657252
_cell_angle_gamma 90.000000
_cell_volume 1030.690693
_symmetry_space_group_name_H-M "P 21/C"
_symmetry_group_IT_number 14
_symmetry_cell_setting 'monoclinic'
loop_
_space_group_symop_operation_xyz
x,y,z
-x,1/2+y,1/2-z
-x,-y,-z
x,1/2-y,1/2+z
loop_
_atom_site_type_symbol
_atom_site_label
_atom_site_fract_x
_atom_site_fract_y
_atom_site_fract_z
Si Si1 0.789348 0.325790 0.159884
Si Si2 0.541117 0.801207 0.613391
Si Si3 0.329000 0.579182 0.628666
Si Si4 0.153121 0.225691 0.401311
Si Si5 0.338657 0.904580 0.820543
Si Si6 0.994347 0.039307 0.378062
O O1 0.785450 0.575886 0.113547
O O2 0.759030 0.224597 0.232403
O O3 0.910365 0.242396 0.271748
O O4 0.700920 0.202070 0.000779
O O5 0.645512 0.667021 0.685678
O O6 0.441913 0.637345 0.500000
O O7 0.500000 0.000000 0.500000
O O8 0.572323 0.911535 0.749153
O O9 0.225496 0.418647 0.525113
O O10 0.345198 0.770877 0.726302
O O11 0.059147 0.334702 0.236549
O O12 0.103884 0.089819 0.438890
O O13 0.000000 0.000000 0.500000
#
# Coordination Sequence:
#
# PCOD9248433 Si02
#       6
#     4   4   4   4   4   4
#     4  11  25  42  63  99 129 176 229 282 342 422
#     4   9  20  42  66  95 133 170 217 277 336 415
#     4  10  23  40  65  93 133 175 219 286 333 411
#     4  11  24  45  63  98 136 169 243 288 347 421
#     4  10  22  42  68  97 132 177 225 272 349 408
#     4  11  26  41  67  94 131 180 228 298 357 412
#
# _framework density 23.285356
#
# number of rings (size 3 to 8) (size 9 to 14) (size 15 to 20)
#    0.000    1.667    1.667    1.000    7.000    4.667 
#   12.000    0.000    0.000    0.000    0.000    0.000 
#    0.000    0.000    0.000    0.000    0.000    0.000 
#
# Total GULP energy -133657.748033 kJ/mol
# GULP energy per Si atom -5569.072835 kJ/mol
# Density = 2.323236 g / cm^3
# Si number density = 23.285356 Si / 1000 Ang^3
#
#
#
# Elastic Constant Matrix: (Units=GPa)
#
#
# Indices 1 2 3 4 5 6 
#
# 1 59.3672 17.0791 3.9682 0.0000 0.2091 0.0000
# 2 17.0791 91.0209 17.6431 0.0000 -2.5906 0.0000
# 3 3.9682 17.6431 100.2295 0.0000 -19.5604 0.0000
# 4 0.0000 0.0000 0.0000 43.6112 0.0000 -2.4747
# 5 0.2091 -2.5906 -19.5604 0.0000 27.9480 0.0000
# 6 0.0000 0.0000 0.0000 -2.4747 0.0000 -3.9953
#
#
#
# Elastic Compliance Matrix: (Units=1/GPa)
#
#
# Indices 1 2 3 4 5 6 
#
# 1 0.017816 -0.003314 -0.000241 0.000000 -0.000609 0.000000
# 2 -0.003314 0.011995 -0.002037 0.000000 -0.000289 0.000000
# 3 -0.000241 -0.002037 0.011939 0.000000 0.008169 0.000000
# 4 0.000000 0.000000 0.000000 0.022151 0.000000 -0.013721
# 5 -0.000609 -0.000289 0.008169 0.000000 0.041476 0.000000
# 6 0.000000 0.000000 0.000000 -0.013721 0.000000 -0.241798
#
#
# Mechanical properties :
#
#
# Convention : Reuss Voigt Hill
#
# Bulk Modulus (GPa) = 32.71409 36.44427 34.57918
# Shear Modulus (GPa) = -43.45950 27.64126 -7.90912
#
# Velocity S-wave (km/s) = -4.32486 3.44912 -1.84499
# Velocity P-wave (km/s) = 3.29537 5.61668 3.21617
#
# Compressibility (1/GPa) = 0.03056787
#
# Stress axis : x y z
#
# Youngs Moduli (GPa) = 56.12977 83.36953 83.75623
#
# Poissons Ratio (x) = 0.27625 0.02018
# Poissons Ratio (y) = 0.18599 0.17058
# Poissons Ratio (z) = 0.01352 0.16979
#
# Static dielectric constant tensor:
#      x y z
#    x 2.009050 0.000000 0.017450 
#    y 0.000000 1.930370 0.000000 
#    z 0.017450 0.000000 1.863780 
# 
# From -- ./inp_files/49732.got.cif
#   From: 2010.05.17/outbox.cif.g08.bks.cpg/sg14_25_cif.got.tgz:49732.got - 2010.06.03 17:49:19.
