data_PCOD9248030
_publ_section_title
;
Structure prediction by ZEFSAII (Michael W. Deem and Ramdas Pophale) SiO2 
 PCOD9248030
Probable space group: P 21/C
;
_chemical_formula_sum "Si O2"
_cell_formula_units_Z 24
_cell_length_a 13.384887
_cell_length_b 8.348328
_cell_length_c 8.345505
_cell_angle_alpha 90.000000
_cell_angle_beta 99.433976
_cell_angle_gamma 90.000000
_cell_volume 919.926180
_symmetry_space_group_name_H-M "P 21/C"
_symmetry_group_IT_number 14
_symmetry_cell_setting 'monoclinic'
loop_
_space_group_symop_operation_xyz
x,y,z
-x,1/2+y,1/2-z
-x,-y,-z
x,1/2-y,1/2+z
loop_
_atom_site_type_symbol
_atom_site_label
_atom_site_fract_x
_atom_site_fract_y
_atom_site_fract_z
Si Si1 0.850684 0.599227 0.571844
Si Si2 0.533011 0.493301 0.757771
Si Si3 0.813662 0.407295 0.081433
Si Si4 0.933781 0.310859 0.413510
Si Si5 0.600605 0.297519 0.089092
Si Si6 0.732073 0.680457 0.857261
O O1 0.902765 0.429233 0.550988
O O2 0.801791 0.625853 0.729637
O O3 0.763566 0.642673 0.420115
O O4 0.947021 0.715661 0.567758
O O5 0.429125 0.580665 0.774686
O O6 0.550876 0.373540 0.615237
O O7 0.617906 0.634152 0.781957
O O8 0.558602 0.379880 0.917752
O O9 0.893244 0.399936 0.245439
O O10 0.720905 0.289363 0.102654
O O11 0.871797 0.346098 0.939749
O O12 0.760077 0.572632 0.020258
#
# Coordination Sequence:
#
# PCOD9248030 Si02
#       6
#     4   4   4   4   4   4
#     4  11  24  40  59  90 123 162 211 257 310 369
#     4  10  23  41  65  93 125 164 206 258 313 374
#     4  11  22  40  63  90 125 163 205 254 313 375
#     4  11  23  39  63  89 122 164 207 258 312 369
#     4  10  22  41  62  93 125 159 208 254 311 373
#     4  11  24  41  62  90 126 163 207 259 313 373
#
# _framework density 26.089051999999999
#
# number of rings (size 3 to 8) (size 9 to 14) (size 15 to 20)
#    0.000    1.333    0.000    6.000    0.000   11.333 
#    0.000    0.000    0.000    0.000    0.000    0.000 
#    0.000    0.000    0.000    0.000    0.000    0.000 
#
# Total GULP energy -134437.335564 kJ/mol
# GULP energy per Si atom -5601.555649 kJ/mol
# Density = 2.602967 g / cm^3
# Si number density = 26.089052 Si / 1000 Ang^3
#
#
#
# Elastic Constant Matrix: (Units=GPa)
#
#
# Indices 1 2 3 4 5 6 
#
# 1 127.9173 28.4713 27.8883 0.0000 -16.9047 0.0000
# 2 28.4713 44.9204 0.7647 0.0000 2.0219 0.0000
# 3 27.8883 0.7647 86.9686 0.0000 -17.9720 0.0000
# 4 0.0000 0.0000 0.0000 38.9038 0.0000 -4.1682
# 5 -16.9047 2.0219 -17.9720 0.0000 31.7065 0.0000
# 6 0.0000 0.0000 0.0000 -4.1682 0.0000 41.4387
#
#
#
# Elastic Compliance Matrix: (Units=1/GPa)
#
#
# Indices 1 2 3 4 5 6 
#
# 1 0.010458 -0.006800 -0.002324 0.000000 0.004692 0.000000
# 2 -0.006800 0.026771 0.000955 0.000000 -0.004791 0.000000
# 3 -0.002324 0.000955 0.013554 0.000000 0.006383 0.000000
# 4 0.000000 0.000000 0.000000 0.025984 0.000000 0.002614
# 5 0.004692 -0.004791 0.006383 0.000000 0.037964 0.000000
# 6 0.000000 0.000000 0.000000 0.002614 0.000000 0.024395
#
#
# Mechanical properties :
#
#
# Convention : Reuss Voigt Hill
#
# Bulk Modulus (GPa) = 29.03185 41.56166 35.29675
# Shear Modulus (GPa) = 29.94973 35.92194 32.93584
#
# Velocity S-wave (km/s) = 3.39186 3.71468 3.55694
# Velocity P-wave (km/s) = 5.14702 5.86206 5.51614
#
# Compressibility (1/GPa) = 0.03444493
#
# Stress axis : x y z
#
# Youngs Moduli (GPa) = 95.62236 37.35401 73.77731
#
# Poissons Ratio (x) = 0.25400 0.17147
# Poissons Ratio (y) = 0.65023 -0.07046
# Poissons Ratio (z) = 0.22224 -0.03567
#
# Static dielectric constant tensor:
#      x y z
#    x 1.967070 0.000000 0.009900 
#    y 0.000000 2.113350 0.000000 
#    z 0.009900 0.000000 2.047830 
# 
# From -- ./inp_files/15108.got.cif
#   From: 2010.05.17/outbox.cif.g08.bks.cpg/sg14_8_cif.got.tgz:15108.got - 2010.06.03 17:49:19.
