data_PCOD9248660
_publ_section_title
;
Structure prediction by ZEFSAII (Michael W. Deem and Ramdas Pophale) SiO2 
 PCOD9248660
Probable space group: P 21/C
;
_chemical_formula_sum "Si O2"
_cell_formula_units_Z 28
_cell_length_a 18.161214
_cell_length_b 9.113317
_cell_length_c 9.503761
_cell_angle_alpha 90.000000
_cell_angle_beta 134.927864
_cell_angle_gamma 90.000000
_cell_volume 1113.648035
_symmetry_space_group_name_H-M "P 21/C"
_symmetry_group_IT_number 14
_symmetry_cell_setting 'monoclinic'
loop_
_space_group_symop_operation_xyz
x,y,z
-x,1/2+y,1/2-z
-x,-y,-z
x,1/2-y,1/2+z
loop_
_atom_site_type_symbol
_atom_site_label
_atom_site_fract_x
_atom_site_fract_y
_atom_site_fract_z
Si Si1 0.637895 0.484598 0.053979
Si Si2 0.552888 0.570762 0.400313
Si Si3 0.283260 0.666418 0.300063
Si Si4 0.056189 0.729213 0.507129
Si Si5 0.613862 0.742650 0.225097
Si Si6 0.012968 0.054201 0.816132
Si Si7 0.782237 0.548646 0.017461
O O1 0.551271 0.481779 0.815086
O O2 0.742661 0.543759 0.122576
O O3 0.657613 0.319234 0.127450
O O4 0.606726 0.588264 0.138226
O O5 0.644810 0.450650 0.521941
O O6 0.587676 0.707479 0.349626
O O7 0.544270 0.641864 0.543909
O O8 0.264637 0.594604 0.122594
O O9 0.166169 0.696331 0.198563
O O10 0.997791 0.664128 0.564835
O O11 0.988407 0.847163 0.326468
O O12 0.085203 0.585737 0.449101
O O13 0.729227 0.811232 0.374569
O O14 0.903141 0.967546 0.664282
#
# Coordination Sequence:
#
# PCOD9248660 Si02
#       7
#     4   4   4   4   4   4   4
#     4  12  23  39  66  93 131 177 217 274 317 379
#     4  11  25  41  64  96 130 172 228 263 324 386
#     4  10  24  40  66  95 132 170 217 267 326 387
#     4  10  22  43  68  95 134 164 214 267 325 388
#     4  11  24  43  61  91 128 174 223 269 318 377
#     4  10  22  44  68 100 129 168 214 265 330 391
#     4  10  23  43  62  95 132 172 216 269 322 392
#
# _framework density 25.142592
#
# number of rings (size 3 to 8) (size 9 to 14) (size 15 to 20)
#    0.000    1.429    2.857    1.286    4.000    2.857 
#    0.000    0.000    0.000    0.000    0.000    0.000 
#    0.000    0.000    0.000    0.000    0.000    0.000 
#
# Total GULP energy -156755.147865 kJ/mol
# GULP energy per Si atom -5598.398138 kJ/mol
# Density = 2.508537 g / cm^3
# Si number density = 25.142592 Si / 1000 Ang^3
#
#
#
# Elastic Constant Matrix: (Units=GPa)
#
#
# Indices 1 2 3 4 5 6 
#
# 1 35.9175 9.8811 9.7914 0.0000 -4.3734 0.0000
# 2 9.8811 127.5667 40.3264 0.0000 1.1856 0.0000
# 3 9.7914 40.3264 111.6090 0.0000 -0.5480 0.0000
# 4 0.0000 0.0000 0.0000 46.3630 0.0000 1.7695
# 5 -4.3734 1.1856 -0.5480 0.0000 24.1334 0.0000
# 6 0.0000 0.0000 0.0000 1.7695 0.0000 37.9073
#
#
#
# Elastic Compliance Matrix: (Units=1/GPa)
#
#
# Indices 1 2 3 4 5 6 
#
# 1 0.029500 -0.001722 -0.001939 0.000000 0.005386 0.000000
# 2 -0.001722 0.008957 -0.003089 0.000000 -0.000822 0.000000
# 3 -0.001939 -0.003089 0.010246 0.000000 0.000033 0.000000
# 4 0.000000 0.000000 0.000000 0.021607 0.000000 -0.001009
# 5 0.005386 -0.000822 0.000033 0.000000 0.042454 0.000000
# 6 0.000000 0.000000 0.000000 -0.001009 0.000000 0.026427
#
#
# Mechanical properties :
#
#
# Convention : Reuss Voigt Hill
#
# Bulk Modulus (GPa) = 28.40768 43.89899 36.15333
# Shear Modulus (GPa) = 30.40881 36.02035 33.21458
#
# Velocity S-wave (km/s) = 3.48149 3.78913 3.63857
# Velocity P-wave (km/s) = 5.24254 6.05320 5.66240
#
# Compressibility (1/GPa) = 0.03520175
#
# Stress axis : x y z
#
# Youngs Moduli (GPa) = 33.89846 111.64949 97.59595
#
# Poissons Ratio (x) = 0.19226 0.18928
# Poissons Ratio (y) = 0.05837 0.30149
# Poissons Ratio (z) = 0.06574 0.34490
#
# Static dielectric constant tensor:
#      x y z
#    x 1.969160 0.000000 0.018830 
#    y 0.000000 2.009740 0.000000 
#    z 0.018830 0.000000 2.008890 
# 
# From -- ./inp_files/34997.got.cif
#   From: 2010.05.17/outbox.cif.g08.bks.cpg/sg14_18_cif.got.tgz:34997.got - 2010.06.03 17:49:19.
