data_PCOD9248475
_publ_section_title
;
Structure prediction by ZEFSAII (Michael W. Deem and Ramdas Pophale) SiO2 
 PCOD9248475
Probable space group: P 21/C
;
_chemical_formula_sum "Si O2"
_cell_formula_units_Z 32
_cell_length_a 20.640079
_cell_length_b 9.586000
_cell_length_c 14.519430
_cell_angle_alpha 90.000000
_cell_angle_beta 152.968335
_cell_angle_gamma 90.000000
_cell_volume 1305.617160
_symmetry_space_group_name_H-M "P 21/C"
_symmetry_group_IT_number 14
_symmetry_cell_setting 'monoclinic'
loop_
_space_group_symop_operation_xyz
x,y,z
-x,1/2+y,1/2-z
-x,-y,-z
x,1/2-y,1/2+z
loop_
_atom_site_type_symbol
_atom_site_label
_atom_site_fract_x
_atom_site_fract_y
_atom_site_fract_z
Si Si1 0.078976 0.738936 0.986588
Si Si2 0.236642 0.361271 0.469858
Si Si3 0.249961 0.680880 0.524018
Si Si4 0.920779 0.107810 0.819101
Si Si5 0.666599 0.897978 0.513501
Si Si6 0.448289 0.571389 0.289216
Si Si7 0.228937 0.164836 0.166576
Si Si8 0.729902 0.525545 0.764966
O O1 0.067179 0.831129 0.063120
O O2 0.166733 0.600745 0.126314
O O3 0.172499 0.813345 0.025277
O O4 0.927548 0.686597 0.754181
O O5 0.250804 0.527518 0.481879
O O6 0.324336 0.258170 0.515049
O O7 0.287228 0.333578 0.638083
O O8 0.156828 0.777899 0.340580
O O9 0.398878 0.766435 0.721220
O O10 0.819061 0.973890 0.686783
O O11 0.077800 0.088597 0.977893
O O12 0.664761 0.894207 0.621777
O O13 0.561711 0.994841 0.321772
O O14 0.593582 0.537425 0.525999
O O15 0.328271 0.502511 0.205157
O O16 0.194812 0.325642 0.147277
#
# Coordination Sequence:
#
# PCOD9248475 Si02
#       8
#     4   4   4   4   4   4   4   4
#     4  11  23  38  65  96 134 167 214 267 327 389
#     4  12  24  37  64  99 133 163 213 266 327 388
#     4  10  23  39  63  92 125 171 214 264 316 382
#     4  11  23  39  63  94 133 169 207 256 331 393
#     4  11  24  42  63  94 133 175 208 267 330 381
#     4   9  21  48  67  84 126 174 221 267 320 379
#     4  12  23  37  65  95 131 166 211 260 329 387
#     4  10  22  42  70  92 121 175 222 266 322 381
#
# _framework density 24.509482999999999
#
# number of rings (size 3 to 8) (size 9 to 14) (size 15 to 20)
#    0.000    1.250    3.750    1.875    3.500    1.000 
#    4.500    0.625    0.000    0.000    0.000    0.000 
#    0.000    0.000    0.000    0.000    0.000    0.000 
#
# Total GULP energy -179253.360428 kJ/mol
# GULP energy per Si atom -5601.667513 kJ/mol
# Density = 2.445370 g / cm^3
# Si number density = 24.509483 Si / 1000 Ang^3
#
#
#
# Elastic Constant Matrix: (Units=GPa)
#
#
# Indices 1 2 3 4 5 6 
#
# 1 92.1076 14.7830 40.5718 0.0000 -16.8967 0.0000
# 2 14.7830 150.4488 32.8486 0.0000 -5.0384 0.0000
# 3 40.5718 32.8486 132.1991 0.0000 -18.7206 0.0000
# 4 0.0000 0.0000 0.0000 36.4040 0.0000 -8.7325
# 5 -16.8967 -5.0384 -18.7206 0.0000 45.6169 0.0000
# 6 0.0000 0.0000 0.0000 -8.7325 0.0000 30.9385
#
#
#
# Elastic Compliance Matrix: (Units=1/GPa)
#
#
# Indices 1 2 3 4 5 6 
#
# 1 0.013053 -0.000422 -0.003422 0.000000 0.003384 0.000000
# 2 -0.000422 0.007042 -0.001627 0.000000 -0.000046 0.000000
# 3 -0.003422 -0.001627 0.009358 0.000000 0.002393 0.000000
# 4 0.000000 0.000000 0.000000 0.029464 0.000000 0.008316
# 5 0.003384 -0.000046 0.002393 0.000000 0.024152 0.000000
# 6 0.000000 0.000000 0.000000 0.008316 0.000000 0.034669
#
#
# Mechanical properties :
#
#
# Convention : Reuss Voigt Hill
#
# Bulk Modulus (GPa) = 54.02248 61.24028 57.63138
# Shear Modulus (GPa) = 37.07836 41.69537 39.38686
#
# Velocity S-wave (km/s) = 3.89371 4.12903 4.01310
# Velocity P-wave (km/s) = 6.50415 6.91176 6.71105
#
# Compressibility (1/GPa) = 0.01851081
#
# Stress axis : x y z
#
# Youngs Moduli (GPa) = 76.61314 142.00731 106.86514
#
# Poissons Ratio (x) = 0.05994 0.36567
# Poissons Ratio (y) = 0.03234 0.17384
# Poissons Ratio (z) = 0.26215 0.23101
#
# Static dielectric constant tensor:
#      x y z
#    x 1.958700 0.000000 0.016040 
#    y 0.000000 1.955200 0.000000 
#    z 0.016040 0.000000 1.918000 
# 
# From -- ./inp_files/51263.got.cif
#   From: 2010.05.17/outbox.cif.g08.bks.cpg/sg14_26_cif.got.tgz:51263.got - 2010.06.03 17:49:19.
