data_PCOD9248078
_publ_section_title
;
Structure prediction by ZEFSAII (Michael W. Deem and Ramdas Pophale) SiO2 
 PCOD9248078
Probable space group: P 21/C
;
_chemical_formula_sum "Si O2"
_cell_formula_units_Z 32
_cell_length_a 8.420034
_cell_length_b 12.302824
_cell_length_c 30.082013
_cell_angle_alpha 90.000000
_cell_angle_beta 27.782702
_cell_angle_gamma 90.000000
_cell_volume 1452.522528
_symmetry_space_group_name_H-M "P 21/C"
_symmetry_group_IT_number 14
_symmetry_cell_setting 'monoclinic'
loop_
_space_group_symop_operation_xyz
x,y,z
-x,1/2+y,1/2-z
-x,-y,-z
x,1/2-y,1/2+z
loop_
_atom_site_type_symbol
_atom_site_label
_atom_site_fract_x
_atom_site_fract_y
_atom_site_fract_z
Si Si1 0.552443 0.273877 0.064642
Si Si2 0.273058 0.774251 0.237992
Si Si3 0.530801 0.130451 0.986711
Si Si4 0.222633 0.901373 0.818494
Si Si5 0.350987 0.714911 0.122944
Si Si6 0.454821 0.900283 0.278305
Si Si7 0.430878 0.192038 0.188191
Si Si8 0.732403 0.990046 0.487034
O O1 0.666704 0.194283 0.996358
O O2 0.618655 0.216170 0.095413
O O3 0.697173 0.395179 0.021600
O O4 0.137492 0.284514 0.165713
O O5 0.368348 0.664208 0.240711
O O6 0.437243 0.767846 0.148980
O O7 0.388761 0.862925 0.244502
O O8 0.127216 0.158501 0.084904
O O9 0.664654 0.190279 0.909944
O O10 0.500000 0.000000 0.000000
O O11 0.428704 0.897986 0.813136
O O12 0.213294 0.024333 0.804701
O O13 0.589280 0.614934 0.049100
O O14 0.965541 0.669805 0.222518
O O15 0.518749 0.799953 0.294646
O O16 0.120507 0.964935 0.377209
O O17 0.500000 0.000000 0.500000
#
# Coordination Sequence:
#
# PCOD9248078 Si02
#       8
#     4   4   4   4   4   4   4   4
#     4  10  22  41  64  92 124 165 210 261 312 376
#     4   9  21  40  61  86 124 163 202 251 313 381
#     4  11  23  43  64  87 124 171 214 249 305 391
#     4  10  22  42  59  88 127 165 199 257 323 365
#     4  11  22  40  65  93 118 164 217 251 309 385
#     4  11  22  41  63  92 129 165 203 265 319 363
#     4  10  23  40  60  94 127 158 203 263 320 373
#     4  12  21  39  70  94 124 163 217 265 309 369
#
# _framework density 22.030639999999998
#
# number of rings (size 3 to 8) (size 9 to 14) (size 15 to 20)
#    0.000    1.500    2.500    3.000    1.750    1.500 
#    6.750    1.250    0.000    0.000    0.000    0.000 
#    0.000    0.000    0.000    0.000    0.000    0.000 
#
# Total GULP energy -178645.867781 kJ/mol
# GULP energy per Si atom -5582.683368 kJ/mol
# Density = 2.198050 g / cm^3
# Si number density = 22.030640 Si / 1000 Ang^3
#
#
#
# Elastic Constant Matrix: (Units=GPa)
#
#
# Indices 1 2 3 4 5 6 
#
# 1 79.0158 24.0710 34.5266 0.0000 40.6996 0.0000
# 2 24.0710 119.6892 19.6102 0.0000 32.3361 0.0000
# 3 34.5266 19.6102 70.0839 0.0000 27.6046 0.0000
# 4 0.0000 0.0000 0.0000 33.8872 0.0000 -1.8916
# 5 40.6996 32.3361 27.6046 0.0000 51.1945 0.0000
# 6 0.0000 0.0000 0.0000 -1.8916 0.0000 -5.9833
#
#
#
# Elastic Compliance Matrix: (Units=1/GPa)
#
#
# Indices 1 2 3 4 5 6 
#
# 1 0.022859 0.000491 -0.005229 0.000000 -0.015664 0.000000
# 2 0.000491 0.010093 -0.000510 0.000000 -0.006491 0.000000
# 3 -0.005229 -0.000510 0.019328 0.000000 -0.005943 0.000000
# 4 0.000000 0.000000 0.000000 0.028998 0.000000 -0.009167
# 5 -0.015664 -0.006491 -0.005943 0.000000 0.039290 0.000000
# 6 0.000000 0.000000 0.000000 -0.009167 0.000000 -0.164234
#
#
# Mechanical properties :
#
#
# Convention : Reuss Voigt Hill
#
# Bulk Modulus (GPa) = 23.93182 47.24493 35.58838
# Shear Modulus (GPa) = -259.86003 28.52508 -115.66747
#
# Velocity S-wave (km/s) = -10.87244 3.60222 -7.25376
# Velocity P-wave (km/s) = 12.11308 6.22840 7.34621
#
# Compressibility (1/GPa) = 0.04178537
#
# Stress axis : x y z
#
# Youngs Moduli (GPa) = 43.74632 99.07519 51.73804
#
# Poissons Ratio (x) = -0.04868 0.27056
# Poissons Ratio (y) = -0.02149 0.02636
# Poissons Ratio (z) = 0.22877 0.05048
#
# Static dielectric constant tensor:
#      x y z
#    x 1.811370 0.000000 -0.022500 
#    y 0.000000 1.813810 0.000000 
#    z -0.022500 0.000000 1.861870 
# 
# From -- ./inp_files/79639.got.cif
#   From: 2010.05.17/outbox.cif.g08.bks.cpg/sg14_40_cif.got.tgz:79639.got - 2010.06.03 17:49:19.
