data_PCOD9248527
_publ_section_title
;
Structure prediction by ZEFSAII (Michael W. Deem and Ramdas Pophale) SiO2 
 PCOD9248527
Probable space group: P 21/C
;
_chemical_formula_sum "Si O2"
_cell_formula_units_Z 32
_cell_length_a 13.368773
_cell_length_b 12.423670
_cell_length_c 16.660218
_cell_angle_alpha 90.000000
_cell_angle_beta 148.206821
_cell_angle_gamma 90.000000
_cell_volume 1457.850275
_symmetry_space_group_name_H-M "P 21/C"
_symmetry_group_IT_number 14
_symmetry_cell_setting 'monoclinic'
loop_
_space_group_symop_operation_xyz
x,y,z
-x,1/2+y,1/2-z
-x,-y,-z
x,1/2-y,1/2+z
loop_
_atom_site_type_symbol
_atom_site_label
_atom_site_fract_x
_atom_site_fract_y
_atom_site_fract_z
Si Si1 0.218192 0.404093 0.011028
Si Si2 0.562196 0.672001 0.539442
Si Si3 0.837313 0.208904 0.313261
Si Si4 0.948203 0.056170 0.881059
Si Si5 0.541511 0.153383 0.857663
Si Si6 0.666064 0.585639 0.093465
Si Si7 0.310451 0.072110 0.034140
Si Si8 0.299685 0.641830 0.112561
O O1 0.385317 0.358706 0.181813
O O2 0.209166 0.532786 0.017785
O O3 0.289075 0.393679 0.968802
O O4 0.022815 0.344478 0.899839
O O5 0.347609 0.665547 0.359293
O O6 0.563902 0.627895 0.630377
O O7 0.615340 0.796264 0.589395
O O8 0.685383 0.614278 0.554385
O O9 0.818167 0.338469 0.300386
O O10 0.829983 0.181106 0.402569
O O11 0.848208 0.966653 0.759194
O O12 0.129414 0.107104 0.960476
O O13 0.000000 0.000000 0.000000
O O14 0.649148 0.266548 0.917786
O O15 0.690447 0.056483 0.956312
O O16 0.500000 0.500000 0.000000
O O17 0.500110 0.111774 0.208322
#
# Coordination Sequence:
#
# PCOD9248527 Si02
#       8
#     4   4   4   4   4   4   4   4
#     4  11  25  44  71 103 142 186 241 296 358 430
#     4  11  24  45  71  99 146 188 233 288 368 427
#     4  11  23  45  66 105 142 183 236 298 350 425
#     4  12  27  43  72 102 139 182 245 300 356 435
#     4  11  23  43  73 100 139 192 237 288 357 437
#     4  12  26  46  69 102 139 188 236 300 361 430
#     4  10  24  45  68 101 140 184 232 301 356 423
#     4  10  22  42  72  98 139 188 234 291 361 429
#
# _framework density 21.950126999999998
#
# number of rings (size 3 to 8) (size 9 to 14) (size 15 to 20)
#    0.000    1.000    1.250    5.250    8.750    0.000 
#    2.250    0.000    0.000    0.000    0.000    0.000 
#    0.000    0.000    0.000    0.000    0.000    0.000 
#
# Total GULP energy -178894.835945 kJ/mol
# GULP energy per Si atom -5590.463623 kJ/mol
# Density = 2.190017 g / cm^3
# Si number density = 21.950127 Si / 1000 Ang^3
#
#
#
# Elastic Constant Matrix: (Units=GPa)
#
#
# Indices 1 2 3 4 5 6 
#
# 1 99.7982 -6.8277 23.8067 0.0000 -1.0214 0.0000
# 2 -6.8277 95.0206 0.0405 0.0000 8.6457 0.0000
# 3 23.8067 0.0405 47.1629 0.0000 -4.4449 0.0000
# 4 0.0000 0.0000 0.0000 22.1005 0.0000 -2.3008
# 5 -1.0214 8.6457 -4.4449 0.0000 32.0016 0.0000
# 6 0.0000 0.0000 0.0000 -2.3008 0.0000 40.4471
#
#
#
# Elastic Compliance Matrix: (Units=1/GPa)
#
#
# Indices 1 2 3 4 5 6 
#
# 1 0.011471 0.000889 -0.005856 0.000000 -0.000687 0.000000
# 2 0.000889 0.010862 -0.000742 0.000000 -0.003009 0.000000
# 3 -0.005856 -0.000742 0.024481 0.000000 0.003414 0.000000
# 4 0.000000 0.000000 0.000000 0.045517 0.000000 0.002589
# 5 -0.000687 -0.003009 0.003414 0.000000 0.032514 0.000000
# 6 0.000000 0.000000 0.000000 0.002589 0.000000 0.024871
#
#
# Mechanical properties :
#
#
# Convention : Reuss Voigt Hill
#
# Bulk Modulus (GPa) = 28.25046 30.66897 29.45971
# Shear Modulus (GPa) = 28.91304 33.90730 31.41017
#
# Velocity S-wave (km/s) = 3.63328 3.93459 3.78693
# Velocity P-wave (km/s) = 5.52261 5.88589 5.70714
#
# Compressibility (1/GPa) = 0.03539765
#
# Stress axis : x y z
#
# Youngs Moduli (GPa) = 87.17703 92.06360 40.84742
#
# Poissons Ratio (x) = -0.08187 0.23919
# Poissons Ratio (y) = -0.07753 0.03030
# Poissons Ratio (z) = 0.51049 0.06830
#
# Static dielectric constant tensor:
#      x y z
#    x 1.846980 0.000000 0.005680 
#    y 0.000000 2.004810 0.000000 
#    z 0.005680 0.000000 1.774800 
# 
# From -- ./inp_files/59491.got.cif
#   From: 2010.05.17/outbox.cif.g08.bks.cpg/sg14_30_cif.got.tgz:59491.got - 2010.06.03 17:49:19.
