data_PCOD9248608
_publ_section_title
;
Structure prediction by ZEFSAII (Michael W. Deem and Ramdas Pophale) SiO2 
 PCOD9248608
Probable space group: P 21/C
;
_chemical_formula_sum "Si O2"
_cell_formula_units_Z 32
_cell_length_a 26.669040
_cell_length_b 10.610807
_cell_length_c 8.434274
_cell_angle_alpha 90.000000
_cell_angle_beta 145.486505
_cell_angle_gamma 90.000000
_cell_volume 1352.322663
_symmetry_space_group_name_H-M "P 21/C"
_symmetry_group_IT_number 14
_symmetry_cell_setting 'monoclinic'
loop_
_space_group_symop_operation_xyz
x,y,z
-x,1/2+y,1/2-z
-x,-y,-z
x,1/2-y,1/2+z
loop_
_atom_site_type_symbol
_atom_site_label
_atom_site_fract_x
_atom_site_fract_y
_atom_site_fract_z
Si Si1 0.021272 0.869756 0.780151
Si Si2 0.873173 0.335084 0.749684
Si Si3 0.848128 0.563223 0.281891
Si Si4 0.726496 0.357865 0.827914
Si Si5 0.457895 0.564305 0.152822
Si Si6 0.281814 0.999544 0.015231
Si Si7 0.454065 0.812348 0.989884
Si Si8 0.168280 0.201620 0.592631
O O1 0.056745 0.883111 0.695026
O O2 0.919240 0.845519 0.543441
O O3 0.072045 0.748803 0.984364
O O4 0.058369 0.992380 0.967167
O O5 0.802178 0.241758 0.481630
O O6 0.809488 0.437005 0.662238
O O7 0.831460 0.648851 0.390346
O O8 0.773882 0.457607 0.066863
O O9 0.841240 0.650424 0.109380
O O10 0.695419 0.428408 0.589572
O O11 0.646548 0.296408 0.713188
O O12 0.494632 0.672996 0.128156
O O13 0.509425 0.432969 0.316176
O O14 0.456363 0.640596 0.315260
O O15 0.361346 0.519253 0.843247
O O16 0.255016 0.141180 0.898004
#
# Coordination Sequence:
#
# PCOD9248608 Si02
#       8
#     4   4   4   4   4   4   4   4
#     4  11  24  40  66  91 134 173 226 278 332 394
#     4  11  22  38  65  98 123 172 221 273 323 389
#     4  10  25  41  62  91 128 178 218 282 331 401
#     4  10  22  43  66  97 129 171 221 272 332 391
#     4  11  26  44  71 105 139 174 228 274 342 410
#     4  11  24  40  66  96 131 173 220 277 328 397
#     4  11  25  45  72 104 137 179 220 281 337 416
#     4  11  25  43  61  92 136 174 227 277 339 390
#
# _framework density 23.662991999999999
#
# number of rings (size 3 to 8) (size 9 to 14) (size 15 to 20)
#    0.000    1.250    2.500    1.875    7.000    3.500 
#    0.000    5.000    0.000    0.000    0.000    0.000 
#    0.000    0.000    0.000    0.000    0.000    0.000 
#
# Total GULP energy -179118.181042 kJ/mol
# GULP energy per Si atom -5597.443158 kJ/mol
# Density = 2.360913 g / cm^3
# Si number density = 23.662992 Si / 1000 Ang^3
#
#
#
# Elastic Constant Matrix: (Units=GPa)
#
#
# Indices 1 2 3 4 5 6 
#
# 1 42.7068 -8.2730 4.3507 0.0000 -2.2166 0.0000
# 2 -8.2730 86.0229 51.0092 0.0000 -11.6662 0.0000
# 3 4.3507 51.0092 89.6959 0.0000 -1.4800 0.0000
# 4 0.0000 0.0000 0.0000 17.5200 0.0000 8.2631
# 5 -2.2166 -11.6662 -1.4800 0.0000 15.5992 0.0000
# 6 0.0000 0.0000 0.0000 8.2631 0.0000 18.2029
#
#
#
# Elastic Compliance Matrix: (Units=1/GPa)
#
#
# Indices 1 2 3 4 5 6 
#
# 1 0.025527 0.006312 -0.004697 0.000000 0.007902 0.000000
# 2 0.006312 0.021766 -0.012420 0.000000 0.015997 0.000000
# 3 -0.004697 -0.012420 0.018304 0.000000 -0.008220 0.000000
# 4 0.000000 0.000000 0.000000 0.072627 0.000000 -0.032968
# 5 0.007902 0.015997 -0.008220 0.000000 0.076412 0.000000
# 6 0.000000 0.000000 0.000000 -0.032968 0.000000 0.069902
#
#
# Mechanical properties :
#
#
# Convention : Reuss Voigt Hill
#
# Bulk Modulus (GPa) = 22.73453 34.73328 28.73390
# Shear Modulus (GPa) = 15.58546 21.68703 18.63624
#
# Velocity S-wave (km/s) = 2.56919 3.03065 2.80941
# Velocity P-wave (km/s) = 4.29295 5.19198 4.76372
#
# Compressibility (1/GPa) = 0.04398596
#
# Stress axis : x y z
#
# Youngs Moduli (GPa) = 39.17435 45.94261 54.63167
#
# Poissons Ratio (x) = -0.28999 0.25663
# Poissons Ratio (y) = -0.24727 0.67855
# Poissons Ratio (z) = 0.18402 0.57063
#
# Static dielectric constant tensor:
#      x y z
#    x 1.862090 0.000000 -0.041470 
#    y 0.000000 1.915530 0.000000 
#    z -0.041470 0.000000 1.884840 
# 
# From -- ./inp_files/20001.got.cif
#   From: 2010.05.17/outbox.cif.g08.bks.cpg/sg14_11_cif.got.tgz:20001.got - 2010.06.03 17:49:19.
