data_PCOD9248204
_publ_section_title
;
Structure prediction by ZEFSAII (Michael W. Deem and Ramdas Pophale) SiO2 
 PCOD9248204
Probable space group: P 21/C
;
_chemical_formula_sum "Si O2"
_cell_formula_units_Z 20
_cell_length_a 6.649148
_cell_length_b 11.237882
_cell_length_c 12.320123
_cell_angle_alpha 90.000000
_cell_angle_beta 113.089887
_cell_angle_gamma 90.000000
_cell_volume 846.840763
_symmetry_space_group_name_H-M "P 21/C"
_symmetry_group_IT_number 14
_symmetry_cell_setting 'monoclinic'
loop_
_space_group_symop_operation_xyz
x,y,z
-x,1/2+y,1/2-z
-x,-y,-z
x,1/2-y,1/2+z
loop_
_atom_site_type_symbol
_atom_site_label
_atom_site_fract_x
_atom_site_fract_y
_atom_site_fract_z
Si Si1 0.693579 0.959243 0.677861
Si Si2 0.840723 0.036218 0.105817
Si Si3 0.022790 0.308061 0.459813
Si Si4 0.702756 0.373345 0.790158
Si Si5 0.703538 0.903258 0.425164
O O1 0.921797 0.960836 0.785690
O O2 0.529818 0.863904 0.698996
O O3 0.713906 0.931229 0.555479
O O4 0.554355 0.082711 0.658144
O O5 0.679374 0.090509 0.160218
O O6 0.865417 0.114912 0.003804
O O7 0.816937 0.899162 0.067557
O O8 0.165963 0.217303 0.561363
O O9 0.870236 0.232081 0.347711
O O10 0.800042 0.490096 0.873292
#
# Coordination Sequence:
#
# PCOD9248204 Si02
#       5
#     4   4   4   4   4
#     4   9  21  41  62  97 120 161 223 246 312 375
#     4  11  25  42  60  98 130 164 206 264 317 370
#     4  11  24  41  63  95 132 159 212 264 310 375
#     4  10  22  41  69  86 121 176 205 253 318 373
#     4   9  20  40  66  92 120 162 217 253 299 382
#
# _framework density 23.617190000000001
#
# number of rings (size 3 to 8) (size 9 to 14) (size 15 to 20)
#    1.200    0.800    2.000    0.600    2.800    1.600 
#    7.200    2.000    0.000    0.000    0.000    0.000 
#    0.000    0.000    0.000    0.000    0.000    0.000 
#
# Total GULP energy -111692.715231 kJ/mol
# GULP energy per Si atom -5584.635762 kJ/mol
# Density = 2.356344 g / cm^3
# Si number density = 23.617190 Si / 1000 Ang^3
#
#
#
# Elastic Constant Matrix: (Units=GPa)
#
#
# Indices 1 2 3 4 5 6 
#
# 1 59.4824 6.4061 6.4368 0.0000 -1.7287 0.0000
# 2 6.4061 106.3512 25.7697 0.0000 -4.2601 0.0000
# 3 6.4368 25.7697 78.2917 0.0000 -20.6854 0.0000
# 4 0.0000 0.0000 0.0000 30.6991 0.0000 -1.5046
# 5 -1.7287 -4.2601 -20.6854 0.0000 45.2756 0.0000
# 6 0.0000 0.0000 0.0000 -1.5046 0.0000 0.8209
#
#
#
# Elastic Compliance Matrix: (Units=1/GPa)
#
#
# Indices 1 2 3 4 5 6 
#
# 1 0.017017 -0.000747 -0.001137 0.000000 0.000060 0.000000
# 2 -0.000747 0.010268 -0.003492 0.000000 -0.000658 0.000000
# 3 -0.001137 -0.003492 0.015828 0.000000 0.006859 0.000000
# 4 0.000000 0.000000 0.000000 0.035789 0.000000 0.065595
# 5 0.000060 -0.000658 0.006859 0.000000 0.025161 0.000000
# 6 0.000000 0.000000 0.000000 0.065595 0.000000 1.338350
#
#
# Mechanical properties :
#
#
# Convention : Reuss Voigt Hill
#
# Bulk Modulus (GPa) = 30.90256 35.70561 33.30408
# Shear Modulus (GPa) = 3.41541 29.05998 16.23770
#
# Velocity S-wave (km/s) = 1.20387 3.51160 2.62494
# Velocity P-wave (km/s) = 3.87886 5.62077 4.82901
#
# Compressibility (1/GPa) = 0.03235978
#
# Stress axis : x y z
#
# Youngs Moduli (GPa) = 58.76492 97.39390 63.17927
#
# Poissons Ratio (x) = 0.07276 0.07186
# Poissons Ratio (y) = 0.04390 0.22062
# Poissons Ratio (z) = 0.06684 0.34010
#
# Static dielectric constant tensor:
#      x y z
#    x 1.932520 0.000000 0.022770 
#    y 0.000000 1.935610 0.000000 
#    z 0.022770 0.000000 1.858370 
# 
# From -- ./inp_files/23527.got.cif
#   From: 2010.05.17/outbox.cif.g08.bks.cpg/sg14_12_cif.got.tgz:23527.got - 2010.06.03 17:49:19.
