data_PCOD9248144
_publ_section_title
;
Structure prediction by ZEFSAII (Michael W. Deem and Ramdas Pophale) SiO2 
 PCOD9248144
Probable space group: P 21/C
;
_chemical_formula_sum "Si O2"
_cell_formula_units_Z 32
_cell_length_a 16.995872
_cell_length_b 14.324816
_cell_length_c 12.561779
_cell_angle_alpha 90.000000
_cell_angle_beta 30.225119
_cell_angle_gamma 90.000000
_cell_volume 1539.557211
_symmetry_space_group_name_H-M "P 21/C"
_symmetry_group_IT_number 14
_symmetry_cell_setting 'monoclinic'
loop_
_space_group_symop_operation_xyz
x,y,z
-x,1/2+y,1/2-z
-x,-y,-z
x,1/2-y,1/2+z
loop_
_atom_site_type_symbol
_atom_site_label
_atom_site_fract_x
_atom_site_fract_y
_atom_site_fract_z
Si Si1 0.782213 0.413591 0.066954
Si Si2 0.184951 0.001231 0.265569
Si Si3 0.318578 0.710756 0.266368
Si Si4 0.425909 0.189283 0.688348
Si Si5 0.400494 0.986313 0.422387
Si Si6 0.851105 0.900449 0.904736
Si Si7 0.383575 0.852189 0.918183
Si Si8 0.842579 0.028285 0.120318
O O1 0.964208 0.391646 0.832002
O O2 0.753313 0.498572 0.185022
O O3 0.715147 0.320030 0.198329
O O4 0.703325 0.439060 0.047979
O O5 0.216791 0.076082 0.134487
O O6 0.251972 0.906236 0.137692
O O7 0.000000 0.000000 0.500000
O O8 0.303693 0.687573 0.406936
O O9 0.204932 0.638455 0.335705
O O10 0.496591 0.692741 0.018892
O O11 0.481288 0.091091 0.672481
O O12 0.520672 0.271367 0.635457
O O13 0.242102 0.185062 0.930410
O O14 0.294158 0.013972 0.646663
O O15 0.493013 0.070651 0.263498
O O16 0.840595 0.983820 0.004763
O O17 0.000000 0.000000 0.000000
#
# Coordination Sequence:
#
# PCOD9248144 Si02
#       8
#     4   4   4   4   4   4   4   4
#     4  11  23  42  67  94 134 171 217 267 328 391
#     4  10  22  41  66  92 128 176 213 259 334 391
#     4  11  23  40  67  94 131 170 213 273 330 389
#     4  11  23  41  65  99 128 172 219 268 329 388
#     4  11  23  40  68  95 127 171 219 270 323 386
#     4  11  22  44  65  94 133 170 214 271 325 393
#     4  12  22  41  68  96 132 174 220 269 331 388
#     4  11  22  40  68  95 127 170 219 270 327 388
#
# _framework density 20.785197
#
# number of rings (size 3 to 8) (size 9 to 14) (size 15 to 20)
#    0.000    1.000    6.250    0.750    0.000    3.500 
#    2.250    0.000    0.000    0.000    0.000    0.000 
#    0.000    0.000    0.000    0.000    0.000    0.000 
#
# Total GULP energy -178379.158402 kJ/mol
# GULP energy per Si atom -5574.348700 kJ/mol
# Density = 2.073789 g / cm^3
# Si number density = 20.785197 Si / 1000 Ang^3
#
#
#
# Elastic Constant Matrix: (Units=GPa)
#
#
# Indices 1 2 3 4 5 6 
#
# 1 36.5339 -3.1485 2.7948 0.0000 8.8197 0.0000
# 2 -3.1485 46.7389 11.5167 0.0000 -8.9538 0.0000
# 3 2.7948 11.5167 118.6869 0.0000 13.0405 0.0000
# 4 0.0000 0.0000 0.0000 28.3457 0.0000 2.3668
# 5 8.8197 -8.9538 13.0405 0.0000 27.7074 0.0000
# 6 0.0000 0.0000 0.0000 2.3668 0.0000 22.1739
#
#
#
# Elastic Compliance Matrix: (Units=1/GPa)
#
#
# Indices 1 2 3 4 5 6 
#
# 1 0.029665 0.000077 0.000347 0.000000 -0.009581 0.000000
# 2 0.000077 0.024012 -0.003355 0.000000 0.009314 0.000000
# 3 0.000347 -0.003355 0.009358 0.000000 -0.005599 0.000000
# 4 0.000000 0.000000 0.000000 0.035596 0.000000 -0.003799
# 5 -0.009581 0.009314 -0.005599 0.000000 0.044786 0.000000
# 6 0.000000 0.000000 0.000000 -0.003799 0.000000 0.045504
#
#
# Mechanical properties :
#
#
# Convention : Reuss Voigt Hill
#
# Bulk Modulus (GPa) = 17.49086 24.92064 21.20575
# Shear Modulus (GPa) = 23.38195 28.36517 25.87356
#
# Velocity S-wave (km/s) = 3.35764 3.69817 3.53201
# Velocity P-wave (km/s) = 4.84407 5.50008 5.18246
#
# Compressibility (1/GPa) = 0.05717270
#
# Stress axis : x y z
#
# Youngs Moduli (GPa) = 33.70980 41.64637 106.85927
#
# Poissons Ratio (x) = -0.00323 -0.03704
# Poissons Ratio (y) = -0.00261 0.35853
# Poissons Ratio (z) = -0.01168 0.13973
#
# Static dielectric constant tensor:
#      x y z
#    x 1.782250 0.000000 0.019560 
#    y 0.000000 1.804700 0.000000 
#    z 0.019560 0.000000 1.785220 
# 
# From -- ./inp_files/25471.got.cif
#   From: 2010.05.17/outbox.cif.g08.bks.cpg/sg14_13_cif.got.tgz:25471.got - 2010.06.03 17:49:19.
