data_PCOD9248223
_publ_section_title
;
Structure prediction by ZEFSAII (Michael W. Deem and Ramdas Pophale) SiO2 
 PCOD9248223
Probable space group: P 21/C
;
_chemical_formula_sum "Si O2"
_cell_formula_units_Z 22
_cell_length_a 22.230747
_cell_length_b 5.008720
_cell_length_c 13.768141
_cell_angle_alpha 90.000000
_cell_angle_beta 32.202974
_cell_angle_gamma 90.000000
_cell_volume 816.992925
_symmetry_space_group_name_H-M "P 21/C"
_symmetry_group_IT_number 14
_symmetry_cell_setting 'monoclinic'
loop_
_space_group_symop_operation_xyz
x,y,z
-x,1/2+y,1/2-z
-x,-y,-z
x,1/2-y,1/2+z
loop_
_atom_site_type_symbol
_atom_site_label
_atom_site_fract_x
_atom_site_fract_y
_atom_site_fract_z
Si Si1 0.042344 0.568573 0.137653
Si Si2 0.233629 0.079734 0.727754
Si Si3 0.855299 0.402322 0.255081
Si Si4 0.468523 0.819526 0.349520
Si Si5 0.500000 0.000000 0.000000
Si Si6 0.269580 0.803140 0.870745
O O1 0.007023 0.358091 0.268605
O O2 0.977925 0.466706 0.131230
O O3 0.175603 0.596754 0.958825
O O4 0.144543 0.867053 0.807666
O O5 0.350697 0.972284 0.523216
O O6 0.254545 0.044962 0.814074
O O7 0.201023 0.363482 0.730346
O O8 0.777629 0.369558 0.458329
O O9 0.457704 0.544821 0.304035
O O10 0.509133 0.718950 0.398419
O O11 0.608586 0.170359 0.805514
#
# Coordination Sequence:
#
# PCOD9248223 Si02
#       6
#     4   4   4   4   2   4
#     4  10  22  41  70 104 143 193 239 292 362 426
#     4  11  25  42  71 107 137 189 244 288 362 429
#     4  11  23  44  71 103 148 190 231 300 364 414
#     4  11  24  44  69 100 139 182 236 291 347 427
#     4  10  24  48  76 102 138 190 232 292 364 412
#     4  10  24  46  75 108 146 186 246 299 353 439
#
# _framework density 26.928018000000002
#
# number of rings (size 3 to 8) (size 9 to 14) (size 15 to 20)
#    0.000    1.455    0.000    4.364    0.000    8.000 
#    0.000   10.909    0.000    2.182    0.000    0.000 
#    0.000    0.000    0.000    0.000    0.000    0.000 
#
# Total GULP energy -122942.437004 kJ/mol
# GULP energy per Si atom -5588.292591 kJ/mol
# Density = 2.686673 g / cm^3
# Si number density = 26.928018 Si / 1000 Ang^3
#
#
#
# Elastic Constant Matrix: (Units=GPa)
#
#
# Indices 1 2 3 4 5 6 
#
# 1 129.8316 54.9520 48.4200 0.0000 11.4017 0.0000
# 2 54.9520 159.3577 70.5047 0.0000 7.0759 0.0000
# 3 48.4200 70.5047 108.9418 0.0000 17.7288 0.0000
# 4 0.0000 0.0000 0.0000 17.6702 0.0000 -1.0153
# 5 11.4017 7.0759 17.7288 0.0000 42.6552 0.0000
# 6 0.0000 0.0000 0.0000 -1.0153 0.0000 55.3804
#
#
#
# Elastic Compliance Matrix: (Units=1/GPa)
#
#
# Indices 1 2 3 4 5 6 
#
# 1 0.009717 -0.002060 -0.002809 0.000000 -0.001088 0.000000
# 2 -0.002060 0.009267 -0.005279 0.000000 0.001207 0.000000
# 3 -0.002809 -0.005279 0.014564 0.000000 -0.004427 0.000000
# 4 0.000000 0.000000 0.000000 0.056652 0.000000 0.001039
# 5 -0.001088 0.001207 -0.004427 0.000000 0.025374 0.000000
# 6 0.000000 0.000000 0.000000 0.001039 0.000000 0.018076
#
#
# Mechanical properties :
#
#
# Convention : Reuss Voigt Hill
#
# Bulk Modulus (GPa) = 75.44614 82.87606 79.16110
# Shear Modulus (GPa) = 31.57299 38.09144 34.83221
#
# Velocity S-wave (km/s) = 3.42789 3.76515 3.60047
# Velocity P-wave (km/s) = 6.61406 7.05305 6.83708
#
# Compressibility (1/GPa) = 0.01325449
#
# Stress axis : x y z
#
# Youngs Moduli (GPa) = 102.91047 107.90660 68.66194
#
# Poissons Ratio (x) = 0.22227 0.19285
# Poissons Ratio (y) = 0.21198 0.36243
# Poissons Ratio (z) = 0.28904 0.56959
#
# Static dielectric constant tensor:
#      x y z
#    x 2.128910 0.000000 0.138690 
#    y 0.000000 2.031070 0.000000 
#    z 0.138690 0.000000 0.884830 
# 
# From -- ./inp_files/50977.got.cif
#   From: 2010.05.17/outbox.cif.g08.bks.cpg/sg14_26_cif.got.tgz:50977.got - 2010.06.03 17:49:19.
