data_PCOD9248723
_publ_section_title
;
Structure prediction by ZEFSAII (Michael W. Deem and Ramdas Pophale) SiO2 
 PCOD9248723
Probable space group: P 21/C
;
_chemical_formula_sum "Si O2"
_cell_formula_units_Z 28
_cell_length_a 11.251439
_cell_length_b 7.064848
_cell_length_c 14.200317
_cell_angle_alpha 90.000000
_cell_angle_beta 81.526605
_cell_angle_gamma 90.000000
_cell_volume 1116.457718
_symmetry_space_group_name_H-M "P 21/C"
_symmetry_group_IT_number 14
_symmetry_cell_setting 'monoclinic'
loop_
_space_group_symop_operation_xyz
x,y,z
-x,1/2+y,1/2-z
-x,-y,-z
x,1/2-y,1/2+z
loop_
_atom_site_type_symbol
_atom_site_label
_atom_site_fract_x
_atom_site_fract_y
_atom_site_fract_z
Si Si1 0.616055 0.299528 0.569158
Si Si2 0.565050 0.729939 0.555746
Si Si3 0.824180 0.135695 0.417231
Si Si4 0.005955 0.841418 0.367727
Si Si5 0.337318 0.794662 0.220631
Si Si6 0.036642 0.095387 0.847758
Si Si7 0.769777 0.603365 0.151880
O O1 0.618659 0.520270 0.542021
O O2 0.492017 0.218762 0.538766
O O3 0.723579 0.204692 0.499839
O O4 0.630044 0.277720 0.678904
O O5 0.453894 0.710791 0.641544
O O6 0.662215 0.865262 0.591392
O O7 0.881033 0.927193 0.420111
O O8 0.763632 0.171509 0.321236
O O9 0.938066 0.275549 0.410902
O O10 0.996775 0.888742 0.258044
O O11 0.121927 0.959711 0.386248
O O12 0.165084 0.304368 0.343027
O O13 0.286805 0.006238 0.247681
O O14 0.025634 0.879427 0.879514
#
# Coordination Sequence:
#
# PCOD9248723 Si02
#       7
#     4   4   4   4   4   4   4
#     4  10  24  45  70 102 146 177 239 301 342 427
#     4  10  24  44  71 106 140 187 237 290 358 416
#     4  10  22  43  71 106 139 186 232 290 358 412
#     4  11  20  39  70 105 140 183 238 283 353 427
#     4  11  21  44  76 102 140 191 233 287 359 423
#     4  11  20  40  70 104 140 186 235 289 347 430
#     4  11  23  39  70 102 135 184 237 285 354 416
#
# _framework density 25.079319000000002
#
# number of rings (size 3 to 8) (size 9 to 14) (size 15 to 20)
#    0.000    1.429    4.286    0.857    4.000    0.571 
#    2.571    5.714    0.000    0.000    0.000    0.000 
#    0.000    0.000    0.000    0.000    0.000    0.000 
#
# Total GULP energy -156945.956171 kJ/mol
# GULP energy per Si atom -5605.212720 kJ/mol
# Density = 2.502224 g / cm^3
# Si number density = 25.079319 Si / 1000 Ang^3
#
#
#
# Elastic Constant Matrix: (Units=GPa)
#
#
# Indices 1 2 3 4 5 6 
#
# 1 169.0584 71.9314 52.4315 0.0000 15.5101 0.0000
# 2 71.9314 159.6721 28.9671 0.0000 -3.3305 0.0000
# 3 52.4315 28.9671 118.9326 0.0000 23.2182 0.0000
# 4 0.0000 0.0000 0.0000 26.4622 0.0000 0.2247
# 5 15.5101 -3.3305 23.2182 0.0000 47.7392 0.0000
# 6 0.0000 0.0000 0.0000 0.2247 0.0000 48.9881
#
#
#
# Elastic Compliance Matrix: (Units=1/GPa)
#
#
# Indices 1 2 3 4 5 6 
#
# 1 0.008250 -0.003298 -0.002503 0.000000 -0.001693 0.000000
# 2 -0.003298 0.007952 -0.000884 0.000000 0.002056 0.000000
# 3 -0.002503 -0.000884 0.010585 0.000000 -0.004397 0.000000
# 4 0.000000 0.000000 0.000000 0.037791 0.000000 -0.000173
# 5 -0.001693 0.002056 -0.004397 0.000000 0.023779 0.000000
# 6 0.000000 0.000000 0.000000 -0.000173 0.000000 0.020414
#
#
# Mechanical properties :
#
#
# Convention : Reuss Voigt Hill
#
# Bulk Modulus (GPa) = 74.53580 83.81366 79.17473
# Shear Modulus (GPa) = 39.49010 44.26012 41.87511
#
# Velocity S-wave (km/s) = 3.97244 4.20552 4.09064
# Velocity P-wave (km/s) = 7.12916 7.55472 7.34502
#
# Compressibility (1/GPa) = 0.01341637
#
# Stress axis : x y z
#
# Youngs Moduli (GPa) = 121.21334 125.75833 94.46958
#
# Poissons Ratio (x) = 0.41471 0.23649
# Poissons Ratio (y) = 0.39973 0.08354
# Poissons Ratio (z) = 0.30343 0.11121
#
# Static dielectric constant tensor:
#      x y z
#    x 1.982280 0.000000 0.033500 
#    y 0.000000 2.002210 0.000000 
#    z 0.033500 0.000000 2.036170 
# 
# From -- ./inp_files/43873.got.cif
#   From: 2010.05.17/outbox.cif.g08.bks.cpg/sg14_22_cif.got.tgz:43873.got - 2010.06.03 17:49:19.
