data_PCOD9248376
_publ_section_title
;
Structure prediction by ZEFSAII (Michael W. Deem and Ramdas Pophale) SiO2 
 PCOD9248376
Probable space group: P 21/C
;
_chemical_formula_sum "Si O2"
_cell_formula_units_Z 32
_cell_length_a 11.177305
_cell_length_b 12.366482
_cell_length_c 9.376405
_cell_angle_alpha 90.000000
_cell_angle_beta 95.072605
_cell_angle_gamma 90.000000
_cell_volume 1290.967639
_symmetry_space_group_name_H-M "P 21/C"
_symmetry_group_IT_number 14
_symmetry_cell_setting 'monoclinic'
loop_
_space_group_symop_operation_xyz
x,y,z
-x,1/2+y,1/2-z
-x,-y,-z
x,1/2-y,1/2+z
loop_
_atom_site_type_symbol
_atom_site_label
_atom_site_fract_x
_atom_site_fract_y
_atom_site_fract_z
Si Si1 0.577402 0.907480 0.652946
Si Si2 0.209257 0.447092 0.013116
Si Si3 0.378814 0.602512 0.676737
Si Si4 0.869233 0.168232 0.487372
Si Si5 0.212784 0.235382 0.202656
Si Si6 0.890901 0.465215 0.261972
Si Si7 0.932935 0.658763 0.561952
Si Si8 0.605914 0.237332 0.540897
O O1 0.662148 0.968325 0.545183
O O2 0.663365 0.823688 0.746625
O O3 0.482893 0.840424 0.554393
O O4 0.542102 0.002606 0.756717
O O5 0.156830 0.551503 0.088672
O O6 0.221688 0.338521 0.099426
O O7 0.127299 0.441630 0.860596
O O8 0.238701 0.562063 0.678056
O O9 0.416813 0.642925 0.524397
O O10 0.395132 0.700741 0.794209
O O11 0.913017 0.133107 0.648988
O O12 0.740190 0.219207 0.497975
O O13 0.960105 0.253752 0.436294
O O14 0.161616 0.291811 0.338078
O O15 0.129254 0.153808 0.099956
O O16 0.006927 0.449713 0.370896
#
# Coordination Sequence:
#
# PCOD9248376 Si02
#       8
#     4   4   4   4   4   4   4   4
#     4  11  24  42  69  99 137 175 228 263 336 405
#     4   9  21  44  64  91 133 177 224 255 340 401
#     4  10  22  42  67 101 132 171 223 272 335 390
#     4   9  20  38  67  96 120 171 227 269 317 398
#     4  12  25  40  66  93 141 178 219 278 331 395
#     4   8  18  37  66  88 127 162 227 266 310 401
#     4  12  21  38  65  98 135 175 224 273 333 387
#     4  11  22  39  73  96 134 174 216 280 332 388
#
# _framework density 24.787607000000001
#
# number of rings (size 3 to 8) (size 9 to 14) (size 15 to 20)
#    0.750    1.000    5.000    0.375    1.750    2.000 
#    0.000    4.375    5.500    0.000    0.000    0.000 
#    0.000    0.000    0.000    0.000    0.000    0.000 
#
# Total GULP energy -178679.411757 kJ/mol
# GULP energy per Si atom -5583.731617 kJ/mol
# Density = 2.473119 g / cm^3
# Si number density = 24.787607 Si / 1000 Ang^3
#
#
#
# Elastic Constant Matrix: (Units=GPa)
#
#
# Indices 1 2 3 4 5 6 
#
# 1 39.6873 6.4136 16.5570 0.0000 4.7679 0.0000
# 2 6.4136 41.6324 23.4547 0.0000 -3.4360 0.0000
# 3 16.5570 23.4547 96.8382 0.0000 9.0395 0.0000
# 4 0.0000 0.0000 0.0000 41.0153 0.0000 3.3195
# 5 4.7679 -3.4360 9.0395 0.0000 21.7341 0.0000
# 6 0.0000 0.0000 0.0000 3.3195 0.0000 39.6414
#
#
#
# Elastic Compliance Matrix: (Units=1/GPa)
#
#
# Indices 1 2 3 4 5 6 
#
# 1 0.027740 -0.002635 -0.003639 0.000000 -0.004989 0.000000
# 2 -0.002635 0.029289 -0.007418 0.000000 0.008293 0.000000
# 3 -0.003639 -0.007418 0.013296 0.000000 -0.005904 0.000000
# 4 0.000000 0.000000 0.000000 0.024548 0.000000 -0.002056
# 5 -0.004989 0.008293 -0.005904 0.000000 0.050872 0.000000
# 6 0.000000 0.000000 0.000000 -0.002056 0.000000 0.025398
#
#
# Mechanical properties :
#
#
# Convention : Reuss Voigt Hill
#
# Bulk Modulus (GPa) = 23.28701 30.11207 26.69954
# Shear Modulus (GPa) = 23.49172 29.26032 26.37602
#
# Velocity S-wave (km/s) = 3.08185 3.43948 3.26556
# Velocity P-wave (km/s) = 4.69880 5.28657 5.00133
#
# Compressibility (1/GPa) = 0.04294240
#
# Stress axis : x y z
#
# Youngs Moduli (GPa) = 36.04862 34.14248 75.20811
#
# Poissons Ratio (x) = 0.08997 0.27369
# Poissons Ratio (y) = 0.09499 0.55786
# Poissons Ratio (z) = 0.13118 0.25325
#
# Static dielectric constant tensor:
#      x y z
#    x 1.982010 0.000000 0.017700 
#    y 0.000000 2.110080 0.000000 
#    z 0.017700 0.000000 1.992390 
# 
# From -- ./inp_files/13348.got.cif
#   From: 2010.05.17/outbox.cif.g08.bks.cpg/sg14_7_cif.got.tgz:13348.got - 2010.06.03 17:49:19.
