data_PCOD9248929
_publ_section_title
;
Structure prediction by ZEFSAII (Michael W. Deem and Ramdas Pophale) SiO2 
 PCOD9248929
Probable space group: P 21/C
;
_chemical_formula_sum "Si O2"
_cell_formula_units_Z 20
_cell_length_a 25.484703
_cell_length_b 4.923190
_cell_length_c 11.838616
_cell_angle_alpha 90.000000
_cell_angle_beta 33.747430
_cell_angle_gamma 90.000000
_cell_volume 825.157631
_symmetry_space_group_name_H-M "P 21/C"
_symmetry_group_IT_number 14
_symmetry_cell_setting 'monoclinic'
loop_
_space_group_symop_operation_xyz
x,y,z
-x,1/2+y,1/2-z
-x,-y,-z
x,1/2-y,1/2+z
loop_
_atom_site_type_symbol
_atom_site_label
_atom_site_fract_x
_atom_site_fract_y
_atom_site_fract_z
Si Si1 0.943223 0.931636 0.850113
Si Si2 0.436224 0.676004 0.368222
Si Si3 0.202040 0.425492 0.570786
Si Si4 0.603685 0.367415 0.812845
Si Si5 0.111798 0.544976 0.329441
O O1 0.868750 0.815332 0.896936
O O2 0.010790 0.163287 0.677449
O O3 0.892934 0.121328 0.031743
O O4 0.470406 0.365935 0.297638
O O5 0.389880 0.713939 0.576337
O O6 0.388563 0.752464 0.331070
O O7 0.309372 0.425511 0.342431
O O8 0.176066 0.223261 0.716383
O O9 0.164404 0.726448 0.664260
O O10 0.500000 0.500000 0.000000
O O11 0.000000 0.500000 0.500000
#
# Coordination Sequence:
#
# PCOD9248929 Si02
#       5
#     4   4   4   4   4
#     4  12  23  42  68  96 135 177 222 283 342 409
#     4  10  22  44  72  96 135 184 230 285 344 392
#     4  12  26  43  68 102 131 185 223 277 350 408
#     4  10  25  48  70 104 142 184 232 289 336 412
#     4  12  24  44  68  95 139 172 226 283 342 408
#
# _framework density 24.237794999999998
#
# number of rings (size 3 to 8) (size 9 to 14) (size 15 to 20)
#    0.000    0.800    4.000    2.400    2.800    6.400 
#    7.200    0.000    0.000    0.000    0.000    0.000 
#    0.000    0.000    0.000    0.000    0.000    0.000 
#
# Total GULP energy -111375.542382 kJ/mol
# GULP energy per Si atom -5568.777119 kJ/mol
# Density = 2.418263 g / cm^3
# Si number density = 24.237795 Si / 1000 Ang^3
#
#
#
# Elastic Constant Matrix: (Units=GPa)
#
#
# Indices 1 2 3 4 5 6 
#
# 1 73.1741 5.3327 28.6869 0.0000 29.5159 0.0000
# 2 5.3327 82.5069 32.4452 0.0000 -16.5624 0.0000
# 3 28.6869 32.4452 114.4846 0.0000 -12.1993 0.0000
# 4 0.0000 0.0000 0.0000 29.3676 0.0000 6.9632
# 5 29.5159 -16.5624 -12.1993 0.0000 50.4716 0.0000
# 6 0.0000 0.0000 0.0000 6.9632 0.0000 11.7438
#
#
#
# Elastic Compliance Matrix: (Units=1/GPa)
#
#
# Indices 1 2 3 4 5 6 
#
# 1 0.022772 -0.001919 -0.006824 0.000000 -0.015596 0.000000
# 2 -0.001919 0.014484 -0.003077 0.000000 0.005132 0.000000
# 3 -0.006824 -0.003077 0.011942 0.000000 0.005867 0.000000
# 4 0.000000 0.000000 0.000000 0.039621 0.000000 -0.023492
# 5 -0.015596 0.005132 0.005867 0.000000 0.032036 0.000000
# 6 0.000000 0.000000 0.000000 -0.023492 0.000000 0.099081
#
#
# Mechanical properties :
#
#
# Convention : Reuss Voigt Hill
#
# Bulk Modulus (GPa) = 39.12707 44.78833 41.95770
# Shear Modulus (GPa) = 19.83359 31.89664 25.86511
#
# Velocity S-wave (km/s) = 2.86368 3.63159 3.27025
# Velocity P-wave (km/s) = 5.20695 6.00861 5.62209
#
# Compressibility (1/GPa) = 0.02555776
#
# Stress axis : x y z
#
# Youngs Moduli (GPa) = 43.91300 69.03949 83.73746
#
# Poissons Ratio (x) = 0.13250 0.57144
# Poissons Ratio (y) = 0.08427 0.25768
# Poissons Ratio (z) = 0.29967 0.21245
#
# Static dielectric constant tensor:
#      x y z
#    x 1.991500 0.000000 -0.011990 
#    y 0.000000 12.444530 0.000000 
#    z -0.011990 0.000000 1.911620 
# 
# From -- ./inp_files/30965.got.cif
#   From: 2010.05.17/outbox.cif.g08.bks.cpg/sg14_16_cif.got.tgz:30965.got - 2010.06.03 17:49:19.
