data_PCOD9248592
_publ_section_title
;
Structure prediction by ZEFSAII (Michael W. Deem and Ramdas Pophale) SiO2 
 PCOD9248592
Probable space group: P 21/C
;
_chemical_formula_sum "Si O2"
_cell_formula_units_Z 16
_cell_length_a 9.948435
_cell_length_b 9.409354
_cell_length_c 9.786473
_cell_angle_alpha 90.000000
_cell_angle_beta 140.083881
_cell_angle_gamma 90.000000
_cell_volume 587.826852
_symmetry_space_group_name_H-M "P 21/C"
_symmetry_group_IT_number 14
_symmetry_cell_setting 'monoclinic'
loop_
_space_group_symop_operation_xyz
x,y,z
-x,1/2+y,1/2-z
-x,-y,-z
x,1/2-y,1/2+z
loop_
_atom_site_type_symbol
_atom_site_label
_atom_site_fract_x
_atom_site_fract_y
_atom_site_fract_z
Si Si1 0.959823 0.551066 0.813888
Si Si2 0.224376 0.897062 0.284832
Si Si3 0.412613 0.629672 0.517782
Si Si4 0.224359 0.301221 0.680894
O O1 0.813108 0.437071 0.617445
O O2 0.845006 0.702357 0.745125
O O3 0.178113 0.569992 0.907439
O O4 0.000000 0.500000 0.000000
O O5 0.366660 0.760897 0.381668
O O6 0.300621 0.040211 0.274354
O O7 0.994793 0.840105 0.061242
O O8 0.500000 0.500000 0.500000
O O9 0.596432 0.703249 0.750094
#
# Coordination Sequence:
#
# PCOD9248592 Si02
#       4
#     4   4   4   4
#     4  11  22  43  66  94 138 179 221 276 341 407
#     4  11  22  43  67  96 134 176 222 280 344 398
#     4  10  22  43  65  98 130 173 226 275 335 406
#     4  10  23  41  67  96 130 172 227 283 332 402
#
# _framework density 27.218900000000001
#
# number of rings (size 3 to 8) (size 9 to 14) (size 15 to 20)
#    0.000    1.500    2.500    2.250    0.000    0.000 
#   13.500    0.000    0.000    0.000    0.000    0.000 
#    0.000    0.000    0.000    0.000    0.000    0.000 
#
# Total GULP energy -89353.524841 kJ/mol
# GULP energy per Si atom -5584.595303 kJ/mol
# Density = 2.715695 g / cm^3
# Si number density = 27.218900 Si / 1000 Ang^3
#
#
#
# Elastic Constant Matrix: (Units=GPa)
#
#
# Indices 1 2 3 4 5 6 
#
# 1 81.5272 41.6579 14.2603 0.0000 2.9994 0.0000
# 2 41.6579 238.3069 61.9162 0.0000 15.1750 0.0000
# 3 14.2603 61.9162 96.3201 0.0000 12.9088 0.0000
# 4 0.0000 0.0000 0.0000 79.1611 0.0000 27.8918
# 5 2.9994 15.1750 12.9088 0.0000 27.3148 0.0000
# 6 0.0000 0.0000 0.0000 27.8918 0.0000 33.9407
#
#
#
# Elastic Compliance Matrix: (Units=1/GPa)
#
#
# Indices 1 2 3 4 5 6 
#
# 1 0.013496 -0.002210 -0.000580 0.000000 0.000020 0.000000
# 2 -0.002210 0.005447 -0.002991 0.000000 -0.001370 0.000000
# 3 -0.000580 -0.002991 0.012981 0.000000 -0.004410 0.000000
# 4 0.000000 0.000000 0.000000 0.017781 0.000000 -0.014612
# 5 0.000020 -0.001370 -0.004410 0.000000 0.039453 0.000000
# 6 0.000000 0.000000 0.000000 -0.014612 0.000000 0.041471
#
#
# Mechanical properties :
#
#
# Convention : Reuss Voigt Hill
#
# Bulk Modulus (GPa) = 49.10916 72.42478 60.76697
# Shear Modulus (GPa) = 33.56212 47.97130 40.76671
#
# Velocity S-wave (km/s) = 3.51528 4.20268 3.87426
# Velocity P-wave (km/s) = 5.87858 7.08633 6.51052
#
# Compressibility (1/GPa) = 0.02036280
#
# Stress axis : x y z
#
# Youngs Moduli (GPa) = 74.09783 183.59525 77.03372
#
# Poissons Ratio (x) = 0.40568 0.04470
# Poissons Ratio (y) = 0.16373 0.23037
# Poissons Ratio (z) = 0.04300 0.54905
#
# Static dielectric constant tensor:
#      x y z
#    x 2.166080 0.000000 0.077820 
#    y 0.000000 2.075350 0.000000 
#    z 0.077820 0.000000 2.337260 
# 
# From -- ./inp_files/27506.got.cif
#   From: 2010.05.17/outbox.cif.g08.bks.cpg/sg14_14_cif.got.tgz:27506.got - 2010.06.03 17:49:19.
