data_PCOD9248439
_publ_section_title
;
Structure prediction by ZEFSAII (Michael W. Deem and Ramdas Pophale) SiO2 
 PCOD9248439
Probable space group: P 21/C
;
_chemical_formula_sum "Si O2"
_cell_formula_units_Z 32
_cell_length_a 7.571114
_cell_length_b 15.417364
_cell_length_c 21.572734
_cell_angle_alpha 90.000000
_cell_angle_beta 144.929364
_cell_angle_gamma 90.000000
_cell_volume 1446.871781
_symmetry_space_group_name_H-M "P 21/C"
_symmetry_group_IT_number 14
_symmetry_cell_setting 'monoclinic'
loop_
_space_group_symop_operation_xyz
x,y,z
-x,1/2+y,1/2-z
-x,-y,-z
x,1/2-y,1/2+z
loop_
_atom_site_type_symbol
_atom_site_label
_atom_site_fract_x
_atom_site_fract_y
_atom_site_fract_z
Si Si1 0.212708 0.180247 0.721365
Si Si2 0.351461 0.611839 0.281651
Si Si3 0.705293 0.412856 0.562008
Si Si4 0.212629 0.916316 0.488838
Si Si5 0.603396 0.254280 0.111818
Si Si6 0.256158 0.401313 0.959184
Si Si7 0.326906 0.951918 0.081975
Si Si8 0.615697 0.879057 0.724998
O O1 0.480270 0.113477 0.818816
O O2 0.343189 0.276412 0.753243
O O3 0.064398 0.143237 0.615173
O O4 0.929577 0.196961 0.690189
O O5 0.421859 0.705248 0.330379
O O6 0.448255 0.535827 0.356330
O O7 0.499749 0.588465 0.258294
O O8 0.994509 0.612894 0.165163
O O9 0.500000 0.500000 0.500000
O O10 0.575069 0.325322 0.554865
O O11 0.737219 0.396400 0.497724
O O12 0.048464 0.421731 0.688547
O O13 0.438147 0.912442 0.493651
O O14 0.391460 0.892003 0.602438
O O15 0.148544 0.018779 0.470272
O O16 0.326659 0.319907 0.022228
O O17 0.000000 0.000000 0.000000
#
# Coordination Sequence:
#
# PCOD9248439 Si02
#       8
#     4   4   4   4   4   4   4   4
#     4  10  24  45  71  96 132 189 229 291 351 430
#     4  12  24  45  61 101 143 177 229 291 354 423
#     4  11  23  42  69 100 137 185 236 291 346 420
#     4  10  22  44  71  99 132 181 236 286 357 415
#     4  10  24  42  68 102 135 186 239 288 349 420
#     4  10  22  42  68  98 131 176 235 292 338 423
#     4  12  25  44  70  99 141 180 235 290 367 423
#     4  11  26  42  68 103 145 185 232 291 359 432
#
# _framework density 22.116681
#
# number of rings (size 3 to 8) (size 9 to 14) (size 15 to 20)
#    0.000    1.250    3.750    1.500    7.000    2.500 
#    2.250    0.000    0.000    0.000    0.000    0.000 
#    0.000    0.000    0.000    0.000    0.000    0.000 
#
# Total GULP energy -178416.512768 kJ/mol
# GULP energy per Si atom -5575.516024 kJ/mol
# Density = 2.206634 g / cm^3
# Si number density = 22.116681 Si / 1000 Ang^3
#
#
#
# Elastic Constant Matrix: (Units=GPa)
#
#
# Indices 1 2 3 4 5 6 
#
# 1 45.0381 31.6342 23.9581 0.0000 -14.0583 0.0000
# 2 31.6342 117.6964 76.4501 0.0000 1.6173 0.0000
# 3 23.9581 76.4501 166.2205 0.0000 -21.0416 0.0000
# 4 0.0000 0.0000 0.0000 51.7247 0.0000 -9.0380
# 5 -14.0583 1.6173 -21.0416 0.0000 33.1347 0.0000
# 6 0.0000 0.0000 0.0000 -9.0380 0.0000 11.9534
#
#
#
# Elastic Compliance Matrix: (Units=1/GPa)
#
#
# Indices 1 2 3 4 5 6 
#
# 1 0.033549 -0.010578 0.002062 0.000000 0.016060 0.000000
# 2 -0.010578 0.016099 -0.007120 0.000000 -0.009795 0.000000
# 3 0.002062 -0.007120 0.009948 0.000000 0.007540 0.000000
# 4 0.000000 0.000000 0.000000 0.022276 0.000000 0.016843
# 5 0.016060 -0.009795 0.007540 0.000000 0.042260 0.000000
# 6 0.000000 0.000000 0.000000 0.016843 0.000000 0.096393
#
#
# Mechanical properties :
#
#
# Convention : Reuss Voigt Hill
#
# Bulk Modulus (GPa) = 35.30342 65.89329 50.59836
# Shear Modulus (GPa) = 19.13983 32.49006 25.81494
#
# Velocity S-wave (km/s) = 2.94496 3.83695 3.42016
# Velocity P-wave (km/s) = 5.24983 7.03475 6.20679
#
# Compressibility (1/GPa) = 0.02832586
#
# Stress axis : x y z
#
# Youngs Moduli (GPa) = 29.80727 62.11730 100.52478
#
# Poissons Ratio (x) = 0.65705 -0.20732
# Poissons Ratio (y) = 0.31529 0.71569
# Poissons Ratio (z) = -0.06147 0.44225
#
# Static dielectric constant tensor:
#      x y z
#    x 1.910490 0.000000 0.018920 
#    y 0.000000 1.830060 0.000000 
#    z 0.018920 0.000000 1.813220 
# 
# From -- ./inp_files/72496.got.cif
#   From: 2010.05.17/outbox.cif.g08.bks.cpg/sg14_37_cif.got.tgz:72496.got - 2010.06.03 17:49:19.
