data_PCOD9248195
_publ_section_title
;
Structure prediction by ZEFSAII (Michael W. Deem and Ramdas Pophale) SiO2 
 PCOD9248195
Probable space group: P 21/C
;
_chemical_formula_sum "Si O2"
_cell_formula_units_Z 32
_cell_length_a 20.477450
_cell_length_b 6.151316
_cell_length_c 22.678457
_cell_angle_alpha 90.000000
_cell_angle_beta 29.446471
_cell_angle_gamma 90.000000
_cell_volume 1404.359537
_symmetry_space_group_name_H-M "P 21/C"
_symmetry_group_IT_number 14
_symmetry_cell_setting 'monoclinic'
loop_
_space_group_symop_operation_xyz
x,y,z
-x,1/2+y,1/2-z
-x,-y,-z
x,1/2-y,1/2+z
loop_
_atom_site_type_symbol
_atom_site_label
_atom_site_fract_x
_atom_site_fract_y
_atom_site_fract_z
Si Si1 0.826035 0.925063 0.006818
Si Si2 0.593837 0.812971 0.902020
Si Si3 0.194013 0.095845 0.583856
Si Si4 0.355132 0.931471 0.243668
Si Si5 0.445475 0.432427 0.955068
Si Si6 0.995792 0.799230 0.676681
Si Si7 0.920225 0.542046 0.002541
Si Si8 0.460627 0.923119 0.799948
O O1 0.866393 0.788819 0.033447
O O2 0.692684 0.063056 0.100364
O O3 0.803951 0.735002 0.976646
O O4 0.948720 0.074927 0.892622
O O5 0.504669 0.646715 0.935804
O O6 0.686228 0.929880 0.781972
O O7 0.634405 0.684450 0.928510
O O8 0.500000 0.000000 0.000000
O O9 0.341741 0.029886 0.484954
O O10 0.132054 0.245371 0.683862
O O11 0.099986 0.894375 0.642654
O O12 0.431457 0.714971 0.163157
O O13 0.468020 0.059507 0.191962
O O14 0.217440 0.904763 0.386410
O O15 0.994581 0.962644 0.621627
O O16 0.000000 0.500000 0.000000
O O17 0.502469 0.173104 0.746765
#
# Coordination Sequence:
#
# PCOD9248195 Si02
#       8
#     4   4   4   4   4   4   4   4
#     4  11  24  45  70 104 139 184 244 303 374 445
#     4   9  22  42  60 100 135 176 231 289 356 445
#     4  11  23  42  69 101 131 185 234 312 369 434
#     4  11  23  41  68 103 139 184 236 303 374 443
#     4  10  22  41  68  98 136 180 237 300 372 430
#     4  11  25  45  67 101 142 182 252 298 370 449
#     4  11  27  49  68 101 146 197 246 293 372 465
#     4  12  26  43  72 108 148 186 238 315 381 445
#
# _framework density 22.786189
#
# number of rings (size 3 to 8) (size 9 to 14) (size 15 to 20)
#    0.000    1.250    3.750    0.750    7.000    1.500 
#    6.750    0.000    0.000    0.000    0.000    0.000 
#    0.000    0.000    0.000    0.000    0.000    0.000 
#
# Total GULP energy -178378.966050 kJ/mol
# GULP energy per Si atom -5574.342689 kJ/mol
# Density = 2.273433 g / cm^3
# Si number density = 22.786189 Si / 1000 Ang^3
#
#
#
# Elastic Constant Matrix: (Units=GPa)
#
#
# Indices 1 2 3 4 5 6 
#
# 1 102.4839 32.1206 20.0208 0.0000 -3.6418 0.0000
# 2 32.1206 57.8137 13.7444 0.0000 -0.6215 0.0000
# 3 20.0208 13.7444 57.5255 0.0000 4.1375 0.0000
# 4 0.0000 0.0000 0.0000 27.2767 0.0000 10.7476
# 5 -3.6418 -0.6215 4.1375 0.0000 32.8422 0.0000
# 6 0.0000 0.0000 0.0000 10.7476 0.0000 37.2650
#
#
#
# Elastic Compliance Matrix: (Units=1/GPa)
#
#
# Indices 1 2 3 4 5 6 
#
# 1 0.012308 -0.006122 -0.002937 0.000000 0.001619 0.000000
# 2 -0.006122 0.021411 -0.002992 0.000000 0.000103 0.000000
# 3 -0.002937 -0.002992 0.019323 0.000000 -0.002817 0.000000
# 4 0.000000 0.000000 0.000000 0.041362 0.000000 -0.011929
# 5 0.001619 0.000103 -0.002817 0.000000 0.030985 0.000000
# 6 0.000000 0.000000 0.000000 -0.011929 0.000000 0.030275
#
#
# Mechanical properties :
#
#
# Convention : Reuss Voigt Hill
#
# Bulk Modulus (GPa) = 34.55612 38.84385 36.69998
# Shear Modulus (GPa) = 26.39720 29.60593 28.00156
#
# Velocity S-wave (km/s) = 3.40733 3.60848 3.50935
# Velocity P-wave (km/s) = 5.53879 5.86904 5.70630
#
# Compressibility (1/GPa) = 0.02893844
#
# Stress axis : x y z
#
# Youngs Moduli (GPa) = 81.24903 46.70505 51.75086
#
# Poissons Ratio (x) = 0.28595 0.15200
# Poissons Ratio (y) = 0.49744 0.15485
# Poissons Ratio (z) = 0.23864 0.13975
#
# Static dielectric constant tensor:
#      x y z
#    x 1.926600 0.000000 0.061530 
#    y 0.000000 1.859440 0.000000 
#    z 0.061530 0.000000 1.922350 
# 
# From -- ./inp_files/74529.got.cif
#   From: 2010.05.17/outbox.cif.g08.bks.cpg/sg14_38_cif.got.tgz:74529.got - 2010.06.03 17:49:19.
