data_PCOD9248937
_publ_section_title
;
Structure prediction by ZEFSAII (Michael W. Deem and Ramdas Pophale) SiO2 
 PCOD9248937
Probable space group: P 21/C
;
_chemical_formula_sum "Si O2"
_cell_formula_units_Z 28
_cell_length_a 7.973040
_cell_length_b 9.178678
_cell_length_c 14.460944
_cell_angle_alpha 90.000000
_cell_angle_beta 68.561938
_cell_angle_gamma 90.000000
_cell_volume 985.061316
_symmetry_space_group_name_H-M "P 21/C"
_symmetry_group_IT_number 14
_symmetry_cell_setting 'monoclinic'
loop_
_space_group_symop_operation_xyz
x,y,z
-x,1/2+y,1/2-z
-x,-y,-z
x,1/2-y,1/2+z
loop_
_atom_site_type_symbol
_atom_site_label
_atom_site_fract_x
_atom_site_fract_y
_atom_site_fract_z
Si Si1 0.863403 0.988400 0.330146
Si Si2 0.000000 0.500000 0.000000
Si Si3 0.005260 0.057556 0.887613
Si Si4 0.644446 0.748378 0.646267
Si Si5 0.539628 0.952750 0.830864
Si Si6 0.742827 0.253166 0.037154
Si Si7 0.500000 0.000000 0.500000
Si Si8 0.209781 0.196277 0.071778
O O1 0.958374 0.047052 0.402426
O O2 0.654455 0.030141 0.384351
O O3 0.860434 0.813668 0.343251
O O4 0.970806 0.019524 0.217189
O O5 0.114973 0.642792 0.941521
O O6 0.185913 0.152272 0.856054
O O7 0.928639 0.910354 0.953580
O O8 0.838772 0.166538 0.934852
O O9 0.617396 0.878655 0.722677
O O10 0.488840 0.626210 0.670049
O O11 0.698791 0.800006 0.529646
O O12 0.346406 0.872994 0.882723
O O13 0.648176 0.903002 0.901147
O O14 0.585698 0.363758 0.040525
#
# Coordination Sequence:
#
# PCOD9248937 Si02
#       8
#     4   2   4   4   4   4   2   4
#     4  11  25  46  76 110 152 204 253 326 384 473
#     4  10  26  44  72 112 150 200 252 322 388 462
#     4  12  27  47  79 110 156 200 266 316 399 466
#     4  12  28  52  79 116 158 209 263 334 391 484
#     4  12  28  53  76 117 156 211 266 320 413 466
#     4  11  24  49  73 109 154 197 259 319 392 476
#     4  10  22  44  74 102 156 194 252 322 380 466
#     4  12  26  49  79 110 154 209 258 329 387 481
#
# _framework density 28.424627999999998
#
# number of rings (size 3 to 8) (size 9 to 14) (size 15 to 20)
#    0.000    0.571    4.286    1.714    6.000    6.857 
#    0.000    0.000    0.000    0.000    0.000    0.000 
#    0.000    0.000    0.000    0.000    0.000    0.000 
#
# Total GULP energy -155971.596474 kJ/mol
# GULP energy per Si atom -5570.414160 kJ/mol
# Density = 2.835993 g / cm^3
# Si number density = 28.424628 Si / 1000 Ang^3
#
#
#
# Elastic Constant Matrix: (Units=GPa)
#
#
# Indices 1 2 3 4 5 6 
#
# 1 68.4570 -6.8354 -3.0370 0.0000 -8.7729 0.0000
# 2 -6.8354 115.9815 -14.1710 0.0000 -19.4314 0.0000
# 3 -3.0370 -14.1710 81.7232 0.0000 -21.7156 0.0000
# 4 0.0000 0.0000 0.0000 54.0332 0.0000 -7.8529
# 5 -8.7729 -19.4314 -21.7156 0.0000 39.5824 0.0000
# 6 0.0000 0.0000 0.0000 -7.8529 0.0000 50.3056
#
#
#
# Elastic Compliance Matrix: (Units=1/GPa)
#
#
# Indices 1 2 3 4 5 6 
#
# 1 0.015713 0.002243 0.002565 0.000000 0.005991 0.000000
# 2 0.002243 0.010565 0.004010 0.000000 0.007884 0.000000
# 3 0.002565 0.004010 0.016040 0.000000 0.011337 0.000000
# 4 0.000000 0.000000 0.000000 0.018937 0.000000 0.002956
# 5 0.005991 0.007884 0.011337 0.000000 0.036681 0.000000
# 6 0.000000 0.000000 0.000000 0.002956 0.000000 0.020340
#
#
# Mechanical properties :
#
#
# Convention : Reuss Voigt Hill
#
# Bulk Modulus (GPa) = 16.67934 24.23052 20.45493
# Shear Modulus (GPa) = 41.45107 48.13127 44.79117
#
# Velocity S-wave (km/s) = 3.82289 4.11943 3.97393
# Velocity P-wave (km/s) = 5.03653 5.58294 5.31676
#
# Compressibility (1/GPa) = 0.05995442
#
# Stress axis : x y z
#
# Youngs Moduli (GPa) = 63.64065 94.65125 62.34589
#
# Poissons Ratio (x) = -0.21232 -0.15991
# Poissons Ratio (y) = -0.14276 -0.25002
# Poissons Ratio (z) = -0.16323 -0.37958
#
# Static dielectric constant tensor:
#      x y z
#    x 2.076180 0.000000 -0.070710 
#    y 0.000000 2.061000 0.000000 
#    z -0.070710 0.000000 2.183700 
# 
# From -- ./inp_files/39974.got.cif
#   From: 2010.05.17/outbox.cif.g08.bks.cpg/sg14_20_cif.got.tgz:39974.got - 2010.06.03 17:49:19.
