data_PCOD9248229
_publ_section_title
;
Structure prediction by ZEFSAII (Michael W. Deem and Ramdas Pophale) SiO2 
 PCOD9248229
Probable space group: P 21/C
;
_chemical_formula_sum "Si O2"
_cell_formula_units_Z 28
_cell_length_a 10.706795
_cell_length_b 14.444468
_cell_length_c 9.041599
_cell_angle_alpha 90.000000
_cell_angle_beta 121.755034
_cell_angle_gamma 90.000000
_cell_volume 1188.999079
_symmetry_space_group_name_H-M "P 21/C"
_symmetry_group_IT_number 14
_symmetry_cell_setting 'monoclinic'
loop_
_space_group_symop_operation_xyz
x,y,z
-x,1/2+y,1/2-z
-x,-y,-z
x,1/2-y,1/2+z
loop_
_atom_site_type_symbol
_atom_site_label
_atom_site_fract_x
_atom_site_fract_y
_atom_site_fract_z
Si Si1 0.161979 0.492995 0.028122
Si Si2 0.424655 0.627479 0.198602
Si Si3 0.673675 0.203262 0.662901
Si Si4 0.014927 0.993083 0.836382
Si Si5 0.884362 0.201170 0.057650
Si Si6 0.723035 0.869947 0.005989
Si Si7 0.819902 0.791503 0.354240
O O1 0.287624 0.562711 0.158674
O O2 0.203381 0.385662 0.068968
O O3 0.000000 0.500000 0.000000
O O4 0.129538 0.522285 0.839807
O O5 0.413710 0.722949 0.287837
O O6 0.575932 0.584836 0.352236
O O7 0.420373 0.644585 0.017077
O O8 0.778007 0.255649 0.611504
O O9 0.787825 0.165329 0.858243
O O10 0.039198 0.885702 0.818766
O O11 0.154136 0.054348 0.879107
O O12 0.000000 0.000000 0.000000
O O13 0.010006 0.274245 0.087756
O O14 0.780104 0.800675 0.916194
O O15 0.716748 0.807310 0.148371
#
# Coordination Sequence:
#
# PCOD9248229 Si02
#       7
#     4   4   4   4   4   4   4
#     4  12  24  46  70 104 134 182 234 290 337 415
#     4  11  25  46  68  99 143 179 232 277 352 413
#     4  10  22  41  70  96 133 179 227 280 341 404
#     4  12  24  42  68 102 136 174 234 285 342 401
#     4  11  21  41  70 102 126 174 230 291 330 402
#     4  12  27  46  67 102 140 187 224 289 349 419
#     4  12  25  44  74  98 143 176 237 281 355 403
#
# _framework density 23.549219999999998
#
# number of rings (size 3 to 8) (size 9 to 14) (size 15 to 20)
#    0.000    0.571    2.857    6.857    0.000    0.571 
#    5.143    1.429    0.000    0.000    0.000    0.000 
#    0.000    0.000    0.000    0.000    0.000    0.000 
#
# Total GULP energy -156496.233045 kJ/mol
# GULP energy per Si atom -5589.151180 kJ/mol
# Density = 2.349562 g / cm^3
# Si number density = 23.549220 Si / 1000 Ang^3
#
#
#
# Elastic Constant Matrix: (Units=GPa)
#
#
# Indices 1 2 3 4 5 6 
#
# 1 20.3314 -1.4076 30.2681 0.0000 8.9676 0.0000
# 2 -1.4076 65.5910 11.0221 0.0000 13.7688 0.0000
# 3 30.2681 11.0221 156.8031 0.0000 14.2660 0.0000
# 4 0.0000 0.0000 0.0000 36.1304 0.0000 -1.4738
# 5 8.9676 13.7688 14.2660 0.0000 40.1446 0.0000
# 6 0.0000 0.0000 0.0000 -1.4738 0.0000 19.7337
#
#
#
# Elastic Compliance Matrix: (Units=1/GPa)
#
#
# Indices 1 2 3 4 5 6 
#
# 1 0.077032 0.007087 -0.014035 0.000000 -0.014651 0.000000
# 2 0.007087 0.017148 -0.001958 0.000000 -0.006769 0.000000
# 3 -0.014035 -0.001958 0.009175 0.000000 0.000546 0.000000
# 4 0.000000 0.000000 0.000000 0.027762 0.000000 0.002073
# 5 -0.014651 -0.006769 0.000546 0.000000 0.030310 0.000000
# 6 0.000000 0.000000 0.000000 0.002073 0.000000 0.050830
#
#
# Mechanical properties :
#
#
# Convention : Reuss Voigt Hill
#
# Bulk Modulus (GPa) = 11.68995 35.83228 23.76111
# Shear Modulus (GPa) = 19.33627 32.72460 26.03044
#
# Velocity S-wave (km/s) = 2.86859 3.73181 3.32831
# Velocity P-wave (km/s) = 3.99332 5.81528 4.98819
#
# Compressibility (1/GPa) = 0.08554358
#
# Stress axis : x y z
#
# Youngs Moduli (GPa) = 12.98166 58.31592 108.99762
#
# Poissons Ratio (x) = -0.41329 1.52977
# Poissons Ratio (y) = -0.09200 0.21337
# Poissons Ratio (z) = 0.18220 0.11416
#
# Static dielectric constant tensor:
#      x y z
#    x 1.709440 0.000000 0.177790 
#    y 0.000000 1.973460 0.000000 
#    z 0.177790 0.000000 1.829250 
# 
# From -- ./inp_files/13428.got.cif
#   From: 2010.05.17/outbox.cif.g08.bks.cpg/sg14_7_cif.got.tgz:13428.got - 2010.06.03 17:49:19.
