data_PCOD9248184
_publ_section_title
;
Structure prediction by ZEFSAII (Michael W. Deem and Ramdas Pophale) SiO2 
 PCOD9248184
Probable space group: P 21/C
;
_chemical_formula_sum "Si O2"
_cell_formula_units_Z 28
_cell_length_a 26.333862
_cell_length_b 7.605037
_cell_length_c 10.354628
_cell_angle_alpha 90.000000
_cell_angle_beta 146.862188
_cell_angle_gamma 90.000000
_cell_volume 1133.609471
_symmetry_space_group_name_H-M "P 21/C"
_symmetry_group_IT_number 14
_symmetry_cell_setting 'monoclinic'
loop_
_space_group_symop_operation_xyz
x,y,z
-x,1/2+y,1/2-z
-x,-y,-z
x,1/2-y,1/2+z
loop_
_atom_site_type_symbol
_atom_site_label
_atom_site_fract_x
_atom_site_fract_y
_atom_site_fract_z
Si Si1 0.281425 0.000012 0.252192
Si Si2 0.552661 0.182243 0.488993
Si Si3 0.844486 0.948946 0.781095
Si Si4 0.610709 0.059053 0.887870
Si Si5 0.796789 0.104421 0.408773
Si Si6 0.048602 0.694075 0.945358
Si Si7 0.121038 0.386413 0.267568
O O1 0.388775 0.976858 0.453578
O O2 0.240918 0.059069 0.301985
O O3 0.240315 0.802178 0.148943
O O4 0.228352 0.112034 0.032880
O O5 0.590230 0.181775 0.717547
O O6 0.574170 0.347376 0.442417
O O7 0.446754 0.118123 0.260628
O O8 0.802697 0.002185 0.553545
O O9 0.914564 0.107874 0.964584
O O10 0.896086 0.764698 0.872276
O O11 0.720151 0.030481 0.145451
O O12 0.898943 0.115845 0.565922
O O13 0.090469 0.575596 0.151279
O O14 0.940150 0.664914 0.738013
#
# Coordination Sequence:
#
# PCOD9248184 Si02
#       7
#     4   4   4   4   4   4   4
#     4  10  23  43  65  93 130 173 223 279 334 413
#     4  10  23  44  68  99 137 171 228 275 342 407
#     4  11  24  42  64  98 128 180 224 278 336 406
#     4  10  23  42  69  99 132 181 217 283 338 405
#     4  10  22  41  68  87 134 177 220 272 347 391
#     4  10  23  42  62  92 130 176 217 283 330 399
#     4  11  23  40  64  92 132 171 227 273 337 393
#
# _framework density 24.699863000000001
#
# number of rings (size 3 to 8) (size 9 to 14) (size 15 to 20)
#    0.000    1.714    1.429    1.286   12.000    5.143 
#    5.143    0.000    0.000    0.000    0.000    0.000 
#    0.000    0.000    0.000    0.000    0.000    0.000 
#
# Total GULP energy -156617.350087 kJ/mol
# GULP energy per Si atom -5593.476789 kJ/mol
# Density = 2.464365 g / cm^3
# Si number density = 24.699863 Si / 1000 Ang^3
#
#
#
# Elastic Constant Matrix: (Units=GPa)
#
#
# Indices 1 2 3 4 5 6 
#
# 1 74.6464 17.2113 10.8675 0.0000 -9.7619 0.0000
# 2 17.2113 65.1659 2.1295 0.0000 2.8593 0.0000
# 3 10.8675 2.1295 75.3702 0.0000 -4.2824 0.0000
# 4 0.0000 0.0000 0.0000 17.4264 0.0000 6.7158
# 5 -9.7619 2.8593 -4.2824 0.0000 40.6491 0.0000
# 6 0.0000 0.0000 0.0000 6.7158 0.0000 25.9501
#
#
#
# Elastic Compliance Matrix: (Units=1/GPa)
#
#
# Indices 1 2 3 4 5 6 
#
# 1 0.015095 -0.004089 -0.001850 0.000000 0.003718 0.000000
# 2 -0.004089 0.016520 0.000001 0.000000 -0.002144 0.000000
# 3 -0.001850 0.000001 0.013591 0.000000 0.000987 0.000000
# 4 0.000000 0.000000 0.000000 0.063741 0.000000 -0.016496
# 5 0.003718 -0.002144 0.000987 0.000000 0.025748 0.000000
# 6 0.000000 0.000000 0.000000 -0.016496 0.000000 0.042805
#
#
# Mechanical properties :
#
#
# Convention : Reuss Voigt Hill
#
# Bulk Modulus (GPa) = 30.00397 30.62211 30.31304
# Shear Modulus (GPa) = 24.93947 29.13675 27.03811
#
# Velocity S-wave (km/s) = 3.18103 3.43830 3.31216
# Velocity P-wave (km/s) = 5.06613 5.30916 5.18907
#
# Compressibility (1/GPa) = 0.03332892
#
# Stress axis : x y z
#
# Youngs Moduli (GPa) = 66.24756 60.53424 73.58009
#
# Poissons Ratio (x) = 0.24755 0.13610
# Poissons Ratio (y) = 0.27092 -0.00008
# Poissons Ratio (z) = 0.12254 -0.00007
#
# Static dielectric constant tensor:
#      x y z
#    x 1.958940 0.000000 -0.009430 
#    y 0.000000 1.946090 0.000000 
#    z -0.009430 0.000000 1.964300 
# 
# From -- ./inp_files/19677.got.cif
#   From: 2010.05.17/outbox.cif.g08.bks.cpg/sg14_10_cif.got.tgz:19677.got - 2010.06.03 17:49:19.
