data_PCOD9248725
_publ_section_title
;
Structure prediction by ZEFSAII (Michael W. Deem and Ramdas Pophale) SiO2 
 PCOD9248725
Probable space group: P 21/C
;
_chemical_formula_sum "Si O2"
_cell_formula_units_Z 24
_cell_length_a 19.483141
_cell_length_b 5.378844
_cell_length_c 14.192315
_cell_angle_alpha 90.000000
_cell_angle_beta 44.413747
_cell_angle_gamma 90.000000
_cell_volume 1040.870413
_symmetry_space_group_name_H-M "P 21/C"
_symmetry_group_IT_number 14
_symmetry_cell_setting 'monoclinic'
loop_
_space_group_symop_operation_xyz
x,y,z
-x,1/2+y,1/2-z
-x,-y,-z
x,1/2-y,1/2+z
loop_
_atom_site_type_symbol
_atom_site_label
_atom_site_fract_x
_atom_site_fract_y
_atom_site_fract_z
Si Si1 0.940631 0.559400 0.652454
Si Si2 0.275990 0.329151 0.127002
Si Si3 0.779768 0.666197 0.520206
Si Si4 0.096407 0.663636 0.112022
Si Si5 0.383403 0.408030 0.694107
Si Si6 0.578330 0.195919 0.462410
O O1 0.830835 0.618360 0.726738
O O2 0.927024 0.362535 0.752688
O O3 0.000000 0.500000 0.500000
O O4 0.998032 0.781381 0.649757
O O5 0.342756 0.179514 0.132560
O O6 0.254237 0.184226 0.054078
O O7 0.338070 0.582103 0.053858
O O8 0.833191 0.400595 0.479854
O O9 0.683540 0.752076 0.671168
O O10 0.854012 0.900475 0.462843
O O11 0.499883 0.371282 0.592835
O O12 0.372909 0.700087 0.682286
O O13 0.500000 0.000000 0.500000
#
# Coordination Sequence:
#
# PCOD9248725 Si02
#       6
#     4   4   4   4   4   4
#     4  11  24  44  75 101 146 197 239 303 376 432
#     4  10  23  41  64 101 135 176 243 284 346 435
#     4  11  26  44  73 101 146 187 232 299 358 426
#     4  11  26  47  65 109 148 181 248 302 346 444
#     4  10  22  43  71  95 138 187 229 294 368 414
#     4   9  21  43  65  96 136 175 234 297 345 433
#
# _framework density 23.057625999999999
#
# number of rings (size 3 to 8) (size 9 to 14) (size 15 to 20)
#    0.000    1.667    0.000    3.000   11.667    0.000 
#    9.000    9.167    0.000    0.000    0.000    0.000 
#    0.000    0.000    0.000    0.000    0.000    0.000 
#
# Total GULP energy -133759.468751 kJ/mol
# GULP energy per Si atom -5573.311198 kJ/mol
# Density = 2.300515 g / cm^3
# Si number density = 23.057626 Si / 1000 Ang^3
#
#
#
# Elastic Constant Matrix: (Units=GPa)
#
#
# Indices 1 2 3 4 5 6 
#
# 1 68.3347 3.6824 22.2052 0.0000 -35.8148 0.0000
# 2 3.6824 74.4625 34.6950 0.0000 -4.8995 0.0000
# 3 22.2052 34.6950 122.3067 0.0000 -26.9937 0.0000
# 4 0.0000 0.0000 0.0000 29.6973 0.0000 -11.1405
# 5 -35.8148 -4.8995 -26.9937 0.0000 33.0299 0.0000
# 6 0.0000 0.0000 0.0000 -11.1405 0.0000 32.6721
#
#
#
# Elastic Compliance Matrix: (Units=1/GPa)
#
#
# Indices 1 2 3 4 5 6 
#
# 1 0.034485 -0.000285 0.002518 0.000000 0.039408 0.000000
# 2 -0.000285 0.015545 -0.004779 0.000000 -0.001910 0.000000
# 3 0.002518 -0.004779 0.011616 0.000000 0.011514 0.000000
# 4 0.000000 0.000000 0.000000 0.038612 0.000000 0.013166
# 5 0.039408 -0.001910 0.011514 0.000000 0.082133 0.000000
# 6 0.000000 0.000000 0.000000 0.013166 0.000000 0.035096
#
#
# Mechanical properties :
#
#
# Convention : Reuss Voigt Hill
#
# Bulk Modulus (GPa) = 17.68282 42.91881 30.30082
# Shear Modulus (GPa) = 20.70967 32.71461 26.71214
#
# Velocity S-wave (km/s) = 3.00020 3.77081 3.40736
# Velocity P-wave (km/s) = 4.43703 6.13293 5.35257
#
# Compressibility (1/GPa) = 0.05655206
#
# Stress axis : x y z
#
# Youngs Moduli (GPa) = 28.99786 64.32976 86.08758
#
# Poissons Ratio (x) = 0.01836 -0.21674
# Poissons Ratio (y) = 0.00828 0.41144
# Poissons Ratio (z) = -0.07301 0.30745
#
# Static dielectric constant tensor:
#      x y z
#    x 1.812600 0.000000 -0.004460 
#    y 0.000000 0.633610 0.000000 
#    z -0.004460 0.000000 1.960170 
# 
# From -- ./inp_files/49609.got.cif
#   From: 2010.05.17/outbox.cif.g08.bks.cpg/sg14_25_cif.got.tgz:49609.got - 2010.06.03 17:49:19.
