data_PCOD9248138
_publ_section_title
;
Structure prediction by ZEFSAII (Michael W. Deem and Ramdas Pophale) SiO2 
 PCOD9248138
Probable space group: P 21/C
;
_chemical_formula_sum "Si O2"
_cell_formula_units_Z 28
_cell_length_a 10.269294
_cell_length_b 13.887847
_cell_length_c 9.217090
_cell_angle_alpha 90.000000
_cell_angle_beta 119.927074
_cell_angle_gamma 90.000000
_cell_volume 1139.248967
_symmetry_space_group_name_H-M "P 21/C"
_symmetry_group_IT_number 14
_symmetry_cell_setting 'monoclinic'
loop_
_space_group_symop_operation_xyz
x,y,z
-x,1/2+y,1/2-z
-x,-y,-z
x,1/2-y,1/2+z
loop_
_atom_site_type_symbol
_atom_site_label
_atom_site_fract_x
_atom_site_fract_y
_atom_site_fract_z
Si Si1 0.289574 0.893526 0.314417
Si Si2 0.729711 0.662218 0.646116
Si Si3 0.823721 0.351612 0.768842
Si Si4 0.058721 0.769124 0.379520
Si Si5 0.331611 0.536899 0.543090
Si Si6 0.540143 0.759630 0.304386
Si Si7 0.380797 0.554722 0.155395
O O1 0.170320 0.831414 0.339144
O O2 0.421177 0.823760 0.327268
O O3 0.351960 0.966372 0.471514
O O4 0.238694 0.945440 0.139121
O O5 0.722709 0.555929 0.574480
O O6 0.674898 0.729279 0.484129
O O7 0.615948 0.687616 0.711876
O O8 0.895700 0.685895 0.791563
O O9 0.946597 0.331942 0.712215
O O10 0.684949 0.371820 0.575502
O O11 0.779750 0.439512 0.851905
O O12 0.868530 0.274761 0.920504
O O13 0.496333 0.508128 0.693481
O O14 0.450979 0.663201 0.204733
#
# Coordination Sequence:
#
# PCOD9248138 Si02
#       7
#     4   4   4   4   4   4   4
#     4  11  23  41  70  99 133 178 229 273 329 409
#     4  11  26  45  67 100 138 178 220 285 340 396
#     4  11  23  40  69  99 131 179 225 276 329 406
#     4  11  24  45  69  96 134 183 233 266 334 412
#     4  11  26  40  67 104 143 169 221 289 346 379
#     4  11  22  41  68  98 130 176 228 273 331 398
#     4  10  22  41  66 104 132 173 222 286 327 391
#
# _framework density 24.577594999999999
#
# number of rings (size 3 to 8) (size 9 to 14) (size 15 to 20)
#    0.000    1.143    2.857    2.571    8.000    1.143 
#    0.000    1.429    0.000    0.000    0.000    0.000 
#    0.000    0.000    0.000    0.000    0.000    0.000 
#
# Total GULP energy -156115.637353 kJ/mol
# GULP energy per Si atom -5575.558477 kJ/mol
# Density = 2.452166 g / cm^3
# Si number density = 24.577595 Si / 1000 Ang^3
#
#
#
# Elastic Constant Matrix: (Units=GPa)
#
#
# Indices 1 2 3 4 5 6 
#
# 1 74.4885 42.9656 65.1902 0.0000 -3.6010 0.0000
# 2 42.9656 79.1098 49.0737 0.0000 -4.4883 0.0000
# 3 65.1902 49.0737 191.8449 0.0000 -38.8355 0.0000
# 4 0.0000 0.0000 0.0000 31.9392 0.0000 -15.4584
# 5 -3.6010 -4.4883 -38.8355 0.0000 44.3737 0.0000
# 6 0.0000 0.0000 0.0000 -15.4584 0.0000 22.4355
#
#
#
# Elastic Compliance Matrix: (Units=1/GPa)
#
#
# Indices 1 2 3 4 5 6 
#
# 1 0.024743 -0.009356 -0.007049 0.000000 -0.005107 0.000000
# 2 -0.009356 0.018748 -0.001685 0.000000 -0.000338 0.000000
# 3 -0.007049 -0.001685 0.009587 0.000000 0.007648 0.000000
# 4 0.000000 0.000000 0.000000 0.046974 0.000000 0.032366
# 5 -0.005107 -0.000338 0.007648 0.000000 0.028781 0.000000
# 6 0.000000 0.000000 0.000000 0.032366 0.000000 0.066873
#
#
# Mechanical properties :
#
#
# Convention : Reuss Voigt Hill
#
# Bulk Modulus (GPa) = 59.17302 73.32246 66.24774
# Shear Modulus (GPa) = 21.05108 32.29726 26.67417
#
# Velocity S-wave (km/s) = 2.92980 3.62898 3.29797
# Velocity P-wave (km/s) = 5.96433 6.88891 6.44323
#
# Compressibility (1/GPa) = 0.01689959
#
# Stress axis : x y z
#
# Youngs Moduli (GPa) = 40.41518 53.33926 104.30935
#
# Poissons Ratio (x) = 0.49903 0.73523
# Poissons Ratio (y) = 0.37811 0.17575
# Poissons Ratio (z) = 0.28487 0.08987
#
# Static dielectric constant tensor:
#      x y z
#    x 1.961640 0.000000 -0.025270 
#    y 0.000000 2.081670 0.000000 
#    z -0.025270 0.000000 1.941350 
# 
# From -- ./inp_files/13406.got.cif
#   From: 2010.05.17/outbox.cif.g08.bks.cpg/sg14_7_cif.got.tgz:13406.got - 2010.06.03 17:49:19.
