data_PCOD9248588
_publ_section_title
;
Structure prediction by ZEFSAII (Michael W. Deem and Ramdas Pophale) SiO2 
 PCOD9248588
Probable space group: P 21/C
;
_chemical_formula_sum "Si O2"
_cell_formula_units_Z 24
_cell_length_a 7.929093
_cell_length_b 17.000570
_cell_length_c 9.099705
_cell_angle_alpha 90.000000
_cell_angle_beta 86.125125
_cell_angle_gamma 90.000000
_cell_volume 1223.827979
_symmetry_space_group_name_H-M "P 21/C"
_symmetry_group_IT_number 14
_symmetry_cell_setting 'monoclinic'
loop_
_space_group_symop_operation_xyz
x,y,z
-x,1/2+y,1/2-z
-x,-y,-z
x,1/2-y,1/2+z
loop_
_atom_site_type_symbol
_atom_site_label
_atom_site_fract_x
_atom_site_fract_y
_atom_site_fract_z
Si Si1 0.041356 0.583503 0.426527
Si Si2 0.260646 0.199161 0.973651
Si Si3 0.627740 0.343482 0.954055
Si Si4 0.721317 0.651155 0.859422
Si Si5 0.371079 0.684228 0.395967
Si Si6 0.872387 0.018156 0.380750
O O1 0.228767 0.619428 0.448106
O O2 0.040911 0.566671 0.253811
O O3 0.000000 0.500000 0.500000
O O4 0.891214 0.641154 0.479030
O O5 0.293036 0.192945 0.797824
O O6 0.199331 0.284465 0.034992
O O7 0.440762 0.177935 0.042528
O O8 0.610243 0.319700 0.782499
O O9 0.731762 0.423265 0.949952
O O10 0.455296 0.362093 0.048567
O O11 0.697287 0.267971 0.039227
O O12 0.804894 0.566443 0.831484
O O13 0.000000 0.000000 0.500000
#
# Coordination Sequence:
#
# PCOD9248588 Si02
#       6
#     4   4   4   4   4   4
#     4  11  25  45  62  98 129 167 219 260 322 389
#     4  11  24  42  71  93 129 171 216 267 321 381
#     4  10  22  43  65  96 126 168 219 260 321 389
#     4  11  23  43  66  95 127 171 217 261 324 385
#     4  10  23  41  69  93 128 167 214 266 317 378
#     4  11  26  41  64  98 132 170 211 269 327 372
#
# _framework density 19.610600000000002
#
# number of rings (size 3 to 8) (size 9 to 14) (size 15 to 20)
#    0.000    1.333    1.667    4.500    7.000    4.667 
#    0.000    0.000    0.000    0.000    0.000    0.000 
#    0.000    0.000    0.000    0.000    0.000    0.000 
#
# Total GULP energy -133850.993331 kJ/mol
# GULP energy per Si atom -5577.124722 kJ/mol
# Density = 1.956597 g / cm^3
# Si number density = 19.610600 Si / 1000 Ang^3
#
#
#
# Elastic Constant Matrix: (Units=GPa)
#
#
# Indices 1 2 3 4 5 6 
#
# 1 51.4682 25.1893 29.8981 0.0000 -19.7321 0.0000
# 2 25.1893 74.0871 31.5627 0.0000 -19.6973 0.0000
# 3 29.8981 31.5627 111.7029 0.0000 -13.9290 0.0000
# 4 0.0000 0.0000 0.0000 39.5678 0.0000 -1.5000
# 5 -19.7321 -19.6973 -13.9290 0.0000 26.9693 0.0000
# 6 0.0000 0.0000 0.0000 -1.5000 0.0000 50.4443
#
#
#
# Elastic Compliance Matrix: (Units=1/GPa)
#
#
# Indices 1 2 3 4 5 6 
#
# 1 0.030776 -0.003752 -0.005035 0.000000 0.017176 0.000000
# 2 -0.003752 0.018533 -0.003086 0.000000 0.009197 0.000000
# 3 -0.005035 -0.003086 0.011150 0.000000 -0.000179 0.000000
# 4 0.000000 0.000000 0.000000 0.025302 0.000000 0.000752
# 5 0.017176 0.009197 -0.000179 0.000000 0.056271 0.000000
# 6 0.000000 0.000000 0.000000 0.000752 0.000000 0.019846
#
#
# Mechanical properties :
#
#
# Convention : Reuss Voigt Hill
#
# Bulk Modulus (GPa) = 27.23860 45.61760 36.42810
# Shear Modulus (GPa) = 25.27035 33.43683 29.35359
#
# Velocity S-wave (km/s) = 3.59361 4.13369 3.87308
# Velocity P-wave (km/s) = 5.58020 6.78936 6.21426
#
# Compressibility (1/GPa) = 0.03671260
#
# Stress axis : x y z
#
# Youngs Moduli (GPa) = 32.49298 53.95791 89.68924
#
# Poissons Ratio (x) = 0.20244 0.45163
# Poissons Ratio (y) = 0.12191 0.27675
# Poissons Ratio (z) = 0.16362 0.16649
#
# Static dielectric constant tensor:
#      x y z
#    x 1.833610 0.000000 -0.162380 
#    y 0.000000 1.728310 0.000000 
#    z -0.162380 0.000000 1.858730 
# 
# From -- ./inp_files/8464.got.cif
#   From: 2010.05.17/outbox.cif.g08.bks.cpg/sg14_5_cif.got.tgz:8464.got - 2010.06.03 17:49:19.
