data_PCOD9248665
_publ_section_title
;
Structure prediction by ZEFSAII (Michael W. Deem and Ramdas Pophale) SiO2 
 PCOD9248665
Probable space group: P 21/C
;
_chemical_formula_sum "Si O2"
_cell_formula_units_Z 32
_cell_length_a 16.825230
_cell_length_b 7.998971
_cell_length_c 21.866546
_cell_angle_alpha 90.000000
_cell_angle_beta 155.113732
_cell_angle_gamma 90.000000
_cell_volume 1238.425975
_symmetry_space_group_name_H-M "P 21/C"
_symmetry_group_IT_number 14
_symmetry_cell_setting 'monoclinic'
loop_
_space_group_symop_operation_xyz
x,y,z
-x,1/2+y,1/2-z
-x,-y,-z
x,1/2-y,1/2+z
loop_
_atom_site_type_symbol
_atom_site_label
_atom_site_fract_x
_atom_site_fract_y
_atom_site_fract_z
Si Si1 0.313846 0.179474 0.066013
Si Si2 0.532230 0.171730 0.486270
Si Si3 0.644978 0.199765 0.870504
Si Si4 0.569826 0.195325 0.135477
Si Si5 0.999507 0.683859 0.828756
Si Si6 0.048066 0.924020 0.233535
Si Si7 0.898052 0.325110 0.424276
Si Si8 0.227615 0.356138 0.207436
O O1 0.432332 0.252912 0.204849
O O2 0.406294 0.249241 0.068056
O O3 0.349331 0.980483 0.094724
O O4 0.088965 0.186001 0.905377
O O5 0.504578 0.308859 0.520505
O O6 0.748850 0.160325 0.618362
O O7 0.383997 0.212596 0.329661
O O8 0.500000 0.000000 0.500000
O O9 0.762986 0.191340 0.889364
O O10 0.775227 0.324446 0.000252
O O11 0.752909 0.314610 0.267409
O O12 0.656883 0.024026 0.221691
O O13 0.956428 0.584918 0.737115
O O14 0.888131 0.623760 0.810143
O O15 0.948896 0.882349 0.785316
O O16 0.000000 0.500000 0.500000
O O17 0.068513 0.192495 0.547348
#
# Coordination Sequence:
#
# PCOD9248665 Si02
#       8
#     4   4   4   4   4   4   4   4
#     4  10  23  44  63  96 130 165 218 265 325 390
#     4  12  25  44  66  96 131 177 222 269 334 391
#     4   9  22  42  64  91 130 165 210 270 320 388
#     4  11  25  42  68  98 130 172 219 275 336 390
#     4  10  23  43  64  96 131 168 220 269 324 393
#     4  11  25  42  66  94 128 176 218 269 329 392
#     4  10  22  43  68  97 128 171 220 268 329 395
#     4  11  23  43  66  97 137 166 218 278 321 399
#
# _framework density 25.839251000000001
#
# number of rings (size 3 to 8) (size 9 to 14) (size 15 to 20)
#    0.000    1.500    1.250    2.250    8.750    2.000 
#    6.750    0.000    0.000    0.000    0.000    0.000 
#    0.000    0.000    0.000    0.000    0.000    0.000 
#
# Total GULP energy -179223.123074 kJ/mol
# GULP energy per Si atom -5600.722596 kJ/mol
# Density = 2.578044 g / cm^3
# Si number density = 25.839251 Si / 1000 Ang^3
#
#
#
# Elastic Constant Matrix: (Units=GPa)
#
#
# Indices 1 2 3 4 5 6 
#
# 1 68.4735 -15.7859 28.8146 0.0000 7.7500 0.0000
# 2 -15.7859 47.3796 4.7138 0.0000 5.1649 0.0000
# 3 28.8146 4.7138 136.2437 0.0000 7.8285 0.0000
# 4 0.0000 0.0000 0.0000 37.8000 0.0000 -3.1788
# 5 7.7500 5.1649 7.8285 0.0000 34.8954 0.0000
# 6 0.0000 0.0000 0.0000 -3.1788 0.0000 30.0821
#
#
#
# Elastic Compliance Matrix: (Units=1/GPa)
#
#
# Indices 1 2 3 4 5 6 
#
# 1 0.018313 0.006947 -0.003871 0.000000 -0.004227 0.000000
# 2 0.006947 0.024131 -0.002037 0.000000 -0.004658 0.000000
# 3 -0.003871 -0.002037 0.008269 0.000000 -0.000694 0.000000
# 4 0.000000 0.000000 0.000000 0.026692 0.000000 0.002821
# 5 -0.004227 -0.004658 -0.000694 0.000000 0.030441 0.000000
# 6 0.000000 0.000000 0.000000 0.002821 0.000000 0.033540
#
#
# Mechanical properties :
#
#
# Convention : Reuss Voigt Hill
#
# Bulk Modulus (GPa) = 18.94171 31.95354 25.44762
# Shear Modulus (GPa) = 31.86663 36.17912 34.02287
#
# Velocity S-wave (km/s) = 3.51560 3.74593 3.63259
# Velocity P-wave (km/s) = 4.88116 5.57696 5.24062
#
# Compressibility (1/GPa) = 0.05279354
#
# Stress axis : x y z
#
# Youngs Moduli (GPa) = 54.60584 41.44005 120.93765
#
# Poissons Ratio (x) = -0.28790 0.46810
# Poissons Ratio (y) = -0.37937 0.24630
# Poissons Ratio (z) = 0.21136 0.08440
#
# Static dielectric constant tensor:
#      x y z
#    x 2.000190 0.000000 0.002980 
#    y 0.000000 1.998440 0.000000 
#    z 0.002980 0.000000 2.071800 
# 
# From -- ./inp_files/78019.got.cif
#   From: 2010.05.17/outbox.cif.g08.bks.cpg/sg14_40_cif.got.tgz:78019.got - 2010.06.03 17:49:19.
