data_PCOD9248847
_publ_section_title
;
Structure prediction by ZEFSAII (Michael W. Deem and Ramdas Pophale) SiO2 
 PCOD9248847
Probable space group: P 21/C
;
_chemical_formula_sum "Si O2"
_cell_formula_units_Z 18
_cell_length_a 11.329105
_cell_length_b 5.876458
_cell_length_c 14.619548
_cell_angle_alpha 90.000000
_cell_angle_beta 45.734526
_cell_angle_gamma 90.000000
_cell_volume 696.990763
_symmetry_space_group_name_H-M "P 21/C"
_symmetry_group_IT_number 14
_symmetry_cell_setting 'monoclinic'
loop_
_space_group_symop_operation_xyz
x,y,z
-x,1/2+y,1/2-z
-x,-y,-z
x,1/2-y,1/2+z
loop_
_atom_site_type_symbol
_atom_site_label
_atom_site_fract_x
_atom_site_fract_y
_atom_site_fract_z
Si Si1 0.613270 0.836683 0.071113
Si Si2 0.886426 0.175382 0.896000
Si Si3 0.646123 0.687541 0.249834
Si Si4 0.251984 0.015830 0.653732
Si Si5 0.000000 0.000000 0.500000
O O1 0.571224 0.726971 0.190856
O O2 0.476805 0.027340 0.128092
O O3 0.641456 0.658830 0.975661
O O4 0.792414 0.957860 0.987616
O O5 0.774853 0.267785 0.873019
O O6 0.906526 0.362424 0.964242
O O7 0.063966 0.109213 0.760495
O O8 0.677937 0.925307 0.285052
O O9 0.821702 0.568396 0.140766
#
# Coordination Sequence:
#
# PCOD9248847 Si02
#       5
#     4   4   4   4   2
#     4  12  25  48  68 104 142 181 231 293 341 417
#     4  11  23  43  71  99 142 181 239 278 347 408
#     4  11  26  44  72 101 142 184 231 287 352 404
#     4  11  24  45  69 105 136 187 230 289 338 422
#     4  10  22  44  68  98 134 186 230 282 336 422
#
# _framework density 25.825305
#
# number of rings (size 3 to 8) (size 9 to 14) (size 15 to 20)
#    0.000    0.889    4.444    2.000    0.000    6.222 
#    4.000    0.000    0.000    0.000    0.000    0.000 
#    0.000    0.000    0.000    0.000    0.000    0.000 
#
# Total GULP energy -100414.732516 kJ/mol
# GULP energy per Si atom -5578.596251 kJ/mol
# Density = 2.576653 g / cm^3
# Si number density = 25.825305 Si / 1000 Ang^3
#
#
#
# Elastic Constant Matrix: (Units=GPa)
#
#
# Indices 1 2 3 4 5 6 
#
# 1 87.6433 16.9883 36.6768 0.0000 -3.6421 0.0000
# 2 16.9883 33.4488 44.3799 0.0000 -4.3588 0.0000
# 3 36.6768 44.3799 125.2862 0.0000 -5.2343 0.0000
# 4 0.0000 0.0000 0.0000 47.7700 0.0000 -3.5311
# 5 -3.6421 -4.3588 -5.2343 0.0000 46.5816 0.0000
# 6 0.0000 0.0000 0.0000 -3.5311 0.0000 21.5740
#
#
#
# Elastic Compliance Matrix: (Units=1/GPa)
#
#
# Indices 1 2 3 4 5 6 
#
# 1 0.013166 -0.002905 -0.002807 0.000000 0.000442 0.000000
# 2 -0.002905 0.057482 -0.019387 0.000000 0.002973 0.000000
# 3 -0.002807 -0.019387 0.015659 0.000000 -0.000274 0.000000
# 4 0.000000 0.000000 0.000000 0.021190 0.000000 0.003468
# 5 0.000442 0.002973 -0.000274 0.000000 0.021750 0.000000
# 6 0.000000 0.000000 0.000000 0.003468 0.000000 0.046920
#
#
# Mechanical properties :
#
#
# Convention : Reuss Voigt Hill
#
# Bulk Modulus (GPa) = 27.69370 49.16316 38.42843
# Shear Modulus (GPa) = 20.97303 33.07400 27.02351
#
# Velocity S-wave (km/s) = 2.85285 3.58254 3.23831
# Velocity P-wave (km/s) = 4.64741 6.01589 5.37538
#
# Compressibility (1/GPa) = 0.03610930
#
# Stress axis : x y z
#
# Youngs Moduli (GPa) = 75.95363 17.39670 63.85977
#
# Poissons Ratio (x) = 0.05055 0.17923
# Poissons Ratio (y) = 0.22068 1.23805
# Poissons Ratio (z) = 0.21317 0.33727
#
# Static dielectric constant tensor:
#      x y z
#    x 2.019840 0.000000 0.005410 
#    y 0.000000 2.052280 0.000000 
#    z 0.005410 0.000000 1.927870 
# 
# From -- ./inp_files/42421.got.cif
#   From: 2010.05.17/outbox.cif.g08.bks.cpg/sg14_22_cif.got.tgz:42421.got - 2010.06.03 17:49:19.
