data_PCOD9248238
_publ_section_title
;
Structure prediction by ZEFSAII (Michael W. Deem and Ramdas Pophale) SiO2 
 PCOD9248238
Probable space group: P 21/C
;
_chemical_formula_sum "Si O2"
_cell_formula_units_Z 20
_cell_length_a 9.238760
_cell_length_b 7.510670
_cell_length_c 13.433625
_cell_angle_alpha 90.000000
_cell_angle_beta 103.004796
_cell_angle_gamma 90.000000
_cell_volume 908.241046
_symmetry_space_group_name_H-M "P 21/C"
_symmetry_group_IT_number 14
_symmetry_cell_setting 'monoclinic'
loop_
_space_group_symop_operation_xyz
x,y,z
-x,1/2+y,1/2-z
-x,-y,-z
x,1/2-y,1/2+z
loop_
_atom_site_type_symbol
_atom_site_label
_atom_site_fract_x
_atom_site_fract_y
_atom_site_fract_z
Si Si1 0.164420 0.340584 0.291245
Si Si2 0.616785 0.124523 0.076483
Si Si3 0.017985 0.932386 0.615343
Si Si4 0.329436 0.735247 0.118740
Si Si5 0.413395 0.379176 0.719645
O O1 0.103715 0.208161 0.366224
O O2 0.723369 0.737905 0.264951
O O3 0.031985 0.415160 0.201680
O O4 0.256289 0.500050 0.356849
O O5 0.516337 0.204091 0.148400
O O6 0.359658 0.931930 0.168828
O O7 0.681387 0.252416 0.002342
O O8 0.500000 0.000000 0.000000
O O9 0.178902 0.838862 0.640287
O O10 0.000000 0.000000 0.500000
O O11 0.470457 0.617117 0.171399
#
# Coordination Sequence:
#
# PCOD9248238 Si02
#       5
#     4   4   4   4   4
#     4  12  26  49  69 105 149 186 245 301 346 441
#     4  10  22  41  72 101 137 177 233 292 367 393
#     4  12  30  47  70 107 144 200 239 285 374 427
#     4  11  23  44  73 103 140 184 237 296 358 430
#     4  11  21  44  75 103 138 183 239 305 354 410
#
# _framework density 22.020586999999999
#
# number of rings (size 3 to 8) (size 9 to 14) (size 15 to 20)
#    0.000    0.800    6.000    1.200    8.400    2.400 
#    0.000    3.000    0.000    0.000    0.000    0.000 
#    0.000    0.000    0.000    0.000    0.000    0.000 
#
# Total GULP energy -111804.180778 kJ/mol
# GULP energy per Si atom -5590.209039 kJ/mol
# Density = 2.197047 g / cm^3
# Si number density = 22.020587 Si / 1000 Ang^3
#
#
#
# Elastic Constant Matrix: (Units=GPa)
#
#
# Indices 1 2 3 4 5 6 
#
# 1 57.5703 18.9420 14.9300 0.0000 -8.5503 0.0000
# 2 18.9420 66.5419 45.5540 0.0000 -8.9525 0.0000
# 3 14.9300 45.5540 142.1466 0.0000 -5.5915 0.0000
# 4 0.0000 0.0000 0.0000 46.0118 0.0000 -5.6314
# 5 -8.5503 -8.9525 -5.5915 0.0000 37.6055 0.0000
# 6 0.0000 0.0000 0.0000 -5.6314 0.0000 39.4657
#
#
#
# Elastic Compliance Matrix: (Units=1/GPa)
#
#
# Indices 1 2 3 4 5 6 
#
# 1 0.019550 -0.004883 -0.000361 0.000000 0.003229 0.000000
# 2 -0.004883 0.020994 -0.006098 0.000000 0.002981 0.000000
# 3 -0.000361 -0.006098 0.009020 0.000000 -0.000193 0.000000
# 4 0.000000 0.000000 0.000000 0.022120 0.000000 0.003156
# 5 0.003229 0.002981 -0.000193 0.000000 0.028007 0.000000
# 6 0.000000 0.000000 0.000000 0.003156 0.000000 0.025789
#
#
# Mechanical properties :
#
#
# Convention : Reuss Voigt Hill
#
# Bulk Modulus (GPa) = 37.20474 47.23453 42.21964
# Shear Modulus (GPa) = 31.82211 37.07211 34.44711
#
# Velocity S-wave (km/s) = 3.80558 4.10752 3.95943
# Velocity P-wave (km/s) = 6.02014 6.63268 6.33382
#
# Compressibility (1/GPa) = 0.02687830
#
# Stress axis : x y z
#
# Youngs Moduli (GPa) = 51.15073 47.63326 110.87062
#
# Poissons Ratio (x) = 0.23261 0.04007
# Poissons Ratio (y) = 0.24979 0.67606
# Poissons Ratio (z) = 0.01849 0.29046
#
# Static dielectric constant tensor:
#      x y z
#    x 1.775310 0.000000 -0.011470 
#    y 0.000000 1.873840 0.000000 
#    z -0.011470 0.000000 1.861980 
# 
# From -- ./inp_files/22823.got.cif
#   From: 2010.05.17/outbox.cif.g08.bks.cpg/sg14_12_cif.got.tgz:22823.got - 2010.06.03 17:49:19.
