data_PCOD9248997
_publ_section_title
;
Structure prediction by ZEFSAII (Michael W. Deem and Ramdas Pophale) SiO2 
 PCOD9248997
Probable space group: P 21/C
;
_chemical_formula_sum "Si O2"
_cell_formula_units_Z 14
_cell_length_a 8.630808
_cell_length_b 5.027159
_cell_length_c 16.712213
_cell_angle_alpha 90.000000
_cell_angle_beta 49.642334
_cell_angle_gamma 90.000000
_cell_volume 552.551401
_symmetry_space_group_name_H-M "P 21/C"
_symmetry_group_IT_number 14
_symmetry_cell_setting 'monoclinic'
loop_
_space_group_symop_operation_xyz
x,y,z
-x,1/2+y,1/2-z
-x,-y,-z
x,1/2-y,1/2+z
loop_
_atom_site_type_symbol
_atom_site_label
_atom_site_fract_x
_atom_site_fract_y
_atom_site_fract_z
Si Si1 0.000000 0.500000 0.000000
Si Si2 0.284011 0.772923 0.641557
Si Si3 0.636412 0.247311 0.206878
Si Si4 0.238824 0.284022 0.558051
O O1 0.221966 0.653635 0.911667
O O2 0.895790 0.702614 0.971155
O O3 0.250950 0.718957 0.745688
O O4 0.182140 0.566261 0.614937
O O5 0.525480 0.726286 0.547724
O O6 0.226856 0.066427 0.632840
O O7 0.442751 0.446710 0.272724
#
# Coordination Sequence:
#
# PCOD9248997 Si02
#       4
#     2   4   4   4
#     4  12  28  46  76 112 142 194 256 300 368 450
#     4  10  22  45  69 100 146 190 232 303 373 427
#     4  12  27  47  73 108 149 193 243 312 370 439
#     4  10  23  42  72 103 139 189 243 297 363 443
#
# _framework density 25.337012000000001
#
# number of rings (size 3 to 8) (size 9 to 14) (size 15 to 20)
#    0.000    1.143    2.857    1.714    8.000    6.857 
#    0.000    0.000    0.000    0.000    0.000    0.000 
#    0.000    0.000    0.000    0.000    0.000    0.000 
#
# Total GULP energy -78027.403411 kJ/mol
# GULP energy per Si atom -5573.385958 kJ/mol
# Density = 2.527934 g / cm^3
# Si number density = 25.337012 Si / 1000 Ang^3
#
#
#
# Elastic Constant Matrix: (Units=GPa)
#
#
# Indices 1 2 3 4 5 6 
#
# 1 88.6335 -7.2824 12.1927 0.0000 8.8643 0.0000
# 2 -7.2824 58.4979 20.7777 0.0000 15.0261 0.0000
# 3 12.1927 20.7777 68.4179 0.0000 2.7226 0.0000
# 4 0.0000 0.0000 0.0000 23.1945 0.0000 14.4119
# 5 8.8643 15.0261 2.7226 0.0000 35.6312 0.0000
# 6 0.0000 0.0000 0.0000 14.4119 0.0000 40.1203
#
#
#
# Elastic Compliance Matrix: (Units=1/GPa)
#
#
# Indices 1 2 3 4 5 6 
#
# 1 0.012490 0.003849 -0.003216 0.000000 -0.004485 0.000000
# 2 0.003849 0.022686 -0.007178 0.000000 -0.009976 0.000000
# 3 -0.003216 -0.007178 0.017269 0.000000 0.002508 0.000000
# 4 0.000000 0.000000 0.000000 0.055502 0.000000 -0.019937
# 5 -0.004485 -0.009976 0.002508 0.000000 0.033196 0.000000
# 6 0.000000 0.000000 0.000000 -0.019937 0.000000 0.032087
#
#
# Mechanical properties :
#
#
# Convention : Reuss Voigt Hill
#
# Bulk Modulus (GPa) = 25.41040 29.65838 27.53439
# Shear Modulus (GPa) = 25.07032 32.44660 28.75846
#
# Velocity S-wave (km/s) = 3.14900 3.58243 3.37269
# Velocity P-wave (km/s) = 4.82414 5.37054 5.10466
#
# Compressibility (1/GPa) = 0.03935397
#
# Stress axis : x y z
#
# Youngs Moduli (GPa) = 80.06648 44.08002 57.90573
#
# Poissons Ratio (x) = -0.16967 0.18624
# Poissons Ratio (y) = -0.30819 0.41567
# Poissons Ratio (z) = 0.25751 0.31643
#
# Static dielectric constant tensor:
#      x y z
#    x 2.012400 0.000000 -0.204220 
#    y 0.000000 1.914510 0.000000 
#    z -0.204220 0.000000 2.389720 
# 
# From -- ./inp_files/38301.got.cif
#   From: 2010.05.17/outbox.cif.g08.bks.cpg/sg14_20_cif.got.tgz:38301.got - 2010.06.03 17:49:19.
