data_PCOD9248447
_publ_section_title
;
Structure prediction by ZEFSAII (Michael W. Deem and Ramdas Pophale) SiO2 
 PCOD9248447
Probable space group: P 21/C
;
_chemical_formula_sum "Si O2"
_cell_formula_units_Z 16
_cell_length_a 5.013138
_cell_length_b 9.035810
_cell_length_c 16.651948
_cell_angle_alpha 90.000000
_cell_angle_beta 52.978896
_cell_angle_gamma 90.000000
_cell_volume 602.240314
_symmetry_space_group_name_H-M "P 21/C"
_symmetry_group_IT_number 14
_symmetry_cell_setting 'monoclinic'
loop_
_space_group_symop_operation_xyz
x,y,z
-x,1/2+y,1/2-z
-x,-y,-z
x,1/2-y,1/2+z
loop_
_atom_site_type_symbol
_atom_site_label
_atom_site_fract_x
_atom_site_fract_y
_atom_site_fract_z
Si Si1 0.143148 0.354809 0.058116
Si Si2 0.216659 0.413541 0.342888
Si Si3 0.624389 0.145191 0.058116
Si Si4 0.588210 0.586458 0.157112
O O1 0.320041 0.250000 0.089979
O O2 0.889685 0.250000 0.055158
O O3 0.913156 0.491542 0.124369
O O4 0.399898 0.406292 0.941705
O O5 0.410632 0.508458 0.375631
O O6 0.276836 0.500000 0.250000
O O7 0.370438 0.250000 0.314781
O O8 0.833282 0.406292 0.441705
#
# Coordination Sequence:
#
# PCOD9248447 Si02
#       4
#     4   4   4   4
#     4  10  23  46  71  97 137 186 235 289 349 416
#     4  10  22  42  69 104 141 184 235 291 352 421
#     4  10  23  46  71  97 137 186 235 289 349 416
#     4  10  22  42  69 104 141 184 235 291 352 421
#
# _framework density 26.56747
#
# number of rings (size 3 to 8) (size 9 to 14) (size 15 to 20)
#    0.000    2.000    0.000    1.500    0.000   20.000 
#    0.000   40.000    0.000    0.000    0.000    0.000 
#    0.000    0.000    0.000    0.000    0.000    0.000 
#
# Total GULP energy -89805.122929 kJ/mol
# GULP energy per Si atom -5612.820183 kJ/mol
# Density = 2.650700 g / cm^3
# Si number density = 26.567470 Si / 1000 Ang^3
#
#
#
# Elastic Constant Matrix: (Units=GPa)
#
#
# Indices 1 2 3 4 5 6 
#
# 1 124.3263 28.5615 2.0110 0.0000 -4.0488 0.0000
# 2 28.5615 204.7017 62.5540 0.0000 1.5952 0.0000
# 3 2.0110 62.5540 112.4080 0.0000 3.4891 0.0000
# 4 0.0000 0.0000 0.0000 46.4382 0.0000 0.1695
# 5 -4.0488 1.5952 3.4891 0.0000 18.3801 0.0000
# 6 0.0000 0.0000 0.0000 0.1695 0.0000 42.8236
#
#
#
# Elastic Compliance Matrix: (Units=1/GPa)
#
#
# Indices 1 2 3 4 5 6 
#
# 1 0.008406 -0.001354 0.000545 0.000000 0.001866 0.000000
# 2 -0.001354 0.006104 -0.003367 0.000000 -0.000189 0.000000
# 3 0.000545 -0.003367 0.010811 0.000000 -0.001640 0.000000
# 4 0.000000 0.000000 0.000000 0.021534 0.000000 -0.000085
# 5 0.001866 -0.000189 -0.001640 0.000000 0.055145 0.000000
# 6 0.000000 0.000000 0.000000 -0.000085 0.000000 0.023352
#
#
# Mechanical properties :
#
#
# Convention : Reuss Voigt Hill
#
# Bulk Modulus (GPa) = 58.92696 69.74324 64.33510
# Shear Modulus (GPa) = 35.87782 44.74902 40.31342
#
# Velocity S-wave (km/s) = 3.67882 4.10854 3.89960
# Velocity P-wave (km/s) = 6.34612 6.98678 6.67414
#
# Compressibility (1/GPa) = 0.01697016
#
# Stress axis : x y z
#
# Youngs Moduli (GPa) = 118.95752 163.81462 92.49835
#
# Poissons Ratio (x) = 0.22182 -0.05043
# Poissons Ratio (y) = 0.16108 0.31144
# Poissons Ratio (z) = -0.06486 0.55156
#
# Static dielectric constant tensor:
#      x y z
#    x 2.044180 0.000000 0.003230 
#    y 0.000000 2.088730 0.000000 
#    z 0.003230 0.000000 2.113080 
# 
# From -- ./inp_files/62970.got.cif
#   From: 2010.05.17/outbox.cif.g08.bks.cpg/sg14_32_cif.got.tgz:62970.got - 2010.06.03 17:49:19.
