data_PCOD9248160
_publ_section_title
;
Structure prediction by ZEFSAII (Michael W. Deem and Ramdas Pophale) SiO2 
 PCOD9248160
Probable space group: P 21/C
;
_chemical_formula_sum "Si O2"
_cell_formula_units_Z 32
_cell_length_a 10.182896
_cell_length_b 18.673532
_cell_length_c 7.794393
_cell_angle_alpha 90.000000
_cell_angle_beta 129.950039
_cell_angle_gamma 90.000000
_cell_volume 1136.191481
_symmetry_space_group_name_H-M "P 21/C"
_symmetry_group_IT_number 14
_symmetry_cell_setting 'monoclinic'
loop_
_space_group_symop_operation_xyz
x,y,z
-x,1/2+y,1/2-z
-x,-y,-z
x,1/2-y,1/2+z
loop_
_atom_site_type_symbol
_atom_site_label
_atom_site_fract_x
_atom_site_fract_y
_atom_site_fract_z
Si Si1 0.085778 0.608392 0.492361
Si Si2 0.620783 0.467658 0.842934
Si Si3 0.509695 0.397145 0.090053
Si Si4 0.972189 0.248087 0.878942
Si Si5 0.630944 0.334071 0.641736
Si Si6 0.848942 0.836189 0.233135
Si Si7 0.426109 0.258956 0.176965
Si Si8 0.980300 0.971865 0.233841
O O1 0.287965 0.610633 0.702103
O O2 0.066133 0.555055 0.315569
O O3 0.027353 0.689569 0.464463
O O4 0.972501 0.565581 0.539627
O O5 0.506485 0.430516 0.897885
O O6 0.823144 0.464021 0.049735
O O7 0.568577 0.549264 0.834821
O O8 0.604686 0.417385 0.663173
O O9 0.417977 0.320870 0.023215
O O10 0.982116 0.192758 0.728112
O O11 0.132861 0.299700 0.065390
O O12 0.813116 0.302660 0.735332
O O13 0.486331 0.306716 0.388444
O O14 0.595277 0.289521 0.784860
O O15 0.713615 0.800719 0.990945
O O16 0.858214 0.921452 0.244975
#
# Coordination Sequence:
#
# PCOD9248160 Si02
#       8
#     4   4   4   4   4   4   4   4
#     4   9  19  36  61  94 123 164 212 267 316 382
#     4  10  22  41  69  97 127 174 219 271 327 399
#     4  10  22  41  66  99 131 168 220 271 332 389
#     4  11  22  41  67  91 129 171 218 265 327 393
#     4  12  24  43  67  95 133 177 221 268 336 395
#     4  11  24  41  64  96 129 168 218 270 326 385
#     4  12  26  41  66  98 136 173 219 277 331 389
#     4   9  19  38  62  93 125 164 215 267 317 381
#
# _framework density 28.164266999999999
#
# number of rings (size 3 to 8) (size 9 to 14) (size 15 to 20)
#    0.000    1.500    2.500    2.250    5.250    0.500 
#    2.250    0.000    0.000    2.250    0.000    0.000 
#    0.000    0.000    0.000    0.000    0.000    0.000 
#
# Total GULP energy -178880.545402 kJ/mol
# GULP energy per Si atom -5590.017044 kJ/mol
# Density = 2.810016 g / cm^3
# Si number density = 28.164267 Si / 1000 Ang^3
#
#
#
# Elastic Constant Matrix: (Units=GPa)
#
#
# Indices 1 2 3 4 5 6 
#
# 1 52.5413 11.9944 -8.0168 0.0000 -10.7578 0.0000
# 2 11.9944 159.6182 12.2140 0.0000 7.5421 0.0000
# 3 -8.0168 12.2140 103.3905 0.0000 9.7329 0.0000
# 4 0.0000 0.0000 0.0000 42.7912 0.0000 -4.3021
# 5 -10.7578 7.5421 9.7329 0.0000 25.3803 0.0000
# 6 0.0000 0.0000 0.0000 -4.3021 0.0000 42.4629
#
#
#
# Elastic Compliance Matrix: (Units=1/GPa)
#
#
# Indices 1 2 3 4 5 6 
#
# 1 0.021606 -0.002147 0.001045 0.000000 0.009396 0.000000
# 2 -0.002147 0.006603 -0.000701 0.000000 -0.002603 0.000000
# 3 0.001045 -0.000701 0.010141 0.000000 -0.003238 0.000000
# 4 0.000000 0.000000 0.000000 0.023610 0.000000 0.002392
# 5 0.009396 -0.002603 -0.003238 0.000000 0.045398 0.000000
# 6 0.000000 0.000000 0.000000 0.002392 0.000000 0.023792
#
#
# Mechanical properties :
#
#
# Convention : Reuss Voigt Hill
#
# Bulk Modulus (GPa) = 28.78452 38.65925 33.72188
# Shear Modulus (GPa) = 34.16718 42.08409 38.12564
#
# Velocity S-wave (km/s) = 3.48679 3.86973 3.68324
# Velocity P-wave (km/s) = 5.14322 5.80711 5.48522
#
# Compressibility (1/GPa) = 0.03474090
#
# Stress axis : x y z
#
# Youngs Moduli (GPa) = 46.28343 151.44610 98.61242
#
# Poissons Ratio (x) = 0.32522 -0.10300
# Poissons Ratio (y) = 0.09939 0.06917
# Poissons Ratio (z) = -0.04834 0.10624
#
# Static dielectric constant tensor:
#      x y z
#    x 2.568030 0.000000 0.003200 
#    y 0.000000 2.117770 0.000000 
#    z 0.003200 0.000000 2.167920 
# 
# From -- ./inp_files/47551.got.cif
#   From: 2010.05.17/outbox.cif.g08.bks.cpg/sg14_24_cif.got.tgz:47551.got - 2010.06.03 17:49:19.
