data_PCOD9248776
_publ_section_title
;
Structure prediction by ZEFSAII (Michael W. Deem and Ramdas Pophale) SiO2 
 PCOD9248776
Probable space group: P 21/C
;
_chemical_formula_sum "Si O2"
_cell_formula_units_Z 28
_cell_length_a 16.185349
_cell_length_b 5.060282
_cell_length_c 17.912107
_cell_angle_alpha 90.000000
_cell_angle_beta 131.033685
_cell_angle_gamma 90.000000
_cell_volume 1106.626947
_symmetry_space_group_name_H-M "P 21/C"
_symmetry_group_IT_number 14
_symmetry_cell_setting 'monoclinic'
loop_
_space_group_symop_operation_xyz
x,y,z
-x,1/2+y,1/2-z
-x,-y,-z
x,1/2-y,1/2+z
loop_
_atom_site_type_symbol
_atom_site_label
_atom_site_fract_x
_atom_site_fract_y
_atom_site_fract_z
Si Si1 0.153998 0.866539 0.645982
Si Si2 0.074589 0.314657 0.963639
Si Si3 0.718223 0.974839 0.884017
Si Si4 0.582081 0.527400 0.443957
Si Si5 0.317417 0.966922 0.418536
Si Si6 0.343142 0.167987 0.797311
Si Si7 0.932964 0.374372 0.185793
O O1 0.230640 0.701102 0.636902
O O2 0.049094 0.704992 0.612298
O O3 0.101464 0.096715 0.563938
O O4 0.233525 0.002892 0.751837
O O5 0.073995 0.558081 0.906266
O O6 0.178070 0.133890 0.007201
O O7 0.627277 0.051371 0.889344
O O8 0.671046 0.766359 0.796320
O O9 0.630148 0.811388 0.495196
O O10 0.452027 0.502680 0.367348
O O11 0.627486 0.309059 0.527904
O O12 0.344929 0.083129 0.353560
O O13 0.187340 0.934755 0.353277
O O14 0.979295 0.085259 0.229882
#
# Coordination Sequence:
#
# PCOD9248776 Si02
#       7
#     4   4   4   4   4   4   4
#     4  10  23  42  71  98 148 182 249 302 373 437
#     4  10  22  44  65 104 138 193 233 305 373 439
#     4  11  25  43  73 105 145 192 246 310 368 447
#     4  12  28  48  77 103 156 197 252 302 375 442
#     4  12  27  51  73 108 150 201 245 308 375 442
#     4  11  28  44  74 111 143 199 257 306 366 441
#     4  12  26  42  73 102 141 185 245 301 369 440
#
# _framework density 25.302115000000001
#
# number of rings (size 3 to 8) (size 9 to 14) (size 15 to 20)
#    0.000    0.857    1.429    3.857   12.000    0.000 
#    0.000    0.000    0.000    0.000    0.000    0.000 
#    0.000    0.000    0.000    0.000    0.000    0.000 
#
# Total GULP energy -156984.124609 kJ/mol
# GULP energy per Si atom -5606.575879 kJ/mol
# Density = 2.524453 g / cm^3
# Si number density = 25.302115 Si / 1000 Ang^3
#
#
#
# Elastic Constant Matrix: (Units=GPa)
#
#
# Indices 1 2 3 4 5 6 
#
# 1 135.9986 12.7898 46.7221 0.0000 19.1898 0.0000
# 2 12.7898 62.1584 18.0595 0.0000 7.7615 0.0000
# 3 46.7221 18.0595 119.1310 0.0000 18.5598 0.0000
# 4 0.0000 0.0000 0.0000 26.4901 0.0000 -7.2836
# 5 19.1898 7.7615 18.5598 0.0000 47.0855 0.0000
# 6 0.0000 0.0000 0.0000 -7.2836 0.0000 33.7448
#
#
#
# Elastic Compliance Matrix: (Units=1/GPa)
#
#
# Indices 1 2 3 4 5 6 
#
# 1 0.008761 -0.000651 -0.002981 0.000000 -0.002288 0.000000
# 2 -0.000651 0.017036 -0.002057 0.000000 -0.001732 0.000000
# 3 -0.002981 -0.002057 0.010263 0.000000 -0.002491 0.000000
# 4 0.000000 0.000000 0.000000 0.040132 0.000000 0.008662
# 5 -0.002288 -0.001732 -0.002491 0.000000 0.023438 0.000000
# 6 0.000000 0.000000 0.000000 0.008662 0.000000 0.031504
#
#
# Mechanical properties :
#
#
# Convention : Reuss Voigt Hill
#
# Bulk Modulus (GPa) = 40.51555 52.49233 46.50394
# Shear Modulus (GPa) = 33.16975 37.44519 35.30747
#
# Velocity S-wave (km/s) = 3.62463 3.85115 3.73961
# Velocity P-wave (km/s) = 5.79351 6.36918 6.08815
#
# Compressibility (1/GPa) = 0.02468188
#
# Stress axis : x y z
#
# Youngs Moduli (GPa) = 114.13957 58.69958 97.43504
#
# Poissons Ratio (x) = 0.03821 0.29044
# Poissons Ratio (y) = 0.07429 0.20047
# Poissons Ratio (z) = 0.34024 0.12077
#
# Static dielectric constant tensor:
#      x y z
#    x 1.979800 0.000000 -0.008320 
#    y 0.000000 1.994890 0.000000 
#    z -0.008320 0.000000 2.013180 
# 
# From -- ./inp_files/68978.got.cif
#   From: 2010.05.17/outbox.cif.g08.bks.cpg/sg14_35_cif.got.tgz:68978.got - 2010.06.03 17:49:19.
