data_PCOD9248784
_publ_section_title
;
Structure prediction by ZEFSAII (Michael W. Deem and Ramdas Pophale) SiO2 
 PCOD9248784
Probable space group: P 21/C
;
_chemical_formula_sum "Si O2"
_cell_formula_units_Z 20
_cell_length_a 11.588266
_cell_length_b 12.774478
_cell_length_c 12.092804
_cell_angle_alpha 90.000000
_cell_angle_beta 146.284619
_cell_angle_gamma 90.000000
_cell_volume 993.652714
_symmetry_space_group_name_H-M "P 21/C"
_symmetry_group_IT_number 14
_symmetry_cell_setting 'monoclinic'
loop_
_space_group_symop_operation_xyz
x,y,z
-x,1/2+y,1/2-z
-x,-y,-z
x,1/2-y,1/2+z
loop_
_atom_site_type_symbol
_atom_site_label
_atom_site_fract_x
_atom_site_fract_y
_atom_site_fract_z
Si Si1 0.156479 0.412661 0.665146
Si Si2 0.736453 0.798403 0.320111
Si Si3 0.108444 0.463873 0.876075
Si Si4 0.534448 0.123507 0.332528
Si Si5 0.334162 0.436778 0.439617
O O1 0.112800 0.302457 0.568241
O O2 0.144859 0.408715 0.787451
O O3 0.389051 0.435180 0.806744
O O4 0.000000 0.500000 0.500000
O O5 0.810466 0.887876 0.462110
O O6 0.516078 0.745245 0.180630
O O7 0.725291 0.841739 0.187763
O O8 0.868555 0.493584 0.699499
O O9 0.240091 0.572274 0.983062
O O10 0.436204 0.100155 0.134698
O O11 0.500000 0.500000 0.500000
#
# Coordination Sequence:
#
# PCOD9248784 Si02
#       5
#     4   4   4   4   4
#     4  10  22  44  66 100 133 171 227 275 329 403
#     4  10  24  42  66 102 131 176 225 273 341 396
#     4  12  22  47  69  93 140 180 217 281 342 396
#     4  10  24  44  67  98 133 174 226 274 332 405
#     4  12  24  46  66 100 138 173 231 277 329 411
#
# _framework density 20.127756999999999
#
# number of rings (size 3 to 8) (size 9 to 14) (size 15 to 20)
#    1.200    0.000    4.000    2.400    0.000    0.000 
#   14.400    0.000    0.000    0.000    0.000    0.000 
#    0.000    0.000    0.000    0.000    0.000    0.000 
#
# Total GULP energy -111521.970501 kJ/mol
# GULP energy per Si atom -5576.098525 kJ/mol
# Density = 2.008194 g / cm^3
# Si number density = 20.127757 Si / 1000 Ang^3
#
#
#
# Elastic Constant Matrix: (Units=GPa)
#
#
# Indices 1 2 3 4 5 6 
#
# 1 127.4367 8.7925 30.2622 0.0000 -9.0279 0.0000
# 2 8.7925 40.9097 -12.9342 0.0000 -5.5761 0.0000
# 3 30.2622 -12.9342 30.9748 0.0000 -5.0688 0.0000
# 4 0.0000 0.0000 0.0000 19.7913 0.0000 -4.9359
# 5 -9.0279 -5.5761 -5.0688 0.0000 35.4315 0.0000
# 6 0.0000 0.0000 0.0000 -4.9359 0.0000 26.8661
#
#
#
# Elastic Compliance Matrix: (Units=1/GPa)
#
#
# Indices 1 2 3 4 5 6 
#
# 1 0.011775 -0.007150 -0.014522 0.000000 -0.000203 0.000000
# 2 -0.007150 0.033929 0.022249 0.000000 0.006701 0.000000
# 3 -0.014522 0.022249 0.057067 0.000000 0.007965 0.000000
# 4 0.000000 0.000000 0.000000 0.052954 0.000000 0.009729
# 5 -0.000203 0.006701 0.007965 0.000000 0.030366 0.000000
# 6 0.000000 0.000000 0.000000 0.009729 0.000000 0.039009
#
#
# Mechanical properties :
#
#
# Convention : Reuss Voigt Hill
#
# Bulk Modulus (GPa) = 9.62238 27.95134 18.78686
# Shear Modulus (GPa) = 19.33599 27.96450 23.65025
#
# Velocity S-wave (km/s) = 3.10282 3.73144 3.43156
# Velocity P-wave (km/s) = 4.19853 5.69930 5.00548
#
# Compressibility (1/GPa) = 0.10392439
#
# Stress axis : x y z
#
# Youngs Moduli (GPa) = 84.92888 29.47373 17.52337
#
# Poissons Ratio (x) = 0.21073 0.25448
# Poissons Ratio (y) = 0.60722 -0.38988
# Poissons Ratio (z) = 1.23336 -0.65577
#
# Static dielectric constant tensor:
#      x y z
#    x 1.718030 0.000000 0.005310 
#    y 0.000000 1.714420 0.000000 
#    z 0.005310 0.000000 1.717180 
# 
# From -- ./inp_files/28426.got.cif
#   From: 2010.05.17/outbox.cif.g08.bks.cpg/sg14_15_cif.got.tgz:28426.got - 2010.06.03 17:49:19.
