data_PCOD9248683
_publ_section_title
;
Structure prediction by ZEFSAII (Michael W. Deem and Ramdas Pophale) SiO2 
 PCOD9248683
Probable space group: P 21/C
;
_chemical_formula_sum "Si O2"
_cell_formula_units_Z 28
_cell_length_a 18.452457
_cell_length_b 9.276523
_cell_length_c 10.355368
_cell_angle_alpha 90.000000
_cell_angle_beta 36.547913
_cell_angle_gamma 90.000000
_cell_volume 1055.560026
_symmetry_space_group_name_H-M "P 21/C"
_symmetry_group_IT_number 14
_symmetry_cell_setting 'monoclinic'
loop_
_space_group_symop_operation_xyz
x,y,z
-x,1/2+y,1/2-z
-x,-y,-z
x,1/2-y,1/2+z
loop_
_atom_site_type_symbol
_atom_site_label
_atom_site_fract_x
_atom_site_fract_y
_atom_site_fract_z
Si Si1 0.315043 0.712624 0.138366
Si Si2 0.971928 0.776159 0.464692
Si Si3 0.728885 0.408432 0.052067
Si Si4 0.333333 0.443360 0.284321
Si Si5 0.280303 0.344066 0.771496
Si Si6 0.953051 0.913872 0.754971
Si Si7 0.534864 0.466076 0.654038
O O1 0.267520 0.803618 0.329101
O O2 0.329815 0.554101 0.172859
O O3 0.234101 0.686675 0.125335
O O4 0.434396 0.799220 0.919010
O O5 0.824651 0.778180 0.665665
O O6 0.997637 0.802422 0.579484
O O7 0.001010 0.643153 0.325735
O O8 0.011468 0.925820 0.339780
O O9 0.780762 0.561822 0.026294
O O10 0.592392 0.467033 0.209045
O O11 0.366162 0.283944 0.193661
O O12 0.194174 0.421253 0.531422
O O13 0.423522 0.506765 0.260169
O O14 0.362289 0.451110 0.573812
#
# Coordination Sequence:
#
# PCOD9248683 Si02
#       7
#     4   4   4   4   4   4   4
#     4  11  24  45  61  93 126 173 213 267 310 389
#     4  10  22  43  69  92 138 158 222 252 333 369
#     4  11  26  42  65  93 133 167 225 257 329 363
#     4  11  24  40  69  92 129 166 223 252 336 370
#     4  10  23  41  65  94 127 173 207 275 310 389
#     4  10  23  44  65 103 122 175 203 276 309 398
#     4  11  24  43  61  94 131 168 218 270 309 382
#
# _framework density 26.526202999999999
#
# number of rings (size 3 to 8) (size 9 to 14) (size 15 to 20)
#    0.000    1.429    2.857    1.714    6.000    4.571 
#    0.000    0.000    0.000    0.000    0.000    0.000 
#    0.000    0.000    0.000    0.000    0.000    0.000 
#
# Total GULP energy -156634.259383 kJ/mol
# GULP energy per Si atom -5594.080692 kJ/mol
# Density = 2.646583 g / cm^3
# Si number density = 26.526203 Si / 1000 Ang^3
#
#
#
# Elastic Constant Matrix: (Units=GPa)
#
#
# Indices 1 2 3 4 5 6 
#
# 1 124.9410 13.1933 15.4192 0.0000 32.7282 0.0000
# 2 13.1933 122.6996 18.6237 0.0000 31.2144 0.0000
# 3 15.4192 18.6237 70.2962 0.0000 19.6088 0.0000
# 4 0.0000 0.0000 0.0000 35.4817 0.0000 11.2668
# 5 32.7282 31.2144 19.6088 0.0000 40.9140 0.0000
# 6 0.0000 0.0000 0.0000 11.2668 0.0000 27.6933
#
#
#
# Elastic Compliance Matrix: (Units=1/GPa)
#
#
# Indices 1 2 3 4 5 6 
#
# 1 0.010271 0.001224 -0.000029 0.000000 -0.009137 0.000000
# 2 0.001224 0.010281 -0.000613 0.000000 -0.008529 0.000000
# 3 -0.000029 -0.000613 0.016458 0.000000 -0.007397 0.000000
# 4 0.000000 0.000000 0.000000 0.032365 0.000000 -0.013167
# 5 -0.009137 -0.008529 -0.007397 0.000000 0.041802 0.000000
# 6 0.000000 0.000000 0.000000 -0.013167 0.000000 0.041467
#
#
# Mechanical properties :
#
#
# Convention : Reuss Voigt Hill
#
# Bulk Modulus (GPa) = 26.19521 45.82325 36.00923
# Shear Modulus (GPa) = 30.44987 38.86451 34.65719
#
# Velocity S-wave (km/s) = 3.39177 3.83186 3.61851
# Velocity P-wave (km/s) = 5.02349 6.07370 5.57338
#
# Compressibility (1/GPa) = 0.03817491
#
# Stress axis : x y z
#
# Youngs Moduli (GPa) = 97.35809 97.26451 60.76230
#
# Poissons Ratio (x) = -0.11908 0.00175
# Poissons Ratio (y) = -0.11919 0.03726
# Poissons Ratio (z) = 0.00280 0.05964
#
# Static dielectric constant tensor:
#      x y z
#    x 2.075770 0.000000 0.007180 
#    y 0.000000 2.095500 0.000000 
#    z 0.007180 0.000000 2.202340 
# 
# From -- ./inp_files/34946.got.cif
#   From: 2010.05.17/outbox.cif.g08.bks.cpg/sg14_18_cif.got.tgz:34946.got - 2010.06.03 17:49:19.
