data_PCOD9248027
_publ_section_title
;
Structure prediction by ZEFSAII (Michael W. Deem and Ramdas Pophale) SiO2 
 PCOD9248027
Probable space group: P 21/C
;
_chemical_formula_sum "Si O2"
_cell_formula_units_Z 26
_cell_length_a 11.092701
_cell_length_b 9.460362
_cell_length_c 9.900222
_cell_angle_alpha 90.000000
_cell_angle_beta 89.999834
_cell_angle_gamma 90.000000
_cell_volume 1038.938870
_symmetry_space_group_name_H-M "P 21/C"
_symmetry_group_IT_number 14
_symmetry_cell_setting 'monoclinic'
loop_
_space_group_symop_operation_xyz
x,y,z
-x,1/2+y,1/2-z
-x,-y,-z
x,1/2-y,1/2+z
loop_
_atom_site_type_symbol
_atom_site_label
_atom_site_fract_x
_atom_site_fract_y
_atom_site_fract_z
Si Si1 0.713663 0.852498 0.193568
Si Si2 0.286338 0.852498 0.193568
Si Si3 0.000000 0.500000 0.000000
Si Si4 0.130517 0.904116 0.770848
Si Si5 0.500000 0.832117 0.003601
Si Si6 0.130517 0.404116 0.729152
Si Si7 0.500000 0.928367 0.356399
O O1 0.623613 0.793554 0.080232
O O2 0.778720 0.726358 0.271154
O O3 0.623344 0.953064 0.278903
O O4 0.818240 0.960262 0.151452
O O5 0.221280 0.726358 0.271154
O O6 0.376387 0.793554 0.080231
O O7 0.376657 0.953063 0.278903
O O8 0.181761 0.960262 0.151452
O O9 0.102742 0.545786 0.115848
O O10 0.897258 0.545786 0.115848
O O11 1.000000 0.856235 0.825968
O O12 0.500000 0.743173 0.868615
O O13 0.500000 0.000000 0.000000
O O14 0.500000 0.000000 0.500000
#
# Coordination Sequence:
#
# PCOD9248027 Si02
#       7
#     4   4   2   4   4   4   4
#     4  11  23  41  63  94 127 163 215 266 318 388
#     4  11  23  41  63  94 127 163 215 266 318 388
#     4   8  24  36  68  92 116 174 216 242 328 386
#     4  10  22  41  62  91 123 163 213 261 314 380
#     4  11  24  39  60  92 126 162 200 261 325 372
#     4  10  22  41  62  91 123 163 213 261 314 380
#     4  11  24  39  68  91 123 171 211 259 321 385
#
# _framework density 25.025534
#
# number of rings (size 3 to 8) (size 9 to 14) (size 15 to 20)
#    0.923    0.615    0.000    4.615    6.462    4.923 
#    0.000    0.000    0.000    5.538    0.000    0.000 
#    0.000    0.000    0.000    0.000    0.000    0.000 
#
# Total GULP energy -144766.171258 kJ/mol
# GULP energy per Si atom -5567.929664 kJ/mol
# Density = 2.496857 g / cm^3
# Si number density = 25.025534 Si / 1000 Ang^3
#
#
#
# Elastic Constant Matrix: (Units=GPa)
#
#
# Indices 1 2 3 4 5 6 
#
# 1 147.3258 22.0668 4.2706 0.0000 -0.0004 0.0000
# 2 22.0668 89.9884 -20.7338 0.0000 0.0000 0.0000
# 3 4.2706 -20.7338 56.2165 0.0000 0.0000 0.0000
# 4 0.0000 0.0000 0.0000 34.1255 0.0000 0.0001
# 5 -0.0004 0.0000 0.0000 0.0000 10.3938 0.0000
# 6 0.0000 0.0000 0.0000 0.0001 0.0000 38.6564
#
#
#
# Elastic Compliance Matrix: (Units=1/GPa)
#
#
# Indices 1 2 3 4 5 6 
#
# 1 0.007132 -0.002048 -0.001297 0.000000 0.000000 0.000000
# 2 -0.002048 0.012733 0.004852 0.000000 0.000000 0.000000
# 3 -0.001297 0.004852 0.019676 0.000000 0.000000 0.000000
# 4 0.000000 0.000000 0.000000 0.029304 0.000000 0.000000
# 5 0.000000 0.000000 0.000000 0.000000 0.096211 0.000000
# 6 0.000000 0.000000 0.000000 0.000000 0.000000 0.025869
#
#
# Mechanical properties :
#
#
# Convention : Reuss Voigt Hill
#
# Bulk Modulus (GPa) = 23.49936 33.85976 28.67956
# Shear Modulus (GPa) = 24.74077 35.83029 30.28553
#
# Velocity S-wave (km/s) = 3.14765 3.78795 3.48255
# Velocity P-wave (km/s) = 4.75613 5.71759 5.25888
#
# Compressibility (1/GPa) = 0.04255435
#
# Stress axis : x y z
#
# Youngs Moduli (GPa) = 140.21329 78.53908 50.82264
#
# Poissons Ratio (x) = 0.16083 0.06592
# Poissons Ratio (y) = 0.28712 -0.24657
# Poissons Ratio (z) = 0.18186 -0.38104
#
# Static dielectric constant tensor:
#      x y z
#    x 1.988630 0.000000 0.000000 
#    y 0.000000 1.958090 0.000000 
#    z 0.000000 0.000000 2.012670 
# 
# From -- ./inp_files/28129.got.cif
#   From: 2010.05.17/outbox.cif.g08.bks.cpg/sg14_15_cif.got.tgz:28129.got - 2010.06.03 17:49:19.
