data_PCOD9248112
_publ_section_title
;
Structure prediction by ZEFSAII (Michael W. Deem and Ramdas Pophale) SiO2 
 PCOD9248112
Probable space group: P 21/C
;
_chemical_formula_sum "Si O2"
_cell_formula_units_Z 28
_cell_length_a 8.796892
_cell_length_b 13.396706
_cell_length_c 19.942049
_cell_angle_alpha 90.000000
_cell_angle_beta 143.180946
_cell_angle_gamma 90.000000
_cell_volume 1408.425858
_symmetry_space_group_name_H-M "P 21/C"
_symmetry_group_IT_number 14
_symmetry_cell_setting 'monoclinic'
loop_
_space_group_symop_operation_xyz
x,y,z
-x,1/2+y,1/2-z
-x,-y,-z
x,1/2-y,1/2+z
loop_
_atom_site_type_symbol
_atom_site_label
_atom_site_fract_x
_atom_site_fract_y
_atom_site_fract_z
Si Si1 0.299802 0.830455 0.734498
Si Si2 0.843584 0.795161 0.788973
Si Si3 0.759363 0.955065 0.875650
Si Si4 0.453476 0.153271 0.727181
Si Si5 0.089115 0.889948 0.516699
Si Si6 0.735600 0.128738 0.570561
Si Si7 0.183447 0.406779 0.858983
O O1 0.554364 0.889566 0.844537
O O2 0.355638 0.713917 0.752185
O O3 0.234409 0.854376 0.633478
O O4 0.063617 0.863290 0.693662
O O5 0.858298 0.875682 0.854882
O O6 0.623106 0.714663 0.731781
O O7 0.799066 0.863140 0.708955
O O8 0.089946 0.726238 0.859870
O O9 0.581898 0.046712 0.786282
O O10 0.000000 0.000000 0.000000
O O11 0.180558 0.160230 0.594480
O O12 0.245375 0.889245 0.503169
O O13 0.000000 0.000000 0.500000
O O14 0.440584 0.131991 0.485611
O O15 0.832417 0.026963 0.639852
#
# Coordination Sequence:
#
# PCOD9248112 Si02
#       7
#     4   4   4   4   4   4   4
#     4  11  23  39  63  99 125 166 217 270 325 390
#     4  10  24  42  65  95 132 174 214 270 331 393
#     4  11  24  42  65  95 127 171 224 273 325 381
#     4  10  23  38  66  91 126 166 216 278 317 380
#     4  11  19  40  69  91 117 161 227 275 308 369
#     4  10  22  41  65  92 126 173 214 269 326 386
#     4  11  23  40  65  93 134 170 214 262 329 396
#
# _framework density 19.880351999999998
#
# number of rings (size 3 to 8) (size 9 to 14) (size 15 to 20)
#    0.000    1.429    2.857    2.571    8.000    2.286 
#    0.000    0.714    0.000    0.000    0.000    0.000 
#    0.000    0.000    0.000    0.000    0.000    0.000 
#
# Total GULP energy -156027.364312 kJ/mol
# GULP energy per Si atom -5572.405868 kJ/mol
# Density = 1.983510 g / cm^3
# Si number density = 19.880352 Si / 1000 Ang^3
#
#
#
# Elastic Constant Matrix: (Units=GPa)
#
#
# Indices 1 2 3 4 5 6 
#
# 1 61.8173 47.0743 44.1475 0.0000 21.2094 0.0000
# 2 47.0743 123.0308 33.6048 0.0000 11.2388 0.0000
# 3 44.1475 33.6048 63.9441 0.0000 15.7071 0.0000
# 4 0.0000 0.0000 0.0000 6.1337 0.0000 -0.2560
# 5 21.2094 11.2388 15.7071 0.0000 33.9271 0.0000
# 6 0.0000 0.0000 0.0000 -0.2560 0.0000 39.5128
#
#
#
# Elastic Compliance Matrix: (Units=1/GPa)
#
#
# Indices 1 2 3 4 5 6 
#
# 1 0.043864 -0.009537 -0.021791 0.000000 -0.014174 0.000000
# 2 -0.009537 0.011590 -0.000032 0.000000 0.002137 0.000000
# 3 -0.021791 -0.000032 0.030861 0.000000 -0.000655 0.000000
# 4 0.000000 0.000000 0.000000 0.163078 0.000000 0.001056
# 5 -0.014174 0.002137 -0.000655 0.000000 0.037931 0.000000
# 6 0.000000 0.000000 0.000000 0.001056 0.000000 0.025315
#
#
# Mechanical properties :
#
#
# Convention : Reuss Voigt Hill
#
# Bulk Modulus (GPa) = 42.37874 55.38284 48.88079
# Shear Modulus (GPa) = 13.04723 24.17909 18.61316
#
# Velocity S-wave (km/s) = 2.56459 3.49123 3.06315
# Velocity P-wave (km/s) = 5.48932 6.64606 6.09520
#
# Compressibility (1/GPa) = 0.02359674
#
# Stress axis : x y z
#
# Youngs Moduli (GPa) = 22.79777 86.27767 32.40374
#
# Poissons Ratio (x) = 0.82280 0.70610
# Poissons Ratio (y) = 0.21741 0.00104
# Poissons Ratio (z) = 0.49678 0.00276
#
# Static dielectric constant tensor:
#      x y z
#    x 1.670530 0.000000 0.277290 
#    y 0.000000 1.472780 0.000000 
#    z 0.277290 0.000000 0.369640 
# 
# From -- ./inp_files/65628.got.cif
#   From: 2010.05.17/outbox.cif.g08.bks.cpg/sg14_33_cif.got.tgz:65628.got - 2010.06.03 17:49:19.
