data_PCOD9248277
_publ_section_title
;
Structure prediction by ZEFSAII (Michael W. Deem and Ramdas Pophale) SiO2 
 PCOD9248277
Probable space group: P 21/C
;
_chemical_formula_sum "Si O2"
_cell_formula_units_Z 32
_cell_length_a 8.857743
_cell_length_b 6.451855
_cell_length_c 29.996018
_cell_angle_alpha 90.000000
_cell_angle_beta 66.913129
_cell_angle_gamma 90.000000
_cell_volume 1576.947622
_symmetry_space_group_name_H-M "P 21/C"
_symmetry_group_IT_number 14
_symmetry_cell_setting 'monoclinic'
loop_
_space_group_symop_operation_xyz
x,y,z
-x,1/2+y,1/2-z
-x,-y,-z
x,1/2-y,1/2+z
loop_
_atom_site_type_symbol
_atom_site_label
_atom_site_fract_x
_atom_site_fract_y
_atom_site_fract_z
Si Si1 0.865079 0.165089 0.635997
Si Si2 0.585150 0.020818 0.147000
Si Si3 0.097128 0.105500 0.529600
Si Si4 0.257120 0.530091 0.720406
Si Si5 0.633770 0.922464 0.041796
Si Si6 0.917105 0.104984 0.219321
Si Si7 0.742548 0.779800 0.694764
Si Si8 0.373464 0.688494 0.021545
O O1 0.689338 0.278580 0.649629
O O2 0.944555 0.257502 0.671733
O O3 0.972978 0.201454 0.579798
O O4 0.840020 0.923395 0.648792
O O5 0.389344 0.036090 0.168394
O O6 0.654143 0.947949 0.091800
O O7 0.612771 0.846056 0.181160
O O8 0.224974 0.276390 0.495776
O O9 0.199911 0.926323 0.543394
O O10 0.000000 0.000000 0.500000
O O11 0.320211 0.431482 0.759475
O O12 0.081949 0.434066 0.727373
O O13 0.214936 0.770245 0.735395
O O14 0.456493 0.818215 0.051749
O O15 0.633872 0.146755 0.018052
O O16 0.849831 0.890711 0.207774
O O17 0.500000 0.500000 0.000000
#
# Coordination Sequence:
#
# PCOD9248277 Si02
#       8
#     4   4   4   4   4   4   4   4
#     4  10  24  41  61  97 126 167 219 263 316 392
#     4  11  25  39  65  94 128 168 214 263 326 386
#     4  11  22  39  67  94 134 175 215 271 324 377
#     4  11  23  40  65  90 124 165 208 266 323 387
#     4  10  22  42  62  96 131 174 221 265 319 388
#     4  10  22  43  63  92 124 164 212 263 324 386
#     4  10  23  42  62  87 129 159 215 263 322 386
#     4   9  21  40  63  88 130 171 215 262 318 376
#
# _framework density 20.292366999999999
#
# number of rings (size 3 to 8) (size 9 to 14) (size 15 to 20)
#    0.000    1.750    1.250    1.500    5.250    9.000 
#    0.000    0.000    0.000    0.000    0.000    0.000 
#    0.000    0.000    0.000    0.000    0.000    0.000 
#
# Total GULP energy -178509.964262 kJ/mol
# GULP energy per Si atom -5578.436383 kJ/mol
# Density = 2.024618 g / cm^3
# Si number density = 20.292367 Si / 1000 Ang^3
#
#
#
# Elastic Constant Matrix: (Units=GPa)
#
#
# Indices 1 2 3 4 5 6 
#
# 1 71.6142 42.0651 24.9149 0.0000 -4.0221 0.0000
# 2 42.0651 102.3653 21.8303 0.0000 -4.9108 0.0000
# 3 24.9149 21.8303 71.0203 0.0000 -6.3345 0.0000
# 4 0.0000 0.0000 0.0000 23.3401 0.0000 5.5733
# 5 -4.0221 -4.9108 -6.3345 0.0000 28.0917 0.0000
# 6 0.0000 0.0000 0.0000 5.5733 0.0000 31.1654
#
#
#
# Elastic Compliance Matrix: (Units=1/GPa)
#
#
# Indices 1 2 3 4 5 6 
#
# 1 0.019811 -0.007109 -0.004717 0.000000 0.000530 0.000000
# 2 -0.007109 0.013041 -0.001431 0.000000 0.000939 0.000000
# 3 -0.004717 -0.001431 0.016423 0.000000 0.002778 0.000000
# 4 0.000000 0.000000 0.000000 0.044756 0.000000 -0.008004
# 5 0.000530 0.000939 0.002778 0.000000 0.036464 0.000000
# 6 0.000000 0.000000 0.000000 -0.008004 0.000000 0.033518
#
#
# Mechanical properties :
#
#
# Convention : Reuss Voigt Hill
#
# Bulk Modulus (GPa) = 43.93766 46.95783 45.44775
# Shear Modulus (GPa) = 25.23810 26.93205 26.08507
#
# Velocity S-wave (km/s) = 3.53047 3.64703 3.58922
# Velocity P-wave (km/s) = 6.19018 6.39729 6.29458
#
# Compressibility (1/GPa) = 0.02275952
#
# Stress axis : x y z
#
# Youngs Moduli (GPa) = 50.47810 76.68396 60.89076
#
# Poissons Ratio (x) = 0.54517 0.28724
# Poissons Ratio (y) = 0.35887 0.08711
# Poissons Ratio (z) = 0.23812 0.10970
#
# Static dielectric constant tensor:
#      x y z
#    x 1.754280 0.000000 -0.016420 
#    y 0.000000 1.751440 0.000000 
#    z -0.016420 0.000000 1.710410 
# 
# From -- ./inp_files/79239.got.cif
#   From: 2010.05.17/outbox.cif.g08.bks.cpg/sg14_40_cif.got.tgz:79239.got - 2010.06.03 17:49:19.
