data_PCOD9248203
_publ_section_title
;
Structure prediction by ZEFSAII (Michael W. Deem and Ramdas Pophale) SiO2 
 PCOD9248203
Probable space group: P 21/C
;
_chemical_formula_sum "Si O2"
_cell_formula_units_Z 28
_cell_length_a 19.112970
_cell_length_b 7.833225
_cell_length_c 14.967836
_cell_angle_alpha 90.000000
_cell_angle_beta 31.733328
_cell_angle_gamma 90.000000
_cell_volume 1178.652686
_symmetry_space_group_name_H-M "P 21/C"
_symmetry_group_IT_number 14
_symmetry_cell_setting 'monoclinic'
loop_
_space_group_symop_operation_xyz
x,y,z
-x,1/2+y,1/2-z
-x,-y,-z
x,1/2-y,1/2+z
loop_
_atom_site_type_symbol
_atom_site_label
_atom_site_fract_x
_atom_site_fract_y
_atom_site_fract_z
Si Si1 0.988076 0.932451 0.154667
Si Si2 0.304603 0.528322 0.599765
Si Si3 0.958465 0.223273 0.570454
Si Si4 0.782529 0.885028 0.639392
Si Si5 0.295054 0.487560 0.947980
Si Si6 0.503660 0.216077 0.674348
Si Si7 0.255791 0.051508 0.944433
O O1 0.998119 0.775342 0.075987
O O2 0.973924 0.102558 0.110270
O O3 0.850289 0.935761 0.358495
O O4 0.126347 0.938097 0.059957
O O5 0.188612 0.654709 0.758950
O O6 0.299348 0.379626 0.679721
O O7 0.438299 0.641247 0.455176
O O8 0.269688 0.467852 0.537151
O O9 0.065070 0.096879 0.498583
O O10 0.777434 0.718729 0.581351
O O11 0.725870 0.026071 0.634121
O O12 0.399764 0.330987 0.843982
O O13 0.366756 0.645435 0.916802
O O14 0.413278 0.053081 0.744604
#
# Coordination Sequence:
#
# PCOD9248203 Si02
#       7
#     4   4   4   4   4   4   4
#     4  10  22  43  73 101 143 190 243 300 359 435
#     4  12  23  45  71 102 152 186 243 312 363 440
#     4  10  22  41  69 109 140 184 248 301 360 428
#     4  10  25  42  70 108 137 191 248 298 362 430
#     4  11  23  46  71 103 146 199 243 300 371 435
#     4  11  24  44  73 104 145 197 241 297 373 441
#     4  10  24  46  70 104 144 195 242 298 370 434
#
# _framework density 23.755939000000001
#
# number of rings (size 3 to 8) (size 9 to 14) (size 15 to 20)
#    0.000    1.429    2.857    1.286    4.000    3.429 
#    2.571    0.714    0.000    0.000    0.000    0.000 
#    0.000    0.000    0.000    0.000    0.000    0.000 
#
# Total GULP energy -155904.893765 kJ/mol
# GULP energy per Si atom -5568.031920 kJ/mol
# Density = 2.370187 g / cm^3
# Si number density = 23.755939 Si / 1000 Ang^3
#
#
#
# Elastic Constant Matrix: (Units=GPa)
#
#
# Indices 1 2 3 4 5 6 
#
# 1 121.8867 23.1339 67.1644 0.0000 -13.7272 0.0000
# 2 23.1339 62.9875 35.4929 0.0000 -3.7930 0.0000
# 3 67.1644 35.4929 157.8197 0.0000 -15.7466 0.0000
# 4 0.0000 0.0000 0.0000 41.3304 0.0000 -7.1513
# 5 -13.7272 -3.7930 -15.7466 0.0000 36.2633 0.0000
# 6 0.0000 0.0000 0.0000 -7.1513 0.0000 25.8711
#
#
#
# Elastic Compliance Matrix: (Units=1/GPa)
#
#
# Indices 1 2 3 4 5 6 
#
# 1 0.011023 -0.001599 -0.004110 0.000000 0.002221 0.000000
# 2 -0.001599 0.018413 -0.003479 0.000000 -0.000190 0.000000
# 3 -0.004110 -0.003479 0.009069 0.000000 0.002018 0.000000
# 4 0.000000 0.000000 0.000000 0.025411 0.000000 0.007024
# 5 0.002221 -0.000190 0.002018 0.000000 0.029273 0.000000
# 6 0.000000 0.000000 0.000000 0.007024 0.000000 0.040595
#
#
# Mechanical properties :
#
#
# Convention : Reuss Voigt Hill
#
# Bulk Modulus (GPa) = 49.68133 66.03070 57.85602
# Shear Modulus (GPa) = 31.47255 35.15314 33.31284
#
# Velocity S-wave (km/s) = 3.64377 3.85094 3.74879
# Velocity P-wave (km/s) = 6.21783 6.90136 6.56849
#
# Compressibility (1/GPa) = 0.02012829
#
# Stress axis : x y z
#
# Youngs Moduli (GPa) = 90.72307 54.31078 110.26206
#
# Poissons Ratio (x) = 0.08683 0.45316
# Poissons Ratio (y) = 0.14505 0.38365
# Poissons Ratio (z) = 0.37286 0.18897
#
# Static dielectric constant tensor:
#      x y z
#    x 1.980430 0.000000 -0.011590 
#    y 0.000000 2.087470 0.000000 
#    z -0.011590 0.000000 1.914060 
# 
# From -- ./inp_files/50022.got.cif
#   From: 2010.05.17/outbox.cif.g08.bks.cpg/sg14_26_cif.got.tgz:50022.got - 2010.06.03 17:49:19.
