data_PCOD9248003
_publ_section_title
;
Structure prediction by ZEFSAII (Michael W. Deem and Ramdas Pophale) SiO2 
 PCOD9248003
Probable space group: P 21/C
;
_chemical_formula_sum "Si O2"
_cell_formula_units_Z 32
_cell_length_a 19.616435
_cell_length_b 9.180762
_cell_length_c 14.025190
_cell_angle_alpha 90.000000
_cell_angle_beta 138.713663
_cell_angle_gamma 90.000000
_cell_volume 1666.612698
_symmetry_space_group_name_H-M "P 21/C"
_symmetry_group_IT_number 14
_symmetry_cell_setting 'monoclinic'
loop_
_space_group_symop_operation_xyz
x,y,z
-x,1/2+y,1/2-z
-x,-y,-z
x,1/2-y,1/2+z
loop_
_atom_site_type_symbol
_atom_site_label
_atom_site_fract_x
_atom_site_fract_y
_atom_site_fract_z
Si Si1 0.449744 0.696731 0.880106
Si Si2 0.222425 0.321134 0.411341
Si Si3 0.244111 0.178676 0.625748
Si Si4 0.539227 0.510033 0.651964
Si Si5 0.723730 0.273889 0.145854
Si Si6 0.315047 0.104928 0.354729
Si Si7 0.879342 0.008000 0.351466
Si Si8 0.362905 0.905401 0.106059
O O1 0.378197 0.746872 0.893464
O O2 0.383623 0.598275 0.739763
O O3 0.462346 0.839110 0.827093
O O4 0.559682 0.623104 0.019208
O O5 0.193509 0.228799 0.473830
O O6 0.280680 0.212650 0.402119
O O7 0.138590 0.409672 0.261979
O O8 0.301664 0.447266 0.522405
O O9 0.351709 0.090863 0.727728
O O10 0.268684 0.324095 0.711301
O O11 0.175727 0.074814 0.619382
O O12 0.500000 0.500000 0.500000
O O13 0.466885 0.584992 0.653375
O O14 0.732177 0.447367 0.169223
O O15 0.817213 0.163416 0.274412
O O16 0.698295 0.226187 0.010582
O O17 0.000000 0.000000 0.500000
#
# Coordination Sequence:
#
# PCOD9248003 Si02
#       8
#     4   4   4   4   4   4   4   4
#     4  12  22  34  56  90 125 171 208 239 299 372
#     4  10  22  41  60  89 116 161 204 250 323 368
#     4  11  21  40  63  85 124 164 209 259 313 377
#     4  12  19  37  56  84 124 176 210 239 300 376
#     4  11  23  39  57  90 120 158 207 255 313 369
#     4  11  22  35  58  89 129 162 203 250 296 376
#     4  10  23  47  70  86 117 160 207 270 336 384
#     4  11  23  35  56  85 129 163 203 250 286 377
#
# _framework density 19.200620000000001
#
# number of rings (size 3 to 8) (size 9 to 14) (size 15 to 20)
#    0.000    1.000    5.000    2.625    3.500    0.000 
#    0.000    7.500    0.000    0.000    0.000    0.000 
#    0.000    0.000    0.000    0.000    0.000    0.000 
#
# Total GULP energy -178353.093073 kJ/mol
# GULP energy per Si atom -5573.534159 kJ/mol
# Density = 1.915692 g / cm^3
# Si number density = 19.200620 Si / 1000 Ang^3
#
#
#
# Elastic Constant Matrix: (Units=GPa)
#
#
# Indices 1 2 3 4 5 6 
#
# 1 23.9720 3.0949 28.9221 0.0000 -3.7530 0.0000
# 2 3.0949 99.8663 28.8819 0.0000 13.4068 0.0000
# 3 28.9221 28.8819 94.3077 0.0000 5.1230 0.0000
# 4 0.0000 0.0000 0.0000 16.5064 0.0000 -4.5394
# 5 -3.7530 13.4068 5.1230 0.0000 30.6392 0.0000
# 6 0.0000 0.0000 0.0000 -4.5394 0.0000 22.9196
#
#
#
# Elastic Compliance Matrix: (Units=1/GPa)
#
#
# Indices 1 2 3 4 5 6 
#
# 1 0.071371 0.003045 -0.023436 0.000000 0.011328 0.000000
# 2 0.003045 0.011703 -0.004299 0.000000 -0.004029 0.000000
# 3 -0.023436 -0.004299 0.019337 0.000000 -0.004223 0.000000
# 4 0.000000 0.000000 0.000000 0.064073 0.000000 0.012690
# 5 0.011328 -0.004029 -0.004223 0.000000 0.036495 0.000000
# 6 0.000000 0.000000 0.000000 0.012690 0.000000 0.046144
#
#
# Mechanical properties :
#
#
# Convention : Reuss Voigt Hill
#
# Bulk Modulus (GPa) = 18.85679 37.77151 28.31415
# Shear Modulus (GPa) = 15.81384 24.49618 20.15501
#
# Velocity S-wave (km/s) = 2.87298 3.57571 3.24343
# Velocity P-wave (km/s) = 4.56591 6.06320 5.36702
#
# Compressibility (1/GPa) = 0.05303130
#
# Stress axis : x y z
#
# Youngs Moduli (GPa) = 14.01135 85.44623 51.71480
#
# Poissons Ratio (x) = -0.26020 1.21198
# Poissons Ratio (y) = -0.04267 0.22233
# Poissons Ratio (z) = 0.32837 0.36735
#
# Static dielectric constant tensor:
#      x y z
#    x 1.649360 0.000000 0.007050 
#    y 0.000000 2.009630 0.000000 
#    z 0.007050 0.000000 1.645000 
# 
# From -- ./inp_files/48434.got.cif
#   From: 2010.05.17/outbox.cif.g08.bks.cpg/sg14_25_cif.got.tgz:48434.got - 2010.06.03 17:49:19.
