data_PCOD9248931
_publ_section_title
;
Structure prediction by ZEFSAII (Michael W. Deem and Ramdas Pophale) SiO2 
 PCOD9248931
Probable space group: P 21/C
;
_chemical_formula_sum "Si O2"
_cell_formula_units_Z 30
_cell_length_a 11.390111
_cell_length_b 7.839649
_cell_length_c 13.517333
_cell_angle_alpha 90.000000
_cell_angle_beta 80.607328
_cell_angle_gamma 90.000000
_cell_volume 1190.840610
_symmetry_space_group_name_H-M "P 21/C"
_symmetry_group_IT_number 14
_symmetry_cell_setting 'monoclinic'
loop_
_space_group_symop_operation_xyz
x,y,z
-x,1/2+y,1/2-z
-x,-y,-z
x,1/2-y,1/2+z
loop_
_atom_site_type_symbol
_atom_site_label
_atom_site_fract_x
_atom_site_fract_y
_atom_site_fract_z
Si Si1 0.000000 0.500000 0.500000
Si Si2 0.450491 0.720776 0.600713
Si Si3 0.782741 0.300172 0.639245
Si Si4 0.487288 0.594917 0.275649
Si Si5 0.115646 0.385725 0.634708
Si Si6 0.238676 0.917168 0.537724
Si Si7 0.637031 0.739311 0.407335
Si Si8 0.941566 0.242355 0.311270
O O1 0.133544 0.568976 0.432601
O O2 0.064597 0.322435 0.538271
O O3 0.457237 0.568099 0.677741
O O4 0.495941 0.883841 0.657219
O O5 0.324243 0.769721 0.571978
O O6 0.541573 0.685281 0.501027
O O7 0.652137 0.378443 0.678729
O O8 0.768248 0.129885 0.575624
O O9 0.848932 0.252957 0.732566
O O10 0.566988 0.745074 0.314541
O O11 0.254418 0.390310 0.618393
O O12 0.054561 0.576464 0.631140
O O13 0.063568 0.302246 0.740016
O O14 0.111015 0.896499 0.607740
O O15 0.299201 0.090345 0.563729
#
# Coordination Sequence:
#
# PCOD9248931 Si02
#       8
#     2   4   4   4   4   4   4   4
#     4  10  22  44  72  98 128 184 230 292 348 422
#     4  12  26  44  69 102 149 181 239 288 361 426
#     4  11  24  43  74  99 141 180 237 288 363 413
#     4  12  26  43  71 107 138 191 232 292 356 435
#     4  11  24  48  69 103 137 188 236 299 354 427
#     4  12  24  45  69 104 145 186 232 302 350 438
#     4  12  27  44  70 104 147 187 237 289 367 429
#     4  11  24  46  73 101 140 184 242 296 355 425
#
# _framework density 25.192288999999999
#
# number of rings (size 3 to 8) (size 9 to 14) (size 15 to 20)
#    0.000    0.533    4.000    4.000    1.867    0.000 
#    4.800    2.000    0.000    0.000    0.000    0.000 
#    0.000    0.000    0.000    0.000    0.000    0.000 
#
# Total GULP energy -167547.947616 kJ/mol
# GULP energy per Si atom -5584.931587 kJ/mol
# Density = 2.513495 g / cm^3
# Si number density = 25.192289 Si / 1000 Ang^3
#
#
#
# Elastic Constant Matrix: (Units=GPa)
#
#
# Indices 1 2 3 4 5 6 
#
# 1 106.6852 -10.5205 10.5723 0.0000 -3.7678 0.0000
# 2 -10.5205 71.6102 -24.1338 0.0000 0.2545 0.0000
# 3 10.5723 -24.1338 73.3271 0.0000 -1.5884 0.0000
# 4 0.0000 0.0000 0.0000 29.6677 0.0000 1.3659
# 5 -3.7678 0.2545 -1.5884 0.0000 38.1256 0.0000
# 6 0.0000 0.0000 0.0000 1.3659 0.0000 35.2345
#
#
#
# Elastic Compliance Matrix: (Units=1/GPa)
#
#
# Indices 1 2 3 4 5 6 
#
# 1 0.009611 0.001067 -0.001015 0.000000 0.000900 0.000000
# 2 0.001067 0.015826 0.005059 0.000000 0.000211 0.000000
# 3 -0.001015 0.005059 0.015460 0.000000 0.000510 0.000000
# 4 0.000000 0.000000 0.000000 0.033767 0.000000 -0.001309
# 5 0.000900 0.000211 0.000510 0.000000 0.026338 0.000000
# 6 0.000000 0.000000 0.000000 -0.001309 0.000000 0.028432
#
#
# Mechanical properties :
#
#
# Convention : Reuss Voigt Hill
#
# Bulk Modulus (GPa) = 19.56246 22.60650 21.08448
# Shear Modulus (GPa) = 36.69694 38.98586 37.84140
#
# Velocity S-wave (km/s) = 3.82078 3.93814 3.87990
# Velocity P-wave (km/s) = 5.21983 5.44716 5.33471
#
# Compressibility (1/GPa) = 0.05111833
#
# Stress axis : x y z
#
# Youngs Moduli (GPa) = 104.04790 63.18901 64.68266
#
# Poissons Ratio (x) = -0.06740 0.06566
# Poissons Ratio (y) = -0.11098 -0.32725
# Poissons Ratio (z) = 0.10562 -0.31970
#
# Static dielectric constant tensor:
#      x y z
#    x 1.096550 0.000000 -1.211960 
#    y 0.000000 1.042500 0.000000 
#    z -1.211960 0.000000 0.241630 
# 
# From -- ./inp_files/43708.got.cif
#   From: 2010.05.17/outbox.cif.g08.bks.cpg/sg14_22_cif.got.tgz:43708.got - 2010.06.03 17:49:19.
