data_PCOD9248795
_publ_section_title
;
Structure prediction by ZEFSAII (Michael W. Deem and Ramdas Pophale) SiO2 
 PCOD9248795
Probable space group: P 21/C
;
_chemical_formula_sum "Si O2"
_cell_formula_units_Z 26
_cell_length_a 8.080625
_cell_length_b 18.144172
_cell_length_c 9.531162
_cell_angle_alpha 90.000000
_cell_angle_beta 132.397420
_cell_angle_gamma 90.000000
_cell_volume 1031.977076
_symmetry_space_group_name_H-M "P 21/C"
_symmetry_group_IT_number 14
_symmetry_cell_setting 'monoclinic'
loop_
_space_group_symop_operation_xyz
x,y,z
-x,1/2+y,1/2-z
-x,-y,-z
x,1/2-y,1/2+z
loop_
_atom_site_type_symbol
_atom_site_label
_atom_site_fract_x
_atom_site_fract_y
_atom_site_fract_z
Si Si1 0.030988 0.497495 0.801330
Si Si2 0.527700 0.647302 0.411192
Si Si3 0.975806 0.377006 0.992288
Si Si4 0.500000 0.500000 0.500000
Si Si5 0.270271 0.103418 0.264410
Si Si6 0.612502 0.202475 0.602336
Si Si7 0.920404 0.225158 0.038390
O O1 0.768281 0.487177 0.625120
O O2 0.063286 0.577278 0.887430
O O3 0.185088 0.476733 0.758723
O O4 0.094224 0.436039 0.957684
O O5 0.549835 0.589582 0.548792
O O6 0.671200 0.614941 0.364783
O O7 0.564429 0.732348 0.461087
O O8 0.270694 0.639575 0.211741
O O9 0.068331 0.295225 0.069763
O O10 0.481678 0.131799 0.473364
O O11 0.069958 0.160055 0.182712
O O12 0.758262 0.239303 0.561499
O O13 0.772763 0.193207 0.826835
#
# Coordination Sequence:
#
# PCOD9248795 Si02
#       7
#     4   4   4   2   4   4   4
#     4  10  23  41  67  98 134 187 224 291 354 420
#     4  10  23  44  65 103 132 182 235 286 351 429
#     4   9  20  44  62  93 137 178 229 279 355 417
#     4  10  22  44  66  94 144 170 234 288 350 428
#     4  12  25  43  72 104 140 180 248 291 354 433
#     4  11  24  45  66 103 142 181 228 303 346 420
#     4  11  24  42  71 101 140 185 234 290 360 422
#
# _framework density 25.194357
#
# number of rings (size 3 to 8) (size 9 to 14) (size 15 to 20)
#    0.000    1.538    3.077    2.769    6.462    1.231 
#   13.846    0.000    0.000    0.000    0.000    0.000 
#    0.000    0.000    0.000    0.000    0.000    0.000 
#
# Total GULP energy -144938.677685 kJ/mol
# GULP energy per Si atom -5574.564526 kJ/mol
# Density = 2.513701 g / cm^3
# Si number density = 25.194357 Si / 1000 Ang^3
#
#
#
# Elastic Constant Matrix: (Units=GPa)
#
#
# Indices 1 2 3 4 5 6 
#
# 1 38.1380 -5.3249 30.9880 0.0000 -4.4151 0.0000
# 2 -5.3249 76.6818 12.5088 0.0000 7.1142 0.0000
# 3 30.9880 12.5088 78.1803 0.0000 7.6670 0.0000
# 4 0.0000 0.0000 0.0000 31.7255 0.0000 -4.6798
# 5 -4.4151 7.1142 7.6670 0.0000 22.7592 0.0000
# 6 0.0000 0.0000 0.0000 -4.6798 0.0000 43.7405
#
#
#
# Elastic Compliance Matrix: (Units=1/GPa)
#
#
# Indices 1 2 3 4 5 6 
#
# 1 0.044661 0.005064 -0.019863 0.000000 0.013772 0.000000
# 2 0.005064 0.014253 -0.004082 0.000000 -0.002098 0.000000
# 3 -0.019863 -0.004082 0.022307 0.000000 -0.010092 0.000000
# 4 0.000000 0.000000 0.000000 0.032026 0.000000 0.003426
# 5 0.013772 -0.002098 -0.010092 0.000000 0.050665 0.000000
# 6 0.000000 0.000000 0.000000 0.003426 0.000000 0.023229
#
#
# Mechanical properties :
#
#
# Convention : Reuss Voigt Hill
#
# Bulk Modulus (GPa) = 23.01032 29.92711 26.46871
# Shear Modulus (GPa) = 20.88653 29.96693 25.42673
#
# Velocity S-wave (km/s) = 2.88239 3.45255 3.18027
# Velocity P-wave (km/s) = 4.49783 5.27236 4.90042
#
# Compressibility (1/GPa) = 0.04345876
#
# Stress axis : x y z
#
# Youngs Moduli (GPa) = 22.39090 70.16053 44.82958
#
# Poissons Ratio (x) = -0.35528 0.89045
# Poissons Ratio (y) = -0.11338 0.18299
# Poissons Ratio (z) = 0.44475 0.28639
#
# Static dielectric constant tensor:
#      x y z
#    x 2.055850 0.000000 -0.074800 
#    y 0.000000 1.997600 0.000000 
#    z -0.074800 0.000000 2.021260 
# 
# From -- ./inp_files/10416.got.cif
#   From: 2010.05.17/outbox.cif.g08.bks.cpg/sg14_6_cif.got.tgz:10416.got - 2010.06.03 17:49:19.
