data_PCOD9248388
_publ_section_title
;
Structure prediction by ZEFSAII (Michael W. Deem and Ramdas Pophale) SiO2 
 PCOD9248388
Probable space group: P 21/C
;
_chemical_formula_sum "Si O2"
_cell_formula_units_Z 24
_cell_length_a 5.440707
_cell_length_b 10.849666
_cell_length_c 19.510829
_cell_angle_alpha 90.000000
_cell_angle_beta 54.633012
_cell_angle_gamma 90.000000
_cell_volume 939.184358
_symmetry_space_group_name_H-M "P 21/C"
_symmetry_group_IT_number 14
_symmetry_cell_setting 'monoclinic'
loop_
_space_group_symop_operation_xyz
x,y,z
-x,1/2+y,1/2-z
-x,-y,-z
x,1/2-y,1/2+z
loop_
_atom_site_type_symbol
_atom_site_label
_atom_site_fract_x
_atom_site_fract_y
_atom_site_fract_z
Si Si1 0.718982 0.634984 0.105041
Si Si2 0.715182 0.936495 0.318718
Si Si3 0.845474 0.105134 0.115123
Si Si4 0.682567 0.473589 0.228643
Si Si5 0.306935 0.192071 0.539483
Si Si6 0.132395 0.642649 0.550732
O O1 0.866835 0.545864 0.138575
O O2 0.378317 0.582062 0.167816
O O3 0.788027 0.619905 0.013514
O O4 0.836148 0.770973 0.102325
O O5 0.536889 0.887897 0.281407
O O6 0.070231 0.917898 0.261665
O O7 0.591875 0.881033 0.409600
O O8 0.527408 0.070592 0.198603
O O9 0.811161 0.116979 0.038913
O O10 0.025369 0.225215 0.108494
O O11 0.062003 0.988062 0.095256
O O12 0.578077 0.281648 0.471453
#
# Coordination Sequence:
#
# PCOD9248388 Si02
#       6
#     4   4   4   4   4   4
#     4   9  22  39  66  98 129 170 219 282 331 396
#     4  10  24  41  68  97 134 171 219 286 341 394
#     4  10  24  42  63  93 137 183 224 275 337 409
#     4  10  24  44  62 101 132 173 218 288 337 405
#     4  11  22  40  68  97 129 181 226 278 336 413
#     4  10  22  42  67  92 135 181 229 271 334 412
#
# _framework density 25.554091
#
# number of rings (size 3 to 8) (size 9 to 14) (size 15 to 20)
#    1.000    1.000    0.000    2.000    7.000    2.667 
#    3.000    0.000    0.000    0.000    0.000    0.000 
#    0.000    0.000    0.000    0.000    0.000    0.000 
#
# Total GULP energy -133989.595948 kJ/mol
# GULP energy per Si atom -5582.899831 kJ/mol
# Density = 2.549593 g / cm^3
# Si number density = 25.554091 Si / 1000 Ang^3
#
#
#
# Elastic Constant Matrix: (Units=GPa)
#
#
# Indices 1 2 3 4 5 6 
#
# 1 130.6008 28.1186 23.7465 0.0000 -22.6244 0.0000
# 2 28.1186 46.0788 32.9781 0.0000 -10.6545 0.0000
# 3 23.7465 32.9781 80.2404 0.0000 -6.7216 0.0000
# 4 0.0000 0.0000 0.0000 32.4419 0.0000 -11.0392
# 5 -22.6244 -10.6545 -6.7216 0.0000 35.2008 0.0000
# 6 0.0000 0.0000 0.0000 -11.0392 0.0000 29.3141
#
#
#
# Elastic Compliance Matrix: (Units=1/GPa)
#
#
# Indices 1 2 3 4 5 6 
#
# 1 0.009505 -0.004225 -0.000683 0.000000 0.004700 0.000000
# 2 -0.004225 0.034423 -0.012451 0.000000 0.005326 0.000000
# 3 -0.000683 -0.012451 0.017713 0.000000 -0.000825 0.000000
# 4 0.000000 0.000000 0.000000 0.035355 0.000000 0.013314
# 5 0.004700 0.005326 -0.000825 0.000000 0.032884 0.000000
# 6 0.000000 0.000000 0.000000 0.013314 0.000000 0.039127
#
#
# Mechanical properties :
#
#
# Convention : Reuss Voigt Hill
#
# Bulk Modulus (GPa) = 37.14284 47.40072 42.27178
# Shear Modulus (GPa) = 23.50761 30.86313 27.18537
#
# Velocity S-wave (km/s) = 3.03630 3.47905 3.26519
# Velocity P-wave (km/s) = 5.18254 5.89303 5.54917
#
# Compressibility (1/GPa) = 0.02692309
#
# Stress axis : x y z
#
# Youngs Moduli (GPa) = 105.20947 29.05076 56.45652
#
# Poissons Ratio (x) = 0.12273 0.03855
# Poissons Ratio (y) = 0.44448 0.70294
# Poissons Ratio (z) = 0.07184 0.36171
#
# Static dielectric constant tensor:
#      x y z
#    x 2.034570 0.000000 -0.024370 
#    y 0.000000 1.994300 0.000000 
#    z -0.024370 0.000000 1.988600 
# 
# From -- ./inp_files/71139.got.cif
#   From: 2010.05.17/outbox.cif.g08.bks.cpg/sg14_36_cif.got.tgz:71139.got - 2010.06.03 17:49:19.
