data_PCOD9248809
_publ_section_title
;
Structure prediction by ZEFSAII (Michael W. Deem and Ramdas Pophale) SiO2 
 PCOD9248809
Probable space group: P 21/C
;
_chemical_formula_sum "Si O2"
_cell_formula_units_Z 32
_cell_length_a 13.404045
_cell_length_b 14.682054
_cell_length_c 9.135054
_cell_angle_alpha 90.000000
_cell_angle_beta 58.955702
_cell_angle_gamma 90.000000
_cell_volume 1540.272207
_symmetry_space_group_name_H-M "P 21/C"
_symmetry_group_IT_number 14
_symmetry_cell_setting 'monoclinic'
loop_
_space_group_symop_operation_xyz
x,y,z
-x,1/2+y,1/2-z
-x,-y,-z
x,1/2-y,1/2+z
loop_
_atom_site_type_symbol
_atom_site_label
_atom_site_fract_x
_atom_site_fract_y
_atom_site_fract_z
Si Si1 0.127615 0.531678 0.580506
Si Si2 0.298633 0.318816 0.156165
Si Si3 0.513306 0.388178 0.805188
Si Si4 0.704316 0.636025 0.498199
Si Si5 0.551245 0.071251 0.796733
Si Si6 0.691100 0.167902 0.936123
Si Si7 0.676821 0.126534 0.428960
Si Si8 0.135116 0.489584 0.230121
O O1 0.203234 0.445376 0.574855
O O2 0.194855 0.622271 0.580186
O O3 0.125478 0.524428 0.405639
O O4 0.994189 0.524573 0.731899
O O5 0.306366 0.328523 0.325569
O O6 0.207072 0.395873 0.175482
O O7 0.419149 0.338106 0.977383
O O8 0.262711 0.218413 0.132880
O O9 0.453520 0.468506 0.759334
O O10 0.588106 0.330085 0.634724
O O11 0.612563 0.424540 0.842803
O O12 0.577542 0.597172 0.553638
O O13 0.643383 0.100226 0.848084
O O14 0.584401 0.127901 0.628432
O O15 0.708537 0.270186 0.864911
O O16 0.785790 0.067791 0.401287
#
# Coordination Sequence:
#
# PCOD9248809 Si02
#       8
#     4   4   4   4   4   4   4   4
#     4  10  23  43  66  88 121 167 222 260 308 375
#     4  11  23  39  66  95 125 164 209 261 319 385
#     4  12  22  41  63  91 133 169 206 253 318 396
#     4  11  23  40  64  95 126 164 207 258 320 379
#     4  12  24  38  63  97 130 167 203 260 328 376
#     4  12  25  39  63  99 133 163 208 270 321 369
#     4  12  22  41  66  94 129 168 212 256 318 391
#     4  10  22  44  67  87 117 175 219 256 310 378
#
# _framework density 20.775549000000002
#
# number of rings (size 3 to 8) (size 9 to 14) (size 15 to 20)
#    0.000    0.750    5.000    3.750    1.750    1.000 
#    0.000    0.625    0.000    0.000    0.000    0.000 
#    0.000    0.000    0.000    0.000    0.000    0.000 
#
# Total GULP energy -178900.405261 kJ/mol
# GULP energy per Si atom -5590.637664 kJ/mol
# Density = 2.072826 g / cm^3
# Si number density = 20.775549 Si / 1000 Ang^3
#
#
#
# Elastic Constant Matrix: (Units=GPa)
#
#
# Indices 1 2 3 4 5 6 
#
# 1 79.4466 -1.4326 3.6679 0.0000 -15.0427 0.0000
# 2 -1.4326 48.3874 -12.7210 0.0000 0.7262 0.0000
# 3 3.6679 -12.7210 32.0488 0.0000 0.9517 0.0000
# 4 0.0000 0.0000 0.0000 28.2737 0.0000 6.3112
# 5 -15.0427 0.7262 0.9517 0.0000 27.7075 0.0000
# 6 0.0000 0.0000 0.0000 6.3112 0.0000 8.9253
#
#
#
# Elastic Compliance Matrix: (Units=1/GPa)
#
#
# Indices 1 2 3 4 5 6 
#
# 1 0.014140 -0.000205 -0.001930 0.000000 0.007748 0.000000
# 2 -0.000205 0.023101 0.009223 0.000000 -0.001034 0.000000
# 3 -0.001930 0.009223 0.035158 0.000000 -0.002497 0.000000
# 4 0.000000 0.000000 0.000000 0.041997 0.000000 -0.029697
# 5 0.007748 -0.001034 -0.002497 0.000000 0.040411 0.000000
# 6 0.000000 0.000000 0.000000 -0.029697 0.000000 0.133039
#
#
# Mechanical properties :
#
#
# Convention : Reuss Voigt Hill
#
# Bulk Modulus (GPa) = 11.55048 15.43459 13.49254
# Shear Modulus (GPa) = 16.52742 24.33920 20.43331
#
# Velocity S-wave (km/s) = 2.82356 3.42648 3.13953
# Velocity P-wave (km/s) = 4.02514 4.80621 4.43291
#
# Compressibility (1/GPa) = 0.08657646
#
# Stress axis : x y z
#
# Youngs Moduli (GPa) = 70.72373 43.28847 28.44270
#
# Poissons Ratio (x) = 0.00887 0.05489
# Poissons Ratio (y) = 0.01450 -0.26234
# Poissons Ratio (z) = 0.13647 -0.39927
#
# Static dielectric constant tensor:
#      x y z
#    x 1.749890 0.000000 0.009330 
#    y 0.000000 1.745630 0.000000 
#    z 0.009330 0.000000 1.764210 
# 
# From -- ./inp_files/16241.got.cif
#   From: 2010.05.17/outbox.cif.g08.bks.cpg/sg14_9_cif.got.tgz:16241.got - 2010.06.03 17:49:19.
