data_PCOD9248178
_publ_section_title
;
Structure prediction by ZEFSAII (Michael W. Deem and Ramdas Pophale) SiO2 
 PCOD9248178
Probable space group: P 21/C
;
_chemical_formula_sum "Si O2"
_cell_formula_units_Z 32
_cell_length_a 13.740906
_cell_length_b 14.081246
_cell_length_c 20.228304
_cell_angle_alpha 90.000000
_cell_angle_beta 158.537681
_cell_angle_gamma 90.000000
_cell_volume 1432.074388
_symmetry_space_group_name_H-M "P 21/C"
_symmetry_group_IT_number 14
_symmetry_cell_setting 'monoclinic'
loop_
_space_group_symop_operation_xyz
x,y,z
-x,1/2+y,1/2-z
-x,-y,-z
x,1/2-y,1/2+z
loop_
_atom_site_type_symbol
_atom_site_label
_atom_site_fract_x
_atom_site_fract_y
_atom_site_fract_z
Si Si1 0.627010 0.503830 0.224593
Si Si2 0.044131 0.293514 0.166237
Si Si3 0.819310 0.081063 0.643887
Si Si4 0.644890 0.269824 0.585908
Si Si5 0.682847 0.054092 0.014476
Si Si6 0.773068 0.058033 0.423549
Si Si7 0.219728 0.579992 0.222704
Si Si8 0.178442 0.894273 0.039287
O O1 0.483465 0.566895 0.191712
O O2 0.905725 0.545979 0.376162
O O3 0.680578 0.407677 0.300413
O O4 0.421203 0.515053 0.034276
O O5 0.330004 0.263867 0.373333
O O6 0.903088 0.207560 0.039797
O O7 0.900309 0.348004 0.135142
O O8 0.023852 0.373910 0.097953
O O9 0.746613 0.161609 0.650922
O O10 0.062577 0.013317 0.814616
O O11 0.730486 0.345502 0.581907
O O12 0.730860 0.324653 0.706017
O O13 0.431117 0.997041 0.884207
O O14 0.653270 0.068261 0.916890
O O15 0.707315 0.084418 0.307802
O O16 0.915705 0.957484 0.530563
#
# Coordination Sequence:
#
# PCOD9248178 Si02
#       8
#     4   4   4   4   4   4   4   4
#     4  10  22  42  62  92 130 181 217 265 339 410
#     4  11  21  41  65  97 124 177 228 278 329 405
#     4  11  24  41  67  97 139 176 229 274 344 407
#     4  12  22  42  67 100 132 176 230 279 339 402
#     4  12  23  42  68  98 134 182 216 284 341 405
#     4  10  22  41  67  97 130 171 228 277 337 404
#     4  11  22  41  67  99 132 171 223 289 340 394
#     4  11  23  41  65  91 136 177 220 271 339 402
#
# _framework density 22.345208
#
# number of rings (size 3 to 8) (size 9 to 14) (size 15 to 20)
#    0.000    1.000    6.250    1.875    0.000    0.500 
#    4.500    2.500    0.000    0.000    0.000    0.000 
#    0.000    0.000    0.000    0.000    0.000    0.000 
#
# Total GULP energy -178371.523888 kJ/mol
# GULP energy per Si atom -5574.110121 kJ/mol
# Density = 2.229435 g / cm^3
# Si number density = 22.345208 Si / 1000 Ang^3
#
#
#
# Elastic Constant Matrix: (Units=GPa)
#
#
# Indices 1 2 3 4 5 6 
#
# 1 60.3369 5.8583 21.0949 0.0000 -5.3796 0.0000
# 2 5.8583 63.0507 26.4247 0.0000 -12.6383 0.0000
# 3 21.0949 26.4247 56.7211 0.0000 -14.1588 0.0000
# 4 0.0000 0.0000 0.0000 30.4163 0.0000 -7.5518
# 5 -5.3796 -12.6383 -14.1588 0.0000 34.2700 0.0000
# 6 0.0000 0.0000 0.0000 -7.5518 0.0000 23.7153
#
#
#
# Elastic Compliance Matrix: (Units=1/GPa)
#
#
# Indices 1 2 3 4 5 6 
#
# 1 0.019168 0.001544 -0.007755 0.000000 0.000375 0.000000
# 2 0.001544 0.020305 -0.009036 0.000000 0.003997 0.000000
# 3 -0.007755 -0.009036 0.026300 0.000000 0.006316 0.000000
# 4 0.000000 0.000000 0.000000 0.035700 0.000000 0.011368
# 5 0.000375 0.003997 0.006316 0.000000 0.033323 0.000000
# 6 0.000000 0.000000 0.000000 0.011368 0.000000 0.045787
#
#
# Mechanical properties :
#
#
# Convention : Reuss Voigt Hill
#
# Bulk Modulus (GPa) = 28.34409 31.87381 30.10895
# Shear Modulus (GPa) = 22.43802 26.12905 24.28353
#
# Velocity S-wave (km/s) = 3.17228 3.42326 3.30016
# Velocity P-wave (km/s) = 5.11175 5.46994 5.29387
#
# Compressibility (1/GPa) = 0.03528072
#
# Stress axis : x y z
#
# Youngs Moduli (GPa) = 52.16961 49.24886 38.02220
#
# Poissons Ratio (x) = -0.07604 0.29485
# Poissons Ratio (y) = -0.08055 0.34357
# Poissons Ratio (z) = 0.40455 0.44501
#
# Static dielectric constant tensor:
#      x y z
#    x 1.892890 0.000000 -0.003060 
#    y 0.000000 1.902650 0.000000 
#    z -0.003060 0.000000 1.869680 
# 
# From -- ./inp_files/68726.got.cif
#   From: 2010.05.17/outbox.cif.g08.bks.cpg/sg14_35_cif.got.tgz:68726.got - 2010.06.03 17:49:19.
