data_PCOD9248582
_publ_section_title
;
Structure prediction by ZEFSAII (Michael W. Deem and Ramdas Pophale) SiO2 
 PCOD9248582
Probable space group: P 21/C
;
_chemical_formula_sum "Si O2"
_cell_formula_units_Z 32
_cell_length_a 8.000918
_cell_length_b 25.578193
_cell_length_c 14.724209
_cell_angle_alpha 90.000000
_cell_angle_beta 150.078368
_cell_angle_gamma 90.000000
_cell_volume 1503.076754
_symmetry_space_group_name_H-M "P 21/C"
_symmetry_group_IT_number 14
_symmetry_cell_setting 'monoclinic'
loop_
_space_group_symop_operation_xyz
x,y,z
-x,1/2+y,1/2-z
-x,-y,-z
x,1/2-y,1/2+z
loop_
_atom_site_type_symbol
_atom_site_label
_atom_site_fract_x
_atom_site_fract_y
_atom_site_fract_z
Si Si1 0.798303 0.051739 0.432953
Si Si2 0.782547 0.398039 0.241986
Si Si3 0.919821 0.511223 0.356621
Si Si4 0.036769 0.825886 0.014302
Si Si5 0.981251 0.623769 0.108013
Si Si6 0.950150 0.638872 0.812669
Si Si7 0.194160 0.885623 0.913752
Si Si8 0.197624 0.212809 0.605772
O O1 0.452391 0.035501 0.316607
O O2 0.761377 0.086871 0.325008
O O3 0.994245 0.090244 0.593162
O O4 0.000000 0.000000 0.500000
O O5 0.916546 0.456878 0.301149
O O6 0.987061 0.366650 0.414820
O O7 0.810193 0.367913 0.160089
O O8 0.391088 0.399944 0.084365
O O9 0.000000 0.500000 0.500000
O O10 0.163883 0.553725 0.427713
O O11 0.420036 0.805475 0.202665
O O12 0.995761 0.854789 0.899234
O O13 0.816744 0.774253 0.915383
O O14 0.054396 0.623780 0.248260
O O15 0.963649 0.680694 0.053588
O O16 0.574568 0.633849 0.598217
O O17 0.984245 0.691200 0.888828
#
# Coordination Sequence:
#
# PCOD9248582 Si02
#       8
#     4   4   4   4   4   4   4   4
#     4  11  22  40  62  85 127 167 205 244 305 360
#     4  11  23  42  62  91 129 161 206 251 310 364
#     4  12  24  39  63  92 128 169 204 253 303 366
#     4  10  22  43  65  87 122 160 203 262 305 371
#     4  10  23  41  62  95 123 162 208 254 304 373
#     4  10  24  42  61  92 126 162 206 258 302 371
#     4  11  24  40  62  95 128 159 212 251 305 367
#     4   9  22  43  65  87 123 159 204 259 317 355
#
# _framework density 21.289664999999999
#
# number of rings (size 3 to 8) (size 9 to 14) (size 15 to 20)
#    0.000    1.500    2.500    2.250    3.500    6.500 
#    0.000    5.000    0.000    0.000    0.000    0.000 
#    0.000    0.000    0.000    0.000    0.000    0.000 
#
# Total GULP energy -178955.919430 kJ/mol
# GULP energy per Si atom -5592.372482 kJ/mol
# Density = 2.124121 g / cm^3
# Si number density = 21.289665 Si / 1000 Ang^3
#
#
#
# Elastic Constant Matrix: (Units=GPa)
#
#
# Indices 1 2 3 4 5 6 
#
# 1 69.0477 11.9328 7.9626 0.0000 -23.9236 0.0000
# 2 11.9328 104.9449 23.7469 0.0000 -14.0918 0.0000
# 3 7.9626 23.7469 64.7375 0.0000 -28.8601 0.0000
# 4 0.0000 0.0000 0.0000 22.8202 0.0000 7.1212
# 5 -23.9236 -14.0918 -28.8601 0.0000 39.7256 0.0000
# 6 0.0000 0.0000 0.0000 7.1212 0.0000 20.9343
#
#
#
# Elastic Compliance Matrix: (Units=1/GPa)
#
#
# Indices 1 2 3 4 5 6 
#
# 1 0.019160 -0.001271 0.004515 0.000000 0.014367 0.000000
# 2 -0.001271 0.010525 -0.003522 0.000000 0.000410 0.000000
# 3 0.004515 -0.003522 0.024904 0.000000 0.019562 0.000000
# 4 0.000000 0.000000 0.000000 0.049025 0.000000 -0.016677
# 5 0.014367 0.000410 0.019562 0.000000 0.048182 0.000000
# 6 0.000000 0.000000 0.000000 -0.016677 0.000000 0.053441
#
#
# Mechanical properties :
#
#
# Convention : Reuss Voigt Hill
#
# Bulk Modulus (GPa) = 18.50724 36.22387 27.36555
# Shear Modulus (GPa) = 22.34088 29.70188 26.02138
#
# Velocity S-wave (km/s) = 3.24292 3.73920 3.49987
# Velocity P-wave (km/s) = 4.76802 5.97443 5.40499
#
# Compressibility (1/GPa) = 0.05403292
#
# Stress axis : x y z
#
# Youngs Moduli (GPa) = 52.19282 95.00952 40.15340
#
# Poissons Ratio (x) = 0.12075 -0.18127
# Poissons Ratio (y) = 0.06633 0.14142
# Poissons Ratio (z) = -0.23563 0.33462
#
# Static dielectric constant tensor:
#      x y z
#    x 1.770550 0.000000 0.025840 
#    y 0.000000 1.758110 0.000000 
#    z 0.025840 0.000000 1.773690 
# 
# From -- ./inp_files/11070.got.cif
#   From: 2010.05.17/outbox.cif.g08.bks.cpg/sg14_6_cif.got.tgz:11070.got - 2010.06.03 17:49:19.
