data_PCOD9248150
_publ_section_title
;
Structure prediction by ZEFSAII (Michael W. Deem and Ramdas Pophale) SiO2 
 PCOD9248150
Probable space group: P 21/C
;
_chemical_formula_sum "Si O2"
_cell_formula_units_Z 20
_cell_length_a 8.000522
_cell_length_b 9.071521
_cell_length_c 13.880127
_cell_angle_alpha 90.000000
_cell_angle_beta 48.513058
_cell_angle_gamma 90.000000
_cell_volume 754.632603
_symmetry_space_group_name_H-M "P 21/C"
_symmetry_group_IT_number 14
_symmetry_cell_setting 'monoclinic'
loop_
_space_group_symop_operation_xyz
x,y,z
-x,1/2+y,1/2-z
-x,-y,-z
x,1/2-y,1/2+z
loop_
_atom_site_type_symbol
_atom_site_label
_atom_site_fract_x
_atom_site_fract_y
_atom_site_fract_z
Si Si1 0.227453 0.589770 0.008536
Si Si2 0.550471 0.825521 0.997504
Si Si3 0.148100 0.873169 0.989450
Si Si4 0.456459 0.858472 0.706680
Si Si5 0.994913 0.952213 0.783983
O O1 0.068353 0.516985 0.147683
O O2 0.409605 0.695873 0.996771
O O3 0.079611 0.704065 0.003633
O O4 0.366125 0.480394 0.891120
O O5 0.806988 0.826268 0.865120
O O6 0.530925 0.787527 0.119365
O O7 0.500000 0.000000 0.000000
O O8 0.390915 0.867896 0.844193
O O9 0.099176 0.908887 0.120463
O O10 0.000000 0.000000 0.000000
O O11 0.218915 0.899253 0.750329
#
# Coordination Sequence:
#
# PCOD9248150 Si02
#       5
#     4   4   4   4   4
#     4  11  24  40  69  99 130 185 233 277 344 416
#     4  11  22  38  68  99 134 178 230 278 338 415
#     4  10  23  43  65  96 139 181 223 291 351 398
#     4  10  25  41  67  97 138 181 226 286 344 407
#     4  10  22  41  66  94 137 177 231 275 339 406
#
# _framework density 26.502965
#
# number of rings (size 3 to 8) (size 9 to 14) (size 15 to 20)
#    0.000    1.600    2.000    2.400   11.200    0.000 
#    0.000    0.000    0.000    4.800    0.000    0.000 
#    0.000    0.000    0.000    0.000    0.000    0.000 
#
# Total GULP energy -111588.493695 kJ/mol
# GULP energy per Si atom -5579.424685 kJ/mol
# Density = 2.644264 g / cm^3
# Si number density = 26.502965 Si / 1000 Ang^3
#
#
#
# Elastic Constant Matrix: (Units=GPa)
#
#
# Indices 1 2 3 4 5 6 
#
# 1 37.9530 24.8772 25.3766 0.0000 -5.6081 0.0000
# 2 24.8772 155.9697 91.1007 0.0000 13.5528 0.0000
# 3 25.3766 91.1007 280.1652 0.0000 31.0122 0.0000
# 4 0.0000 0.0000 0.0000 53.9754 0.0000 16.2556
# 5 -5.6081 13.5528 31.0122 0.0000 40.6359 0.0000
# 6 0.0000 0.0000 0.0000 16.2556 0.0000 22.8983
#
#
#
# Elastic Compliance Matrix: (Units=1/GPa)
#
#
# Indices 1 2 3 4 5 6 
#
# 1 0.031903 -0.004407 -0.002301 0.000000 0.007629 0.000000
# 2 -0.004407 0.008544 -0.002180 0.000000 -0.001794 0.000000
# 3 -0.002301 -0.002180 0.004851 0.000000 -0.003293 0.000000
# 4 0.000000 0.000000 0.000000 0.023565 0.000000 -0.016729
# 5 0.007629 -0.001794 -0.003293 0.000000 0.028773 0.000000
# 6 0.000000 0.000000 0.000000 -0.016729 0.000000 0.055547
#
#
# Mechanical properties :
#
#
# Convention : Reuss Voigt Hill
#
# Bulk Modulus (GPa) = 36.33650 84.08852 60.21251
# Shear Modulus (GPa) = 27.75696 45.68414 36.72055
#
# Velocity S-wave (km/s) = 3.23974 4.15630 3.72630
# Velocity P-wave (km/s) = 5.26637 7.40472 6.42513
#
# Compressibility (1/GPa) = 0.02752054
#
# Stress axis : x y z
#
# Youngs Moduli (GPa) = 31.34478 117.04195 206.13364
#
# Poissons Ratio (x) = 0.51586 0.47431
# Poissons Ratio (y) = 0.13815 0.44946
# Poissons Ratio (z) = 0.07212 0.25520
#
# Static dielectric constant tensor:
#      x y z
#    x 2.434920 0.000000 0.052620 
#    y 0.000000 2.061130 0.000000 
#    z 0.052620 0.000000 2.078730 
# 
# From -- ./inp_files/28229.got.cif
#   From: 2010.05.17/outbox.cif.g08.bks.cpg/sg14_15_cif.got.tgz:28229.got - 2010.06.03 17:49:19.
