data_PCOD9248216
_publ_section_title
;
Structure prediction by ZEFSAII (Michael W. Deem and Ramdas Pophale) SiO2 
 PCOD9248216
Probable space group: P 21/C
;
_chemical_formula_sum "Si O2"
_cell_formula_units_Z 20
_cell_length_a 10.429275
_cell_length_b 9.253429
_cell_length_c 9.850780
_cell_angle_alpha 90.000000
_cell_angle_beta 64.501892
_cell_angle_gamma 90.000000
_cell_volume 858.069617
_symmetry_space_group_name_H-M "P 21/C"
_symmetry_group_IT_number 14
_symmetry_cell_setting 'monoclinic'
loop_
_space_group_symop_operation_xyz
x,y,z
-x,1/2+y,1/2-z
-x,-y,-z
x,1/2-y,1/2+z
loop_
_atom_site_type_symbol
_atom_site_label
_atom_site_fract_x
_atom_site_fract_y
_atom_site_fract_z
Si Si1 0.962683 0.892178 0.137801
Si Si2 0.917860 0.075458 0.415395
Si Si3 0.628019 0.165881 0.445698
Si Si4 0.363297 0.188019 0.741614
Si Si5 0.577812 0.090135 0.161405
O O1 0.049532 0.745161 0.097594
O O2 0.800063 0.837019 0.207651
O O3 0.981931 0.991005 0.259139
O O4 0.000000 0.000000 0.000000
O O5 0.747493 0.072870 0.469711
O O6 0.000000 0.000000 0.500000
O O7 0.594209 0.580963 0.654331
O O8 0.643734 0.146493 0.276229
O O9 0.643739 0.328672 0.501560
O O10 0.416896 0.349921 0.740481
O O11 0.468040 0.135390 0.572716
#
# Coordination Sequence:
#
# PCOD9248216 Si02
#       5
#     4   4   4   4   4
#     4  12  27  48  72 109 149 194 246 299 369 442
#     4  12  28  46  74 103 150 195 241 302 369 435
#     4  10  24  43  71  97 138 180 234 295 353 413
#     4  10  24  43  73  97 139 181 237 293 353 423
#     4  10  22  41  70 100 134 175 237 290 355 418
#
# _framework density 23.308130999999999
#
# number of rings (size 3 to 8) (size 9 to 14) (size 15 to 20)
#    1.200    0.000    2.000    3.000    5.600    2.400 
#    0.000    0.000    0.000    0.000    0.000    0.000 
#    0.000    0.000    0.000    0.000    0.000    0.000 
#
# Total GULP energy -111591.781907 kJ/mol
# GULP energy per Si atom -5579.589095 kJ/mol
# Density = 2.325508 g / cm^3
# Si number density = 23.308131 Si / 1000 Ang^3
#
#
#
# Elastic Constant Matrix: (Units=GPa)
#
#
# Indices 1 2 3 4 5 6 
#
# 1 137.9657 24.5351 49.6434 0.0000 -7.7465 0.0000
# 2 24.5351 82.8860 8.7021 0.0000 -2.0702 0.0000
# 3 49.6434 8.7021 81.4762 0.0000 16.6054 0.0000
# 4 0.0000 0.0000 0.0000 31.4486 0.0000 -0.4435
# 5 -7.7465 -2.0702 16.6054 0.0000 35.8025 0.0000
# 6 0.0000 0.0000 0.0000 -0.4435 0.0000 40.6681
#
#
#
# Elastic Compliance Matrix: (Units=1/GPa)
#
#
# Indices 1 2 3 4 5 6 
#
# 1 0.010607 -0.002227 -0.007362 0.000000 0.005581 0.000000
# 2 -0.002227 0.012738 -0.000061 0.000000 0.000283 0.000000
# 3 -0.007362 -0.000061 0.018875 0.000000 -0.010351 0.000000
# 4 0.000000 0.000000 0.000000 0.031803 0.000000 0.000347
# 5 0.005581 0.000283 -0.010351 0.000000 0.033956 0.000000
# 6 0.000000 0.000000 0.000000 0.000347 0.000000 0.024593
#
#
# Mechanical properties :
#
#
# Convention : Reuss Voigt Hill
#
# Bulk Modulus (GPa) = 43.63253 52.00990 47.82121
# Shear Modulus (GPa) = 31.34562 36.21365 33.77963
#
# Velocity S-wave (km/s) = 3.67118 3.94597 3.81105
# Velocity P-wave (km/s) = 6.06058 6.56684 6.31878
#
# Compressibility (1/GPa) = 0.02291868
#
# Stress axis : x y z
#
# Youngs Moduli (GPa) = 94.27980 78.50803 52.97894
#
# Poissons Ratio (x) = 0.17487 0.39004
# Poissons Ratio (y) = 0.20999 0.00323
# Poissons Ratio (z) = 0.69411 0.00479
#
# Static dielectric constant tensor:
#      x y z
#    x 1.861610 0.000000 -0.050430 
#    y 0.000000 1.947080 0.000000 
#    z -0.050430 0.000000 1.845360 
# 
# From -- ./inp_files/27774.got.cif
#   From: 2010.05.17/outbox.cif.g08.bks.cpg/sg14_14_cif.got.tgz:27774.got - 2010.06.03 17:49:19.
