data_PCOD9248936
_publ_section_title
;
Structure prediction by ZEFSAII (Michael W. Deem and Ramdas Pophale) SiO2 
 PCOD9248936
Probable space group: P 21/C
;
_chemical_formula_sum "Si O2"
_cell_formula_units_Z 26
_cell_length_a 11.249054
_cell_length_b 8.066491
_cell_length_c 19.545655
_cell_angle_alpha 90.000000
_cell_angle_beta 144.589415
_cell_angle_gamma 90.000000
_cell_volume 1027.668806
_symmetry_space_group_name_H-M "P 21/C"
_symmetry_group_IT_number 14
_symmetry_cell_setting 'monoclinic'
loop_
_space_group_symop_operation_xyz
x,y,z
-x,1/2+y,1/2-z
-x,-y,-z
x,1/2-y,1/2+z
loop_
_atom_site_type_symbol
_atom_site_label
_atom_site_fract_x
_atom_site_fract_y
_atom_site_fract_z
Si Si1 0.505750 0.799585 0.940688
Si Si2 0.856171 0.081773 0.684854
Si Si3 0.000000 0.500000 0.500000
Si Si4 0.906988 0.695993 0.568979
Si Si5 0.713286 0.388249 0.801369
Si Si6 0.347356 0.239237 0.221502
Si Si7 0.238831 0.211116 0.818505
O O1 0.356709 0.678972 0.912822
O O2 0.374330 0.884163 0.818351
O O3 0.640580 0.883262 0.064452
O O4 0.692625 0.716349 0.984382
O O5 0.970753 0.149863 0.806081
O O6 0.021182 0.119624 0.702803
O O7 0.820817 0.889798 0.679160
O O8 0.862095 0.530016 0.505620
O O9 0.179000 0.400509 0.627541
O O10 0.073931 0.786251 0.598956
O O11 0.732695 0.576839 0.834004
O O12 0.552163 0.298692 0.775457
O O13 0.371802 0.250537 0.314553
#
# Coordination Sequence:
#
# PCOD9248936 Si02
#       7
#     4   4   2   4   4   4   4
#     4  10  23  46  75 102 145 198 245 315 383 438
#     4  10  23  45  69 104 150 187 254 311 372 453
#     4  12  22  46  70 104 140 194 240 310 366 454
#     4  10  22  44  74 100 149 193 249 309 376 446
#     4  11  26  48  73 109 151 197 255 321 376 460
#     4  12  27  47  76 109 152 198 253 313 385 449
#     4  11  25  45  73 107 147 197 246 314 379 457
#
# _framework density 25.299980000000001
#
# number of rings (size 3 to 8) (size 9 to 14) (size 15 to 20)
#    0.000    1.231    3.077    1.385    8.615    1.231 
#    8.308    0.000    0.000    0.000    0.000    0.000 
#    0.000    0.000    0.000    0.000    0.000    0.000 
#
# Total GULP energy -144820.010554 kJ/mol
# GULP energy per Si atom -5570.000406 kJ/mol
# Density = 2.524240 g / cm^3
# Si number density = 25.299980 Si / 1000 Ang^3
#
#
#
# Elastic Constant Matrix: (Units=GPa)
#
#
# Indices 1 2 3 4 5 6 
#
# 1 155.5339 18.3740 51.7428 0.0000 13.4061 0.0000
# 2 18.3740 55.5611 3.5256 0.0000 30.5238 0.0000
# 3 51.7428 3.5256 77.4253 0.0000 13.7255 0.0000
# 4 0.0000 0.0000 0.0000 22.2502 0.0000 7.7862
# 5 13.4061 30.5238 13.7255 0.0000 45.4370 0.0000
# 6 0.0000 0.0000 0.0000 7.7862 0.0000 38.2455
#
#
#
# Elastic Compliance Matrix: (Units=1/GPa)
#
#
# Indices 1 2 3 4 5 6 
#
# 1 0.008651 -0.003268 -0.005884 0.000000 0.001420 0.000000
# 2 -0.003268 0.030125 0.004468 0.000000 -0.020623 0.000000
# 3 -0.005884 0.004468 0.017823 0.000000 -0.006649 0.000000
# 4 0.000000 0.000000 0.000000 0.048391 0.000000 -0.009852
# 5 0.001420 -0.020623 -0.006649 0.000000 0.037452 0.000000
# 6 0.000000 0.000000 0.000000 -0.009852 0.000000 0.028153
#
#
# Mechanical properties :
#
#
# Convention : Reuss Voigt Hill
#
# Bulk Modulus (GPa) = 21.17243 48.42279 34.79761
# Shear Modulus (GPa) = 25.54851 35.51172 30.53011
#
# Velocity S-wave (km/s) = 3.18122 3.75056 3.47756
# Velocity P-wave (km/s) = 4.67763 6.15927 5.46886
#
# Compressibility (1/GPa) = 0.04723123
#
# Stress axis : x y z
#
# Youngs Moduli (GPa) = 115.59901 33.19499 56.10632
#
# Poissons Ratio (x) = 0.10847 0.33014
# Poissons Ratio (y) = 0.37773 -0.25068
# Poissons Ratio (z) = 0.68020 -0.14831
#
# Static dielectric constant tensor:
#      x y z
#    x 2.085420 0.000000 -0.030090 
#    y 0.000000 2.341960 0.000000 
#    z -0.030090 0.000000 2.026020 
# 
# From -- ./inp_files/66945.got.cif
#   From: 2010.05.17/outbox.cif.g08.bks.cpg/sg14_34_cif.got.tgz:66945.got - 2010.06.03 17:49:19.
