data_PCOD9248542
_publ_section_title
;
Structure prediction by ZEFSAII (Michael W. Deem and Ramdas Pophale) SiO2 
 PCOD9248542
Probable space group: P 21/C
;
_chemical_formula_sum "Si O2"
_cell_formula_units_Z 20
_cell_length_a 17.816239
_cell_length_b 8.941489
_cell_length_c 10.200095
_cell_angle_alpha 90.000000
_cell_angle_beta 149.128666
_cell_angle_gamma 90.000000
_cell_volume 833.762133
_symmetry_space_group_name_H-M "P 21/C"
_symmetry_group_IT_number 14
_symmetry_cell_setting 'monoclinic'
loop_
_space_group_symop_operation_xyz
x,y,z
-x,1/2+y,1/2-z
-x,-y,-z
x,1/2-y,1/2+z
loop_
_atom_site_type_symbol
_atom_site_label
_atom_site_fract_x
_atom_site_fract_y
_atom_site_fract_z
Si Si1 0.472259 0.167540 0.411058
Si Si2 0.647808 0.216081 0.409633
Si Si3 0.834128 0.473954 0.797938
Si Si4 0.835685 0.753761 0.456636
Si Si5 0.097429 0.547181 0.816460
O O1 0.543457 0.193924 0.376952
O O2 0.299752 0.192440 0.166319
O O3 0.500000 0.000000 0.500000
O O4 0.552588 0.275937 0.635683
O O5 0.736851 0.372187 0.559761
O O6 0.773610 0.089818 0.588659
O O7 0.778173 0.638034 0.754338
O O8 0.846399 0.392430 0.957291
O O9 0.000000 0.500000 0.000000
O O10 0.918856 0.872245 0.676641
O O11 0.946158 0.631349 0.566363
#
# Coordination Sequence:
#
# PCOD9248542 Si02
#       5
#     4   4   4   4   4
#     4  12  31  45  76 112 158 195 255 311 389 452
#     4  12  25  51  71 113 151 203 250 315 377 459
#     4  10  22  42  78 102 145 195 246 308 369 440
#     4  10  25  46  75 110 148 200 246 314 376 450
#     4  10  23  45  78 106 142 197 253 304 374 446
#
# _framework density 23.987658
#
# number of rings (size 3 to 8) (size 9 to 14) (size 15 to 20)
#    1.200    0.000    4.000    0.000   11.200    1.600 
#    0.000    2.000    0.000    0.000    0.000    0.000 
#    0.000    0.000    0.000    0.000    0.000    0.000 
#
# Total GULP energy -111840.061044 kJ/mol
# GULP energy per Si atom -5592.003052 kJ/mol
# Density = 2.393306 g / cm^3
# Si number density = 23.987658 Si / 1000 Ang^3
#
#
#
# Elastic Constant Matrix: (Units=GPa)
#
#
# Indices 1 2 3 4 5 6 
#
# 1 129.8661 -4.8073 24.4611 0.0000 25.2263 0.0000
# 2 -4.8073 82.4831 17.6586 0.0000 19.4759 0.0000
# 3 24.4611 17.6586 65.5572 0.0000 17.1402 0.0000
# 4 0.0000 0.0000 0.0000 27.4165 0.0000 4.0408
# 5 25.2263 19.4759 17.1402 0.0000 51.4553 0.0000
# 6 0.0000 0.0000 0.0000 4.0408 0.0000 32.1213
#
#
#
# Elastic Compliance Matrix: (Units=1/GPa)
#
#
# Indices 1 2 3 4 5 6 
#
# 1 0.009169 0.002179 -0.002867 0.000000 -0.004365 0.000000
# 2 0.002179 0.014211 -0.003237 0.000000 -0.005369 0.000000
# 3 -0.002867 -0.003237 0.018083 0.000000 -0.003393 0.000000
# 4 0.000000 0.000000 0.000000 0.037163 0.000000 -0.004675
# 5 -0.004365 -0.005369 -0.003393 0.000000 0.024736 0.000000
# 6 0.000000 0.000000 0.000000 -0.004675 0.000000 0.031720
#
#
# Mechanical properties :
#
#
# Convention : Reuss Voigt Hill
#
# Bulk Modulus (GPa) = 29.75123 39.17016 34.46069
# Shear Modulus (GPa) = 32.43864 38.23823 35.33843
#
# Velocity S-wave (km/s) = 3.68136 3.99692 3.84238
# Velocity P-wave (km/s) = 5.52264 6.13720 5.83801
#
# Compressibility (1/GPa) = 0.03361205
#
# Stress axis : x y z
#
# Youngs Moduli (GPa) = 109.06667 70.36598 55.30198
#
# Poissons Ratio (x) = -0.15331 0.15854
# Poissons Ratio (y) = -0.23762 0.17903
# Poissons Ratio (z) = 0.31267 0.22779
#
# Static dielectric constant tensor:
#      x y z
#    x 1.919260 0.000000 -0.057950 
#    y 0.000000 1.916350 0.000000 
#    z -0.057950 0.000000 1.978260 
# 
# From -- ./inp_files/33633.got.cif
#   From: 2010.05.17/outbox.cif.g08.bks.cpg/sg14_17_cif.got.tgz:33633.got - 2010.06.03 17:49:19.
