data_PCOD9248350
_publ_section_title
;
Structure prediction by ZEFSAII (Michael W. Deem and Ramdas Pophale) SiO2 
 PCOD9248350
Probable space group: P 21/C
;
_chemical_formula_sum "Si O2"
_cell_formula_units_Z 12
_cell_length_a 7.621364
_cell_length_b 8.022772
_cell_length_c 8.957188
_cell_angle_alpha 90.000000
_cell_angle_beta 125.515322
_cell_angle_gamma 90.000000
_cell_volume 445.791735
_symmetry_space_group_name_H-M "P 21/C"
_symmetry_group_IT_number 14
_symmetry_cell_setting 'monoclinic'
loop_
_space_group_symop_operation_xyz
x,y,z
-x,1/2+y,1/2-z
-x,-y,-z
x,1/2-y,1/2+z
loop_
_atom_site_type_symbol
_atom_site_label
_atom_site_fract_x
_atom_site_fract_y
_atom_site_fract_z
Si Si1 0.138330 0.531021 0.308249
Si Si2 0.676465 0.841963 0.557345
Si Si3 0.635382 0.233689 0.345584
O O1 0.223044 0.343653 0.360644
O O2 0.231328 0.626431 0.208552
O O3 0.220898 0.631911 0.494736
O O4 0.881276 0.538507 0.171269
O O5 0.557123 0.816790 0.342560
O O6 0.493359 0.865931 0.591068
#
# Coordination Sequence:
#
# PCOD9248350 Si02
#       3
#     4   4   4
#     4  11  25  43  66  98 131 169 217 267 324 386
#     4  11  25  43  66  98 131 169 217 267 324 386
#     4  10  22  42  66  92 128 168 214 266 314 376
#
# _framework density 26.918402
#
# number of rings (size 3 to 8) (size 9 to 14) (size 15 to 20)
#    0.000    1.333    0.000    6.000    0.000   16.000 
#    0.000   16.667    0.000    0.000    0.000    0.000 
#    0.000    0.000    0.000    0.000    0.000    0.000 
#
# Total GULP energy -67486.261939 kJ/mol
# GULP energy per Si atom -5623.855162 kJ/mol
# Density = 2.685713 g / cm^3
# Si number density = 26.918402 Si / 1000 Ang^3
#
#
#
# Elastic Constant Matrix: (Units=GPa)
#
#
# Indices 1 2 3 4 5 6 
#
# 1 149.8084 31.5866 105.1041 0.0000 41.8231 0.0000
# 2 31.5866 87.6321 24.1275 0.0000 2.3034 0.0000
# 3 105.1041 24.1275 210.7792 0.0000 10.9778 0.0000
# 4 0.0000 0.0000 0.0000 13.4932 0.0000 7.2096
# 5 41.8231 2.3034 10.9778 0.0000 55.4337 0.0000
# 6 0.0000 0.0000 0.0000 7.2096 0.0000 54.7531
#
#
#
# Elastic Compliance Matrix: (Units=1/GPa)
#
#
# Indices 1 2 3 4 5 6 
#
# 1 0.014467 -0.003216 -0.006350 0.000000 -0.009524 0.000000
# 2 -0.003216 0.012500 0.000074 0.000000 0.001892 0.000000
# 3 -0.006350 0.000074 0.007733 0.000000 0.003256 0.000000
# 4 0.000000 0.000000 0.000000 0.079720 0.000000 -0.010497
# 5 -0.009524 0.001892 0.003256 0.000000 0.024502 0.000000
# 6 0.000000 0.000000 0.000000 -0.010497 0.000000 0.019646
#
#
# Mechanical properties :
#
#
# Convention : Reuss Voigt Hill
#
# Bulk Modulus (GPa) = 63.62628 85.53954 74.58291
# Shear Modulus (GPa) = 27.35388 43.89613 35.62500
#
# Velocity S-wave (km/s) = 3.19121 4.04259 3.64186
# Velocity P-wave (km/s) = 6.10463 7.32368 6.74177
#
# Compressibility (1/GPa) = 0.01571678
#
# Stress axis : x y z
#
# Youngs Moduli (GPa) = 69.12254 79.99762 129.32423
#
# Poissons Ratio (x) = 0.25727 0.82118
# Poissons Ratio (y) = 0.22230 -0.00959
# Poissons Ratio (z) = 0.43891 -0.00594
#
# Static dielectric constant tensor:
#      x y z
#    x 2.044130 0.000000 -0.021310 
#    y 0.000000 2.226670 0.000000 
#    z -0.021310 0.000000 2.009810 
# 
# From -- ./inp_files/7101.got.cif
#   From: 2010.05.17/outbox.cif.g08.bks.cpg/sg14_4_cif.got.tgz:7101.got - 2010.06.03 17:49:19.
