data_PCOD9248386
_publ_section_title
;
Structure prediction by ZEFSAII (Michael W. Deem and Ramdas Pophale) SiO2 
 PCOD9248386
Probable space group: P 21/C
;
_chemical_formula_sum "Si O2"
_cell_formula_units_Z 24
_cell_length_a 8.534743
_cell_length_b 15.502947
_cell_length_c 9.282830
_cell_angle_alpha 90.000000
_cell_angle_beta 74.691672
_cell_angle_gamma 90.000000
_cell_volume 1184.665986
_symmetry_space_group_name_H-M "P 21/C"
_symmetry_group_IT_number 14
_symmetry_cell_setting 'monoclinic'
loop_
_space_group_symop_operation_xyz
x,y,z
-x,1/2+y,1/2-z
-x,-y,-z
x,1/2-y,1/2+z
loop_
_atom_site_type_symbol
_atom_site_label
_atom_site_fract_x
_atom_site_fract_y
_atom_site_fract_z
Si Si1 0.157690 0.178005 0.219431
Si Si2 0.649734 0.640718 0.834330
Si Si3 0.368680 0.740658 0.052331
Si Si4 0.853512 0.241997 0.646082
Si Si5 0.934389 0.589999 0.959227
Si Si6 0.422100 0.089471 0.972563
O O1 0.257880 0.267455 0.210098
O O2 0.118667 0.144849 0.387936
O O3 0.998036 0.197574 0.164035
O O4 0.262692 0.109354 0.105077
O O5 0.776868 0.584609 0.895716
O O6 0.611991 0.598259 0.689909
O O7 0.486955 0.666377 0.962671
O O8 0.310508 0.732944 0.230173
O O9 0.459684 0.831106 0.019026
O O10 0.201019 0.745541 0.005283
O O11 0.923276 0.145378 0.652755
O O12 0.000000 0.500000 0.000000
O O13 0.500000 0.000000 0.000000
#
# Coordination Sequence:
#
# PCOD9248386 Si02
#       6
#     4   4   4   4   4   4
#     4  10  22  42  67  92 129 174 214 263 324 391
#     4  10  22  44  66  91 128 175 216 262 321 392
#     4  11  22  40  69  96 130 169 220 260 316 399
#     4  11  22  41  67  99 126 170 222 259 315 396
#     4  11  25  41  65  97 134 169 214 273 331 379
#     4  11  25  42  64  98 133 170 214 273 329 379
#
# _framework density 20.258873999999999
#
# number of rings (size 3 to 8) (size 9 to 14) (size 15 to 20)
#    0.000    1.333    3.333    3.000    7.000    1.333 
#    0.000    3.333    0.000    0.000    0.000    0.000 
#    0.000    0.000    0.000    0.000    0.000    0.000 
#
# Total GULP energy -134060.077046 kJ/mol
# GULP energy per Si atom -5585.836544 kJ/mol
# Density = 2.021276 g / cm^3
# Si number density = 20.258874 Si / 1000 Ang^3
#
#
#
# Elastic Constant Matrix: (Units=GPa)
#
#
# Indices 1 2 3 4 5 6 
#
# 1 110.2952 46.3569 37.7596 0.0000 17.4379 0.0000
# 2 46.3569 71.2888 36.5501 0.0000 9.1093 0.0000
# 3 37.7596 36.5501 88.0986 0.0000 0.9316 0.0000
# 4 0.0000 0.0000 0.0000 18.3891 0.0000 8.6514
# 5 17.4379 9.1093 0.9316 0.0000 44.6068 0.0000
# 6 0.0000 0.0000 0.0000 8.6514 0.0000 22.6045
#
#
#
# Elastic Compliance Matrix: (Units=1/GPa)
#
#
# Indices 1 2 3 4 5 6 
#
# 1 0.013541 -0.006808 -0.002939 0.000000 -0.003842 0.000000
# 2 -0.006808 0.021799 -0.006108 0.000000 -0.001663 0.000000
# 3 -0.002939 -0.006108 0.015123 0.000000 0.002080 0.000000
# 4 0.000000 0.000000 0.000000 0.066322 0.000000 -0.025383
# 5 -0.003842 -0.001663 0.002080 0.000000 0.024216 0.000000
# 6 0.000000 0.000000 0.000000 -0.025383 0.000000 0.053954
#
#
# Mechanical properties :
#
#
# Convention : Reuss Voigt Hill
#
# Bulk Modulus (GPa) = 53.32559 56.77953 55.05256
# Shear Modulus (GPa) = 21.46699 27.05450 24.26074
#
# Velocity S-wave (km/s) = 3.25873 3.65833 3.46430
# Velocity P-wave (km/s) = 6.36697 6.77734 6.57536
#
# Compressibility (1/GPa) = 0.01875272
#
# Stress axis : x y z
#
# Youngs Moduli (GPa) = 73.84709 45.87449 66.12570
#
# Poissons Ratio (x) = 0.31231 0.19434
# Poissons Ratio (y) = 0.50274 0.40391
# Poissons Ratio (z) = 0.21703 0.28021
#
# Static dielectric constant tensor:
#      x y z
#    x 1.734440 0.000000 -0.021430 
#    y 0.000000 1.677260 0.000000 
#    z -0.021430 0.000000 1.705060 
# 
# From -- ./inp_files/8419.got.cif
#   From: 2010.05.17/outbox.cif.g08.bks.cpg/sg14_5_cif.got.tgz:8419.got - 2010.06.03 17:49:19.
