data_PCOD9248461
_publ_section_title
;
Structure prediction by ZEFSAII (Michael W. Deem and Ramdas Pophale) SiO2 
 PCOD9248461
Probable space group: P 21/C
;
_chemical_formula_sum "Si O2"
_cell_formula_units_Z 26
_cell_length_a 5.429177
_cell_length_b 11.413015
_cell_length_c 22.185956
_cell_angle_alpha 90.000000
_cell_angle_beta 52.761149
_cell_angle_gamma 90.000000
_cell_volume 1094.437448
_symmetry_space_group_name_H-M "P 21/C"
_symmetry_group_IT_number 14
_symmetry_cell_setting 'monoclinic'
loop_
_space_group_symop_operation_xyz
x,y,z
-x,1/2+y,1/2-z
-x,-y,-z
x,1/2-y,1/2+z
loop_
_atom_site_type_symbol
_atom_site_label
_atom_site_fract_x
_atom_site_fract_y
_atom_site_fract_z
Si Si1 0.799023 0.567692 0.980521
Si Si2 0.573725 0.731263 0.229436
Si Si3 0.975919 0.079056 0.803567
Si Si4 0.000000 0.500000 0.500000
Si Si5 0.417130 0.135805 0.140679
Si Si6 0.937737 0.656243 0.837088
Si Si7 0.358514 0.230471 0.908276
O O1 0.992782 0.597579 0.892351
O O2 0.500000 0.500000 0.000000
O O3 0.683603 0.686684 0.028762
O O4 0.000000 0.500000 0.000000
O O5 0.642895 0.657722 0.279110
O O6 0.681736 0.694386 0.147224
O O7 0.723642 0.861587 0.212840
O O8 0.209821 0.751851 0.284032
O O9 0.700843 0.173378 0.854781
O O10 0.054014 0.070747 0.721069
O O11 0.832629 0.958292 0.847307
O O12 0.743451 0.421372 0.576512
O O13 0.871730 0.621015 0.551431
O O14 0.368857 0.263368 0.118239
#
# Coordination Sequence:
#
# PCOD9248461 Si02
#       7
#     4   4   4   2   4   4   4
#     4  12  31  48  73 106 153 207 245 306 373 465
#     4  10  22  42  69  98 145 183 242 317 371 457
#     4   9  22  41  68 101 135 184 244 312 376 440
#     4  10  22  44  78 104 148 190 248 328 384 448
#     4  10  22  42  71 104 140 188 245 321 381 453
#     4  10  24  43  67 101 142 189 250 303 372 455
#     4  10  24  45  69 109 139 195 251 313 380 451
#
# _framework density 23.756498000000001
#
# number of rings (size 3 to 8) (size 9 to 14) (size 15 to 20)
#    0.000    1.846    0.000    0.923   10.769    7.385 
#    0.000    5.385    0.000    0.000    0.000    0.000 
#    0.000    0.000    0.000    0.000    0.000    0.000 
#
# Total GULP energy -144777.823777 kJ/mol
# GULP energy per Si atom -5568.377838 kJ/mol
# Density = 2.370243 g / cm^3
# Si number density = 23.756498 Si / 1000 Ang^3
#
#
#
# Elastic Constant Matrix: (Units=GPa)
#
#
# Indices 1 2 3 4 5 6 
#
# 1 47.7241 9.7270 15.6885 0.0000 6.3477 0.0000
# 2 9.7270 65.8905 34.6165 0.0000 -5.0590 0.0000
# 3 15.6885 34.6165 121.9285 0.0000 9.5003 0.0000
# 4 0.0000 0.0000 0.0000 23.8829 0.0000 -12.3449
# 5 6.3477 -5.0590 9.5003 0.0000 22.0708 0.0000
# 6 0.0000 0.0000 0.0000 -12.3449 0.0000 24.4427
#
#
#
# Elastic Compliance Matrix: (Units=1/GPa)
#
#
# Indices 1 2 3 4 5 6 
#
# 1 0.022979 -0.003080 -0.001565 0.000000 -0.006641 0.000000
# 2 -0.003080 0.019195 -0.005655 0.000000 0.007720 0.000000
# 3 -0.001565 -0.005655 0.010424 0.000000 -0.005333 0.000000
# 4 0.000000 0.000000 0.000000 0.056664 0.000000 0.028618
# 5 -0.006641 0.007720 -0.005333 0.000000 0.051284 0.000000
# 6 0.000000 0.000000 0.000000 0.028618 0.000000 0.055366
#
#
# Mechanical properties :
#
#
# Convention : Reuss Voigt Hill
#
# Bulk Modulus (GPa) = 31.25127 39.51190 35.38159
# Shear Modulus (GPa) = 20.22843 25.78002 23.00422
#
# Velocity S-wave (km/s) = 2.92120 3.29778 3.11518
# Velocity P-wave (km/s) = 4.95593 5.58288 5.27872
#
# Compressibility (1/GPa) = 0.03199870
#
# Stress axis : x y z
#
# Youngs Moduli (GPa) = 43.51737 52.09703 95.93394
#
# Poissons Ratio (x) = 0.16047 0.15011
# Poissons Ratio (y) = 0.13404 0.54249
# Poissons Ratio (z) = 0.06809 0.29460
#
# Static dielectric constant tensor:
#      x y z
#    x 2.006630 0.000000 0.036470 
#    y 0.000000 1.865850 0.000000 
#    z 0.036470 0.000000 1.872850 
# 
# From -- ./inp_files/63398.got.cif
#   From: 2010.05.17/outbox.cif.g08.bks.cpg/sg14_32_cif.got.tgz:63398.got - 2010.06.03 17:49:19.
