data_PCOD9248948
_publ_section_title
;
Structure prediction by ZEFSAII (Michael W. Deem and Ramdas Pophale) SiO2 
 PCOD9248948
Probable space group: P 21/C
;
_chemical_formula_sum "Si O2"
_cell_formula_units_Z 20
_cell_length_a 10.333483
_cell_length_b 12.436746
_cell_length_c 10.760923
_cell_angle_alpha 90.000000
_cell_angle_beta 30.308524
_cell_angle_gamma 90.000000
_cell_volume 697.908547
_symmetry_space_group_name_H-M "P 21/C"
_symmetry_group_IT_number 14
_symmetry_cell_setting 'monoclinic'
loop_
_space_group_symop_operation_xyz
x,y,z
-x,1/2+y,1/2-z
-x,-y,-z
x,1/2-y,1/2+z
loop_
_atom_site_type_symbol
_atom_site_label
_atom_site_fract_x
_atom_site_fract_y
_atom_site_fract_z
Si Si1 0.444531 0.948620 0.851131
Si Si2 0.154886 0.433995 0.209554
Si Si3 0.787356 0.177375 0.294789
Si Si4 0.198368 0.284881 0.829334
Si Si5 0.685372 0.334519 0.163630
O O1 0.495888 0.069962 0.851627
O O2 0.640426 0.940451 0.571584
O O3 0.984110 0.139351 0.441524
O O4 0.564244 0.860880 0.843049
O O5 0.856809 0.430778 0.416603
O O6 0.208344 0.328255 0.247046
O O7 0.187603 0.549983 0.249836
O O8 0.667898 0.185362 0.531043
O O9 0.061113 0.240335 0.069842
O O10 0.664674 0.234607 0.275102
#
# Coordination Sequence:
#
# PCOD9248948 Si02
#       5
#     4   4   4   4   4
#     4  11  25  48  76 112 158 207 265 333 406 478
#     4  11  25  48  76 112 158 207 265 333 406 478
#     4   9  21  44  75 109 155 204 264 326 398 476
#     4  10  22  44  76 110 150 212 256 334 384 494
#     4   9  21  44  75 109 155 204 264 326 398 476
#
# _framework density 28.657050999999999
#
# number of rings (size 3 to 8) (size 9 to 14) (size 15 to 20)
#    1.200    0.800    0.000    2.400    0.000    3.200 
#    0.000   28.000    0.000    0.000    0.000    0.000 
#    0.000    0.000    0.000    0.000    0.000    0.000 
#
# Total GULP energy -112066.985201 kJ/mol
# GULP energy per Si atom -5603.349260 kJ/mol
# Density = 2.859183 g / cm^3
# Si number density = 28.657051 Si / 1000 Ang^3
#
#
#
# Elastic Constant Matrix: (Units=GPa)
#
#
# Indices 1 2 3 4 5 6 
#
# 1 184.1968 128.3847 91.4897 0.0000 -22.5091 0.0000
# 2 128.3847 144.5510 88.8796 0.0000 -3.4798 0.0000
# 3 91.4897 88.8796 198.9161 0.0000 0.9150 0.0000
# 4 0.0000 0.0000 0.0000 45.6532 0.0000 -4.4516
# 5 -22.5091 -3.4798 0.9150 0.0000 56.3159 0.0000
# 6 0.0000 0.0000 0.0000 -4.4516 0.0000 66.9491
#
#
#
# Elastic Compliance Matrix: (Units=1/GPa)
#
#
# Indices 1 2 3 4 5 6 
#
# 1 0.016082 -0.013214 -0.001518 0.000000 0.005636 0.000000
# 2 -0.013214 0.020421 -0.003028 0.000000 -0.003971 0.000000
# 3 -0.001518 -0.003028 0.007083 0.000000 -0.000909 0.000000
# 4 0.000000 0.000000 0.000000 0.022047 0.000000 0.001466
# 5 0.005636 -0.003971 -0.000909 0.000000 0.019779 0.000000
# 6 0.000000 0.000000 0.000000 0.001466 0.000000 0.015034
#
#
# Mechanical properties :
#
#
# Convention : Reuss Voigt Hill
#
# Bulk Modulus (GPa) = 124.00990 127.24134 125.62562
# Shear Modulus (GPa) = 36.06020 48.37764 42.21892
#
# Velocity S-wave (km/s) = 3.55115 4.11318 3.84245
# Velocity P-wave (km/s) = 7.75770 8.18874 7.97613
#
# Compressibility (1/GPa) = 0.00806387
#
# Stress axis : x y z
#
# Youngs Moduli (GPa) = 62.18013 48.96925 141.18452
#
# Poissons Ratio (x) = 0.64710 0.21437
# Poissons Ratio (y) = 0.82167 0.42756
# Poissons Ratio (z) = 0.09441 0.14830
#
# Static dielectric constant tensor:
#      x y z
#    x 2.257640 0.000000 -0.048910 
#    y 0.000000 2.238020 0.000000 
#    z -0.048910 0.000000 2.397860 
# 
# From -- ./inp_files/44564.got.cif
#   From: 2010.05.17/outbox.cif.g08.bks.cpg/sg14_23_cif.got.tgz:44564.got - 2010.06.03 17:49:19.
