data_PCOD9248279
_publ_section_title
;
Structure prediction by ZEFSAII (Michael W. Deem and Ramdas Pophale) SiO2 
 PCOD9248279
Probable space group: P 21/C
;
_chemical_formula_sum "Si O2"
_cell_formula_units_Z 20
_cell_length_a 15.767375
_cell_length_b 7.273408
_cell_length_c 26.845039
_cell_angle_alpha 90.000000
_cell_angle_beta 15.772981
_cell_angle_gamma 90.000000
_cell_volume 836.860598
_symmetry_space_group_name_H-M "P 21/C"
_symmetry_group_IT_number 14
_symmetry_cell_setting 'monoclinic'
loop_
_space_group_symop_operation_xyz
x,y,z
-x,1/2+y,1/2-z
-x,-y,-z
x,1/2-y,1/2+z
loop_
_atom_site_type_symbol
_atom_site_label
_atom_site_fract_x
_atom_site_fract_y
_atom_site_fract_z
Si Si1 0.989391 0.990978 0.194361
Si Si2 0.337082 0.558624 0.217402
Si Si3 0.533431 0.369683 0.283090
Si Si4 0.616710 0.201759 0.484860
Si Si5 0.797212 0.747912 0.625648
O O1 0.945927 0.062528 0.162630
O O2 0.730916 0.823801 0.340940
O O3 0.301005 0.896550 0.037775
O O4 0.857328 0.144088 0.306115
O O5 0.442049 0.750388 0.180884
O O6 0.258396 0.423953 0.307436
O O7 0.607496 0.455986 0.032808
O O8 0.272176 0.305959 0.392071
O O9 0.570759 0.586239 0.269439
O O10 0.849475 0.317891 0.072880
#
# Coordination Sequence:
#
# PCOD9248279 Si02
#       5
#     4   4   4   4   4
#     4   9  21  42  62  92 124 160 205 269 309 380
#     4  10  22  42  63  87 131 164 211 250 313 371
#     4  11  24  41  61  94 130 164 215 255 309 367
#     4   9  21  42  62  91 124 161 207 262 319 364
#     4  11  24  39  64  91 128 172 205 261 306 369
#
# _framework density 23.898842999999999
#
# number of rings (size 3 to 8) (size 9 to 14) (size 15 to 20)
#    1.200    0.800    2.000    0.600    2.800    0.800 
#   10.800    0.000    0.000    0.000    0.000    0.000 
#    0.000    0.000    0.000    0.000    0.000    0.000 
#
# Total GULP energy -111793.107469 kJ/mol
# GULP energy per Si atom -5589.655373 kJ/mol
# Density = 2.384445 g / cm^3
# Si number density = 23.898843 Si / 1000 Ang^3
#
#
#
# Elastic Constant Matrix: (Units=GPa)
#
#
# Indices 1 2 3 4 5 6 
#
# 1 121.6384 30.1531 8.8892 0.0000 3.7019 0.0000
# 2 30.1531 88.4303 4.8724 0.0000 -9.2198 0.0000
# 3 8.8892 4.8724 27.2994 0.0000 -9.1644 0.0000
# 4 0.0000 0.0000 0.0000 27.0112 0.0000 -4.2053
# 5 3.7019 -9.2198 -9.1644 0.0000 36.8576 0.0000
# 6 0.0000 0.0000 0.0000 -4.2053 0.0000 46.3225
#
#
#
# Elastic Compliance Matrix: (Units=1/GPa)
#
#
# Indices 1 2 3 4 5 6 
#
# 1 0.009355 -0.003276 -0.003330 0.000000 -0.002587 0.000000
# 2 -0.003276 0.012794 -0.000035 0.000000 0.003521 0.000000
# 3 -0.003330 -0.000035 0.041276 0.000000 0.010589 0.000000
# 4 0.000000 0.000000 0.000000 0.037552 0.000000 0.003409
# 5 -0.002587 0.003521 0.010589 0.000000 0.030905 0.000000
# 6 0.000000 0.000000 0.000000 0.003409 0.000000 0.021897
#
#
# Mechanical properties :
#
#
# Convention : Reuss Voigt Hill
#
# Bulk Modulus (GPa) = 19.94268 36.13306 28.03787
# Shear Modulus (GPa) = 27.20685 34.93515 31.07100
#
# Velocity S-wave (km/s) = 3.37770 3.82749 3.60961
# Velocity P-wave (km/s) = 4.85537 5.88939 5.39720
#
# Compressibility (1/GPa) = 0.05014370
#
# Stress axis : x y z
#
# Youngs Moduli (GPa) = 106.89078 78.15862 24.22712
#
# Poissons Ratio (x) = 0.25607 0.08068
# Poissons Ratio (y) = 0.35020 0.00084
# Poissons Ratio (z) = 0.35595 0.00272
#
# Static dielectric constant tensor:
#      x y z
#    x 1.864270 0.000000 0.035920 
#    y 0.000000 1.835290 0.000000 
#    z 0.035920 0.000000 2.041890 
# 
# From -- ./inp_files/77479.got.cif
#   From: 2010.05.17/outbox.cif.g08.bks.cpg/sg14_39_cif.got.tgz:77479.got - 2010.06.03 17:49:19.
