data_PCOD9248080
_publ_section_title
;
Structure prediction by ZEFSAII (Michael W. Deem and Ramdas Pophale) SiO2 
 PCOD9248080
Probable space group: P 21/C
;
_chemical_formula_sum "Si O2"
_cell_formula_units_Z 22
_cell_length_a 19.941823
_cell_length_b 4.753638
_cell_length_c 10.552305
_cell_angle_alpha 90.000000
_cell_angle_beta 52.766274
_cell_angle_gamma 90.000000
_cell_volume 796.427473
_symmetry_space_group_name_H-M "P 21/C"
_symmetry_group_IT_number 14
_symmetry_cell_setting 'monoclinic'
loop_
_space_group_symop_operation_xyz
x,y,z
-x,1/2+y,1/2-z
-x,-y,-z
x,1/2-y,1/2+z
loop_
_atom_site_type_symbol
_atom_site_label
_atom_site_fract_x
_atom_site_fract_y
_atom_site_fract_z
Si Si1 0.288103 0.562097 0.701374
Si Si2 0.000000 0.000000 0.000000
Si Si3 0.180032 0.077646 0.901708
Si Si4 0.950140 0.455179 0.254414
Si Si5 0.571604 0.295815 0.794600
Si Si6 0.611289 0.707261 0.092173
O O1 0.228826 0.832604 0.772982
O O2 0.376797 0.688659 0.646440
O O3 0.309744 0.357444 0.560484
O O4 0.239610 0.345473 0.849435
O O5 0.045555 0.733068 0.872393
O O6 0.905962 0.856580 0.073608
O O7 0.141618 0.986600 0.081588
O O8 0.002110 0.261280 0.302976
O O9 0.471970 0.256387 0.900095
O O10 0.588995 0.618718 0.744246
O O11 0.613108 0.113996 0.632644
#
# Coordination Sequence:
#
# PCOD9248080 Si02
#       6
#     4   2   4   4   4   4
#     4  12  24  41  63  97 131 163 207 266 318 367
#     4  10  24  46  66  86 126 172 208 262 316 372
#     4  11  25  40  64  94 125 166 215 260 318 374
#     4  10  22  42  65  91 120 160 213 259 312 377
#     4  10  22  41  64  92 130 167 211 258 302 377
#     4  10  22  41  66  94 125 172 210 246 318 380
#
# _framework density 27.623356999999999
#
# number of rings (size 3 to 8) (size 9 to 14) (size 15 to 20)
#    0.000    1.455    0.000    4.909    0.000   10.909 
#    0.000   10.909    0.000    0.000    0.000    0.000 
#    0.000    0.000    0.000    0.000    0.000    0.000 
#
# Total GULP energy -122905.007867 kJ/mol
# GULP energy per Si atom -5586.591267 kJ/mol
# Density = 2.756048 g / cm^3
# Si number density = 27.623357 Si / 1000 Ang^3
#
#
#
# Elastic Constant Matrix: (Units=GPa)
#
#
# Indices 1 2 3 4 5 6 
#
# 1 76.0637 13.6322 -0.6518 0.0000 -11.2843 0.0000
# 2 13.6322 150.0753 43.9593 0.0000 -6.6286 0.0000
# 3 -0.6518 43.9593 84.2784 0.0000 12.4011 0.0000
# 4 0.0000 0.0000 0.0000 64.5736 0.0000 -10.9583
# 5 -11.2843 -6.6286 12.4011 0.0000 27.0936 0.0000
# 6 0.0000 0.0000 0.0000 -10.9583 0.0000 20.2211
#
#
#
# Elastic Compliance Matrix: (Units=1/GPa)
#
#
# Indices 1 2 3 4 5 6 
#
# 1 0.014174 -0.000963 -0.000238 0.000000 0.005777 0.000000
# 2 -0.000963 0.008374 -0.004951 0.000000 0.003914 0.000000
# 3 -0.000238 -0.004951 0.015696 0.000000 -0.008495 0.000000
# 4 0.000000 0.000000 0.000000 0.017055 0.000000 0.009242
# 5 0.005777 0.003914 -0.008495 0.000000 0.044161 0.000000
# 6 0.000000 0.000000 0.000000 0.009242 0.000000 0.054462
#
#
# Mechanical properties :
#
#
# Convention : Reuss Voigt Hill
#
# Bulk Modulus (GPa) = 38.55024 47.14408 42.84716
# Shear Modulus (GPa) = 28.59218 39.27617 33.93418
#
# Velocity S-wave (km/s) = 3.22074 3.77483 3.50874
# Velocity P-wave (km/s) = 5.27417 6.00857 5.65331
#
# Compressibility (1/GPa) = 0.02594018
#
# Stress axis : x y z
#
# Youngs Moduli (GPa) = 70.54971 119.41855 63.71008
#
# Poissons Ratio (x) = 0.11495 0.01519
# Poissons Ratio (y) = 0.06791 0.31544
# Poissons Ratio (z) = 0.01682 0.59126
#
# Static dielectric constant tensor:
#      x y z
#    x 2.108090 0.000000 0.117150 
#    y 0.000000 2.052680 0.000000 
#    z 0.117150 0.000000 2.167650 
# 
# From -- ./inp_files/49385.got.cif
#   From: 2010.05.17/outbox.cif.g08.bks.cpg/sg14_25_cif.got.tgz:49385.got - 2010.06.03 17:49:19.
