data_PCOD9248114
_publ_section_title
;
Structure prediction by ZEFSAII (Michael W. Deem and Ramdas Pophale) SiO2 
 PCOD9248114
Probable space group: P 21/C
;
_chemical_formula_sum "Si O2"
_cell_formula_units_Z 24
_cell_length_a 9.225009
_cell_length_b 9.526854
_cell_length_c 13.367546
_cell_angle_alpha 90.000000
_cell_angle_beta 68.493700
_cell_angle_gamma 90.000000
_cell_volume 1093.017421
_symmetry_space_group_name_H-M "P 21/C"
_symmetry_group_IT_number 14
_symmetry_cell_setting 'monoclinic'
loop_
_space_group_symop_operation_xyz
x,y,z
-x,1/2+y,1/2-z
-x,-y,-z
x,1/2-y,1/2+z
loop_
_atom_site_type_symbol
_atom_site_label
_atom_site_fract_x
_atom_site_fract_y
_atom_site_fract_z
Si Si1 0.523222 0.294666 0.908735
Si Si2 0.019218 0.437286 0.323771
Si Si3 0.311330 0.428320 0.122242
Si Si4 0.179878 0.613628 0.454520
Si Si5 0.689236 0.995853 0.894218
Si Si6 0.503091 0.269843 0.683496
O O1 0.658811 0.407351 0.900817
O O2 0.593632 0.140791 0.910049
O O3 0.484214 0.302957 0.803035
O O4 0.374128 0.343887 0.010644
O O5 0.145100 0.390450 0.210994
O O6 0.101106 0.554142 0.374416
O O7 0.946181 0.337314 0.430080
O O8 0.863949 0.489548 0.307102
O O9 0.434593 0.381655 0.176243
O O10 0.266486 0.489267 0.497788
O O11 0.316142 0.718563 0.391024
O O12 0.596013 0.878110 0.859063
#
# Coordination Sequence:
#
# PCOD9248114 Si02
#       6
#     4   4   4   4   4   4
#     4  11  24  38  59  91 131 163 203 256 325 377
#     4   9  20  39  64  94 122 157 209 268 311 360
#     4  11  23  39  58  91 130 161 200 262 321 367
#     4   9  19  40  66  94 115 161 219 265 295 375
#     4  10  22  41  65  93 118 166 214 264 308 373
#     4  12  22  40  68  89 119 169 223 252 305 387
#
# _framework density 21.957564999999999
#
# number of rings (size 3 to 8) (size 9 to 14) (size 15 to 20)
#    1.000    0.667    3.333    1.500    0.000    1.333 
#    0.000    0.833    0.000    0.000    0.000    0.000 
#    0.000    0.000    0.000    0.000    0.000    0.000 
#
# Total GULP energy -133725.516331 kJ/mol
# GULP energy per Si atom -5571.896514 kJ/mol
# Density = 2.190759 g / cm^3
# Si number density = 21.957565 Si / 1000 Ang^3
#
#
#
# Elastic Constant Matrix: (Units=GPa)
#
#
# Indices 1 2 3 4 5 6 
#
# 1 92.3382 15.2542 45.2750 0.0000 -27.4391 0.0000
# 2 15.2542 66.9529 14.4142 0.0000 8.7547 0.0000
# 3 45.2750 14.4142 157.3024 0.0000 -27.6536 0.0000
# 4 0.0000 0.0000 0.0000 4.5214 0.0000 -1.7796
# 5 -27.4391 8.7547 -27.6536 0.0000 54.0835 0.0000
# 6 0.0000 0.0000 0.0000 -1.7796 0.0000 14.5273
#
#
#
# Elastic Compliance Matrix: (Units=1/GPa)
#
#
# Indices 1 2 3 4 5 6 
#
# 1 0.014760 -0.003646 -0.002740 0.000000 0.006677 0.000000
# 2 -0.003646 0.016763 -0.001416 0.000000 -0.005287 0.000000
# 3 -0.002740 -0.001416 0.007770 0.000000 0.002812 0.000000
# 4 0.000000 0.000000 0.000000 0.232374 0.000000 0.028466
# 5 0.006677 -0.005287 0.002812 0.000000 0.024171 0.000000
# 6 0.000000 0.000000 0.000000 0.028466 0.000000 0.072323
#
#
# Mechanical properties :
#
#
# Convention : Reuss Voigt Hill
#
# Bulk Modulus (GPa) = 42.21561 51.83113 47.02337
# Shear Modulus (GPa) = 12.76612 30.73644 21.75128
#
# Velocity S-wave (km/s) = 2.41384 3.74546 3.15080
# Velocity P-wave (km/s) = 5.19967 6.50854 5.89057
#
# Compressibility (1/GPa) = 0.02368792
#
# Stress axis : x y z
#
# Youngs Moduli (GPa) = 67.75103 59.65592 128.70054
#
# Poissons Ratio (x) = 0.21751 0.35267
# Poissons Ratio (y) = 0.24702 0.18226
# Poissons Ratio (z) = 0.18565 0.08448
#
# Static dielectric constant tensor:
#      x y z
#    x 1.822780 0.000000 -0.036630 
#    y 0.000000 1.822780 0.000000 
#    z -0.036630 0.000000 1.871100 
# 
# From -- ./inp_files/39563.got.cif
#   From: 2010.05.17/outbox.cif.g08.bks.cpg/sg14_20_cif.got.tgz:39563.got - 2010.06.03 17:49:19.
