data_PCOD9248924
_publ_section_title
;
Structure prediction by ZEFSAII (Michael W. Deem and Ramdas Pophale) SiO2 
 PCOD9248924
Probable space group: P 21/C
;
_chemical_formula_sum "Si O2"
_cell_formula_units_Z 20
_cell_length_a 23.556681
_cell_length_b 4.820464
_cell_length_c 9.550598
_cell_angle_alpha 90.000000
_cell_angle_beta 140.166302
_cell_angle_gamma 90.000000
_cell_volume 694.695214
_symmetry_space_group_name_H-M "P 21/C"
_symmetry_group_IT_number 14
_symmetry_cell_setting 'monoclinic'
loop_
_space_group_symop_operation_xyz
x,y,z
-x,1/2+y,1/2-z
-x,-y,-z
x,1/2-y,1/2+z
loop_
_atom_site_type_symbol
_atom_site_label
_atom_site_fract_x
_atom_site_fract_y
_atom_site_fract_z
Si Si1 0.466136 0.506434 0.158014
Si Si2 0.966136 0.006434 0.158014
Si Si3 0.688725 0.320428 0.754828
Si Si4 0.500000 0.500000 0.500000
Si Si5 0.188725 0.679572 0.254828
Si Si6 0.000000 0.500000 0.000000
O O1 0.518537 0.246999 0.173090
O O2 0.478352 0.270263 0.313723
O O3 0.366152 0.564216 0.920463
O O4 0.978352 0.770263 0.313723
O O5 0.981463 0.246999 0.326909
O O6 0.866152 0.064216 0.920463
O O7 0.607917 0.501312 0.655642
O O8 0.750000 0.445033 0.750001
O O9 0.750000 0.249999 0.000000
O O10 0.107917 0.498688 0.155642
#
# Coordination Sequence:
#
# PCOD9248924 Si02
#       6
#     4   4   4   2   4   2
#     4  10  23  44  72 108 151 202 254 322 391 463
#     4  10  23  44  72 108 151 202 254 322 391 463
#     4  11  22  44  74 111 154 205 265 322 399 475
#     4  10  22  44  72 106 154 200 252 324 386 464
#     4  11  22  44  74 111 154 205 265 322 399 475
#     4  10  22  44  72 106 154 200 252 324 386 464
#
# _framework density 28.7896
#
# number of rings (size 3 to 8) (size 9 to 14) (size 15 to 20)
#    0.000    1.600    4.000    0.000    0.000    6.400 
#    0.000   16.000    0.000    0.000    0.000    0.000 
#    0.000    0.000    0.000    0.000    0.000    0.000 
#
# Total GULP energy -111589.872813 kJ/mol
# GULP energy per Si atom -5579.493641 kJ/mol
# Density = 2.872407 g / cm^3
# Si number density = 28.789600 Si / 1000 Ang^3
#
#
#
# Elastic Constant Matrix: (Units=GPa)
#
#
# Indices 1 2 3 4 5 6 
#
# 1 356.3946 58.2091 89.6882 0.0000 -5.5864 0.0000
# 2 58.2091 284.8181 65.3210 0.0000 9.3837 0.0000
# 3 89.6882 65.3210 297.1522 0.0000 -11.6867 0.0000
# 4 0.0000 0.0000 0.0000 43.7507 0.0000 7.4720
# 5 -5.5864 9.3837 -11.6867 0.0000 88.0633 0.0000
# 6 0.0000 0.0000 0.0000 7.4720 0.0000 61.1550
#
#
#
# Elastic Compliance Matrix: (Units=1/GPa)
#
#
# Indices 1 2 3 4 5 6 
#
# 1 0.003089 -0.000446 -0.000829 0.000000 0.000133 0.000000
# 2 -0.000446 0.003784 -0.000718 0.000000 -0.000527 0.000000
# 3 -0.000829 -0.000718 0.003794 0.000000 0.000527 0.000000
# 4 0.000000 0.000000 0.000000 0.023344 0.000000 -0.002852
# 5 0.000133 -0.000527 0.000527 0.000000 0.011490 0.000000
# 6 0.000000 0.000000 0.000000 -0.002852 0.000000 0.016700
#
#
# Mechanical properties :
#
#
# Convention : Reuss Voigt Hill
#
# Bulk Modulus (GPa) = 149.65916 151.64458 150.65187
# Shear Modulus (GPa) = 73.08318 86.93692 80.01005
#
# Velocity S-wave (km/s) = 5.04385 5.50117 5.27746
# Velocity P-wave (km/s) = 9.27454 9.65082 9.46455
#
# Compressibility (1/GPa) = 0.00668185
#
# Stress axis : x y z
#
# Youngs Moduli (GPa) = 323.68332 264.26224 263.56270
#
# Poissons Ratio (x) = 0.11776 0.21856
# Poissons Ratio (y) = 0.14424 0.18925
# Poissons Ratio (z) = 0.26842 0.18976
#
# Static dielectric constant tensor:
#      x y z
#    x 2.247560 0.000000 -0.286770 
#    y 0.000000 2.310300 0.000000 
#    z -0.286770 0.000000 2.173060 
# 
# From -- ./inp_files/31004.got.cif
#   From: 2010.05.17/outbox.cif.g08.bks.cpg/sg14_16_cif.got.tgz:31004.got - 2010.06.03 17:49:19.
