data_PCOD9248280
_publ_section_title
;
Structure prediction by ZEFSAII (Michael W. Deem and Ramdas Pophale) SiO2 
 PCOD9248280
Probable space group: P 21/C
;
_chemical_formula_sum "Si O2"
_cell_formula_units_Z 24
_cell_length_a 24.495490
_cell_length_b 5.014246
_cell_length_c 15.118266
_cell_angle_alpha 90.000000
_cell_angle_beta 148.706979
_cell_angle_gamma 90.000000
_cell_volume 964.513392
_symmetry_space_group_name_H-M "P 21/C"
_symmetry_group_IT_number 14
_symmetry_cell_setting 'monoclinic'
loop_
_space_group_symop_operation_xyz
x,y,z
-x,1/2+y,1/2-z
-x,-y,-z
x,1/2-y,1/2+z
loop_
_atom_site_type_symbol
_atom_site_label
_atom_site_fract_x
_atom_site_fract_y
_atom_site_fract_z
Si Si1 0.662649 0.259469 0.941293
Si Si2 0.035383 0.928748 0.252683
Si Si3 0.264801 0.832087 0.770586
Si Si4 0.439386 0.751562 0.377391
Si Si5 0.124714 0.325589 0.610664
Si Si6 0.202034 0.238464 0.900990
O O1 0.569968 0.237304 0.741724
O O2 0.655129 0.175629 0.033794
O O3 0.702918 0.563499 0.993417
O O4 0.751823 0.055135 0.027276
O O5 0.043295 0.658006 0.319312
O O6 0.140547 0.103314 0.391305
O O7 0.984811 0.826456 0.091408
O O8 0.325302 0.759640 0.765488
O O9 0.177385 0.614875 0.675477
O O10 0.207820 0.115443 0.685657
O O11 0.500000 0.500000 0.500000
O O12 0.500000 0.000000 0.500000
O O13 0.120427 0.240200 0.706568
#
# Coordination Sequence:
#
# PCOD9248280 Si02
#       6
#     4   4   4   4   4   4
#     4  10  23  42  67  92 125 170 212 260 320 382
#     4  12  25  36  59 100 130 168 216 264 315 368
#     4  10  23  42  67  92 125 170 212 260 320 382
#     4  12  26  42  66  98 126 162 206 268 332 388
#     4  10  22  42  63  89 127 173 213 258 311 371
#     4  10  22  42  63  89 127 173 213 258 311 371
#
# _framework density 24.883012000000001
#
# number of rings (size 3 to 8) (size 9 to 14) (size 15 to 20)
#    0.000    1.333    0.000    4.500    7.000    1.333 
#    0.000    6.667    0.000    0.000    0.000    0.000 
#    0.000    0.000    0.000    0.000    0.000    0.000 
#
# Total GULP energy -134305.773731 kJ/mol
# GULP energy per Si atom -5596.073905 kJ/mol
# Density = 2.482638 g / cm^3
# Si number density = 24.883012 Si / 1000 Ang^3
#
#
#
# Elastic Constant Matrix: (Units=GPa)
#
#
# Indices 1 2 3 4 5 6 
#
# 1 33.4371 2.8862 15.6657 0.0000 -9.1716 0.0000
# 2 2.8862 131.4951 20.5598 0.0000 -12.0651 0.0000
# 3 15.6657 20.5598 100.1212 0.0000 -47.7885 0.0000
# 4 0.0000 0.0000 0.0000 32.6615 0.0000 4.6681
# 5 -9.1716 -12.0651 -47.7885 0.0000 36.5627 0.0000
# 6 0.0000 0.0000 0.0000 4.6681 0.0000 32.8971
#
#
#
# Elastic Compliance Matrix: (Units=1/GPa)
#
#
# Indices 1 2 3 4 5 6 
#
# 1 0.032495 0.000156 -0.003193 0.000000 0.004029 0.000000
# 2 0.000156 0.007881 -0.001018 0.000000 0.001310 0.000000
# 3 -0.003193 -0.001018 0.026995 0.000000 0.034146 0.000000
# 4 0.000000 0.000000 0.000000 0.031251 0.000000 -0.004434
# 5 0.004029 0.001310 0.034146 0.000000 0.073423 0.000000
# 6 0.000000 0.000000 0.000000 -0.004434 0.000000 0.031027
#
#
# Mechanical properties :
#
#
# Convention : Reuss Voigt Hill
#
# Bulk Modulus (GPa) = 16.87500 38.14187 27.50843
# Shear Modulus (GPa) = 21.65115 35.48703 28.56909
#
# Velocity S-wave (km/s) = 2.95298 3.78054 3.39209
# Velocity P-wave (km/s) = 4.29223 5.86672 5.14012
#
# Compressibility (1/GPa) = 0.05925926
#
# Stress axis : x y z
#
# Youngs Moduli (GPa) = 30.77428 126.89246 37.04439
#
# Poissons Ratio (x) = -0.01976 0.11830
# Poissons Ratio (y) = -0.00479 0.03770
# Poissons Ratio (z) = 0.09828 0.12913
#
# Static dielectric constant tensor:
#      x y z
#    x 2.072700 0.000000 -0.034730 
#    y 0.000000 1.893240 0.000000 
#    z -0.034730 0.000000 2.038740 
# 
# From -- ./inp_files/51698.got.cif
#   From: 2010.05.17/outbox.cif.g08.bks.cpg/sg14_26_cif.got.tgz:51698.got - 2010.06.03 17:49:19.
