data_PCOD9248235
_publ_section_title
;
Structure prediction by ZEFSAII (Michael W. Deem and Ramdas Pophale) SiO2 
 PCOD9248235
Probable space group: P 21/C
;
_chemical_formula_sum "Si O2"
_cell_formula_units_Z 20
_cell_length_a 6.925303
_cell_length_b 8.227373
_cell_length_c 22.997815
_cell_angle_alpha 90.000000
_cell_angle_beta 143.907055
_cell_angle_gamma 90.000000
_cell_volume 771.921705
_symmetry_space_group_name_H-M "P 21/C"
_symmetry_group_IT_number 14
_symmetry_cell_setting 'monoclinic'
loop_
_space_group_symop_operation_xyz
x,y,z
-x,1/2+y,1/2-z
-x,-y,-z
x,1/2-y,1/2+z
loop_
_atom_site_type_symbol
_atom_site_label
_atom_site_fract_x
_atom_site_fract_y
_atom_site_fract_z
Si Si1 0.040402 0.649115 0.465509
Si Si2 0.875873 0.323943 0.906822
Si Si3 0.197291 0.170626 0.877163
Si Si4 0.844395 0.013690 0.617707
Si Si5 0.140997 0.160159 0.207284
O O1 0.989938 0.804255 0.495867
O O2 0.415601 0.646619 0.533945
O O3 0.000000 0.500000 0.500000
O O4 0.824655 0.646755 0.355190
O O5 0.492519 0.287667 0.816601
O O6 0.078793 0.200625 0.914814
O O7 0.902209 0.484913 0.873670
O O8 0.120887 0.352349 0.834508
O O9 0.004195 0.013193 0.809195
O O10 0.898036 0.187787 0.658186
O O11 0.500000 0.000000 0.500000
#
# Coordination Sequence:
#
# PCOD9248235 Si02
#       5
#     4   4   4   4   4
#     4  12  24  43  76 101 134 193 233 274 364 418
#     4  10  25  45  66 106 137 179 240 275 353 418
#     4  10  24  46  67 101 143 175 229 294 339 415
#     4  10  22  41  71  94 136 181 224 286 351 396
#     4  12  22  47  73  95 147 181 222 305 341 411
#
# _framework density 25.909364
#
# number of rings (size 3 to 8) (size 9 to 14) (size 15 to 20)
#    1.200    0.000    4.000    1.800    2.800    0.800 
#    7.200    0.000    0.000    0.000    0.000    0.000 
#    0.000    0.000    0.000    0.000    0.000    0.000 
#
# Total GULP energy -111745.441851 kJ/mol
# GULP energy per Si atom -5587.272093 kJ/mol
# Density = 2.585039 g / cm^3
# Si number density = 25.909364 Si / 1000 Ang^3
#
#
#
# Elastic Constant Matrix: (Units=GPa)
#
#
# Indices 1 2 3 4 5 6 
#
# 1 110.2572 27.9105 27.8544 0.0000 1.0831 0.0000
# 2 27.9105 190.9913 19.3898 0.0000 -7.2199 0.0000
# 3 27.8544 19.3898 67.9910 0.0000 -16.6907 0.0000
# 4 0.0000 0.0000 0.0000 32.8377 0.0000 -3.4737
# 5 1.0831 -7.2199 -16.6907 0.0000 40.6639 0.0000
# 6 0.0000 0.0000 0.0000 -3.4737 0.0000 48.3385
#
#
#
# Elastic Compliance Matrix: (Units=1/GPa)
#
#
# Indices 1 2 3 4 5 6 
#
# 1 0.010542 -0.001166 -0.004566 0.000000 -0.002362 0.000000
# 2 -0.001166 0.005526 -0.000945 0.000000 0.000624 0.000000
# 3 -0.004566 -0.000945 0.018723 0.000000 0.007639 0.000000
# 4 0.000000 0.000000 0.000000 0.030686 0.000000 0.002205
# 5 -0.002362 0.000624 0.007639 0.000000 0.027901 0.000000
# 6 0.000000 0.000000 0.000000 0.002205 0.000000 0.020846
#
#
# Mechanical properties :
#
#
# Convention : Reuss Voigt Hill
#
# Bulk Modulus (GPa) = 46.64928 57.72765 52.18847
# Shear Modulus (GPa) = 37.11326 43.97368 40.54347
#
# Velocity S-wave (km/s) = 3.78885 4.12419 3.96007
# Velocity P-wave (km/s) = 6.09790 6.70877 6.41061
#
# Compressibility (1/GPa) = 0.02143656
#
# Stress axis : x y z
#
# Youngs Moduli (GPa) = 94.86222 180.96960 53.41022
#
# Poissons Ratio (x) = 0.21105 0.24386
# Poissons Ratio (y) = 0.11063 0.05046
# Poissons Ratio (z) = 0.43313 0.17098
#
# Static dielectric constant tensor:
#      x y z
#    x 2.083560 0.000000 -0.033980 
#    y 0.000000 2.231010 0.000000 
#    z -0.033980 0.000000 2.012910 
# 
# From -- ./inp_files/76229.got.cif
#   From: 2010.05.17/outbox.cif.g08.bks.cpg/sg14_39_cif.got.tgz:76229.got - 2010.06.03 17:49:19.
