data_PCOD9248267
_publ_section_title
;
Structure prediction by ZEFSAII (Michael W. Deem and Ramdas Pophale) SiO2 
 PCOD9248267
Probable space group: P 21/C
;
_chemical_formula_sum "Si O2"
_cell_formula_units_Z 32
_cell_length_a 11.931236
_cell_length_b 18.846348
_cell_length_c 13.969674
_cell_angle_alpha 90.000000
_cell_angle_beta 150.640502
_cell_angle_gamma 90.000000
_cell_volume 1540.103752
_symmetry_space_group_name_H-M "P 21/C"
_symmetry_group_IT_number 14
_symmetry_cell_setting 'monoclinic'
loop_
_space_group_symop_operation_xyz
x,y,z
-x,1/2+y,1/2-z
-x,-y,-z
x,1/2-y,1/2+z
loop_
_atom_site_type_symbol
_atom_site_label
_atom_site_fract_x
_atom_site_fract_y
_atom_site_fract_z
Si Si1 0.318370 0.726553 0.865426
Si Si2 0.253367 0.134450 0.307543
Si Si3 0.773904 0.462517 0.795144
Si Si4 0.433322 0.820023 0.795815
Si Si5 0.342880 0.561907 0.506716
Si Si6 0.778913 0.289472 0.508094
Si Si7 0.882557 0.656040 0.511183
Si Si8 0.973227 0.006505 0.865504
O O1 0.438220 0.795316 0.909407
O O2 0.262357 0.736771 0.934537
O O3 0.065717 0.717753 0.634169
O O4 0.502740 0.665303 0.982138
O O5 0.038467 0.180977 0.187796
O O6 0.230449 0.140200 0.175364
O O7 0.213661 0.051893 0.304172
O O8 0.704823 0.393563 0.806220
O O9 0.576356 0.521190 0.660263
O O10 0.785879 0.439202 0.692122
O O11 0.000000 0.500000 0.000000
O O12 0.315873 0.754900 0.651692
O O13 0.683217 0.830138 0.937738
O O14 0.360894 0.639671 0.566963
O O15 0.198783 0.517894 0.477281
O O16 0.039931 0.589952 0.662301
O O17 0.000000 0.000000 0.000000
#
# Coordination Sequence:
#
# PCOD9248267 Si02
#       8
#     4   4   4   4   4   4   4   4
#     4  12  24  40  66  97 131 174 223 280 340 406
#     4  10  22  42  61  95 129 172 224 271 341 404
#     4  11  25  44  72 100 132 179 235 283 337 410
#     4  12  24  44  69 101 135 180 231 279 345 414
#     4  10  22  46  67  96 135 181 220 287 346 394
#     4  11  23  43  69  93 136 176 220 285 341 410
#     4  11  22  41  65  92 132 174 215 282 340 400
#     4   9  20  40  67  88 132 174 218 277 336 398
#
# _framework density 20.777820999999999
#
# number of rings (size 3 to 8) (size 9 to 14) (size 15 to 20)
#    0.000    1.250    5.000    0.750    0.000    3.500 
#    4.500    0.000    0.000    0.000    0.000    0.000 
#    0.000    0.000    0.000    0.000    0.000    0.000 
#
# Total GULP energy -178468.816288 kJ/mol
# GULP energy per Si atom -5577.150509 kJ/mol
# Density = 2.073053 g / cm^3
# Si number density = 20.777821 Si / 1000 Ang^3
#
#
#
# Elastic Constant Matrix: (Units=GPa)
#
#
# Indices 1 2 3 4 5 6 
#
# 1 128.6255 31.4773 39.6651 0.0000 20.6724 0.0000
# 2 31.4773 81.0208 33.5876 0.0000 14.9525 0.0000
# 3 39.6651 33.5876 58.6513 0.0000 15.3876 0.0000
# 4 0.0000 0.0000 0.0000 22.4503 0.0000 5.7203
# 5 20.6724 14.9525 15.3876 0.0000 28.4166 0.0000
# 6 0.0000 0.0000 0.0000 5.7203 0.0000 39.9145
#
#
#
# Elastic Compliance Matrix: (Units=1/GPa)
#
#
# Indices 1 2 3 4 5 6 
#
# 1 0.010326 -0.001059 -0.005306 0.000000 -0.004081 0.000000
# 2 -0.001059 0.016709 -0.007865 0.000000 -0.003763 0.000000
# 3 -0.005306 -0.007865 0.026860 0.000000 -0.006546 0.000000
# 4 0.000000 0.000000 0.000000 0.046231 0.000000 -0.006626
# 5 -0.004081 -0.003763 -0.006546 0.000000 0.043684 0.000000
# 6 0.000000 0.000000 0.000000 -0.006626 0.000000 0.026003
#
#
# Mechanical properties :
#
#
# Convention : Reuss Voigt Hill
#
# Bulk Modulus (GPa) = 39.31723 53.08417 46.20070
# Shear Modulus (GPa) = 24.18356 29.06078 26.62217
#
# Velocity S-wave (km/s) = 3.41532 3.74390 3.58338
# Velocity P-wave (km/s) = 5.87506 6.65530 6.27731
#
# Compressibility (1/GPa) = 0.02543414
#
# Stress axis : x y z
#
# Youngs Moduli (GPa) = 96.84427 59.84826 37.23008
#
# Poissons Ratio (x) = 0.06337 0.19755
# Poissons Ratio (y) = 0.10254 0.29283
# Poissons Ratio (z) = 0.51387 0.47073
#
# Static dielectric constant tensor:
#      x y z
#    x 1.737160 0.000000 -0.030850 
#    y 0.000000 1.831630 0.000000 
#    z -0.030850 0.000000 1.703470 
# 
# From -- ./inp_files/45394.got.cif
#   From: 2010.05.17/outbox.cif.g08.bks.cpg/sg14_23_cif.got.tgz:45394.got - 2010.06.03 17:49:19.
