data_PCOD9248678
_publ_section_title
;
Structure prediction by ZEFSAII (Michael W. Deem and Ramdas Pophale) SiO2 
 PCOD9248678
Probable space group: P 21/C
;
_chemical_formula_sum "Si O2"
_cell_formula_units_Z 16
_cell_length_a 11.151772
_cell_length_b 9.870692
_cell_length_c 9.260386
_cell_angle_alpha 90.000000
_cell_angle_beta 41.874734
_cell_angle_gamma 90.000000
_cell_volume 680.416159
_symmetry_space_group_name_H-M "P 21/C"
_symmetry_group_IT_number 14
_symmetry_cell_setting 'monoclinic'
loop_
_space_group_symop_operation_xyz
x,y,z
-x,1/2+y,1/2-z
-x,-y,-z
x,1/2-y,1/2+z
loop_
_atom_site_type_symbol
_atom_site_label
_atom_site_fract_x
_atom_site_fract_y
_atom_site_fract_z
Si Si1 0.411941 0.602308 0.469187
Si Si2 0.022493 0.165405 0.906506
Si Si3 0.072433 0.430268 0.671595
Si Si4 0.597132 0.372988 0.842481
O O1 0.500000 0.500000 0.500000
O O2 0.223089 0.525970 0.607560
O O3 0.424815 0.743885 0.537993
O O4 0.485253 0.632099 0.243903
O O5 0.812980 0.132553 0.126448
O O6 0.115906 0.147299 0.979450
O O7 0.030369 0.311054 0.822854
O O8 0.073620 0.043922 0.748884
O O9 0.500000 0.500000 0.000000
#
# Coordination Sequence:
#
# PCOD9248678 Si02
#       4
#     4   4   4   4
#     4  11  25  43  67 101 138 184 231 285 350 416
#     4  10  22  43  69 102 138 181 232 290 351 413
#     4  10  23  41  66 101 139 180 233 287 345 413
#     4  11  24  45  68  96 140 184 231 287 348 420
#
# _framework density 23.51502
#
# number of rings (size 3 to 8) (size 9 to 14) (size 15 to 20)
#    0.000    1.500    0.000    4.500    0.000   12.000 
#    0.000    0.000    0.000    0.000    0.000    0.000 
#    0.000    0.000    0.000    0.000    0.000    0.000 
#
# Total GULP energy -89175.979563 kJ/mol
# GULP energy per Si atom -5573.498723 kJ/mol
# Density = 2.346150 g / cm^3
# Si number density = 23.515020 Si / 1000 Ang^3
#
#
#
# Elastic Constant Matrix: (Units=GPa)
#
#
# Indices 1 2 3 4 5 6 
#
# 1 124.5128 72.2244 63.3969 0.0000 35.3560 0.0000
# 2 72.2244 251.2777 110.3965 0.0000 24.8746 0.0000
# 3 63.3969 110.3965 112.3496 0.0000 37.3001 0.0000
# 4 0.0000 0.0000 0.0000 70.0104 0.0000 19.5009
# 5 35.3560 24.8746 37.3001 0.0000 35.7006 0.0000
# 6 0.0000 0.0000 0.0000 19.5009 0.0000 48.1253
#
#
#
# Elastic Compliance Matrix: (Units=1/GPa)
#
#
# Indices 1 2 3 4 5 6 
#
# 1 0.012852 -0.001611 -0.002781 0.000000 -0.008700 0.000000
# 2 -0.001611 0.007509 -0.008057 0.000000 0.004781 0.000000
# 3 -0.002781 -0.008057 0.023898 0.000000 -0.016602 0.000000
# 4 0.000000 0.000000 0.000000 0.016101 0.000000 -0.006524
# 5 -0.008700 0.004781 -0.016602 0.000000 0.050641 0.000000
# 6 0.000000 0.000000 0.000000 -0.006524 0.000000 0.023423
#
#
# Mechanical properties :
#
#
# Convention : Reuss Voigt Hill
#
# Bulk Modulus (GPa) = 51.64632 108.90841 80.27737
# Shear Modulus (GPa) = 30.16122 46.90875 38.53499
#
# Velocity S-wave (km/s) = 3.58528 4.47121 4.05253
# Velocity P-wave (km/s) = 6.25698 8.54813 7.49067
#
# Compressibility (1/GPa) = 0.01936246
#
# Stress axis : x y z
#
# Youngs Moduli (GPa) = 77.80815 133.17069 41.84384
#
# Poissons Ratio (x) = 0.21457 0.11635
# Poissons Ratio (y) = 0.12537 0.33713
# Poissons Ratio (z) = 0.21635 1.07294
#
# Static dielectric constant tensor:
#      x y z
#    x 2.230610 0.000000 0.032960 
#    y 0.000000 1.783950 0.000000 
#    z 0.032960 0.000000 2.009520 
# 
# From -- ./inp_files/11562.got.cif
#   From: 2010.05.17/outbox.cif.g08.bks.cpg/sg14_6_cif.got.tgz:11562.got - 2010.06.03 17:49:19.
