data_PCOD9248502
_publ_section_title
;
Structure prediction by ZEFSAII (Michael W. Deem and Ramdas Pophale) SiO2 
 PCOD9248502
Probable space group: P 21/C
;
_chemical_formula_sum "Si O2"
_cell_formula_units_Z 16
_cell_length_a 7.148240
_cell_length_b 9.175876
_cell_length_c 11.263938
_cell_angle_alpha 90.000000
_cell_angle_beta 89.480348
_cell_angle_gamma 90.000000
_cell_volume 738.786669
_symmetry_space_group_name_H-M "P 21/C"
_symmetry_group_IT_number 14
_symmetry_cell_setting 'monoclinic'
loop_
_space_group_symop_operation_xyz
x,y,z
-x,1/2+y,1/2-z
-x,-y,-z
x,1/2-y,1/2+z
loop_
_atom_site_type_symbol
_atom_site_label
_atom_site_fract_x
_atom_site_fract_y
_atom_site_fract_z
Si Si1 0.158820 0.735228 0.747657
Si Si2 0.877723 0.539137 0.886456
Si Si3 0.442411 0.208392 0.673713
Si Si4 0.585888 0.470168 0.372772
O O1 0.332857 0.724468 0.840437
O O2 0.232034 0.630561 0.640482
O O3 0.981795 0.664623 0.810649
O O4 0.138967 0.895027 0.694195
O O5 0.675480 0.610972 0.916514
O O6 0.000000 0.500000 0.000000
O O7 0.371902 0.372771 0.683633
O O8 0.434113 0.118163 0.796146
O O9 0.500000 0.500000 0.500000
#
# Coordination Sequence:
#
# PCOD9248502 Si02
#       4
#     4   4   4   4
#     4  10  24  43  66  98 138 168 231 271 327 411
#     4  12  26  44  71 102 136 179 222 283 341 391
#     4  10  22  45  66  97 136 170 231 271 328 410
#     4  10  22  42  71  91 132 181 215 273 336 389
#
# _framework density 21.657129000000001
#
# number of rings (size 3 to 8) (size 9 to 14) (size 15 to 20)
#    1.500    0.000    2.500    1.500    3.500    5.000 
#    0.000    3.750    0.000    0.000    0.000    0.000 
#    0.000    0.000    0.000    0.000    0.000    0.000 
#
# Total GULP energy -89165.716498 kJ/mol
# GULP energy per Si atom -5572.857281 kJ/mol
# Density = 2.160784 g / cm^3
# Si number density = 21.657129 Si / 1000 Ang^3
#
#
#
# Elastic Constant Matrix: (Units=GPa)
#
#
# Indices 1 2 3 4 5 6 
#
# 1 87.1872 50.5829 26.6247 0.0000 19.3450 0.0000
# 2 50.5829 183.2354 35.2210 0.0000 14.4772 0.0000
# 3 26.6247 35.2210 56.4444 0.0000 14.8975 0.0000
# 4 0.0000 0.0000 0.0000 17.3737 0.0000 3.2726
# 5 19.3450 14.4772 14.8975 0.0000 27.1139 0.0000
# 6 0.0000 0.0000 0.0000 3.2726 0.0000 25.2242
#
#
#
# Elastic Compliance Matrix: (Units=1/GPa)
#
#
# Indices 1 2 3 4 5 6 
#
# 1 0.016130 -0.003145 -0.003569 0.000000 -0.007868 0.000000
# 2 -0.003145 0.006859 -0.002833 0.000000 0.000138 0.000000
# 3 -0.003569 -0.002833 0.023505 0.000000 -0.008855 0.000000
# 4 0.000000 0.000000 0.000000 0.059000 0.000000 -0.007655
# 5 -0.007868 0.000138 -0.008855 0.000000 0.047287 0.000000
# 6 0.000000 0.000000 0.000000 -0.007655 0.000000 0.040638
#
#
# Mechanical properties :
#
#
# Convention : Reuss Voigt Hill
#
# Bulk Modulus (GPa) = 36.49706 61.30270 48.89988
# Shear Modulus (GPa) = 22.55837 28.23825 25.39831
#
# Velocity S-wave (km/s) = 3.23091 3.61484 3.42825
# Velocity P-wave (km/s) = 5.55042 6.76685 6.18859
#
# Compressibility (1/GPa) = 0.02739946
#
# Stress axis : x y z
#
# Youngs Moduli (GPa) = 61.99665 145.78708 42.54354
#
# Poissons Ratio (x) = 0.45850 0.15186
# Poissons Ratio (y) = 0.19498 0.12053
# Poissons Ratio (z) = 0.22129 0.41303
#
# Static dielectric constant tensor:
#      x y z
#    x 1.890800 0.000000 0.052070 
#    y 0.000000 1.781920 0.000000 
#    z 0.052070 0.000000 1.785690 
# 
# From -- ./inp_files/22593.got.cif
#   From: 2010.05.17/outbox.cif.g08.bks.cpg/sg14_12_cif.got.tgz:22593.got - 2010.06.03 17:49:19.
