data_PCOD9248052
_publ_section_title
;
Structure prediction by ZEFSAII (Michael W. Deem and Ramdas Pophale) SiO2 
 PCOD9248052
Probable space group: P 21/C
;
_chemical_formula_sum "Si O2"
_cell_formula_units_Z 20
_cell_length_a 10.514636
_cell_length_b 9.299006
_cell_length_c 8.874288
_cell_angle_alpha 90.000000
_cell_angle_beta 54.159651
_cell_angle_gamma 90.000000
_cell_volume 703.393864
_symmetry_space_group_name_H-M "P 21/C"
_symmetry_group_IT_number 14
_symmetry_cell_setting 'monoclinic'
loop_
_space_group_symop_operation_xyz
x,y,z
-x,1/2+y,1/2-z
-x,-y,-z
x,1/2-y,1/2+z
loop_
_atom_site_type_symbol
_atom_site_label
_atom_site_fract_x
_atom_site_fract_y
_atom_site_fract_z
Si Si1 0.796060 0.903675 0.179106
Si Si2 0.281575 0.884964 0.192891
Si Si3 0.583356 0.842597 0.782070
Si Si4 0.283115 0.935481 0.503538
Si Si5 0.007299 0.201364 0.234230
O O1 0.642489 0.817699 0.239171
O O2 0.886035 0.807833 0.242286
O O3 0.738599 0.049684 0.300178
O O4 0.905748 0.890571 0.956130
O O5 0.337608 0.839336 0.322085
O O6 0.125802 0.808720 0.243616
O O7 0.291101 0.057978 0.207734
O O8 0.419963 0.854629 0.979514
O O9 0.616359 0.921029 0.601437
O O10 0.096463 0.911042 0.597177
#
# Coordination Sequence:
#
# PCOD9248052 Si02
#       5
#     4   4   4   4   4
#     4  12  23  40  67  93 126 167 205 260 310 368
#     4   9  21  44  65  89 127 169 202 256 314 367
#     4   9  21  44  65  89 127 169 202 256 314 367
#     4  10  22  41  63  92 127 160 218 244 319 362
#     4  12  23  40  67  93 126 167 205 260 310 368
#
# _framework density 28.433572000000002
#
# number of rings (size 3 to 8) (size 9 to 14) (size 15 to 20)
#    1.200    0.400    4.000    0.600    2.800    4.000 
#    0.000    1.000    0.000    0.000    0.000    0.000 
#    0.000    0.000    0.000    0.000    0.000    0.000 
#
# Total GULP energy -111446.439070 kJ/mol
# GULP energy per Si atom -5572.321953 kJ/mol
# Density = 2.836886 g / cm^3
# Si number density = 28.433572 Si / 1000 Ang^3
#
#
#
# Elastic Constant Matrix: (Units=GPa)
#
#
# Indices 1 2 3 4 5 6 
#
# 1 118.6215 36.3815 35.6090 0.0000 -2.8210 0.0000
# 2 36.3815 71.7576 23.0661 0.0000 10.9700 0.0000
# 3 35.6090 23.0661 188.7910 0.0000 8.7825 0.0000
# 4 0.0000 0.0000 0.0000 31.4672 0.0000 21.1179
# 5 -2.8210 10.9700 8.7825 0.0000 21.9508 0.0000
# 6 0.0000 0.0000 0.0000 21.1179 0.0000 32.9573
#
#
#
# Elastic Compliance Matrix: (Units=1/GPa)
#
#
# Indices 1 2 3 4 5 6 
#
# 1 0.010761 -0.005697 -0.001559 0.000000 0.004854 0.000000
# 2 -0.005697 0.018545 -0.000740 0.000000 -0.009704 0.000000
# 3 -0.001559 -0.000740 0.005781 0.000000 -0.002144 0.000000
# 4 0.000000 0.000000 0.000000 0.055755 0.000000 -0.035726
# 5 0.004854 -0.009704 -0.002144 0.000000 0.051888 0.000000
# 6 0.000000 0.000000 0.000000 -0.035726 0.000000 0.053234
#
#
# Mechanical properties :
#
#
# Convention : Reuss Voigt Hill
#
# Bulk Modulus (GPa) = 52.36854 63.25369 57.81112
# Shear Modulus (GPa) = 22.90199 36.21596 29.55897
#
# Velocity S-wave (km/s) = 2.84113 3.57277 3.22775
# Velocity P-wave (km/s) = 5.40560 6.27009 5.85383
#
# Compressibility (1/GPa) = 0.01909543
#
# Stress axis : x y z
#
# Youngs Moduli (GPa) = 92.92908 53.92183 172.97653
#
# Poissons Ratio (x) = 0.30717 0.26975
# Poissons Ratio (y) = 0.52938 0.12799
# Poissons Ratio (z) = 0.14492 0.03990
#
# Static dielectric constant tensor:
#      x y z
#    x 2.316050 0.000000 0.037170 
#    y 0.000000 2.472430 0.000000 
#    z 0.037170 0.000000 2.201130 
# 
# From -- ./inp_files/12225.got.cif
#   From: 2010.05.17/outbox.cif.g08.bks.cpg/sg14_7_cif.got.tgz:12225.got - 2010.06.03 17:49:19.
