data_PCOD9248347
_publ_section_title
;
Structure prediction by ZEFSAII (Michael W. Deem and Ramdas Pophale) SiO2 
 PCOD9248347
Probable space group: P 21/C
;
_chemical_formula_sum "Si O2"
_cell_formula_units_Z 22
_cell_length_a 8.122180
_cell_length_b 9.237770
_cell_length_c 15.644523
_cell_angle_alpha 90.000000
_cell_angle_beta 47.863413
_cell_angle_gamma 90.000000
_cell_volume 870.444535
_symmetry_space_group_name_H-M "P 21/C"
_symmetry_group_IT_number 14
_symmetry_cell_setting 'monoclinic'
loop_
_space_group_symop_operation_xyz
x,y,z
-x,1/2+y,1/2-z
-x,-y,-z
x,1/2-y,1/2+z
loop_
_atom_site_type_symbol
_atom_site_label
_atom_site_fract_x
_atom_site_fract_y
_atom_site_fract_z
Si Si1 0.069483 0.066757 0.886663
Si Si2 0.716529 0.213334 0.457182
Si Si3 0.526528 0.670277 0.675594
Si Si4 0.817917 0.929363 0.499332
Si Si5 0.500000 0.500000 0.500000
Si Si6 0.085747 0.783458 0.799873
O O1 0.331267 0.091745 0.800239
O O2 0.932381 0.211189 0.923519
O O3 0.983835 0.942244 0.852310
O O4 0.000000 0.000000 0.000000
O O5 0.528794 0.334488 0.524772
O O6 0.803122 0.201549 0.330251
O O7 0.671991 0.060932 0.514862
O O8 0.680565 0.803908 0.592880
O O9 0.492667 0.564642 0.605397
O O10 0.295867 0.740234 0.786153
O O11 0.923249 0.846998 0.379887
O O12 0.000000 0.000000 0.500000
#
# Coordination Sequence:
#
# PCOD9248347 Si02
#       6
#     4   4   4   4   2   4
#     4  12  21  45  71  91 138 189 223 279 351 416
#     4  11  23  43  71 100 139 183 225 287 343 415
#     4  11  25  43  70 103 134 181 236 279 352 406
#     4  12  24  45  69 103 139 176 230 292 342 405
#     4  10  22  42  66 104 134 180 224 276 340 410
#     4  11  26  42  66 103 135 180 236 279 349 409
#
# _framework density 25.274439000000001
#
# number of rings (size 3 to 8) (size 9 to 14) (size 15 to 20)
#    0.000    0.727    5.455    1.091    2.545    4.364 
#    0.000    7.273    0.000    0.000    0.000    0.000 
#    0.000    0.000    0.000    0.000    0.000    0.000 
#
# Total GULP energy -122534.620297 kJ/mol
# GULP energy per Si atom -5569.755468 kJ/mol
# Density = 2.521691 g / cm^3
# Si number density = 25.274439 Si / 1000 Ang^3
#
#
#
# Elastic Constant Matrix: (Units=GPa)
#
#
# Indices 1 2 3 4 5 6 
#
# 1 55.5360 11.0912 -19.7716 0.0000 3.1417 0.0000
# 2 11.0912 171.6931 30.3054 0.0000 13.7961 0.0000
# 3 -19.7716 30.3054 46.7612 0.0000 7.8862 0.0000
# 4 0.0000 0.0000 0.0000 24.4585 0.0000 -4.0633
# 5 3.1417 13.7961 7.8862 0.0000 24.0779 0.0000
# 6 0.0000 0.0000 0.0000 -4.0633 0.0000 53.3723
#
#
#
# Elastic Compliance Matrix: (Units=1/GPa)
#
#
# Indices 1 2 3 4 5 6 
#
# 1 0.023672 -0.003411 0.013137 0.000000 -0.005437 0.000000
# 2 -0.003411 0.007215 -0.005817 0.000000 -0.001784 0.000000
# 3 0.013137 -0.005817 0.032216 0.000000 -0.008933 0.000000
# 4 0.000000 0.000000 0.000000 0.041409 0.000000 0.003153
# 5 -0.005437 -0.001784 -0.008933 0.000000 0.046189 0.000000
# 6 0.000000 0.000000 0.000000 0.003153 0.000000 0.018976
#
#
# Mechanical properties :
#
#
# Convention : Reuss Voigt Hill
#
# Bulk Modulus (GPa) = 14.10050 35.24893 24.67471
# Shear Modulus (GPa) = 26.95404 37.20609 32.08006
#
# Velocity S-wave (km/s) = 3.26920 3.84094 3.56655
# Velocity P-wave (km/s) = 4.45436 5.80062 5.17148
#
# Compressibility (1/GPa) = 0.07091946
#
# Stress axis : x y z
#
# Youngs Moduli (GPa) = 42.24410 138.60362 31.04019
#
# Poissons Ratio (x) = 0.47278 -0.40776
# Poissons Ratio (y) = 0.14410 0.18057
# Poissons Ratio (z) = -0.55494 0.80630
#
# Static dielectric constant tensor:
#      x y z
#    x 2.114140 0.000000 -0.032570 
#    y 0.000000 2.285480 0.000000 
#    z -0.032570 0.000000 2.065040 
# 
# From -- ./inp_files/54761.got.cif
#   From: 2010.05.17/outbox.cif.g08.bks.cpg/sg14_28_cif.got.tgz:54761.got - 2010.06.03 17:49:19.
