data_PCOD9248313
_publ_section_title
;
Structure prediction by ZEFSAII (Michael W. Deem and Ramdas Pophale) SiO2 
 PCOD9248313
Probable space group: P 21/C
;
_chemical_formula_sum "Si O2"
_cell_formula_units_Z 30
_cell_length_a 14.939986
_cell_length_b 9.291461
_cell_length_c 8.553710
_cell_angle_alpha 90.000000
_cell_angle_beta 108.638695
_cell_angle_gamma 90.000000
_cell_volume 1125.102611
_symmetry_space_group_name_H-M "P 21/C"
_symmetry_group_IT_number 14
_symmetry_cell_setting 'monoclinic'
loop_
_space_group_symop_operation_xyz
x,y,z
-x,1/2+y,1/2-z
-x,-y,-z
x,1/2-y,1/2+z
loop_
_atom_site_type_symbol
_atom_site_label
_atom_site_fract_x
_atom_site_fract_y
_atom_site_fract_z
Si Si1 0.269361 0.275295 0.442309
Si Si2 0.889052 0.123566 0.981540
Si Si3 0.635227 0.037597 0.174285
Si Si4 0.614780 0.896705 0.709968
Si Si5 0.074236 0.361258 0.721681
Si Si6 0.000000 0.000000 0.500000
Si Si7 0.463614 0.846018 0.176827
Si Si8 0.185961 0.879533 0.724428
O O1 0.297333 0.409684 0.349592
O O2 0.302740 0.336293 0.628481
O O3 0.344733 0.150447 0.435089
O O4 0.163613 0.223364 0.342146
O O5 0.849917 0.219354 0.823256
O O6 0.902559 0.969297 0.907909
O O7 0.822626 0.105198 0.093375
O O8 0.983467 0.217691 0.089735
O O9 0.713170 0.124067 0.309463
O O10 0.549414 0.955718 0.196891
O O11 0.598206 0.136655 0.013646
O O12 0.520456 0.804292 0.706123
O O13 0.593624 0.065961 0.721570
O O14 0.023953 0.445991 0.833101
O O15 0.885746 0.012303 0.397687
#
# Coordination Sequence:
#
# PCOD9248313 Si02
#       8
#     4   4   4   4   4   2   4   4
#     4  10  23  39  67  95 128 171 230 266 329 407
#     4  10  24  42  62  93 135 165 219 271 340 397
#     4   9  21  40  63  93 131 177 215 270 337 395
#     4  10  22  42  64  99 129 178 225 281 340 406
#     4  10  23  44  63  96 132 171 218 286 326 405
#     4  10  24  40  66  94 128 172 214 270 346 388
#     4   9  20  41  62  93 138 172 221 278 341 399
#     4  11  23  41  64  95 126 173 218 271 331 411
#
# _framework density 26.664232999999999
#
# number of rings (size 3 to 8) (size 9 to 14) (size 15 to 20)
#    0.000    2.133    0.000    1.600    9.333    2.667 
#    4.800    0.000    0.000    0.000    0.000    0.000 
#    0.000    0.000    0.000    0.000    0.000    0.000 
#
# Total GULP energy -167075.239927 kJ/mol
# GULP energy per Si atom -5569.174664 kJ/mol
# Density = 2.660354 g / cm^3
# Si number density = 26.664233 Si / 1000 Ang^3
#
#
#
# Elastic Constant Matrix: (Units=GPa)
#
#
# Indices 1 2 3 4 5 6 
#
# 1 62.9799 20.8058 27.7584 0.0000 26.3919 0.0000
# 2 20.8058 57.1390 15.6217 0.0000 14.7531 0.0000
# 3 27.7584 15.6217 77.4564 0.0000 14.4999 0.0000
# 4 0.0000 0.0000 0.0000 -37.6907 0.0000 -16.4251
# 5 26.3919 14.7531 14.4999 0.0000 53.6344 0.0000
# 6 0.0000 0.0000 0.0000 -16.4251 0.0000 28.3194
#
#
#
# Elastic Compliance Matrix: (Units=1/GPa)
#
#
# Indices 1 2 3 4 5 6 
#
# 1 0.023727 -0.004762 -0.005901 0.000000 -0.008770 0.000000
# 2 -0.004762 0.020471 -0.001903 0.000000 -0.002773 0.000000
# 3 -0.005901 -0.001903 0.015555 0.000000 -0.000778 0.000000
# 4 0.000000 0.000000 0.000000 -0.021179 0.000000 -0.012284
# 5 -0.008770 -0.002773 -0.000778 0.000000 0.023934 0.000000
# 6 0.000000 0.000000 0.000000 -0.012284 0.000000 0.028187
#
#
# Mechanical properties :
#
#
# Convention : Reuss Voigt Hill
#
# Bulk Modulus (GPa) = 28.88380 36.21635 32.55007
# Shear Modulus (GPa) = 39.25632 17.74524 28.50078
#
# Velocity S-wave (km/s) = 3.84115 2.58254 3.27291
# Velocity P-wave (km/s) = 5.52526 4.74390 5.14942
#
# Compressibility (1/GPa) = 0.03462149
#
# Stress axis : x y z
#
# Youngs Moduli (GPa) = 42.14548 48.84843 64.28911
#
# Poissons Ratio (x) = 0.23261 0.37937
# Poissons Ratio (y) = 0.20069 0.12235
# Poissons Ratio (z) = 0.24870 0.09296
#
# Static dielectric constant tensor:
#      x y z
#    x 2.188910 0.000000 0.185740 
#    y 0.000000 2.561290 0.000000 
#    z 0.185740 0.000000 2.041040 
# 
# From -- ./inp_files/15911.got.cif
#   From: 2010.05.17/outbox.cif.g08.bks.cpg/sg14_8_cif.got.tgz:15911.got - 2010.06.03 17:49:19.
