data_PCOD9248165
_publ_section_title
;
Structure prediction by ZEFSAII (Michael W. Deem and Ramdas Pophale) SiO2 
 PCOD9248165
Probable space group: P 21/C
;
_chemical_formula_sum "Si O2"
_cell_formula_units_Z 26
_cell_length_a 5.103407
_cell_length_b 9.931198
_cell_length_c 21.201972
_cell_angle_alpha 90.000000
_cell_angle_beta 70.775627
_cell_angle_gamma 90.000000
_cell_volume 1014.656017
_symmetry_space_group_name_H-M "P 21/C"
_symmetry_group_IT_number 14
_symmetry_cell_setting 'monoclinic'
loop_
_space_group_symop_operation_xyz
x,y,z
-x,1/2+y,1/2-z
-x,-y,-z
x,1/2-y,1/2+z
loop_
_atom_site_type_symbol
_atom_site_label
_atom_site_fract_x
_atom_site_fract_y
_atom_site_fract_z
Si Si1 0.828115 0.113962 0.122394
Si Si2 0.634149 0.756481 0.040949
Si Si3 0.567226 0.721680 0.250860
Si Si4 0.990014 0.198740 0.871658
Si Si5 0.605093 0.025390 0.669755
Si Si6 0.811724 0.629227 0.902198
Si Si7 0.000000 0.000000 0.000000
O O1 0.951838 0.962621 0.121041
O O2 0.538201 0.142074 0.179167
O O3 0.042094 0.227956 0.127413
O O4 0.804575 0.119050 0.049040
O O5 0.324240 0.766239 0.090908
O O6 0.831951 0.737835 0.085672
O O7 0.690610 0.649509 0.981598
O O8 0.732281 0.902752 0.009735
O O9 0.428187 0.867322 0.269866
O O10 0.485340 0.614675 0.203984
O O11 0.881602 0.757259 0.205500
O O12 0.421681 0.083188 0.627769
O O13 0.926553 0.029305 0.625123
#
# Coordination Sequence:
#
# PCOD9248165 Si02
#       7
#     4   4   4   4   4   4   2
#     4   9  20  40  68 101 136 182 234 301 354 423
#     4  10  22  41  67 102 144 183 241 299 364 426
#     4  11  24  47  66 107 141 193 238 297 367 440
#     4  11  23  40  67 103 143 189 235 297 364 438
#     4  11  25  44  72  99 142 187 244 296 362 436
#     4  10  23  43  69 101 137 187 240 300 360 424
#     4   8  18  38  68 102 132 178 240 300 356 400
#
# _framework density 25.624447
#
# number of rings (size 3 to 8) (size 9 to 14) (size 15 to 20)
#    0.000    1.846    1.538    0.923    0.000   19.077 
#    0.000    4.615    0.000    0.000    0.000    0.000 
#    0.000    0.000    0.000    0.000    0.000    0.000 
#
# Total GULP energy -144823.613517 kJ/mol
# GULP energy per Si atom -5570.138981 kJ/mol
# Density = 2.556612 g / cm^3
# Si number density = 25.624447 Si / 1000 Ang^3
#
#
#
# Elastic Constant Matrix: (Units=GPa)
#
#
# Indices 1 2 3 4 5 6 
#
# 1 91.4417 25.8979 33.4813 0.0000 -21.1677 0.0000
# 2 25.8979 108.9767 34.6027 0.0000 9.5322 0.0000
# 3 33.4813 34.6027 143.2307 0.0000 -43.2905 0.0000
# 4 0.0000 0.0000 0.0000 39.4910 0.0000 -5.1347
# 5 -21.1677 9.5322 -43.2905 0.0000 38.8691 0.0000
# 6 0.0000 0.0000 0.0000 -5.1347 0.0000 22.1468
#
#
#
# Elastic Compliance Matrix: (Units=1/GPa)
#
#
# Indices 1 2 3 4 5 6 
#
# 1 0.014143 -0.004382 0.000611 0.000000 0.009457 0.000000
# 2 -0.004382 0.013106 -0.005781 0.000000 -0.012039 0.000000
# 3 0.000611 -0.005781 0.013212 0.000000 0.016465 0.000000
# 4 0.000000 0.000000 0.000000 0.026109 0.000000 0.006053
# 5 0.009457 -0.012039 0.016465 0.000000 0.052168 0.000000
# 6 0.000000 0.000000 0.000000 0.006053 0.000000 0.046557
#
#
# Mechanical properties :
#
#
# Convention : Reuss Voigt Hill
#
# Bulk Modulus (GPa) = 46.82224 59.06811 52.94518
# Shear Modulus (GPa) = 26.10734 36.74585 31.42659
#
# Velocity S-wave (km/s) = 3.19540 3.79095 3.50584
# Velocity P-wave (km/s) = 5.65033 6.50102 6.09054
#
# Compressibility (1/GPa) = 0.02135737
#
# Stress axis : x y z
#
# Youngs Moduli (GPa) = 70.70877 76.29995 75.68952
#
# Poissons Ratio (x) = 0.33436 -0.04626
# Poissons Ratio (y) = 0.30986 0.43753
# Poissons Ratio (z) = -0.04321 0.44105
#
# Static dielectric constant tensor:
#      x y z
#    x 1.715250 0.000000 -0.455870 
#    y 0.000000 1.191400 0.000000 
#    z -0.455870 0.000000 1.215370 
# 
# From -- ./inp_files/71218.got.cif
#   From: 2010.05.17/outbox.cif.g08.bks.cpg/sg14_36_cif.got.tgz:71218.got - 2010.06.03 17:49:19.
