data_PCOD9248928
_publ_section_title
;
Structure prediction by ZEFSAII (Michael W. Deem and Ramdas Pophale) SiO2 
 PCOD9248928
Probable space group: P 21/C
;
_chemical_formula_sum "Si O2"
_cell_formula_units_Z 28
_cell_length_a 12.024324
_cell_length_b 10.796326
_cell_length_c 21.134840
_cell_angle_alpha 90.000000
_cell_angle_beta 156.590449
_cell_angle_gamma 90.000000
_cell_volume 1090.071893
_symmetry_space_group_name_H-M "P 21/C"
_symmetry_group_IT_number 14
_symmetry_cell_setting 'monoclinic'
loop_
_space_group_symop_operation_xyz
x,y,z
-x,1/2+y,1/2-z
-x,-y,-z
x,1/2-y,1/2+z
loop_
_atom_site_type_symbol
_atom_site_label
_atom_site_fract_x
_atom_site_fract_y
_atom_site_fract_z
Si Si1 0.361191 0.193760 0.296650
Si Si2 0.660068 0.354015 0.828014
Si Si3 0.004483 0.881554 0.789604
Si Si4 0.189960 0.446206 0.184791
Si Si5 0.693771 0.299509 0.223033
Si Si6 0.208023 0.350132 0.405400
Si Si7 0.727545 0.000684 0.534794
O O1 0.421335 0.167269 0.254834
O O2 0.084149 0.139955 0.184325
O O3 0.361464 0.339394 0.306874
O O4 0.622396 0.138976 0.471377
O O5 0.624773 0.473234 0.765024
O O6 0.697034 0.246643 0.796419
O O7 0.947746 0.379791 0.016293
O O8 0.944456 0.744224 0.725269
O O9 0.767781 0.955124 0.625979
O O10 0.219941 0.000825 0.898647
O O11 0.012191 0.520734 0.143951
O O12 0.999649 0.327260 0.355879
O O13 0.510298 0.205501 0.082702
O O14 0.510853 0.423022 0.124105
#
# Coordination Sequence:
#
# PCOD9248928 Si02
#       7
#     4   4   4   4   4   4   4
#     4  11  23  39  70 101 130 181 239 286 348 429
#     4  10  24  42  70  95 140 186 226 289 359 429
#     4  11  23  46  67 103 140 190 233 303 361 426
#     4  10  23  45  67 102 137 186 235 297 361 417
#     4  11  24  46  71 103 136 195 232 286 369 433
#     4  11  26  43  77 100 145 187 247 294 363 434
#     4  10  22  44  72  90 142 189 227 286 369 427
#
# _framework density 25.686378000000001
#
# number of rings (size 3 to 8) (size 9 to 14) (size 15 to 20)
#    0.000    1.429    1.429    3.000   10.000    0.571 
#    7.714    1.429    0.000    0.000    0.000    0.000 
#    0.000    0.000    0.000    0.000    0.000    0.000 
#
# Total GULP energy -156389.520570 kJ/mol
# GULP energy per Si atom -5585.340020 kJ/mol
# Density = 2.562792 g / cm^3
# Si number density = 25.686378 Si / 1000 Ang^3
#
#
#
# Elastic Constant Matrix: (Units=GPa)
#
#
# Indices 1 2 3 4 5 6 
#
# 1 121.7304 20.1300 5.2411 0.0000 4.3416 0.0000
# 2 20.1300 100.3948 32.1995 0.0000 0.9117 0.0000
# 3 5.2411 32.1995 49.1271 0.0000 2.1535 0.0000
# 4 0.0000 0.0000 0.0000 47.8553 0.0000 3.0954
# 5 4.3416 0.9117 2.1535 0.0000 28.1420 0.0000
# 6 0.0000 0.0000 0.0000 3.0954 0.0000 24.6734
#
#
#
# Elastic Compliance Matrix: (Units=1/GPa)
#
#
# Indices 1 2 3 4 5 6 
#
# 1 0.008545 -0.001807 0.000329 0.000000 -0.001285 0.000000
# 2 -0.001807 0.012996 -0.008347 0.000000 0.000497 0.000000
# 3 0.000329 -0.008347 0.025868 0.000000 -0.001760 0.000000
# 4 0.000000 0.000000 0.000000 0.021067 0.000000 -0.002643
# 5 -0.001285 0.000497 -0.001760 0.000000 0.035851 0.000000
# 6 0.000000 0.000000 0.000000 -0.002643 0.000000 0.040861
#
#
# Mechanical properties :
#
#
# Convention : Reuss Voigt Hill
#
# Bulk Modulus (GPa) = 36.02366 42.93260 39.47813
# Shear Modulus (GPa) = 28.72062 34.37959 31.55010
#
# Velocity S-wave (km/s) = 3.34747 3.66243 3.50849
# Velocity P-wave (km/s) = 5.38476 5.88515 5.64050
#
# Compressibility (1/GPa) = 0.02775953
#
# Stress axis : x y z
#
# Youngs Moduli (GPa) = 117.02197 76.94926 38.65770
#
# Poissons Ratio (x) = 0.13908 -0.01273
# Poissons Ratio (y) = 0.21150 0.32266
# Poissons Ratio (z) = -0.03853 0.64227
#
# Static dielectric constant tensor:
#      x y z
#    x 1.999800 0.000000 0.004330 
#    y 0.000000 2.184270 0.000000 
#    z 0.004330 0.000000 2.042180 
# 
# From -- ./inp_files/67352.got.cif
#   From: 2010.05.17/outbox.cif.g08.bks.cpg/sg14_34_cif.got.tgz:67352.got - 2010.06.03 17:49:19.
