data_PCOD9248143
_publ_section_title
;
Structure prediction by ZEFSAII (Michael W. Deem and Ramdas Pophale) SiO2 
 PCOD9248143
Probable space group: P 21/C
;
_chemical_formula_sum "Si O2"
_cell_formula_units_Z 24
_cell_length_a 24.267525
_cell_length_b 5.097942
_cell_length_c 18.058375
_cell_angle_alpha 90.000000
_cell_angle_beta 151.215864
_cell_angle_gamma 90.000000
_cell_volume 1075.734949
_symmetry_space_group_name_H-M "P 21/C"
_symmetry_group_IT_number 14
_symmetry_cell_setting 'monoclinic'
loop_
_space_group_symop_operation_xyz
x,y,z
-x,1/2+y,1/2-z
-x,-y,-z
x,1/2-y,1/2+z
loop_
_atom_site_type_symbol
_atom_site_label
_atom_site_fract_x
_atom_site_fract_y
_atom_site_fract_z
Si Si1 0.426137 0.016302 0.591370
Si Si2 0.281250 0.983502 0.872511
Si Si3 0.869092 0.820722 0.180023
Si Si4 0.073883 0.016253 0.908657
Si Si5 0.218763 0.516454 0.127510
Si Si6 0.630919 0.679314 0.819989
O O1 0.339702 0.785650 0.466193
O O2 0.550720 0.928469 0.709892
O O3 0.371313 0.281811 0.495250
O O4 0.431160 0.022470 0.687054
O O5 0.169318 0.035884 0.791049
O O6 0.249997 0.978945 0.750000
O O7 0.949311 0.571618 0.290161
O O8 0.931162 0.977568 0.187050
O O9 0.750013 0.749970 0.000012
O O10 0.160332 0.785616 0.033839
O O11 0.128695 0.281775 0.004766
O O12 0.330701 0.464031 0.208989
#
# Coordination Sequence:
#
# PCOD9248143 Si02
#       6
#     4   4   4   4   4   4
#     4  11  23  41  65  93 124 165 210 253 307 368
#     4  11  25  42  63  94 129 164 204 255 313 370
#     4  10  22  41  66  92 124 162 210 258 304 366
#     4  11  23  41  65  93 124 165 210 253 307 368
#     4  11  25  42  63  94 129 164 204 255 313 370
#     4  10  22  41  66  92 124 162 210 258 304 366
#
# _framework density 22.31033
#
# number of rings (size 3 to 8) (size 9 to 14) (size 15 to 20)
#    0.000    1.333    0.000    6.000    0.000   10.667 
#    0.000    0.000    0.000    0.000    0.000    0.000 
#    0.000    0.000    0.000    0.000    0.000    0.000 
#
# Total GULP energy -134280.936842 kJ/mol
# GULP energy per Si atom -5595.039035 kJ/mol
# Density = 2.225955 g / cm^3
# Si number density = 22.310330 Si / 1000 Ang^3
#
#
#
# Elastic Constant Matrix: (Units=GPa)
#
#
# Indices 1 2 3 4 5 6 
#
# 1 91.9522 6.1572 30.9038 0.0000 -28.8504 0.0000
# 2 6.1572 113.2678 33.3505 0.0000 -15.6653 0.0000
# 3 30.9038 33.3505 74.4073 0.0000 -7.7947 0.0000
# 4 0.0000 0.0000 0.0000 43.3270 0.0000 9.7187
# 5 -28.8504 -15.6653 -7.7947 0.0000 50.0909 0.0000
# 6 0.0000 0.0000 0.0000 9.7187 0.0000 10.6250
#
#
#
# Elastic Compliance Matrix: (Units=1/GPa)
#
#
# Indices 1 2 3 4 5 6 
#
# 1 0.015689 0.002308 -0.006636 0.000000 0.008725 0.000000
# 2 0.002308 0.010831 -0.005407 0.000000 0.003875 0.000000
# 3 -0.006636 -0.005407 0.018341 0.000000 -0.002659 0.000000
# 4 0.000000 0.000000 0.000000 0.029038 0.000000 -0.026562
# 5 0.008725 0.003875 -0.002659 0.000000 0.025787 0.000000
# 6 0.000000 0.000000 0.000000 -0.026562 0.000000 0.118414
#
#
# Mechanical properties :
#
#
# Convention : Reuss Voigt Hill
#
# Bulk Modulus (GPa) = 39.38700 46.71672 43.05186
# Shear Modulus (GPa) = 20.32234 34.75629 27.53932
#
# Velocity S-wave (km/s) = 3.02138 3.95125 3.51718
# Velocity P-wave (km/s) = 5.46481 6.46541 5.98605
#
# Compressibility (1/GPa) = 0.02538909
#
# Stress axis : x y z
#
# Youngs Moduli (GPa) = 63.74044 92.32536 54.52287
#
# Poissons Ratio (x) = -0.21308 0.36184
# Poissons Ratio (y) = -0.14711 0.29482
# Poissons Ratio (z) = 0.42301 0.49923
#
# Static dielectric constant tensor:
#      x y z
#    x 1.852430 0.000000 0.062650 
#    y 0.000000 1.860950 0.000000 
#    z 0.062650 0.000000 1.804800 
# 
# From -- ./inp_files/61608.got.cif
#   From: 2010.05.17/outbox.cif.g08.bks.cpg/sg14_31_cif.got.tgz:61608.got - 2010.06.03 17:49:19.
