data_PCOD9248130
_publ_section_title
;
Structure prediction by ZEFSAII (Michael W. Deem and Ramdas Pophale) SiO2 
 PCOD9248130
Probable space group: P 21/C
;
_chemical_formula_sum "Si O2"
_cell_formula_units_Z 30
_cell_length_a 5.324583
_cell_length_b 18.826230
_cell_length_c 12.319482
_cell_angle_alpha 90.000000
_cell_angle_beta 119.509711
_cell_angle_gamma 90.000000
_cell_volume 1074.722969
_symmetry_space_group_name_H-M "P 21/C"
_symmetry_group_IT_number 14
_symmetry_cell_setting 'monoclinic'
loop_
_space_group_symop_operation_xyz
x,y,z
-x,1/2+y,1/2-z
-x,-y,-z
x,1/2-y,1/2+z
loop_
_atom_site_type_symbol
_atom_site_label
_atom_site_fract_x
_atom_site_fract_y
_atom_site_fract_z
Si Si1 0.407164 0.527706 0.220710
Si Si2 0.500000 0.500000 0.500000
Si Si3 0.178710 0.878675 0.055367
Si Si4 0.529856 0.750767 0.606122
Si Si5 0.779579 0.835552 0.791666
Si Si6 0.511804 0.776076 0.368066
Si Si7 0.830135 0.410577 0.222792
Si Si8 0.059652 0.879221 0.488336
O O1 0.376066 0.517934 0.343493
O O2 0.663498 0.586322 0.260629
O O3 0.553364 0.459752 0.192100
O O4 0.142654 0.566229 0.102127
O O5 0.716357 0.443534 0.492977
O O6 0.446350 0.826900 0.139044
O O7 0.009699 0.909332 0.125168
O O8 0.990354 0.831113 0.936124
O O9 0.837338 0.793300 0.694145
O O10 0.536890 0.728583 0.479962
O O11 0.310515 0.818965 0.546153
O O12 0.531752 0.778119 0.771863
O O13 0.239536 0.827230 0.304704
O O14 0.773463 0.832313 0.430509
O O15 0.943762 0.424140 0.126316
#
# Coordination Sequence:
#
# PCOD9248130 Si02
#       8
#     4   2   4   4   4   4   4   4
#     4  10  23  45  64  97 139 179 226 283 336 407
#     4  10  24  40  66  96 136 180 218 284 340 404
#     4  11  22  44  65  98 135 177 220 285 341 406
#     4  10  22  41  65  98 133 165 227 288 331 401
#     4  11  23  41  68  96 129 180 225 269 348 401
#     4  11  22  40  67 100 126 178 227 277 341 396
#     4  10  23  43  65  96 141 172 226 280 335 404
#     4  10  22  42  69  98 131 179 227 282 335 399
#
# _framework density 27.914173000000002
#
# number of rings (size 3 to 8) (size 9 to 14) (size 15 to 20)
#    0.000    1.600    2.667    1.200    1.867    3.733 
#    9.600    0.000    0.000    0.000    0.000    0.000 
#    0.000    0.000    0.000    0.000    0.000    0.000 
#
# Total GULP energy -167060.981543 kJ/mol
# GULP energy per Si atom -5568.699385 kJ/mol
# Density = 2.785064 g / cm^3
# Si number density = 27.914173 Si / 1000 Ang^3
#
#
#
# Elastic Constant Matrix: (Units=GPa)
#
#
# Indices 1 2 3 4 5 6 
#
# 1 52.5649 34.8024 13.5341 0.0000 -15.7578 0.0000
# 2 34.8024 132.9822 48.8911 0.0000 -7.0726 0.0000
# 3 13.5341 48.8911 130.3431 0.0000 -26.6957 0.0000
# 4 0.0000 0.0000 0.0000 95.7155 0.0000 -28.6225
# 5 -15.7578 -7.0726 -26.6957 0.0000 29.6648 0.0000
# 6 0.0000 0.0000 0.0000 -28.6225 0.0000 69.8565
#
#
#
# Elastic Compliance Matrix: (Units=1/GPa)
#
#
# Indices 1 2 3 4 5 6 
#
# 1 0.028077 -0.007691 0.003247 0.000000 0.016003 0.000000
# 2 -0.007691 0.010857 -0.004389 0.000000 -0.005447 0.000000
# 3 0.003247 -0.004389 0.011181 0.000000 0.010740 0.000000
# 4 0.000000 0.000000 0.000000 0.011906 0.000000 0.004878
# 5 0.016003 -0.005447 0.010740 0.000000 0.050577 0.000000
# 6 0.000000 0.000000 0.000000 0.004878 0.000000 0.016314
#
#
# Mechanical properties :
#
#
# Convention : Reuss Voigt Hill
#
# Bulk Modulus (GPa) = 30.81770 56.70503 43.76137
# Shear Modulus (GPa) = 31.76724 53.62485 42.69605
#
# Velocity S-wave (km/s) = 3.37713 4.38775 3.91519
# Velocity P-wave (km/s) = 5.12551 6.78439 6.01244
#
# Compressibility (1/GPa) = 0.03244889
#
# Stress axis : x y z
#
# Youngs Moduli (GPa) = 35.61597 92.11047 89.43726
#
# Poissons Ratio (x) = 0.70839 -0.29040
# Poissons Ratio (y) = 0.27391 0.39256
# Poissons Ratio (z) = -0.11564 0.40430
#
# Static dielectric constant tensor:
#      x y z
#    x 2.296270 0.000000 0.050270 
#    y 0.000000 1.872850 0.000000 
#    z 0.050270 0.000000 2.448960 
# 
# From -- ./inp_files/21862.got.cif
#   From: 2010.05.17/outbox.cif.g08.bks.cpg/sg14_11_cif.got.tgz:21862.got - 2010.06.03 17:49:19.
