data_PCOD9248002
_publ_section_title
;
Structure prediction by ZEFSAII (Michael W. Deem and Ramdas Pophale) SiO2 
 PCOD9248002
Probable space group: P 21/C
;
_chemical_formula_sum "Si O2"
_cell_formula_units_Z 32
_cell_length_a 8.906789
_cell_length_b 19.710756
_cell_length_c 10.771489
_cell_angle_alpha 90.000000
_cell_angle_beta 41.735485
_cell_angle_gamma 90.000000
_cell_volume 1258.849887
_symmetry_space_group_name_H-M "P 21/C"
_symmetry_group_IT_number 14
_symmetry_cell_setting 'monoclinic'
loop_
_space_group_symop_operation_xyz
x,y,z
-x,1/2+y,1/2-z
-x,-y,-z
x,1/2-y,1/2+z
loop_
_atom_site_type_symbol
_atom_site_label
_atom_site_fract_x
_atom_site_fract_y
_atom_site_fract_z
Si Si1 0.420000 0.713505 0.864470
Si Si2 0.836100 0.682827 0.424746
Si Si3 0.749075 0.677421 0.865470
Si Si4 0.825453 0.954985 0.453848
Si Si5 0.832180 0.406035 0.069789
Si Si6 0.155200 0.516439 0.518841
Si Si7 0.554522 0.574154 0.525513
Si Si8 0.171958 0.845438 0.925095
O O1 0.624995 0.688721 0.650696
O O2 0.531280 0.708603 0.931284
O O3 0.211397 0.661574 0.979630
O O4 0.332370 0.784464 0.866234
O O5 0.862343 0.761203 0.370905
O O6 0.730668 0.633785 0.381381
O O7 0.062908 0.658065 0.354875
O O8 0.693835 0.608226 0.973798
O O9 0.944827 0.657677 0.648368
O O10 0.930184 0.925829 0.517469
O O11 0.011958 0.974329 0.233231
O O12 0.742294 0.029291 0.546980
O O13 0.683190 0.396317 0.287189
O O14 0.312806 0.452461 0.436198
O O15 0.000000 0.500000 0.500000
O O16 0.283965 0.584605 0.401326
O O17 0.500000 0.500000 0.500000
#
# Coordination Sequence:
#
# PCOD9248002 Si02
#       8
#     4   4   4   4   4   4   4   4
#     4  10  23  40  61  90 120 160 206 252 303 364
#     4  10  22  41  60  85 125 160 202 257 303 365
#     4  10  23  40  61  89 121 159 205 253 304 359
#     4  10  22  41  63  88 125 164 198 252 309 364
#     4  10  22  41  62  89 125 161 202 249 308 367
#     4  11  22  41  63  91 124 160 206 254 311 365
#     4  11  22  39  63  93 121 162 209 255 303 368
#     4  10  22  41  61  86 123 163 201 252 309 366
#
# _framework density 25.420027999999999
#
# number of rings (size 3 to 8) (size 9 to 14) (size 15 to 20)
#    0.000    1.750    2.500    0.750    3.500    4.500 
#    4.500    0.000    0.000    0.000    0.000    0.000 
#    0.000    0.000    0.000    0.000    0.000    0.000 
#
# Total GULP energy -178597.954717 kJ/mol
# GULP energy per Si atom -5581.186085 kJ/mol
# Density = 2.536217 g / cm^3
# Si number density = 25.420028 Si / 1000 Ang^3
#
#
#
# Elastic Constant Matrix: (Units=GPa)
#
#
# Indices 1 2 3 4 5 6 
#
# 1 45.3549 2.6450 -3.1707 0.0000 5.1876 0.0000
# 2 2.6450 125.1051 -8.4371 0.0000 5.2116 0.0000
# 3 -3.1707 -8.4371 69.7688 0.0000 10.8444 0.0000
# 4 0.0000 0.0000 0.0000 30.8683 0.0000 -6.4718
# 5 5.1876 5.2116 10.8444 0.0000 23.2685 0.0000
# 6 0.0000 0.0000 0.0000 -6.4718 0.0000 52.7231
#
#
#
# Elastic Compliance Matrix: (Units=1/GPa)
#
#
# Indices 1 2 3 4 5 6 
#
# 1 0.022876 -0.000102 0.001958 0.000000 -0.005990 0.000000
# 2 -0.000102 0.008190 0.001366 0.000000 -0.002448 0.000000
# 3 0.001958 0.001366 0.015851 0.000000 -0.008130 0.000000
# 4 0.000000 0.000000 0.000000 0.033251 0.000000 0.004082
# 5 -0.005990 -0.002448 -0.008130 0.000000 0.048649 0.000000
# 6 0.000000 0.000000 0.000000 0.004082 0.000000 0.019468
#
#
# Mechanical properties :
#
#
# Convention : Reuss Voigt Hill
#
# Bulk Modulus (GPa) = 18.73995 24.70034 21.72015
# Shear Modulus (GPa) = 31.32285 37.98475 34.65380
#
# Velocity S-wave (km/s) = 3.51410 3.86979 3.69622
# Velocity P-wave (km/s) = 4.88398 5.45023 5.17486
#
# Compressibility (1/GPa) = 0.05336193
#
# Stress axis : x y z
#
# Youngs Moduli (GPa) = 43.71336 122.10652 63.08772
#
# Poissons Ratio (x) = 0.01246 -0.12355
# Poissons Ratio (y) = 0.00446 -0.08619
# Poissons Ratio (z) = -0.08561 -0.16683
#
# Static dielectric constant tensor:
#      x y z
#    x 2.040050 0.000000 -0.005320 
#    y 0.000000 2.066510 0.000000 
#    z -0.005320 0.000000 2.179790 
# 
# From -- ./inp_files/26761.got.cif
#   From: 2010.05.17/outbox.cif.g08.bks.cpg/sg14_14_cif.got.tgz:26761.got - 2010.06.03 17:49:19.
