data_PCOD9248887
_publ_section_title
;
Structure prediction by ZEFSAII (Michael W. Deem and Ramdas Pophale) SiO2 
 PCOD9248887
Probable space group: P 21/C
;
_chemical_formula_sum "Si O2"
_cell_formula_units_Z 32
_cell_length_a 11.595857
_cell_length_b 14.160179
_cell_length_c 14.483521
_cell_angle_alpha 90.000000
_cell_angle_beta 33.127817
_cell_angle_gamma 90.000000
_cell_volume 1299.698909
_symmetry_space_group_name_H-M "P 21/C"
_symmetry_group_IT_number 14
_symmetry_cell_setting 'monoclinic'
loop_
_space_group_symop_operation_xyz
x,y,z
-x,1/2+y,1/2-z
-x,-y,-z
x,1/2-y,1/2+z
loop_
_atom_site_type_symbol
_atom_site_label
_atom_site_fract_x
_atom_site_fract_y
_atom_site_fract_z
Si Si1 0.949118 0.357938 0.732420
Si Si2 0.717338 0.465579 0.242192
Si Si3 0.345415 0.826102 0.899220
Si Si4 0.170342 0.757030 0.343611
Si Si5 0.110132 0.172659 0.699557
Si Si6 0.295213 0.298239 0.272011
Si Si7 0.902099 0.010875 0.415760
Si Si8 0.681198 0.962243 0.096098
O O1 0.114134 0.273455 0.644487
O O2 0.081171 0.442038 0.596921
O O3 0.789530 0.314848 0.765972
O O4 0.841856 0.398973 0.895031
O O5 0.805309 0.362429 0.206425
O O6 0.469334 0.457741 0.393458
O O7 0.848855 0.526894 0.226324
O O8 0.793105 0.491676 0.087994
O O9 0.319673 0.757072 0.830151
O O10 0.541932 0.788006 0.825194
O O11 0.353464 0.930418 0.850233
O O12 0.133163 0.828570 0.101961
O O13 0.933830 0.736593 0.537817
O O14 0.256090 0.172870 0.692278
O O15 0.145711 0.083521 0.609642
O O16 0.356787 0.386445 0.297189
#
# Coordination Sequence:
#
# PCOD9248887 Si02
#       8
#     4   4   4   4   4   4   4   4
#     4  11  24  43  67 101 130 174 228 281 332 404
#     4  11  24  44  67  97 137 185 224 280 344 410
#     4  11  23  43  69 101 137 180 223 283 344 407
#     4  10  22  44  70  92 137 183 222 276 340 407
#     4  11  24  44  67  97 139 178 221 288 342 400
#     4  10  24  41  67  98 137 177 226 281 342 407
#     4  11  24  42  68  95 137 181 224 275 349 402
#     4  11  25  41  70 102 131 175 237 275 337 414
#
# _framework density 24.621086999999999
#
# number of rings (size 3 to 8) (size 9 to 14) (size 15 to 20)
#    0.000    1.250    3.750    1.500    7.000    3.000 
#    0.000    0.625    0.000    0.000    0.000    0.000 
#    0.000    0.000    0.000    0.000    0.000    0.000 
#
# Total GULP energy -179103.618434 kJ/mol
# GULP energy per Si atom -5596.988076 kJ/mol
# Density = 2.456505 g / cm^3
# Si number density = 24.621087 Si / 1000 Ang^3
#
#
#
# Elastic Constant Matrix: (Units=GPa)
#
#
# Indices 1 2 3 4 5 6 
#
# 1 92.3901 -6.2298 15.4504 0.0000 9.5987 0.0000
# 2 -6.2298 57.9393 -1.8691 0.0000 8.6935 0.0000
# 3 15.4504 -1.8691 42.2146 0.0000 11.1960 0.0000
# 4 0.0000 0.0000 0.0000 20.2854 0.0000 2.5848
# 5 9.5987 8.6935 11.1960 0.0000 31.0740 0.0000
# 6 0.0000 0.0000 0.0000 2.5848 0.0000 39.5018
#
#
#
# Elastic Compliance Matrix: (Units=1/GPa)
#
#
# Indices 1 2 3 4 5 6 
#
# 1 0.011810 0.001581 -0.003502 0.000000 -0.002829 0.000000
# 2 0.001581 0.018443 0.001919 0.000000 -0.006340 0.000000
# 3 -0.003502 0.001919 0.027543 0.000000 -0.009379 0.000000
# 4 0.000000 0.000000 0.000000 0.049711 0.000000 -0.003253
# 5 -0.002829 -0.006340 -0.009379 0.000000 0.038208 0.000000
# 6 0.000000 0.000000 0.000000 -0.003253 0.000000 0.025528
#
#
# Mechanical properties :
#
#
# Convention : Reuss Voigt Hill
#
# Bulk Modulus (GPa) = 17.30355 23.02745 20.16550
# Shear Modulus (GPa) = 26.24545 30.51841 28.38193
#
# Velocity S-wave (km/s) = 3.26847 3.52451 3.39890
# Velocity P-wave (km/s) = 4.61379 5.09273 4.85916
#
# Compressibility (1/GPa) = 0.05779161
#
# Stress axis : x y z
#
# Youngs Moduli (GPa) = 84.67521 54.22230 36.30740
#
# Poissons Ratio (x) = -0.08574 0.12715
# Poissons Ratio (y) = -0.13389 -0.06968
# Poissons Ratio (z) = 0.29655 -0.10406
#
# Static dielectric constant tensor:
#      x y z
#    x 1.951720 0.000000 -0.035690 
#    y 0.000000 1.956270 0.000000 
#    z -0.035690 0.000000 2.009660 
# 
# From -- ./inp_files/45080.got.cif
#   From: 2010.05.17/outbox.cif.g08.bks.cpg/sg14_23_cif.got.tgz:45080.got - 2010.06.03 17:49:19.
