data_PCOD9248656
_publ_section_title
;
Structure prediction by ZEFSAII (Michael W. Deem and Ramdas Pophale) SiO2 
 PCOD9248656
Probable space group: P 21/C
;
_chemical_formula_sum "Si O2"
_cell_formula_units_Z 24
_cell_length_a 7.945686
_cell_length_b 9.831594
_cell_length_c 19.101471
_cell_angle_alpha 90.000000
_cell_angle_beta 132.320233
_cell_angle_gamma 90.000000
_cell_volume 1103.310394
_symmetry_space_group_name_H-M "P 21/C"
_symmetry_group_IT_number 14
_symmetry_cell_setting 'monoclinic'
loop_
_space_group_symop_operation_xyz
x,y,z
-x,1/2+y,1/2-z
-x,-y,-z
x,1/2-y,1/2+z
loop_
_atom_site_type_symbol
_atom_site_label
_atom_site_fract_x
_atom_site_fract_y
_atom_site_fract_z
Si Si1 0.921080 0.066577 0.389308
Si Si2 0.065156 0.712781 0.970135
Si Si3 0.298379 0.657530 0.315511
Si Si4 0.870801 0.673330 0.287090
Si Si5 0.442099 0.924893 0.287341
Si Si6 0.485105 0.874428 0.137673
O O1 0.001305 0.175320 0.468843
O O2 0.863022 0.122884 0.297097
O O3 0.678733 0.007955 0.350734
O O4 0.081115 0.933992 0.435955
O O5 0.881816 0.793569 0.872882
O O6 0.295919 0.797609 0.040185
O O7 0.432998 0.793105 0.333123
O O8 0.457075 0.526470 0.369856
O O9 0.125637 0.677767 0.330416
O O10 0.752642 0.528951 0.243845
O O11 0.716463 0.786775 0.206482
O O12 0.403520 0.880934 0.195858
#
# Coordination Sequence:
#
# PCOD9248656 Si02
#       6
#     4   4   4   4   4   4
#     4  10  22  43  68  94 129 175 222 264 320 396
#     4  11  22  42  70  98 126 172 226 269 312 394
#     4  11  23  42  66  98 137 170 207 275 337 379
#     4  12  24  41  69  96 134 169 216 274 330 376
#     4  11  21  42  68  92 125 181 214 259 327 394
#     4  11  22  44  68  92 131 175 220 262 320 397
#
# _framework density 21.75272
#
# number of rings (size 3 to 8) (size 9 to 14) (size 15 to 20)
#    0.000    1.000    6.667    2.000    0.000    1.333 
#    0.000    5.000    0.000    0.000    0.000    0.000 
#    0.000    0.000    0.000    0.000    0.000    0.000 
#
# Total GULP energy -134173.396185 kJ/mol
# GULP energy per Si atom -5590.558174 kJ/mol
# Density = 2.170321 g / cm^3
# Si number density = 21.752720 Si / 1000 Ang^3
#
#
#
# Elastic Constant Matrix: (Units=GPa)
#
#
# Indices 1 2 3 4 5 6 
#
# 1 78.7394 35.5814 -10.8463 0.0000 4.4113 0.0000
# 2 35.5814 121.0477 22.0103 0.0000 12.1022 0.0000
# 3 -10.8463 22.0103 81.8744 0.0000 5.7403 0.0000
# 4 0.0000 0.0000 0.0000 21.2721 0.0000 7.2375
# 5 4.4113 12.1022 5.7403 0.0000 18.1716 0.0000
# 6 0.0000 0.0000 0.0000 7.2375 0.0000 28.7784
#
#
#
# Elastic Compliance Matrix: (Units=1/GPa)
#
#
# Indices 1 2 3 4 5 6 
#
# 1 0.015559 -0.005063 0.003529 0.000000 -0.001520 0.000000
# 2 -0.005063 0.010834 -0.003235 0.000000 -0.004964 0.000000
# 3 0.003529 -0.003235 0.013765 0.000000 -0.003050 0.000000
# 4 0.000000 0.000000 0.000000 0.051409 0.000000 -0.012929
# 5 -0.001520 -0.004964 -0.003050 0.000000 0.059670 0.000000
# 6 0.000000 0.000000 0.000000 -0.012929 0.000000 0.038000
#
#
# Mechanical properties :
#
#
# Convention : Reuss Voigt Hill
#
# Bulk Modulus (GPa) = 32.65919 41.68359 37.17139
# Shear Modulus (GPa) = 23.92547 29.30549 26.61548
#
# Velocity S-wave (km/s) = 3.32005 3.67442 3.50172
# Velocity P-wave (km/s) = 5.45375 6.09966 5.78573
#
# Compressibility (1/GPa) = 0.03061926
#
# Stress axis : x y z
#
# Youngs Moduli (GPa) = 64.26960 92.30073 72.64838
#
# Poissons Ratio (x) = 0.46735 -0.25637
# Poissons Ratio (y) = 0.32542 0.23504
# Poissons Ratio (z) = -0.22681 0.29862
#
# Static dielectric constant tensor:
#      x y z
#    x 1.760020 0.000000 0.002040 
#    y 0.000000 1.815430 0.000000 
#    z 0.002040 0.000000 1.802850 
# 
# From -- ./inp_files/64887.got.cif
#   From: 2010.05.17/outbox.cif.g08.bks.cpg/sg14_33_cif.got.tgz:64887.got - 2010.06.03 17:49:19.
