data_PCOD9248324
_publ_section_title
;
Structure prediction by ZEFSAII (Michael W. Deem and Ramdas Pophale) SiO2 
 PCOD9248324
Probable space group: P 21/C
;
_chemical_formula_sum "Si O2"
_cell_formula_units_Z 32
_cell_length_a 16.652182
_cell_length_b 9.398358
_cell_length_c 9.319050
_cell_angle_alpha 90.000000
_cell_angle_beta 119.134991
_cell_angle_gamma 90.000000
_cell_volume 1273.929163
_symmetry_space_group_name_H-M "P 21/C"
_symmetry_group_IT_number 14
_symmetry_cell_setting 'monoclinic'
loop_
_space_group_symop_operation_xyz
x,y,z
-x,1/2+y,1/2-z
-x,-y,-z
x,1/2-y,1/2+z
loop_
_atom_site_type_symbol
_atom_site_label
_atom_site_fract_x
_atom_site_fract_y
_atom_site_fract_z
Si Si1 0.761815 0.702515 0.384329
Si Si2 0.537553 0.395329 0.654023
Si Si3 0.113447 0.360141 0.781798
Si Si4 0.990647 0.932243 0.330318
Si Si5 0.399892 0.577474 0.011903
Si Si6 0.731547 0.248415 0.254284
Si Si7 0.575314 0.715215 0.094776
Si Si8 0.802620 0.066402 0.068861
O O1 0.820149 0.808994 0.532078
O O2 0.826496 0.646251 0.310741
O O3 0.669688 0.770191 0.240452
O O4 0.740382 0.566281 0.465253
O O5 0.500000 0.500000 0.500000
O O6 0.565418 0.491329 0.812134
O O7 0.633551 0.307753 0.727619
O O8 0.450582 0.288722 0.578537
O O9 0.072758 0.510447 0.800145
O O10 0.034316 0.236390 0.692330
O O11 0.902963 0.002617 0.176151
O O12 0.000000 0.000000 0.500000
O O13 0.472307 0.709795 0.071546
O O14 0.299490 0.637351 0.894226
O O15 0.408653 0.453891 0.904028
O O16 0.789759 0.317762 0.431843
O O17 0.777338 0.125408 0.202650
#
# Coordination Sequence:
#
# PCOD9248324 Si02
#       8
#     4   4   4   4   4   4   4   4
#     4  11  25  46  72 111 142 196 241 311 364 449
#     4  11  26  38  65  99 137 192 249 302 355 433
#     4  11  26  49  79 108 153 189 252 301 386 452
#     4  11  26  52  78 112 148 195 241 308 385 459
#     4  10  22  42  65  92 139 190 242 289 360 425
#     4  11  23  46  66 105 145 189 247 304 362 440
#     4  10  24  41  66  91 140 186 231 297 365 411
#     4  11  26  44  74 105 147 189 246 308 373 449
#
# _framework density 25.119138
#
# number of rings (size 3 to 8) (size 9 to 14) (size 15 to 20)
#    0.000    1.250    3.750    0.000    8.750    4.000 
#    2.250    0.000    0.000    0.000    0.000    0.000 
#    0.000    0.000    0.000    0.000    0.000    0.000 
#
# Total GULP energy -178521.596573 kJ/mol
# GULP energy per Si atom -5578.799893 kJ/mol
# Density = 2.506197 g / cm^3
# Si number density = 25.119138 Si / 1000 Ang^3
#
#
#
# Elastic Constant Matrix: (Units=GPa)
#
#
# Indices 1 2 3 4 5 6 
#
# 1 55.1503 18.8220 14.1044 0.0000 -1.5095 0.0000
# 2 18.8220 67.0219 -1.3469 0.0000 7.3312 0.0000
# 3 14.1044 -1.3469 132.5066 0.0000 16.8080 0.0000
# 4 0.0000 0.0000 0.0000 29.8665 0.0000 -9.0828
# 5 -1.5095 7.3312 16.8080 0.0000 27.3740 0.0000
# 6 0.0000 0.0000 0.0000 -9.0828 0.0000 29.6962
#
#
#
# Elastic Compliance Matrix: (Units=1/GPa)
#
#
# Indices 1 2 3 4 5 6 
#
# 1 0.021242 -0.006541 -0.002926 0.000000 0.004720 0.000000
# 2 -0.006541 0.017451 0.001640 0.000000 -0.006041 0.000000
# 3 -0.002926 0.001640 0.008623 0.000000 -0.005895 0.000000
# 4 0.000000 0.000000 0.000000 0.036916 0.000000 0.011291
# 5 0.004720 -0.006041 -0.005895 0.000000 0.042029 0.000000
# 6 0.000000 0.000000 0.000000 0.011291 0.000000 0.037128
#
#
# Mechanical properties :
#
#
# Convention : Reuss Voigt Hill
#
# Bulk Modulus (GPa) = 31.58358 35.31532 33.44945
# Shear Modulus (GPa) = 26.37186 32.26065 29.31625
#
# Velocity S-wave (km/s) = 3.24369 3.58761 3.41997
# Velocity P-wave (km/s) = 5.16038 5.59025 5.37961
#
# Compressibility (1/GPa) = 0.03166202
#
# Stress axis : x y z
#
# Youngs Moduli (GPa) = 47.07656 57.30307 115.97293
#
# Poissons Ratio (x) = 0.37479 0.33936
# Poissons Ratio (y) = 0.30791 -0.19018
# Poissons Ratio (z) = 0.13776 -0.09397
#
# Static dielectric constant tensor:
#      x y z
#    x 2.141540 0.000000 -0.151350 
#    y 0.000000 2.220630 0.000000 
#    z -0.151350 0.000000 2.187180 
# 
# From -- ./inp_files/17855.got.cif
#   From: 2010.05.17/outbox.cif.g08.bks.cpg/sg14_9_cif.got.tgz:17855.got - 2010.06.03 17:49:19.
