data_PCOD9248850
_publ_section_title
;
Structure prediction by ZEFSAII (Michael W. Deem and Ramdas Pophale) SiO2 
 PCOD9248850
Probable space group: P 21/C
;
_chemical_formula_sum "Si O2"
_cell_formula_units_Z 20
_cell_length_a 9.132924
_cell_length_b 14.987425
_cell_length_c 7.340877
_cell_angle_alpha 90.000000
_cell_angle_beta 129.898623
_cell_angle_gamma 90.000000
_cell_volume 770.872242
_symmetry_space_group_name_H-M "P 21/C"
_symmetry_group_IT_number 14
_symmetry_cell_setting 'monoclinic'
loop_
_space_group_symop_operation_xyz
x,y,z
-x,1/2+y,1/2-z
-x,-y,-z
x,1/2-y,1/2+z
loop_
_atom_site_type_symbol
_atom_site_label
_atom_site_fract_x
_atom_site_fract_y
_atom_site_fract_z
Si Si1 0.428299 0.816374 0.809651
Si Si2 0.604567 0.121143 0.630756
Si Si3 0.130509 0.178548 0.860456
Si Si4 0.196165 0.055581 0.263990
Si Si5 0.058229 0.635035 0.160809
O O1 0.412514 0.858528 0.598445
O O2 0.287238 0.868206 0.831800
O O3 0.349123 0.715433 0.743347
O O4 0.651242 0.808847 0.035922
O O5 0.394064 0.088069 0.516036
O O6 0.753631 0.042022 0.770251
O O7 0.037503 0.060898 0.291449
O O8 0.014616 0.134144 0.604803
O O9 0.027400 0.271658 0.827897
O O10 0.148188 0.120871 0.058207
#
# Coordination Sequence:
#
# PCOD9248850 Si02
#       5
#     4   4   4   4   4
#     4  11  23  42  68  97 133 175 228 274 340 405
#     4  10  22  44  68  99 139 179 223 290 335 402
#     4  11  22  43  68  98 135 179 220 278 341 397
#     4  10  23  44  68 100 142 174 231 286 331 405
#     4  12  22  41  71  98 133 183 225 274 341 404
#
# _framework density 25.944638000000001
#
# number of rings (size 3 to 8) (size 9 to 14) (size 15 to 20)
#    0.000    1.200    4.000    2.400    0.000    0.800 
#    3.600    7.000    0.000    2.400    0.000    0.000 
#    0.000    0.000    0.000    0.000    0.000    0.000 
#
# Total GULP energy -112253.110240 kJ/mol
# GULP energy per Si atom -5612.655512 kJ/mol
# Density = 2.588559 g / cm^3
# Si number density = 25.944638 Si / 1000 Ang^3
#
#
#
# Elastic Constant Matrix: (Units=GPa)
#
#
# Indices 1 2 3 4 5 6 
#
# 1 158.2894 9.0026 21.1040 0.0000 35.3876 0.0000
# 2 9.0026 77.5452 -7.6976 0.0000 13.4502 0.0000
# 3 21.1040 -7.6976 78.5797 0.0000 8.2219 0.0000
# 4 0.0000 0.0000 0.0000 27.9452 0.0000 0.0913
# 5 35.3876 13.4502 8.2219 0.0000 38.8757 0.0000
# 6 0.0000 0.0000 0.0000 0.0913 0.0000 33.4622
#
#
#
# Elastic Compliance Matrix: (Units=1/GPa)
#
#
# Indices 1 2 3 4 5 6 
#
# 1 0.008088 0.000155 -0.001412 0.000000 -0.007118 0.000000
# 2 0.000155 0.014000 0.001893 0.000000 -0.005385 0.000000
# 3 -0.001412 0.001893 0.013524 0.000000 -0.002230 0.000000
# 4 0.000000 0.000000 0.000000 0.035785 0.000000 -0.000098
# 5 -0.007118 -0.005385 -0.002230 0.000000 0.034537 0.000000
# 6 0.000000 0.000000 0.000000 -0.000098 0.000000 0.029885
#
#
# Mechanical properties :
#
#
# Convention : Reuss Voigt Hill
#
# Bulk Modulus (GPa) = 27.11180 39.91469 33.51324
# Shear Modulus (GPa) = 34.05061 39.52366 36.78713
#
# Velocity S-wave (km/s) = 3.62668 3.90729 3.76960
# Velocity P-wave (km/s) = 5.29241 5.98112 5.64728
#
# Compressibility (1/GPa) = 0.03688431
#
# Stress axis : x y z
#
# Youngs Moduli (GPa) = 123.63661 71.43016 73.94273
#
# Poissons Ratio (x) = -0.01110 0.10443
# Poissons Ratio (y) = -0.01921 -0.13999
# Poissons Ratio (z) = 0.17461 -0.13523
#
# Static dielectric constant tensor:
#      x y z
#    x 2.031750 0.000000 0.050260 
#    y 0.000000 2.016310 0.000000 
#    z 0.050260 0.000000 1.995330 
# 
# From -- ./inp_files/8996.got.cif
#   From: 2010.05.17/outbox.cif.g08.bks.cpg/sg14_5_cif.got.tgz:8996.got - 2010.06.03 17:49:19.
