data_PCOD9248338
_publ_section_title
;
Structure prediction by ZEFSAII (Michael W. Deem and Ramdas Pophale) SiO2 
 PCOD9248338
Probable space group: P 21/C
;
_chemical_formula_sum "Si O2"
_cell_formula_units_Z 18
_cell_length_a 6.259329
_cell_length_b 8.814617
_cell_length_c 17.638878
_cell_angle_alpha 90.000000
_cell_angle_beta 138.364680
_cell_angle_gamma 90.000000
_cell_volume 646.581616
_symmetry_space_group_name_H-M "P 21/C"
_symmetry_group_IT_number 14
_symmetry_cell_setting 'monoclinic'
loop_
_space_group_symop_operation_xyz
x,y,z
-x,1/2+y,1/2-z
-x,-y,-z
x,1/2-y,1/2+z
loop_
_atom_site_type_symbol
_atom_site_label
_atom_site_fract_x
_atom_site_fract_y
_atom_site_fract_z
Si Si1 0.134552 0.335519 0.887066
Si Si2 0.000000 0.000000 0.500000
Si Si3 0.191051 0.407826 0.738022
Si Si4 0.249172 0.838582 0.006657
Si Si5 0.555251 0.126868 0.786202
O O1 0.091664 0.427576 0.796896
O O2 0.179548 0.443534 0.969879
O O3 0.818500 0.232851 0.815481
O O4 0.437469 0.229306 0.950871
O O5 0.927020 0.189120 0.504854
O O6 0.276446 0.235257 0.741429
O O7 0.512199 0.504538 0.798583
O O8 0.932659 0.435837 0.604907
O O9 0.333642 0.938563 0.103397
#
# Coordination Sequence:
#
# PCOD9248338 Si02
#       5
#     4   2   4   4   4
#     4  10  24  41  67 104 136 180 241 276 351 413
#     4  10  22  42  66 100 138 176 228 288 342 412
#     4  11  25  43  73 100 142 185 229 289 346 418
#     4  10  23  42  70  99 137 182 230 286 349 411
#     4  10  25  44  65 105 138 178 235 285 350 411
#
# _framework density 27.838714
#
# number of rings (size 3 to 8) (size 9 to 14) (size 15 to 20)
#    0.000    1.778    0.000    1.333   12.444    6.222 
#    0.000    0.000    0.000    0.000    0.000    0.000 
#    0.000    0.000    0.000    0.000    0.000    0.000 
#
# Total GULP energy -100399.004546 kJ/mol
# GULP energy per Si atom -5577.722475 kJ/mol
# Density = 2.777535 g / cm^3
# Si number density = 27.838714 Si / 1000 Ang^3
#
#
#
# Elastic Constant Matrix: (Units=GPa)
#
#
# Indices 1 2 3 4 5 6 
#
# 1 167.9417 38.9858 60.6638 0.0000 -55.6796 0.0000
# 2 38.9858 99.6740 22.6339 0.0000 -25.2391 0.0000
# 3 60.6638 22.6339 76.8805 0.0000 -63.1260 0.0000
# 4 0.0000 0.0000 0.0000 47.9634 0.0000 -5.1474
# 5 -55.6796 -25.2391 -63.1260 0.0000 67.7281 0.0000
# 6 0.0000 0.0000 0.0000 -5.1474 0.0000 72.2471
#
#
#
# Elastic Compliance Matrix: (Units=1/GPa)
#
#
# Indices 1 2 3 4 5 6 
#
# 1 0.008769 -0.001814 -0.004350 0.000000 0.002478 0.000000
# 2 -0.001814 0.011459 0.001447 0.000000 0.004127 0.000000
# 3 -0.004350 0.001447 0.057605 0.000000 0.050654 0.000000
# 4 0.000000 0.000000 0.000000 0.021010 0.000000 0.001497
# 5 0.002478 0.004127 0.050654 0.000000 0.065552 0.000000
# 6 0.000000 0.000000 0.000000 0.001497 0.000000 0.013948
#
#
# Mechanical properties :
#
#
# Convention : Reuss Voigt Hill
#
# Bulk Modulus (GPa) = 14.62039 65.45147 40.03593
# Shear Modulus (GPa) = 23.74423 52.40189 38.07306
#
# Velocity S-wave (km/s) = 2.92365 4.34330 3.70216
# Velocity P-wave (km/s) = 4.08169 6.97957 5.71728
#
# Compressibility (1/GPa) = 0.06839761
#
# Stress axis : x y z
#
# Youngs Moduli (GPa) = 114.04396 87.26856 17.35946
#
# Poissons Ratio (x) = 0.15834 0.07552
# Poissons Ratio (y) = 0.20692 -0.02512
# Poissons Ratio (z) = 0.49612 -0.12627
#
# Static dielectric constant tensor:
#      x y z
#    x 2.067160 0.000000 0.078960 
#    y 0.000000 2.305740 0.000000 
#    z 0.078960 0.000000 1.929150 
# 
# From -- ./inp_files/20394.got.cif
#   From: 2010.05.17/outbox.cif.g08.bks.cpg/sg14_11_cif.got.tgz:20394.got - 2010.06.03 17:49:19.
