data_PCOD9248942
_publ_section_title
;
Structure prediction by ZEFSAII (Michael W. Deem and Ramdas Pophale) SiO2 
 PCOD9248942
Probable space group: P 21/C
;
_chemical_formula_sum "Si O2"
_cell_formula_units_Z 16
_cell_length_a 4.979770
_cell_length_b 23.148152
_cell_length_c 6.332095
_cell_angle_alpha 90.000000
_cell_angle_beta 129.714267
_cell_angle_gamma 90.000000
_cell_volume 561.481122
_symmetry_space_group_name_H-M "P 21/C"
_symmetry_group_IT_number 14
_symmetry_cell_setting 'monoclinic'
loop_
_space_group_symop_operation_xyz
x,y,z
-x,1/2+y,1/2-z
-x,-y,-z
x,1/2-y,1/2+z
loop_
_atom_site_type_symbol
_atom_site_label
_atom_site_fract_x
_atom_site_fract_y
_atom_site_fract_z
Si Si1 0.947218 0.884805 0.497798
Si Si2 0.165336 0.243428 0.644236
Si Si3 0.180824 0.038123 0.912960
Si Si4 0.844673 0.364805 0.447207
O O1 0.003256 0.820650 0.429896
O O2 0.027184 0.940949 0.399932
O O3 0.151021 0.887466 0.814084
O O4 0.528513 0.883073 0.331945
O O5 0.310140 0.247336 0.464773
O O6 0.895498 0.296667 0.494070
O O7 0.174047 0.102726 0.011609
O O8 0.500000 0.000000 0.000000
O O9 0.000000 0.000000 0.000000
#
# Coordination Sequence:
#
# PCOD9248942 Si02
#       4
#     4   4   4   4
#     4  11  26  49  76 115 155 207 264 332 405 481
#     4  10  22  44  74 112 156 202 260 334 404 484
#     4  12  26  52  78 114 160 212 270 328 402 490
#     4  11  26  49  76 115 155 207 264 332 405 481
#
# _framework density 28.496061999999998
#
# number of rings (size 3 to 8) (size 9 to 14) (size 15 to 20)
#    0.000    1.000    5.000    0.000    0.000   12.000 
#    0.000    0.000    0.000    0.000    0.000    0.000 
#    0.000    0.000    0.000    0.000    0.000    0.000 
#
# Total GULP energy -89260.458137 kJ/mol
# GULP energy per Si atom -5578.778634 kJ/mol
# Density = 2.843120 g / cm^3
# Si number density = 28.496062 Si / 1000 Ang^3
#
#
#
# Elastic Constant Matrix: (Units=GPa)
#
#
# Indices 1 2 3 4 5 6 
#
# 1 178.3374 44.3070 53.7190 0.0000 -20.6629 0.0000
# 2 44.3070 190.8292 46.3396 0.0000 -12.1757 0.0000
# 3 53.7190 46.3396 110.1181 0.0000 -24.3031 0.0000
# 4 0.0000 0.0000 0.0000 65.4517 0.0000 -19.3272
# 5 -20.6629 -12.1757 -24.3031 0.0000 38.9362 0.0000
# 6 0.0000 0.0000 0.0000 -19.3272 0.0000 59.3351
#
#
#
# Elastic Compliance Matrix: (Units=1/GPa)
#
#
# Indices 1 2 3 4 5 6 
#
# 1 0.006794 -0.000841 -0.002578 0.000000 0.001733 0.000000
# 2 -0.000841 0.005945 -0.002064 0.000000 0.000124 0.000000
# 3 -0.002578 -0.002064 0.012482 0.000000 0.005778 0.000000
# 4 0.000000 0.000000 0.000000 0.016904 0.000000 0.005506
# 5 0.001733 0.000124 0.005778 0.000000 0.030248 0.000000
# 6 0.000000 0.000000 0.000000 0.005506 0.000000 0.018647
#
#
# Mechanical properties :
#
#
# Convention : Reuss Voigt Hill
#
# Bulk Modulus (GPa) = 70.14801 85.33512 77.74157
# Shear Modulus (GPa) = 46.84411 55.07253 50.95832
#
# Velocity S-wave (km/s) = 4.05888 4.40095 4.23337
# Velocity P-wave (km/s) = 6.82907 7.47233 7.15793
#
# Compressibility (1/GPa) = 0.01425557
#
# Stress axis : x y z
#
# Youngs Moduli (GPa) = 147.19872 168.21854 80.11294
#
# Poissons Ratio (x) = 0.14144 0.20651
# Poissons Ratio (y) = 0.12376 0.16535
# Poissons Ratio (z) = 0.37944 0.34720
#
# Static dielectric constant tensor:
#      x y z
#    x 2.411450 0.000000 -0.113720 
#    y 0.000000 2.199350 0.000000 
#    z -0.113720 0.000000 2.430870 
# 
# From -- ./inp_files/386.got.cif
#   From: 2010.05.17/outbox.cif.g08.bks.cpg/sg14_1_cif.got.tgz:386.got - 2010.06.03 17:49:19.
