data_PCOD9248026
_publ_section_title
;
Structure prediction by ZEFSAII (Michael W. Deem and Ramdas Pophale) SiO2 
 PCOD9248026
Probable space group: P 21/C
;
_chemical_formula_sum "Si O2"
_cell_formula_units_Z 24
_cell_length_a 13.633538
_cell_length_b 8.534573
_cell_length_c 8.867337
_cell_angle_alpha 90.000000
_cell_angle_beta 100.988332
_cell_angle_gamma 90.000000
_cell_volume 1012.855155
_symmetry_space_group_name_H-M "P 21/C"
_symmetry_group_IT_number 14
_symmetry_cell_setting 'monoclinic'
loop_
_space_group_symop_operation_xyz
x,y,z
-x,1/2+y,1/2-z
-x,-y,-z
x,1/2-y,1/2+z
loop_
_atom_site_type_symbol
_atom_site_label
_atom_site_fract_x
_atom_site_fract_y
_atom_site_fract_z
Si Si1 0.124606 0.460788 0.680887
Si Si2 0.063047 0.332563 0.348551
Si Si3 0.415324 0.065133 0.768374
Si Si4 0.474036 0.757044 0.449348
Si Si5 0.196028 0.538456 0.193328
Si Si6 0.251284 0.662292 0.899601
O O1 0.123308 0.376175 0.518654
O O2 0.081318 0.341204 0.793291
O O3 0.229782 0.530045 0.767427
O O4 0.049015 0.609235 0.651325
O O5 0.104734 0.438266 0.224690
O O6 0.471595 0.113422 0.633719
O O7 0.447144 0.893918 0.837216
O O8 0.296166 0.066948 0.717780
O O9 0.453837 0.189662 0.902382
O O10 0.366981 0.818363 0.475685
O O11 0.216322 0.673809 0.321067
O O12 0.188466 0.615408 0.027453
#
# Coordination Sequence:
#
# PCOD9248026 Si02
#       6
#     4   4   4   4   4   4
#     4  11  25  44  69  97 135 174 215 269 323 389
#     4  11  25  44  67 101 134 172 217 265 327 389
#     4  10  23  40  62  91 127 169 215 269 324 388
#     4  10  22  41  62  90 126 167 216 267 326 386
#     4  11  24  41  65  95 129 171 221 273 330 391
#     4  11  23  42  67  94 129 175 220 272 328 386
#
# _framework density 23.695392999999999
#
# number of rings (size 3 to 8) (size 9 to 14) (size 15 to 20)
#    0.000    1.333    0.000    5.000    0.000   14.667 
#    0.000    0.000    0.000    0.000    0.000    0.000 
#    0.000    0.000    0.000    0.000    0.000    0.000 
#
# Total GULP energy -134456.170787 kJ/mol
# GULP energy per Si atom -5602.340449 kJ/mol
# Density = 2.364146 g / cm^3
# Si number density = 23.695393 Si / 1000 Ang^3
#
#
#
# Elastic Constant Matrix: (Units=GPa)
#
#
# Indices 1 2 3 4 5 6 
#
# 1 39.4137 20.0884 6.9376 0.0000 -7.4950 0.0000
# 2 20.0884 74.3484 20.1598 0.0000 -1.5388 0.0000
# 3 6.9376 20.1598 86.2485 0.0000 -4.5769 0.0000
# 4 0.0000 0.0000 0.0000 48.1192 0.0000 0.0764
# 5 -7.4950 -1.5388 -4.5769 0.0000 26.8530 0.0000
# 6 0.0000 0.0000 0.0000 0.0764 0.0000 36.9440
#
#
#
# Elastic Compliance Matrix: (Units=1/GPa)
#
#
# Indices 1 2 3 4 5 6 
#
# 1 0.031138 -0.008202 -0.000153 0.000000 0.008195 0.000000
# 2 -0.008202 0.016523 -0.003303 0.000000 -0.001906 0.000000
# 3 -0.000153 -0.003303 0.012479 0.000000 0.001895 0.000000
# 4 0.000000 0.000000 0.000000 0.020782 0.000000 -0.000043
# 5 0.008195 -0.001906 0.001895 0.000000 0.039741 0.000000
# 6 0.000000 0.000000 0.000000 -0.000043 0.000000 0.027068
#
#
# Mechanical properties :
#
#
# Convention : Reuss Voigt Hill
#
# Bulk Modulus (GPa) = 27.15668 32.70912 29.93290
# Shear Modulus (GPa) = 27.27459 32.57157 29.92308
#
# Velocity S-wave (km/s) = 3.39639 3.71158 3.55748
# Velocity P-wave (km/s) = 5.18327 5.67465 5.43452
#
# Compressibility (1/GPa) = 0.03682335
#
# Stress axis : x y z
#
# Youngs Moduli (GPa) = 32.11561 60.52310 80.13220
#
# Poissons Ratio (x) = 0.49642 0.01223
# Poissons Ratio (y) = 0.26342 0.26471
# Poissons Ratio (z) = 0.00490 0.19993
#
# Static dielectric constant tensor:
#      x y z
#    x 1.869200 0.000000 0.028410 
#    y 0.000000 1.887980 0.000000 
#    z 0.028410 0.000000 1.891480 
# 
# From -- ./inp_files/15071.got.cif
#   From: 2010.05.17/outbox.cif.g08.bks.cpg/sg14_8_cif.got.tgz:15071.got - 2010.06.03 17:49:19.
