data_PCOD9248991
_publ_section_title
;
Structure prediction by ZEFSAII (Michael W. Deem and Ramdas Pophale) SiO2 
 PCOD9248991
Probable space group: P 21/C
;
_chemical_formula_sum "Si O2"
_cell_formula_units_Z 24
_cell_length_a 18.055305
_cell_length_b 7.966108
_cell_length_c 18.214094
_cell_angle_alpha 90.000000
_cell_angle_beta 23.880729
_cell_angle_gamma 90.000000
_cell_volume 1060.560965
_symmetry_space_group_name_H-M "P 21/C"
_symmetry_group_IT_number 14
_symmetry_cell_setting 'monoclinic'
loop_
_space_group_symop_operation_xyz
x,y,z
-x,1/2+y,1/2-z
-x,-y,-z
x,1/2-y,1/2+z
loop_
_atom_site_type_symbol
_atom_site_label
_atom_site_fract_x
_atom_site_fract_y
_atom_site_fract_z
Si Si1 0.859157 0.894649 0.078541
Si Si2 0.424192 0.462357 0.389539
Si Si3 0.067755 0.194998 0.152298
Si Si4 0.724561 0.472177 0.994289
Si Si5 0.447428 0.334836 0.595533
Si Si6 0.514329 0.372054 0.898823
O O1 0.763135 0.726213 0.200265
O O2 0.690430 0.021079 0.219592
O O3 0.940452 0.848759 0.926046
O O4 0.000000 0.000000 0.000000
O O5 0.214335 0.427094 0.559769
O O6 0.466881 0.622880 0.402576
O O7 0.497791 0.300162 0.367521
O O8 0.545211 0.463546 0.206621
O O9 0.156512 0.375075 0.082113
O O10 0.865417 0.179868 0.368342
O O11 0.660964 0.524374 0.970628
O O12 0.500000 0.500000 0.500000
O O13 0.519170 0.185415 0.478744
#
# Coordination Sequence:
#
# PCOD9248991 Si02
#       6
#     4   4   4   4   4   4
#     4  12  24  41  65  99 137 175 231 290 345 415
#     4  10  22  45  68  94 137 179 227 283 342 409
#     4  11  25  39  68 101 130 176 229 279 345 412
#     4  11  23  42  66  99 135 175 227 285 342 406
#     4  10  22  45  68  95 132 185 225 272 354 417
#     4  10  23  42  68  94 137 179 224 285 342 410
#
# _framework density 22.629534
#
# number of rings (size 3 to 8) (size 9 to 14) (size 15 to 20)
#    0.000    1.333    3.333    1.500    2.333    2.667 
#    0.000    1.667    0.000    0.000    0.000    0.000 
#    0.000    0.000    0.000    0.000    0.000    0.000 
#
# Total GULP energy -134075.944953 kJ/mol
# GULP energy per Si atom -5586.497706 kJ/mol
# Density = 2.257803 g / cm^3
# Si number density = 22.629534 Si / 1000 Ang^3
#
#
#
# Elastic Constant Matrix: (Units=GPa)
#
#
# Indices 1 2 3 4 5 6 
#
# 1 116.8337 30.1994 32.6859 0.0000 2.1080 0.0000
# 2 30.1994 77.7694 13.2961 0.0000 -9.9195 0.0000
# 3 32.6859 13.2961 74.3646 0.0000 -10.3697 0.0000
# 4 0.0000 0.0000 0.0000 29.2981 0.0000 -8.0423
# 5 2.1080 -9.9195 -10.3697 0.0000 35.6465 0.0000
# 6 0.0000 0.0000 0.0000 -8.0423 0.0000 42.5506
#
#
#
# Elastic Compliance Matrix: (Units=1/GPa)
#
#
# Indices 1 2 3 4 5 6 
#
# 1 0.010867 -0.003834 -0.004512 0.000000 -0.003022 0.000000
# 2 -0.003834 0.014960 -0.000393 0.000000 0.004275 0.000000
# 3 -0.004512 -0.000393 0.016179 0.000000 0.004864 0.000000
# 4 0.000000 0.000000 0.000000 0.036000 0.000000 0.006804
# 5 -0.003022 0.004275 0.004864 0.000000 0.030837 0.000000
# 6 0.000000 0.000000 0.000000 0.006804 0.000000 0.024787
#
#
# Mechanical properties :
#
#
# Convention : Reuss Voigt Hill
#
# Bulk Modulus (GPa) = 40.77204 46.81449 43.79327
# Shear Modulus (GPa) = 31.39027 34.35148 32.87088
#
# Velocity S-wave (km/s) = 3.72847 3.90037 3.81539
# Velocity P-wave (km/s) = 6.04910 6.40438 6.22927
#
# Compressibility (1/GPa) = 0.02452661
#
# Stress axis : x y z
#
# Youngs Moduli (GPa) = 92.02069 66.84541 61.80764
#
# Poissons Ratio (x) = 0.25628 0.27890
# Poissons Ratio (y) = 0.35280 0.02432
# Poissons Ratio (z) = 0.41524 0.02630
#
# Static dielectric constant tensor:
#      x y z
#    x 1.868100 0.000000 0.026170 
#    y 0.000000 1.920010 0.000000 
#    z 0.026170 0.000000 1.824260 
# 
# From -- ./inp_files/69734.got.cif
#   From: 2010.05.17/outbox.cif.g08.bks.cpg/sg14_35_cif.got.tgz:69734.got - 2010.06.03 17:49:19.
