data_PCOD9248916
_publ_section_title
;
Structure prediction by ZEFSAII (Michael W. Deem and Ramdas Pophale) SiO2 
 PCOD9248916
Probable space group: P 21/C
;
_chemical_formula_sum "Si O2"
_cell_formula_units_Z 20
_cell_length_a 11.785205
_cell_length_b 9.132298
_cell_length_c 18.619180
_cell_angle_alpha 90.000000
_cell_angle_beta 25.474134
_cell_angle_gamma 90.000000
_cell_volume 861.887987
_symmetry_space_group_name_H-M "P 21/C"
_symmetry_group_IT_number 14
_symmetry_cell_setting 'monoclinic'
loop_
_space_group_symop_operation_xyz
x,y,z
-x,1/2+y,1/2-z
-x,-y,-z
x,1/2-y,1/2+z
loop_
_atom_site_type_symbol
_atom_site_label
_atom_site_fract_x
_atom_site_fract_y
_atom_site_fract_z
Si Si1 0.317779 0.798915 0.274284
Si Si2 0.513109 0.326992 0.484395
Si Si3 0.080201 0.706999 0.131195
Si Si4 0.088687 0.149613 0.913729
Si Si5 0.390475 0.995003 0.362678
O O1 0.369635 0.802117 0.161193
O O2 0.379014 0.942384 0.286390
O O3 0.492624 0.657339 0.198288
O O4 0.015233 0.768333 0.470180
O O5 0.500000 0.500000 0.500000
O O6 0.703285 0.251527 0.434024
O O7 0.207931 0.281437 0.668092
O O8 0.059583 0.817228 0.075371
O O9 0.142130 0.551195 0.054954
O O10 0.395436 0.123207 0.728100
O O11 0.000000 0.000000 0.000000
#
# Coordination Sequence:
#
# PCOD9248916 Si02
#       5
#     4   4   4   4   4
#     4  10  25  41  72 102 142 188 241 298 365 431
#     4  12  30  45  72 111 150 190 246 307 370 438
#     4  11  25  48  70 106 151 190 243 305 367 438
#     4   9  20  42  72  98 135 192 241 285 355 439
#     4  10  22  44  72 101 136 194 242 294 358 439
#
# _framework density 23.204872999999999
#
# number of rings (size 3 to 8) (size 9 to 14) (size 15 to 20)
#    0.000    1.600    2.000    0.000   14.000    2.400 
#    0.000    4.000    0.000    0.000    0.000    0.000 
#    0.000    0.000    0.000    0.000    0.000    0.000 
#
# Total GULP energy -111671.206236 kJ/mol
# GULP energy per Si atom -5583.560312 kJ/mol
# Density = 2.315206 g / cm^3
# Si number density = 23.204873 Si / 1000 Ang^3
#
#
#
# Elastic Constant Matrix: (Units=GPa)
#
#
# Indices 1 2 3 4 5 6 
#
# 1 92.5596 12.2535 80.6526 0.0000 25.5519 0.0000
# 2 12.2535 59.8021 12.8431 0.0000 15.2606 0.0000
# 3 80.6526 12.8431 133.7676 0.0000 12.7426 0.0000
# 4 0.0000 0.0000 0.0000 21.4568 0.0000 -6.8454
# 5 25.5519 15.2606 12.7426 0.0000 51.9155 0.0000
# 6 0.0000 0.0000 0.0000 -6.8454 0.0000 25.5536
#
#
#
# Elastic Compliance Matrix: (Units=1/GPa)
#
#
# Indices 1 2 3 4 5 6 
#
# 1 0.026574 0.000212 -0.015145 0.000000 -0.009424 0.000000
# 2 0.000212 0.018289 -0.001395 0.000000 -0.005138 0.000000
# 3 -0.015145 -0.001395 0.016375 0.000000 0.003845 0.000000
# 4 0.000000 0.000000 0.000000 0.050961 0.000000 0.013652
# 5 -0.009424 -0.005138 0.003845 0.000000 0.024467 0.000000
# 6 0.000000 0.000000 0.000000 0.013652 0.000000 0.042790
#
#
# Mechanical properties :
#
#
# Convention : Reuss Voigt Hill
#
# Bulk Modulus (GPa) = 34.98506 55.29197 45.13852
# Shear Modulus (GPa) = 22.55928 31.81052 27.18490
#
# Velocity S-wave (km/s) = 3.12136 3.70652 3.42646
# Velocity P-wave (km/s) = 5.30093 6.49594 5.92862
#
# Compressibility (1/GPa) = 0.02858363
#
# Stress axis : x y z
#
# Youngs Moduli (GPa) = 37.63052 54.67762 61.06992
#
# Poissons Ratio (x) = -0.01162 0.92490
# Poissons Ratio (y) = -0.00799 0.08516
# Poissons Ratio (z) = 0.56991 0.07625
#
# Static dielectric constant tensor:
#      x y z
#    x 1.868960 0.000000 -0.090560 
#    y 0.000000 1.880020 0.000000 
#    z -0.090560 0.000000 1.987650 
# 
# From -- ./inp_files/33653.got.cif
#   From: 2010.05.17/outbox.cif.g08.bks.cpg/sg14_17_cif.got.tgz:33653.got - 2010.06.03 17:49:19.
