data_PCOD9248369
_publ_section_title
;
Structure prediction by ZEFSAII (Michael W. Deem and Ramdas Pophale) SiO2 
 PCOD9248369
Probable space group: P 21/C
;
_chemical_formula_sum "Si O2"
_cell_formula_units_Z 32
_cell_length_a 14.477393
_cell_length_b 16.350738
_cell_length_c 12.548874
_cell_angle_alpha 90.000000
_cell_angle_beta 150.021067
_cell_angle_gamma 90.000000
_cell_volume 1484.314009
_symmetry_space_group_name_H-M "P 21/C"
_symmetry_group_IT_number 14
_symmetry_cell_setting 'monoclinic'
loop_
_space_group_symop_operation_xyz
x,y,z
-x,1/2+y,1/2-z
-x,-y,-z
x,1/2-y,1/2+z
loop_
_atom_site_type_symbol
_atom_site_label
_atom_site_fract_x
_atom_site_fract_y
_atom_site_fract_z
Si Si1 0.784607 0.522932 0.773871
Si Si2 0.715388 0.578670 0.476308
Si Si3 0.669577 0.488499 0.885490
Si Si4 0.987491 0.519400 0.363546
Si Si5 0.014788 0.319713 0.748471
Si Si6 0.418553 0.258817 0.188895
Si Si7 0.719625 0.152652 0.132215
Si Si8 0.749314 0.197407 0.392680
O O1 0.758325 0.584136 0.647374
O O2 0.718642 0.540338 0.828273
O O3 0.682668 0.439648 0.634281
O O4 0.000000 0.500000 0.000000
O O5 0.544457 0.515406 0.299045
O O6 0.880467 0.538605 0.575278
O O7 0.651672 0.665433 0.364253
O O8 0.718006 0.395356 0.898981
O O9 0.789768 0.509656 0.108267
O O10 0.000000 0.500000 0.500000
O O11 0.033725 0.614294 0.390028
O O12 0.896577 0.349374 0.731734
O O13 0.924796 0.233630 0.627828
O O14 0.232638 0.308750 0.980889
O O15 0.546027 0.301871 0.405377
O O16 0.566135 0.248217 0.240667
O O17 0.776841 0.200103 0.295173
#
# Coordination Sequence:
#
# PCOD9248369 Si02
#       8
#     4   4   4   4   4   4   4   4
#     4  11  20  40  72 103 133 164 214 283 346 390
#     4  11  23  43  66  98 131 172 220 277 333 400
#     4  10  22  42  67  97 129 165 214 288 339 390
#     4  12  27  43  63  94 133 185 228 263 331 405
#     4  11  23  41  63  90 131 177 217 271 323 406
#     4  10  24  41  65  95 133 167 222 269 338 404
#     4  10  22  42  66  98 131 171 216 278 333 399
#     4   9  22  41  65  94 128 165 218 281 339 388
#
# _framework density 21.558779999999999
#
# number of rings (size 3 to 8) (size 9 to 14) (size 15 to 20)
#    0.000    1.500    2.500    1.125    3.500    6.500 
#    4.500    0.000    0.000    0.000    0.000    0.000 
#    0.000    0.000    0.000    0.000    0.000    0.000 
#
# Total GULP energy -178774.784016 kJ/mol
# GULP energy per Si atom -5586.712001 kJ/mol
# Density = 2.150971 g / cm^3
# Si number density = 21.558780 Si / 1000 Ang^3
#
#
#
# Elastic Constant Matrix: (Units=GPa)
#
#
# Indices 1 2 3 4 5 6 
#
# 1 74.8585 6.8206 46.7548 0.0000 -16.9384 0.0000
# 2 6.8206 59.0183 14.0153 0.0000 -6.7147 0.0000
# 3 46.7548 14.0153 111.0962 0.0000 6.6838 0.0000
# 4 0.0000 0.0000 0.0000 41.3755 0.0000 -3.5262
# 5 -16.9384 -6.7147 6.6838 0.0000 37.6026 0.0000
# 6 0.0000 0.0000 0.0000 -3.5262 0.0000 18.6125
#
#
#
# Elastic Compliance Matrix: (Units=1/GPa)
#
#
# Indices 1 2 3 4 5 6 
#
# 1 0.022460 0.001246 -0.010342 0.000000 0.012178 0.000000
# 2 0.001246 0.018018 -0.003057 0.000000 0.004322 0.000000
# 3 -0.010342 -0.003057 0.014204 0.000000 -0.007729 0.000000
# 4 0.000000 0.000000 0.000000 0.024566 0.000000 0.004654
# 5 0.012178 0.004322 -0.007729 0.000000 0.034225 0.000000
# 6 0.000000 0.000000 0.000000 0.004654 0.000000 0.054609
#
#
# Mechanical properties :
#
#
# Convention : Reuss Voigt Hill
#
# Bulk Modulus (GPa) = 32.92194 42.23940 37.58067
# Shear Modulus (GPa) = 24.68960 31.34359 28.01660
#
# Velocity S-wave (km/s) = 3.38778 3.81710 3.60883
# Velocity P-wave (km/s) = 5.53233 6.24997 5.90207
#
# Compressibility (1/GPa) = 0.03037488
#
# Stress axis : x y z
#
# Youngs Moduli (GPa) = 44.52347 55.50103 70.40058
#
# Poissons Ratio (x) = -0.06915 0.72809
# Poissons Ratio (y) = -0.05547 0.21524
# Poissons Ratio (z) = 0.46047 0.16969
#
# Static dielectric constant tensor:
#      x y z
#    x 1.779740 0.000000 0.027170 
#    y 0.000000 1.849850 0.000000 
#    z 0.027170 0.000000 1.797050 
# 
# From -- ./inp_files/33057.got.cif
#   From: 2010.05.17/outbox.cif.g08.bks.cpg/sg14_17_cif.got.tgz:33057.got - 2010.06.03 17:49:19.
