data_PCOD9248048
_publ_section_title
;
Structure prediction by ZEFSAII (Michael W. Deem and Ramdas Pophale) SiO2 
 PCOD9248048
Probable space group: P 21/C
;
_chemical_formula_sum "Si O2"
_cell_formula_units_Z 24
_cell_length_a 11.854802
_cell_length_b 16.082545
_cell_length_c 11.593257
_cell_angle_alpha 90.000000
_cell_angle_beta 155.715533
_cell_angle_gamma 90.000000
_cell_volume 909.030974
_symmetry_space_group_name_H-M "P 21/C"
_symmetry_group_IT_number 14
_symmetry_cell_setting 'monoclinic'
loop_
_space_group_symop_operation_xyz
x,y,z
-x,1/2+y,1/2-z
-x,-y,-z
x,1/2-y,1/2+z
loop_
_atom_site_type_symbol
_atom_site_label
_atom_site_fract_x
_atom_site_fract_y
_atom_site_fract_z
Si Si1 0.749478 0.889453 0.586343
Si Si2 0.364990 0.332122 0.273878
Si Si3 0.107852 0.299933 0.259608
Si Si4 0.238844 0.988887 0.082599
Si Si5 0.224423 0.537793 0.295795
Si Si6 0.461116 0.657540 0.160345
O O1 0.746862 0.882043 0.442546
O O2 0.876720 0.800068 0.735048
O O3 0.432605 0.913614 0.307676
O O4 0.928640 0.959812 0.817967
O O5 0.136601 0.334969 0.159170
O O6 0.661490 0.368508 0.582277
O O7 0.428649 0.236053 0.307555
O O8 0.393755 0.326918 0.582351
O O9 0.861087 0.333654 0.109870
O O10 0.408384 0.072762 0.266752
O O11 0.206511 0.991877 0.912075
O O12 0.500000 0.500000 0.500000
O O13 0.000000 0.500000 0.000000
#
# Coordination Sequence:
#
# PCOD9248048 Si02
#       6
#     4   4   4   4   4   4
#     4  10  22  41  63  90 128 170 213 265 323 382
#     4  10  24  43  67  96 135 175 216 271 331 390
#     4  11  23  42  65  94 127 171 218 267 327 395
#     4  11  22  40  61  89 130 168 209 268 320 380
#     4  11  22  36  60  94 126 163 207 263 330 387
#     4  11  25  42  64  95 130 171 219 268 325 392
#
# _framework density 26.401738999999999
#
# number of rings (size 3 to 8) (size 9 to 14) (size 15 to 20)
#    0.000    1.333    0.000    7.000    0.000   12.000 
#    0.000    2.500    0.000    0.000    0.000    0.000 
#    0.000    0.000    0.000    0.333    0.000    0.000 
#
# Total GULP energy -134043.890678 kJ/mol
# GULP energy per Si atom -5585.162112 kJ/mol
# Density = 2.634165 g / cm^3
# Si number density = 26.401739 Si / 1000 Ang^3
#
#
#
# Elastic Constant Matrix: (Units=GPa)
#
#
# Indices 1 2 3 4 5 6 
#
# 1 56.4738 2.0424 6.3823 0.0000 -7.8932 0.0000
# 2 2.0424 160.3464 50.4372 0.0000 -10.1453 0.0000
# 3 6.3823 50.4372 172.4647 0.0000 -3.7406 0.0000
# 4 0.0000 0.0000 0.0000 48.2774 0.0000 -5.4326
# 5 -7.8932 -10.1453 -3.7406 0.0000 27.0438 0.0000
# 6 0.0000 0.0000 0.0000 -5.4326 0.0000 16.7417
#
#
#
# Elastic Compliance Matrix: (Units=1/GPa)
#
#
# Indices 1 2 3 4 5 6 
#
# 1 0.018530 0.000316 -0.000660 0.000000 0.005435 0.000000
# 2 0.000316 0.007020 -0.002012 0.000000 0.002447 0.000000
# 3 -0.000660 -0.002012 0.006410 0.000000 -0.000061 0.000000
# 4 0.000000 0.000000 0.000000 0.021499 0.000000 0.006976
# 5 0.005435 0.002447 -0.000061 0.000000 0.039473 0.000000
# 6 0.000000 0.000000 0.000000 0.006976 0.000000 0.061995
#
#
# Mechanical properties :
#
#
# Convention : Reuss Voigt Hill
#
# Bulk Modulus (GPa) = 36.70057 56.33432 46.51745
# Shear Modulus (GPa) = 29.63466 40.44079 35.03772
#
# Velocity S-wave (km/s) = 3.35393 3.91800 3.64689
# Velocity P-wave (km/s) = 5.37861 6.46926 5.94898
#
# Compressibility (1/GPa) = 0.02724753
#
# Stress axis : x y z
#
# Youngs Moduli (GPa) = 53.96593 142.44839 156.01360
#
# Poissons Ratio (x) = -0.04494 0.10299
# Poissons Ratio (y) = -0.01703 0.31384
# Poissons Ratio (z) = 0.03562 0.28655
#
# Static dielectric constant tensor:
#      x y z
#    x 2.033290 0.000000 -0.247540 
#    y 0.000000 61.785700 0.000000 
#    z -0.247540 0.000000 2.022070 
# 
# From -- ./inp_files/47560.got.cif
#   From: 2010.05.17/outbox.cif.g08.bks.cpg/sg14_24_cif.got.tgz:47560.got - 2010.06.03 17:49:19.
