data_PCOD9248309
_publ_section_title
;
Structure prediction by ZEFSAII (Michael W. Deem and Ramdas Pophale) SiO2 
 PCOD9248309
Probable space group: P 21/C
;
_chemical_formula_sum "Si O2"
_cell_formula_units_Z 32
_cell_length_a 12.057794
_cell_length_b 6.569810
_cell_length_c 18.749030
_cell_angle_alpha 90.000000
_cell_angle_beta 87.312037
_cell_angle_gamma 90.000000
_cell_volume 1483.615555
_symmetry_space_group_name_H-M "P 21/C"
_symmetry_group_IT_number 14
_symmetry_cell_setting 'monoclinic'
loop_
_space_group_symop_operation_xyz
x,y,z
-x,1/2+y,1/2-z
-x,-y,-z
x,1/2-y,1/2+z
loop_
_atom_site_type_symbol
_atom_site_label
_atom_site_fract_x
_atom_site_fract_y
_atom_site_fract_z
Si Si1 0.623101 0.308258 0.178654
Si Si2 0.819475 0.107053 0.244025
Si Si3 0.051390 0.277531 0.187641
Si Si4 0.189410 0.906162 0.127671
Si Si5 0.098391 0.549066 0.049973
Si Si6 0.585397 0.532884 0.325284
Si Si7 0.675378 0.017906 0.523639
Si Si8 0.513383 0.302809 0.451395
O O1 0.709437 0.131527 0.200182
O O2 0.617009 0.468904 0.244164
O O3 0.672132 0.395637 0.103938
O O4 0.498229 0.223202 0.170818
O O5 0.786897 0.218884 0.318883
O O6 0.924224 0.239123 0.212707
O O7 0.869542 0.882199 0.254952
O O8 0.062105 0.438921 0.123653
O O9 0.100193 0.063056 0.161393
O O10 0.133105 0.785382 0.063466
O O11 0.303643 0.037964 0.128642
O O12 0.207477 0.454195 0.010883
O O13 0.000000 0.500000 0.000000
O O14 0.517739 0.355191 0.367978
O O15 0.623906 0.186774 0.472407
O O16 0.589571 0.836038 0.527090
O O17 0.500000 0.500000 0.500000
#
# Coordination Sequence:
#
# PCOD9248309 Si02
#       8
#     4   4   4   4   4   4   4   4
#     4  11  24  41  65 101 135 171 222 292 332 407
#     4  10  22  42  64  97 132 170 225 271 335 406
#     4  11  22  42  71  92 130 181 218 276 342 397
#     4  10  23  41  66  93 131 177 218 277 332 413
#     4  11  25  43  65  97 133 175 230 280 332 403
#     4  11  23  42  66  97 138 168 226 275 346 400
#     4  11  24  43  67  94 136 174 225 279 336 401
#     4  11  23  43  68  94 129 183 220 268 337 417
#
# _framework density 21.568929000000001
#
# number of rings (size 3 to 8) (size 9 to 14) (size 15 to 20)
#    0.000    1.250    3.750    1.500    3.500    0.500 
#    2.250    0.000    0.000    0.000    0.000    0.000 
#    0.000    0.000    0.000    0.000    0.000    0.000 
#
# Total GULP energy -178589.396747 kJ/mol
# GULP energy per Si atom -5580.918648 kJ/mol
# Density = 2.151984 g / cm^3
# Si number density = 21.568929 Si / 1000 Ang^3
#
#
#
# Elastic Constant Matrix: (Units=GPa)
#
#
# Indices 1 2 3 4 5 6 
#
# 1 110.6575 3.0599 1.1566 0.0000 9.5983 0.0000
# 2 3.0599 35.5366 3.4476 0.0000 14.1649 0.0000
# 3 1.1566 3.4476 60.4686 0.0000 6.1803 0.0000
# 4 0.0000 0.0000 0.0000 23.1104 0.0000 3.3090
# 5 9.5983 14.1649 6.1803 0.0000 33.6986 0.0000
# 6 0.0000 0.0000 0.0000 3.3090 0.0000 21.8780
#
#
#
# Elastic Compliance Matrix: (Units=1/GPa)
#
#
# Indices 1 2 3 4 5 6 
#
# 1 0.009269 0.000303 0.000090 0.000000 -0.002784 0.000000
# 2 0.000303 0.033828 -0.000481 0.000000 -0.014217 0.000000
# 3 0.000090 -0.000481 0.016861 0.000000 -0.002916 0.000000
# 4 0.000000 0.000000 0.000000 0.044228 0.000000 -0.006689
# 5 -0.002784 -0.014217 -0.002916 0.000000 0.036978 0.000000
# 6 0.000000 0.000000 0.000000 -0.006689 0.000000 0.046720
#
#
# Mechanical properties :
#
#
# Convention : Reuss Voigt Hill
#
# Bulk Modulus (GPa) = 16.72782 24.66565 20.69674
# Shear Modulus (GPa) = 24.03979 29.00397 26.52188
#
# Velocity S-wave (km/s) = 3.34212 3.67101 3.51042
# Velocity P-wave (km/s) = 4.76082 5.42485 5.10364
#
# Compressibility (1/GPa) = 0.05978064
#
# Stress axis : x y z
#
# Youngs Moduli (GPa) = 107.88592 29.56169 59.30769
#
# Poissons Ratio (x) = -0.00895 -0.00534
# Poissons Ratio (y) = -0.03267 0.02855
# Poissons Ratio (z) = -0.00971 0.01423
#
# Static dielectric constant tensor:
#      x y z
#    x 1.768200 0.000000 0.037250 
#    y 0.000000 1.817190 0.000000 
#    z 0.037250 0.000000 1.819970 
# 
# From -- ./inp_files/66498.got.cif
#   From: 2010.05.17/outbox.cif.g08.bks.cpg/sg14_34_cif.got.tgz:66498.got - 2010.06.03 17:49:19.
