data_PCOD9248251
_publ_section_title
;
Structure prediction by ZEFSAII (Michael W. Deem and Ramdas Pophale) SiO2 
 PCOD9248251
Probable space group: P 21/C
;
_chemical_formula_sum "Si O2"
_cell_formula_units_Z 32
_cell_length_a 25.581905
_cell_length_b 6.697612
_cell_length_c 13.466198
_cell_angle_alpha 90.000000
_cell_angle_beta 31.128842
_cell_angle_gamma 90.000000
_cell_volume 1192.774686
_symmetry_space_group_name_H-M "P 21/C"
_symmetry_group_IT_number 14
_symmetry_cell_setting 'monoclinic'
loop_
_space_group_symop_operation_xyz
x,y,z
-x,1/2+y,1/2-z
-x,-y,-z
x,1/2-y,1/2+z
loop_
_atom_site_type_symbol
_atom_site_label
_atom_site_fract_x
_atom_site_fract_y
_atom_site_fract_z
Si Si1 0.467500 0.792130 0.500196
Si Si2 0.077392 0.323251 0.848393
Si Si3 0.404739 0.123424 0.875452
Si Si4 0.791495 0.617287 0.191607
Si Si5 0.923821 0.504521 0.807379
Si Si6 0.396284 0.832928 0.319685
Si Si7 0.265649 0.837886 0.696909
Si Si8 0.873179 0.446331 0.404002
O O1 0.563625 0.745893 0.272290
O O2 0.423290 0.655507 0.660007
O O3 0.372739 0.813172 0.580071
O O4 0.500000 0.000000 0.500000
O O5 0.129157 0.273137 0.866801
O O6 0.155937 0.430336 0.645626
O O7 0.167434 0.384020 0.986447
O O8 0.000000 0.500000 0.000000
O O9 0.503504 0.109019 0.783055
O O10 0.382636 0.904985 0.866960
O O11 0.318028 0.186020 0.093474
O O12 0.789597 0.377502 0.219219
O O13 0.957997 0.633068 0.657196
O O14 0.885365 0.282856 0.849677
O O15 0.016206 0.489243 0.735451
O O16 0.296050 0.915481 0.537958
O O17 0.200617 0.958734 0.882533
#
# Coordination Sequence:
#
# PCOD9248251 Si02
#       8
#     4   4   4   4   4   4   4   4
#     4   9  18  34  60  90 118 161 222 260 322 403
#     4  12  24  43  73  96 134 181 222 281 344 399
#     4   9  19  36  58  83 125 158 203 269 316 380
#     4  10  22  42  60  93 137 172 218 283 338 396
#     4  11  23  46  65 101 137 175 230 281 332 414
#     4   9  18  36  55  85 118 159 205 261 321 383
#     4   9  20  37  60  88 126 169 216 272 331 390
#     4  11  22  41  69  95 136 180 221 280 341 396
#
# _framework density 26.828201
#
# number of rings (size 3 to 8) (size 9 to 14) (size 15 to 20)
#    0.000    2.000    2.500    0.750    5.250    1.500 
#    4.500    8.125    0.000    0.000    0.000    0.000 
#    0.000    0.000    0.000    0.000    0.000    0.000 
#
# Total GULP energy -179045.826273 kJ/mol
# GULP energy per Si atom -5595.182071 kJ/mol
# Density = 2.676714 g / cm^3
# Si number density = 26.828201 Si / 1000 Ang^3
#
#
#
# Elastic Constant Matrix: (Units=GPa)
#
#
# Indices 1 2 3 4 5 6 
#
# 1 60.7069 12.2896 6.7205 0.0000 22.5535 0.0000
# 2 12.2896 76.7281 16.1214 0.0000 19.2977 0.0000
# 3 6.7205 16.1214 189.7791 0.0000 39.4602 0.0000
# 4 0.0000 0.0000 0.0000 49.3011 0.0000 16.8383
# 5 22.5535 19.2977 39.4602 0.0000 45.0279 0.0000
# 6 0.0000 0.0000 0.0000 16.8383 0.0000 36.6669
#
#
#
# Elastic Compliance Matrix: (Units=1/GPa)
#
#
# Indices 1 2 3 4 5 6 
#
# 1 0.020739 -0.000775 0.001739 0.000000 -0.011580 0.000000
# 2 -0.000775 0.014637 0.000009 0.000000 -0.005893 0.000000
# 3 0.001739 0.000009 0.006590 0.000000 -0.006650 0.000000
# 4 0.000000 0.000000 0.000000 0.024057 0.000000 -0.011047
# 5 -0.011580 -0.005893 -0.006650 0.000000 0.036362 0.000000
# 6 0.000000 0.000000 0.000000 -0.011047 0.000000 0.032346
#
#
# Mechanical properties :
#
#
# Convention : Reuss Voigt Hill
#
# Bulk Modulus (GPa) = 22.77211 44.16413 33.46812
# Shear Modulus (GPa) = 33.91659 45.67136 39.79397
#
# Velocity S-wave (km/s) = 3.55944 4.13045 3.85553
# Velocity P-wave (km/s) = 5.03977 6.26459 5.68526
#
# Compressibility (1/GPa) = 0.04391336
#
# Stress axis : x y z
#
# Youngs Moduli (GPa) = 48.21846 68.31833 151.75429
#
# Poissons Ratio (x) = 0.05293 -0.26392
# Poissons Ratio (y) = 0.03736 -0.00143
# Poissons Ratio (z) = -0.08386 -0.00064
#
# Static dielectric constant tensor:
#      x y z
#    x 2.029930 0.000000 -0.147010 
#    y 0.000000 2.217240 0.000000 
#    z -0.147010 0.000000 2.783900 
# 
# From -- ./inp_files/52251.got.cif
#   From: 2010.05.17/outbox.cif.g08.bks.cpg/sg14_27_cif.got.tgz:52251.got - 2010.06.03 17:49:19.
