data_PCOD9248801
_publ_section_title
;
Structure prediction by ZEFSAII (Michael W. Deem and Ramdas Pophale) SiO2 
 PCOD9248801
Probable space group: P 21/C
;
_chemical_formula_sum "Si O2"
_cell_formula_units_Z 32
_cell_length_a 15.491685
_cell_length_b 10.564765
_cell_length_c 9.291937
_cell_angle_alpha 90.000000
_cell_angle_beta 82.954449
_cell_angle_gamma 90.000000
_cell_volume 1509.290825
_symmetry_space_group_name_H-M "P 21/C"
_symmetry_group_IT_number 14
_symmetry_cell_setting 'monoclinic'
loop_
_space_group_symop_operation_xyz
x,y,z
-x,1/2+y,1/2-z
-x,-y,-z
x,1/2-y,1/2+z
loop_
_atom_site_type_symbol
_atom_site_label
_atom_site_fract_x
_atom_site_fract_y
_atom_site_fract_z
Si Si1 0.253138 0.579508 0.032200
Si Si2 0.671236 0.495019 0.291269
Si Si3 0.508930 0.864698 0.914311
Si Si4 0.409146 0.785470 0.651263
Si Si5 0.089073 0.079341 0.513898
Si Si6 0.888641 0.241832 0.848551
Si Si7 0.995220 0.672739 0.408332
Si Si8 0.854461 0.970243 0.803619
O O1 0.337408 0.614562 0.110163
O O2 0.171854 0.484491 0.075006
O O3 0.196708 0.709246 0.051945
O O4 0.292998 0.528254 0.876186
O O5 0.601499 0.606953 0.321237
O O6 0.634902 0.354631 0.334982
O O7 0.754553 0.536558 0.367835
O O8 0.442564 0.834874 0.797918
O O9 0.490343 0.748333 0.027979
O O10 0.500000 0.000000 0.000000
O O11 0.059258 0.199637 0.608832
O O12 0.123122 0.107664 0.344642
O O13 0.000000 0.000000 0.500000
O O14 0.932420 0.339920 0.729923
O O15 0.866775 0.117680 0.761123
O O16 0.958292 0.201892 0.952568
O O17 0.923622 0.564710 0.410967
#
# Coordination Sequence:
#
# PCOD9248801 Si02
#       8
#     4   4   4   4   4   4   4   4
#     4  11  22  39  71 100 128 181 233 282 339 412
#     4  10  22  44  66  99 134 168 225 290 341 414
#     4  10  24  45  71 102 138 171 223 290 354 421
#     4  11  21  44  72 101 134 177 227 281 352 420
#     4  11  20  40  61  90 138 180 219 276 337 396
#     4  12  23  38  65  94 130 176 231 274 331 402
#     4  12  23  40  59  92 136 181 222 278 341 392
#     4  11  22  40  63  90 130 173 228 280 331 407
#
# _framework density 21.202010999999999
#
# number of rings (size 3 to 8) (size 9 to 14) (size 15 to 20)
#    0.000    1.000    6.250    1.125    0.000    0.500 
#    4.500    0.000    0.000    0.000    0.000    0.000 
#    0.000    0.000    0.000    0.000    0.000    0.000 
#
# Total GULP energy -178149.910970 kJ/mol
# GULP energy per Si atom -5567.184718 kJ/mol
# Density = 2.115375 g / cm^3
# Si number density = 21.202011 Si / 1000 Ang^3
#
#
#
# Elastic Constant Matrix: (Units=GPa)
#
#
# Indices 1 2 3 4 5 6 
#
# 1 97.8565 20.7384 26.4644 0.0000 -3.5381 0.0000
# 2 20.7384 44.8188 9.6550 0.0000 -7.1385 0.0000
# 3 26.4644 9.6550 77.3136 0.0000 3.7807 0.0000
# 4 0.0000 0.0000 0.0000 21.6620 0.0000 -1.7652
# 5 -3.5381 -7.1385 3.7807 0.0000 34.5927 0.0000
# 6 0.0000 0.0000 0.0000 -1.7652 0.0000 44.2488
#
#
#
# Elastic Compliance Matrix: (Units=1/GPa)
#
#
# Indices 1 2 3 4 5 6 
#
# 1 0.012235 -0.004775 -0.003624 0.000000 0.000662 0.000000
# 2 -0.004775 0.025713 -0.001822 0.000000 0.005017 0.000000
# 3 -0.003624 -0.001822 0.014516 0.000000 -0.002333 0.000000
# 4 0.000000 0.000000 0.000000 0.046314 0.000000 0.001848
# 5 0.000662 0.005017 -0.002333 0.000000 0.030266 0.000000
# 6 0.000000 0.000000 0.000000 0.001848 0.000000 0.022673
#
#
# Mechanical properties :
#
#
# Convention : Reuss Voigt Hill
#
# Bulk Modulus (GPa) = 31.22821 37.07830 34.15325
# Shear Modulus (GPa) = 27.34716 30.97612 29.16164
#
# Velocity S-wave (km/s) = 3.59533 3.82645 3.71269
# Velocity P-wave (km/s) = 5.65650 6.08674 5.87556
#
# Compressibility (1/GPa) = 0.03202233
#
# Stress axis : x y z
#
# Youngs Moduli (GPa) = 81.73220 38.89063 68.88729
#
# Poissons Ratio (x) = 0.18571 0.24965
# Poissons Ratio (y) = 0.39029 0.12550
# Poissons Ratio (z) = 0.29621 0.07085
#
# Static dielectric constant tensor:
#      x y z
#    x 1.837780 0.000000 -0.022220 
#    y 0.000000 1.840720 0.000000 
#    z -0.022220 0.000000 1.784930 
# 
# From -- ./inp_files/15781.got.cif
#   From: 2010.05.17/outbox.cif.g08.bks.cpg/sg14_8_cif.got.tgz:15781.got - 2010.06.03 17:49:19.
