data_PCOD9248083
_publ_section_title
;
Structure prediction by ZEFSAII (Michael W. Deem and Ramdas Pophale) SiO2 
 PCOD9248083
Probable space group: P 21/C
;
_chemical_formula_sum "Si O2"
_cell_formula_units_Z 24
_cell_length_a 11.889816
_cell_length_b 9.007123
_cell_length_c 8.609754
_cell_angle_alpha 90.000000
_cell_angle_beta 77.823058
_cell_angle_gamma 90.000000
_cell_volume 901.299476
_symmetry_space_group_name_H-M "P 21/C"
_symmetry_group_IT_number 14
_symmetry_cell_setting 'monoclinic'
loop_
_space_group_symop_operation_xyz
x,y,z
-x,1/2+y,1/2-z
-x,-y,-z
x,1/2-y,1/2+z
loop_
_atom_site_type_symbol
_atom_site_label
_atom_site_fract_x
_atom_site_fract_y
_atom_site_fract_z
Si Si1 0.720075 0.843016 0.158604
Si Si2 0.567773 0.266200 0.031717
Si Si3 0.083934 0.820370 0.405952
Si Si4 0.197687 0.909136 0.058491
Si Si5 0.174478 0.101320 0.537041
Si Si6 0.485544 0.469360 0.772375
O O1 0.785051 0.872346 0.300324
O O2 0.600381 0.929593 0.212478
O O3 0.730631 0.670727 0.108111
O O4 0.777080 0.923185 0.993430
O O5 0.596539 0.396740 0.148139
O O6 0.480865 0.141802 0.126932
O O7 0.682345 0.178050 0.954987
O O8 0.514450 0.357761 0.905749
O O9 0.117799 0.883369 0.228838
O O10 0.136826 0.661476 0.425527
O O11 0.947640 0.821431 0.464058
O O12 0.143073 0.930917 0.512602
#
# Coordination Sequence:
#
# PCOD9248083 Si02
#       6
#     4   4   4   4   4   4
#     4  11  24  41  63  90 125 163 207 257 312 373
#     4  10  22  41  64  93 123 159 206 252 310 370
#     4  11  23  39  64  91 125 166 208 259 309 366
#     4  11  22  40  64  91 124 164 205 255 313 371
#     4  11  24  41  61  92 125 164 213 257 308 368
#     4  10  23  42  66  93 124 161 203 257 310 374
#
# _framework density 26.628218
#
# number of rings (size 3 to 8) (size 9 to 14) (size 15 to 20)
#    0.000    1.333    0.000    6.000    0.000   10.000 
#    0.000    1.667    0.000    0.000    0.000    0.000 
#    0.000    0.000    0.000    0.000    0.000    0.000 
#
# Total GULP energy -134565.349430 kJ/mol
# GULP energy per Si atom -5606.889560 kJ/mol
# Density = 2.656761 g / cm^3
# Si number density = 26.628218 Si / 1000 Ang^3
#
#
#
# Elastic Constant Matrix: (Units=GPa)
#
#
# Indices 1 2 3 4 5 6 
#
# 1 71.5718 22.2784 18.9427 0.0000 -2.5606 0.0000
# 2 22.2784 126.0745 29.8969 0.0000 12.5164 0.0000
# 3 18.9427 29.8969 111.4459 0.0000 4.7345 0.0000
# 4 0.0000 0.0000 0.0000 51.7772 0.0000 -5.4133
# 5 -2.5606 12.5164 4.7345 0.0000 30.5620 0.0000
# 6 0.0000 0.0000 0.0000 -5.4133 0.0000 30.0620
#
#
#
# Elastic Compliance Matrix: (Units=1/GPa)
#
#
# Indices 1 2 3 4 5 6 
#
# 1 0.015386 -0.002492 -0.002058 0.000000 0.002629 0.000000
# 2 -0.002492 0.009184 -0.001884 0.000000 -0.003678 0.000000
# 3 -0.002058 -0.001884 0.009868 0.000000 -0.000930 0.000000
# 4 0.000000 0.000000 0.000000 0.019684 0.000000 0.003545
# 5 0.002629 -0.003678 -0.000930 0.000000 0.034591 0.000000
# 6 0.000000 0.000000 0.000000 0.003545 0.000000 0.033903
#
#
# Mechanical properties :
#
#
# Convention : Reuss Voigt Hill
#
# Bulk Modulus (GPa) = 46.36096 50.14757 48.25426
# Shear Modulus (GPa) = 35.04483 38.34520 36.69502
#
# Velocity S-wave (km/s) = 3.63172 3.79888 3.71624
# Velocity P-wave (km/s) = 5.91896 6.17376 6.04770
#
# Compressibility (1/GPa) = 0.02156987
#
# Stress axis : x y z
#
# Youngs Moduli (GPa) = 64.99225 108.88457 101.34031
#
# Poissons Ratio (x) = 0.27131 0.20861
# Poissons Ratio (y) = 0.16194 0.19092
# Poissons Ratio (z) = 0.13379 0.20513
#
# Static dielectric constant tensor:
#      x y z
#    x 2.050070 0.000000 -0.018430 
#    y 0.000000 2.019430 0.000000 
#    z -0.018430 0.000000 2.080220 
# 
# From -- ./inp_files/15037.got.cif
#   From: 2010.05.17/outbox.cif.g08.bks.cpg/sg14_8_cif.got.tgz:15037.got - 2010.06.03 17:49:19.
