data_PCOD9248006
_publ_section_title
;
Structure prediction by ZEFSAII (Michael W. Deem and Ramdas Pophale) SiO2 
 PCOD9248006
Probable space group: P 21/C
;
_chemical_formula_sum "Si O2"
_cell_formula_units_Z 32
_cell_length_a 9.963599
_cell_length_b 14.148683
_cell_length_c 11.759519
_cell_angle_alpha 90.000000
_cell_angle_beta 96.699608
_cell_angle_gamma 90.000000
_cell_volume 1646.440500
_symmetry_space_group_name_H-M "P 21/C"
_symmetry_group_IT_number 14
_symmetry_cell_setting 'monoclinic'
loop_
_space_group_symop_operation_xyz
x,y,z
-x,1/2+y,1/2-z
-x,-y,-z
x,1/2-y,1/2+z
loop_
_atom_site_type_symbol
_atom_site_label
_atom_site_fract_x
_atom_site_fract_y
_atom_site_fract_z
Si Si1 0.331233 0.406027 0.520902
Si Si2 0.995246 0.076120 0.664893
Si Si3 0.682918 0.072785 0.673294
Si Si4 0.148157 0.289076 0.345954
Si Si5 0.052954 0.628725 0.099467
Si Si6 0.651225 0.179359 0.440379
Si Si7 0.624830 0.643253 0.214763
Si Si8 0.388571 0.611909 0.581857
O O1 0.206908 0.348124 0.457753
O O2 0.371553 0.367417 0.648868
O O3 0.309297 0.518366 0.533520
O O4 0.459172 0.395441 0.449803
O O5 0.842954 0.093587 0.692952
O O6 0.999685 0.107176 0.533468
O O7 0.100291 0.136263 0.747346
O O8 0.022006 0.964067 0.670369
O O9 0.628287 0.121931 0.554367
O O10 0.614833 0.109995 0.781677
O O11 0.663124 0.959843 0.668501
O O12 0.267263 0.220812 0.313830
O O13 0.023559 0.220904 0.364081
O O14 0.213187 0.642066 0.105007
O O15 0.522007 0.169267 0.347045
O O16 0.671348 0.290076 0.467774
#
# Coordination Sequence:
#
# PCOD9248006 Si02
#       8
#     4   4   4   4   4   4   4   4
#     4  10  24  42  62  94 136 169 215 266 315 384
#     4  10  22  42  66  94 130 168 215 271 315 385
#     4  10  22  43  64  94 133 165 216 273 316 382
#     4  12  22  43  68  94 125 184 209 257 328 388
#     4  10  23  43  65  96 132 162 219 270 319 382
#     4  11  23  40  68  99 124 172 213 270 330 373
#     4  11  23  42  67  95 130 171 218 265 317 385
#     4  10  22  41  60  93 134 165 206 272 317 377
#
# _framework density 19.435866999999998
#
# number of rings (size 3 to 8) (size 9 to 14) (size 15 to 20)
#    0.000    1.500    2.500    1.875    1.750    3.000 
#    6.750    3.125    0.000    0.000    0.000    0.000 
#    0.000    0.000    0.000    0.000    0.000    0.000 
#
# Total GULP energy -178831.394543 kJ/mol
# GULP energy per Si atom -5588.481079 kJ/mol
# Density = 1.939163 g / cm^3
# Si number density = 19.435867 Si / 1000 Ang^3
#
#
#
# Elastic Constant Matrix: (Units=GPa)
#
#
# Indices 1 2 3 4 5 6 
#
# 1 55.4124 32.0674 55.4533 0.0000 10.1033 0.0000
# 2 32.0674 119.0998 65.3718 0.0000 14.1844 0.0000
# 3 55.4533 65.3718 108.9227 0.0000 6.0015 0.0000
# 4 0.0000 0.0000 0.0000 18.0298 0.0000 9.0508
# 5 10.1033 14.1844 6.0015 0.0000 19.5744 0.0000
# 6 0.0000 0.0000 0.0000 9.0508 0.0000 17.9871
#
#
#
# Elastic Compliance Matrix: (Units=1/GPa)
#
#
# Indices 1 2 3 4 5 6 
#
# 1 0.041238 0.002835 -0.021778 0.000000 -0.016662 0.000000
# 2 0.002835 0.013700 -0.009193 0.000000 -0.008572 0.000000
# 3 -0.021778 -0.009193 0.025225 0.000000 0.010168 0.000000
# 4 0.000000 0.000000 0.000000 0.074208 0.000000 -0.037340
# 5 -0.016662 -0.008572 0.010168 0.000000 0.062781 0.000000
# 6 0.000000 0.000000 0.000000 -0.037340 0.000000 0.074384
#
#
# Mechanical properties :
#
#
# Convention : Reuss Voigt Hill
#
# Bulk Modulus (GPa) = 41.85755 65.46888 53.66322
# Shear Modulus (GPa) = 14.05397 19.82109 16.93753
#
# Velocity S-wave (km/s) = 2.69196 3.19693 2.95525
# Velocity P-wave (km/s) = 5.58974 6.88366 6.27017
#
# Compressibility (1/GPa) = 0.02389055
#
# Stress axis : x y z
#
# Youngs Moduli (GPa) = 24.24967 72.99323 39.64321
#
# Poissons Ratio (x) = -0.20690 0.86333
# Poissons Ratio (y) = -0.06874 0.36444
# Poissons Ratio (z) = 0.52810 0.67103
#
# Static dielectric constant tensor:
#      x y z
#    x 1.655170 0.000000 -0.013030 
#    y 0.000000 1.690720 0.000000 
#    z -0.013030 0.000000 1.657400 
# 
# From -- ./inp_files/25533.got.cif
#   From: 2010.05.17/outbox.cif.g08.bks.cpg/sg14_13_cif.got.tgz:25533.got - 2010.06.03 17:49:19.
