data_PCOD9248484
_publ_section_title
;
Structure prediction by ZEFSAII (Michael W. Deem and Ramdas Pophale) SiO2 
 PCOD9248484
Probable space group: P 21/C
;
_chemical_formula_sum "Si O2"
_cell_formula_units_Z 24
_cell_length_a 7.896251
_cell_length_b 14.364800
_cell_length_c 9.458996
_cell_angle_alpha 90.000000
_cell_angle_beta 92.550213
_cell_angle_gamma 90.000000
_cell_volume 1071.853022
_symmetry_space_group_name_H-M "P 21/C"
_symmetry_group_IT_number 14
_symmetry_cell_setting 'monoclinic'
loop_
_space_group_symop_operation_xyz
x,y,z
-x,1/2+y,1/2-z
-x,-y,-z
x,1/2-y,1/2+z
loop_
_atom_site_type_symbol
_atom_site_label
_atom_site_fract_x
_atom_site_fract_y
_atom_site_fract_z
Si Si1 0.392377 0.458425 0.625135
Si Si2 0.838428 0.810636 0.039621
Si Si3 0.280364 0.338574 0.154836
Si Si4 0.213261 0.648506 0.640456
Si Si5 0.369444 0.540829 0.110520
Si Si6 0.661779 0.289034 0.069934
O O1 0.500000 0.500000 0.500000
O O2 0.268957 0.379410 0.563418
O O3 0.284436 0.546490 0.677294
O O4 0.519277 0.425820 0.752361
O O5 0.747778 0.803162 0.187767
O O6 0.023055 0.851279 0.077134
O O7 0.843227 0.712558 0.959022
O O8 0.263058 0.450490 0.153113
O O9 0.469558 0.310993 0.110830
O O10 0.324055 0.696287 0.521294
O O11 0.229296 0.708553 0.783746
O O12 0.500000 0.500000 0.000000
O O13 0.280858 0.627163 0.031882
#
# Coordination Sequence:
#
# PCOD9248484 Si02
#       6
#     4   4   4   4   4   4
#     4  12  23  44  70  97 128 176 232 271 324 404
#     4  12  27  42  67 100 140 174 214 283 343 389
#     4  11  23  45  67 100 128 178 231 264 325 404
#     4  12  26  45  64 102 139 173 216 283 344 385
#     4  10  22  42  70  98 120 169 234 275 312 380
#     4  11  24  44  71  96 131 176 232 272 322 405
#
# _framework density 22.391127999999998
#
# number of rings (size 3 to 8) (size 9 to 14) (size 15 to 20)
#    0.000    0.667    5.000    3.500    9.333    0.000 
#    0.000    3.333    0.000    0.000    0.000    0.000 
#    0.000    0.000    0.000    0.000    0.000    0.000 
#
# Total GULP energy -134381.697351 kJ/mol
# GULP energy per Si atom -5599.237390 kJ/mol
# Density = 2.234016 g / cm^3
# Si number density = 22.391128 Si / 1000 Ang^3
#
#
#
# Elastic Constant Matrix: (Units=GPa)
#
#
# Indices 1 2 3 4 5 6 
#
# 1 50.9733 15.0731 12.0801 0.0000 4.1574 0.0000
# 2 15.0731 81.1568 25.8650 0.0000 4.5608 0.0000
# 3 12.0801 25.8650 138.4129 0.0000 1.8657 0.0000
# 4 0.0000 0.0000 0.0000 43.2496 0.0000 8.3669
# 5 4.1574 4.5608 1.8657 0.0000 26.1348 0.0000
# 6 0.0000 0.0000 0.0000 8.3669 0.0000 19.7777
#
#
#
# Elastic Compliance Matrix: (Units=1/GPa)
#
#
# Indices 1 2 3 4 5 6 
#
# 1 0.021120 -0.003398 -0.001172 0.000000 -0.002683 0.000000
# 2 -0.003398 0.013767 -0.002253 0.000000 -0.001701 0.000000
# 3 -0.001172 -0.002253 0.007748 0.000000 0.000027 0.000000
# 4 0.000000 0.000000 0.000000 0.025183 0.000000 -0.010653
# 5 -0.002683 -0.001701 0.000027 0.000000 0.038985 0.000000
# 6 0.000000 0.000000 0.000000 -0.010653 0.000000 0.055069
#
#
# Mechanical properties :
#
#
# Convention : Reuss Voigt Hill
#
# Bulk Modulus (GPa) = 34.49786 41.84217 38.17002
# Shear Modulus (GPa) = 27.00087 32.33407 29.66747
#
# Velocity S-wave (km/s) = 3.47634 3.80420 3.64396
# Velocity P-wave (km/s) = 5.61726 6.16631 5.89818
#
# Compressibility (1/GPa) = 0.02898731
#
# Stress axis : x y z
#
# Youngs Moduli (GPa) = 47.34951 72.63950 129.07033
#
# Poissons Ratio (x) = 0.24684 0.15128
# Poissons Ratio (y) = 0.16090 0.29080
# Poissons Ratio (z) = 0.05550 0.16366
#
# Static dielectric constant tensor:
#      x y z
#    x 1.831500 0.000000 -0.013860 
#    y 0.000000 1.881370 0.000000 
#    z -0.013860 0.000000 1.789150 
# 
# From -- ./inp_files/8598.got.cif
#   From: 2010.05.17/outbox.cif.g08.bks.cpg/sg14_5_cif.got.tgz:8598.got - 2010.06.03 17:49:19.
