data_PCOD9248334
_publ_section_title
;
Structure prediction by ZEFSAII (Michael W. Deem and Ramdas Pophale) SiO2 
 PCOD9248334
Probable space group: P 21/C
;
_chemical_formula_sum "Si O2"
_cell_formula_units_Z 28
_cell_length_a 6.055468
_cell_length_b 10.309041
_cell_length_c 20.854785
_cell_angle_alpha 90.000000
_cell_angle_beta 68.140905
_cell_angle_gamma 90.000000
_cell_volume 1208.279891
_symmetry_space_group_name_H-M "P 21/C"
_symmetry_group_IT_number 14
_symmetry_cell_setting 'monoclinic'
loop_
_space_group_symop_operation_xyz
x,y,z
-x,1/2+y,1/2-z
-x,-y,-z
x,1/2-y,1/2+z
loop_
_atom_site_type_symbol
_atom_site_label
_atom_site_fract_x
_atom_site_fract_y
_atom_site_fract_z
Si Si1 0.332874 0.254175 0.774830
Si Si2 0.233928 0.696440 0.352933
Si Si3 0.851387 0.152893 0.378398
Si Si4 0.216619 0.046654 0.065402
Si Si5 0.931935 0.899775 0.306705
Si Si6 0.652444 0.404817 0.326880
Si Si7 0.638887 0.291129 0.516649
O O1 0.560225 0.330593 0.721512
O O2 0.215963 0.191943 0.724224
O O3 0.433135 0.136910 0.807439
O O4 0.135822 0.328281 0.838019
O O5 0.335219 0.735841 0.411274
O O6 0.046307 0.581874 0.384872
O O7 0.076584 0.812371 0.340873
O O8 0.741466 0.268255 0.347297
O O9 0.753660 0.181407 0.459618
O O10 0.789702 0.012908 0.356942
O O11 0.369107 0.999029 0.110779
O O12 0.222297 0.924816 0.017267
O O13 0.366695 0.171895 0.026737
O O14 0.135442 0.961062 0.239163
#
# Coordination Sequence:
#
# PCOD9248334 Si02
#       7
#     4   4   4   4   4   4   4
#     4  10  23  44  64  98 127 175 216 265 334 378
#     4  11  23  41  65  96 130 173 215 264 326 387
#     4  10  23  44  62  94 132 167 224 265 318 396
#     4  10  22  42  65  98 131 166 224 269 324 384
#     4  10  23  40  60  94 130 166 218 269 319 384
#     4   9  22  38  64  92 125 170 212 274 319 382
#     4  10  23  41  67  94 129 176 212 272 327 383
#
# _framework density 23.173438000000001
#
# number of rings (size 3 to 8) (size 9 to 14) (size 15 to 20)
#    0.000    2.000    0.000    1.286    8.000    9.714 
#    5.143    2.857    0.000    0.000    0.000    0.000 
#    0.000    0.000    0.000    0.000    0.000    0.000 
#
# Total GULP energy -156560.738878 kJ/mol
# GULP energy per Si atom -5591.454960 kJ/mol
# Density = 2.312069 g / cm^3
# Si number density = 23.173438 Si / 1000 Ang^3
#
#
#
# Elastic Constant Matrix: (Units=GPa)
#
#
# Indices 1 2 3 4 5 6 
#
# 1 45.4705 3.0465 13.9591 0.0000 -7.1293 0.0000
# 2 3.0465 23.4402 5.1625 0.0000 -6.9174 0.0000
# 3 13.9591 5.1625 97.6003 0.0000 -1.5801 0.0000
# 4 0.0000 0.0000 0.0000 38.7019 0.0000 -7.8494
# 5 -7.1293 -6.9174 -1.5801 0.0000 43.6232 0.0000
# 6 0.0000 0.0000 0.0000 -7.8494 0.0000 25.2474
#
#
#
# Elastic Compliance Matrix: (Units=1/GPa)
#
#
# Indices 1 2 3 4 5 6 
#
# 1 0.023633 -0.001311 -0.003254 0.000000 0.003537 0.000000
# 2 -0.001311 0.045330 -0.002098 0.000000 0.006898 0.000000
# 3 -0.003254 -0.002098 0.010815 0.000000 -0.000473 0.000000
# 4 0.000000 0.000000 0.000000 0.027577 0.000000 0.008574
# 5 0.003537 0.006898 -0.000473 0.000000 0.024578 0.000000
# 6 0.000000 0.000000 0.000000 0.008574 0.000000 0.042274
#
#
# Mechanical properties :
#
#
# Convention : Reuss Voigt Hill
#
# Bulk Modulus (GPa) = 15.04861 23.42745 19.23803
# Shear Modulus (GPa) = 23.84535 31.13735 27.49135
#
# Velocity S-wave (km/s) = 3.21128 3.66958 3.44805
# Velocity P-wave (km/s) = 4.50086 5.29962 4.91649
#
# Compressibility (1/GPa) = 0.06645131
#
# Stress axis : x y z
#
# Youngs Moduli (GPa) = 42.31293 22.06045 92.46810
#
# Poissons Ratio (x) = 0.02893 0.30085
# Poissons Ratio (y) = 0.05549 0.19404
# Poissons Ratio (z) = 0.13767 0.04629
#
# Static dielectric constant tensor:
#      x y z
#    x 1.901920 0.000000 -0.026850 
#    y 0.000000 1.881910 0.000000 
#    z -0.026850 0.000000 1.891660 
# 
# From -- ./inp_files/63474.got.cif
#   From: 2010.05.17/outbox.cif.g08.bks.cpg/sg14_32_cif.got.tgz:63474.got - 2010.06.03 17:49:19.
