data_PCOD9248039
_publ_section_title
;
Structure prediction by ZEFSAII (Michael W. Deem and Ramdas Pophale) SiO2 
 PCOD9248039
Probable space group: P 21/C
;
_chemical_formula_sum "Si O2"
_cell_formula_units_Z 32
_cell_length_a 12.837273
_cell_length_b 9.471056
_cell_length_c 10.682781
_cell_angle_alpha 90.000000
_cell_angle_beta 106.168616
_cell_angle_gamma 90.000000
_cell_volume 1247.465725
_symmetry_space_group_name_H-M "P 21/C"
_symmetry_group_IT_number 14
_symmetry_cell_setting 'monoclinic'
loop_
_space_group_symop_operation_xyz
x,y,z
-x,1/2+y,1/2-z
-x,-y,-z
x,1/2-y,1/2+z
loop_
_atom_site_type_symbol
_atom_site_label
_atom_site_fract_x
_atom_site_fract_y
_atom_site_fract_z
Si Si1 0.948650 0.904468 0.340500
Si Si2 0.603143 0.777917 0.197002
Si Si3 0.477564 0.983931 0.304285
Si Si4 0.343532 0.490052 0.501321
Si Si5 0.096496 0.869455 0.183856
Si Si6 0.312450 0.689738 0.917144
Si Si7 0.845627 0.120774 0.442188
Si Si8 0.180356 0.347884 0.620554
O O1 0.890808 0.791098 0.409187
O O2 0.984641 0.842810 0.219331
O O3 0.066907 0.946738 0.433733
O O4 0.866994 0.036053 0.321270
O O5 0.577669 0.881665 0.305165
O O6 0.516256 0.650119 0.160496
O O7 0.717501 0.700279 0.259175
O O8 0.607571 0.875488 0.076781
O O9 0.403702 0.903286 0.380761
O O10 0.414049 0.988014 0.150148
O O11 0.336458 0.644356 0.437599
O O12 0.232795 0.420043 0.516245
O O13 0.204101 0.825936 0.296807
O O14 0.112834 0.779096 0.064685
O O15 0.107520 0.033426 0.159835
O O16 0.271768 0.628025 0.036972
#
# Coordination Sequence:
#
# PCOD9248039 Si02
#       8
#     4   4   4   4   4   4   4   4
#     4  10  24  38  68  94 139 177 233 282 335 407
#     4  11  25  45  73  97 138 177 222 287 344 400
#     4  11  24  48  68 103 136 175 229 278 342 414
#     4  11  24  44  70  98 138 178 222 282 340 407
#     4  11  21  43  65  98 137 181 227 281 338 403
#     4  11  21  42  70  93 135 180 222 282 336 406
#     4  10  22  41  63 101 129 187 228 277 345 403
#     4  11  24  45  64 105 137 175 230 285 335 409
#
# _framework density 25.652007000000001
#
# number of rings (size 3 to 8) (size 9 to 14) (size 15 to 20)
#    0.000    1.250    3.750    1.875    3.500    3.500 
#    2.250    3.125    0.000    0.000    0.000    0.000 
#    0.000    0.000    0.000    0.000    0.000    0.000 
#
# Total GULP energy -179058.450586 kJ/mol
# GULP energy per Si atom -5595.576581 kJ/mol
# Density = 2.559362 g / cm^3
# Si number density = 25.652007 Si / 1000 Ang^3
#
#
#
# Elastic Constant Matrix: (Units=GPa)
#
#
# Indices 1 2 3 4 5 6 
#
# 1 67.2127 26.5477 32.2103 0.0000 -23.3508 0.0000
# 2 26.5477 181.2905 32.5826 0.0000 -19.4224 0.0000
# 3 32.2103 32.5826 54.9747 0.0000 -19.9912 0.0000
# 4 0.0000 0.0000 0.0000 47.6583 0.0000 -18.4387
# 5 -23.3508 -19.4224 -19.9912 0.0000 47.7189 0.0000
# 6 0.0000 0.0000 0.0000 -18.4387 0.0000 37.5952
#
#
#
# Elastic Compliance Matrix: (Units=1/GPa)
#
#
# Indices 1 2 3 4 5 6 
#
# 1 0.022312 -0.000733 -0.010354 0.000000 0.006282 0.000000
# 2 -0.000733 0.006252 -0.002927 0.000000 0.000960 0.000000
# 3 -0.010354 -0.002927 0.027978 0.000000 0.005463 0.000000
# 4 0.000000 0.000000 0.000000 0.025897 0.000000 0.012701
# 5 0.006282 0.000960 0.005463 0.000000 0.026710 0.000000
# 6 0.000000 0.000000 0.000000 0.012701 0.000000 0.032828
#
#
# Mechanical properties :
#
#
# Convention : Reuss Voigt Hill
#
# Bulk Modulus (GPa) = 35.07029 54.01766 44.54398
# Shear Modulus (GPa) = 27.85361 40.73698 34.29529
#
# Velocity S-wave (km/s) = 3.29876 3.98937 3.66039
# Velocity P-wave (km/s) = 5.31134 6.50567 5.93860
#
# Compressibility (1/GPa) = 0.02851416
#
# Stress axis : x y z
#
# Youngs Moduli (GPa) = 44.81855 159.94193 35.74244
#
# Poissons Ratio (x) = 0.11731 0.37007
# Poissons Ratio (y) = 0.03287 0.10461
# Poissons Ratio (z) = 0.46404 0.46813
#
# Static dielectric constant tensor:
#      x y z
#    x 2.044630 0.000000 0.041450 
#    y 0.000000 1.980820 0.000000 
#    z 0.041450 0.000000 2.137420 
# 
# From -- ./inp_files/31837.got.cif
#   From: 2010.05.17/outbox.cif.g08.bks.cpg/sg14_16_cif.got.tgz:31837.got - 2010.06.03 17:49:19.
