data_PCOD9248286
_publ_section_title
;
Structure prediction by ZEFSAII (Michael W. Deem and Ramdas Pophale) SiO2 
 PCOD9248286
Probable space group: P 21/C
;
_chemical_formula_sum "Si O2"
_cell_formula_units_Z 20
_cell_length_a 11.389096
_cell_length_b 11.918710
_cell_length_c 9.808639
_cell_angle_alpha 90.000000
_cell_angle_beta 141.847019
_cell_angle_gamma 90.000000
_cell_volume 822.525462
_symmetry_space_group_name_H-M "P 21/C"
_symmetry_group_IT_number 14
_symmetry_cell_setting 'monoclinic'
loop_
_space_group_symop_operation_xyz
x,y,z
-x,1/2+y,1/2-z
-x,-y,-z
x,1/2-y,1/2+z
loop_
_atom_site_type_symbol
_atom_site_label
_atom_site_fract_x
_atom_site_fract_y
_atom_site_fract_z
Si Si1 0.563857 0.868573 0.644237
Si Si2 0.697133 0.486359 0.894065
Si Si3 0.913252 0.215783 0.495830
Si Si4 0.368334 0.906036 0.195871
Si Si5 0.855843 0.776648 0.555987
O O1 0.518076 0.855382 0.444267
O O2 0.368849 0.907187 0.539957
O O3 0.696625 0.977660 0.791857
O O4 0.661949 0.768426 0.811267
O O5 0.491830 0.547115 0.681694
O O6 0.795752 0.399495 0.883655
O O7 0.836815 0.589022 0.054056
O O8 0.791175 0.313958 0.455873
O O9 0.094535 0.210050 0.761588
O O10 0.984918 0.247328 0.412628
#
# Coordination Sequence:
#
# PCOD9248286 Si02
#       5
#     4   4   4   4   4
#     4   9  21  43  70  90 130 178 228 250 320 403
#     4  10  22  42  63  94 130 174 215 260 329 386
#     4  12  26  42  67 100 137 167 217 277 331 375
#     4   9  21  43  70  90 130 178 228 250 320 403
#     4  12  26  42  67 100 137 167 217 277 331 375
#
# _framework density 24.315356999999999
#
# number of rings (size 3 to 8) (size 9 to 14) (size 15 to 20)
#    1.200    0.400    0.000    4.200    2.800    0.800 
#    0.000    3.000    0.000    0.000    0.000    0.000 
#    0.000    0.000    0.000    0.000    0.000    0.000 
#
# Total GULP energy -111470.591447 kJ/mol
# GULP energy per Si atom -5573.529572 kJ/mol
# Density = 2.426001 g / cm^3
# Si number density = 24.315357 Si / 1000 Ang^3
#
#
#
# Elastic Constant Matrix: (Units=GPa)
#
#
# Indices 1 2 3 4 5 6 
#
# 1 56.8583 23.4847 14.2084 0.0000 2.8415 0.0000
# 2 23.4847 92.3408 24.3905 0.0000 8.0964 0.0000
# 3 14.2084 24.3905 43.1786 0.0000 -8.8908 0.0000
# 4 0.0000 0.0000 0.0000 36.3220 0.0000 14.9226
# 5 2.8415 8.0964 -8.8908 0.0000 25.6313 0.0000
# 6 0.0000 0.0000 0.0000 14.9226 0.0000 39.9806
#
#
#
# Elastic Compliance Matrix: (Units=1/GPa)
#
#
# Indices 1 2 3 4 5 6 
#
# 1 0.020546 -0.003537 -0.005387 0.000000 -0.003029 0.000000
# 2 -0.003537 0.014628 -0.008583 0.000000 -0.007206 0.000000
# 3 -0.005387 -0.008583 0.032804 0.000000 0.014687 0.000000
# 4 0.000000 0.000000 0.000000 0.032518 0.000000 -0.012137
# 5 -0.003029 -0.007206 0.014687 0.000000 0.046721 0.000000
# 6 0.000000 0.000000 0.000000 -0.012137 0.000000 0.029542
#
#
# Mechanical properties :
#
#
# Convention : Reuss Voigt Hill
#
# Bulk Modulus (GPa) = 30.33458 35.17167 32.75312
# Shear Modulus (GPa) = 22.44559 29.07304 25.75931
#
# Velocity S-wave (km/s) = 3.04156 3.46159 3.25835
# Velocity P-wave (km/s) = 4.98371 5.52024 5.25882
#
# Compressibility (1/GPa) = 0.03296568
#
# Stress axis : x y z
#
# Youngs Moduli (GPa) = 48.67143 68.36299 30.48364
#
# Poissons Ratio (x) = 0.24180 0.16420
# Poissons Ratio (y) = 0.17215 0.26163
# Poissons Ratio (z) = 0.26217 0.58674
#
# Static dielectric constant tensor:
#      x y z
#    x 2.002760 0.000000 0.088400 
#    y 0.000000 1.957530 0.000000 
#    z 0.088400 0.000000 1.949830 
# 
# From -- ./inp_files/23574.got.cif
#   From: 2010.05.17/outbox.cif.g08.bks.cpg/sg14_12_cif.got.tgz:23574.got - 2010.06.03 17:49:19.
