data_PCOD9248446
_publ_section_title
;
Structure prediction by ZEFSAII (Michael W. Deem and Ramdas Pophale) SiO2 
 PCOD9248446
Probable space group: P 21/C
;
_chemical_formula_sum "Si O2"
_cell_formula_units_Z 24
_cell_length_a 17.397319
_cell_length_b 9.937375
_cell_length_c 10.653787
_cell_angle_alpha 90.000000
_cell_angle_beta 28.529099
_cell_angle_gamma 90.000000
_cell_volume 879.684428
_symmetry_space_group_name_H-M "P 21/C"
_symmetry_group_IT_number 14
_symmetry_cell_setting 'monoclinic'
loop_
_space_group_symop_operation_xyz
x,y,z
-x,1/2+y,1/2-z
-x,-y,-z
x,1/2-y,1/2+z
loop_
_atom_site_type_symbol
_atom_site_label
_atom_site_fract_x
_atom_site_fract_y
_atom_site_fract_z
Si Si1 0.439482 0.286009 0.170791
Si Si2 0.146502 0.205544 0.744896
Si Si3 0.738851 0.148295 0.967887
Si Si4 0.048872 0.380630 0.123457
Si Si5 0.378011 0.040277 0.529295
Si Si6 0.716717 0.127607 0.712795
O O1 0.317989 0.272118 0.458926
O O2 0.586325 0.387136 0.988963
O O3 0.350799 0.361588 0.186038
O O4 0.522915 0.148393 0.006835
O O5 0.078848 0.283234 0.961421
O O6 0.046209 0.193877 0.761173
O O7 0.216722 0.058813 0.681914
O O8 0.775268 0.166278 0.769691
O O9 0.876631 0.055068 0.833658
O O10 0.557769 0.088700 0.229399
O O11 0.746453 0.278488 0.048014
O O12 0.193233 0.486267 0.930382
#
# Coordination Sequence:
#
# PCOD9248446 Si02
#       6
#     4   4   4   4   4   4
#     4  10  22  42  69 104 133 184 234 298 349 406
#     4  12  24  44  69 108 139 185 241 294 346 420
#     4  11  24  48  68 107 143 194 231 290 361 425
#     4  12  28  46  72 106 149 186 236 293 360 424
#     4  10  22  42  71  99 141 181 241 289 347 421
#     4  11  25  46  75 101 141 185 240 291 353 422
#
# _framework density 27.282512000000001
#
# number of rings (size 3 to 8) (size 9 to 14) (size 15 to 20)
#    0.000    1.000    3.333    2.500    2.333    2.000 
#    3.000    1.667    0.000    0.000    0.000    0.000 
#    0.000    0.000    0.000    0.000    0.000    0.000 
#
# Total GULP energy -134188.121753 kJ/mol
# GULP energy per Si atom -5591.171740 kJ/mol
# Density = 2.722042 g / cm^3
# Si number density = 27.282512 Si / 1000 Ang^3
#
#
#
# Elastic Constant Matrix: (Units=GPa)
#
#
# Indices 1 2 3 4 5 6 
#
# 1 146.7785 37.3424 32.6103 0.0000 20.2534 0.0000
# 2 37.3424 74.9127 27.2351 0.0000 5.9456 0.0000
# 3 32.6103 27.2351 113.8552 0.0000 10.7161 0.0000
# 4 0.0000 0.0000 0.0000 32.6156 0.0000 1.1954
# 5 20.2534 5.9456 10.7161 0.0000 51.9984 0.0000
# 6 0.0000 0.0000 0.0000 1.1954 0.0000 26.2327
#
#
#
# Elastic Compliance Matrix: (Units=1/GPa)
#
#
# Indices 1 2 3 4 5 6 
#
# 1 0.008346 -0.003477 -0.001316 0.000000 -0.002582 0.000000
# 2 -0.003477 0.016117 -0.002869 0.000000 0.000103 0.000000
# 3 -0.001316 -0.002869 0.009960 0.000000 -0.001212 0.000000
# 4 0.000000 0.000000 0.000000 0.030711 0.000000 -0.001399
# 5 -0.002582 0.000103 -0.001212 0.000000 0.020475 0.000000
# 6 0.000000 0.000000 0.000000 -0.001399 0.000000 0.038184
#
#
# Mechanical properties :
#
#
# Convention : Reuss Voigt Hill
#
# Bulk Modulus (GPa) = 52.35679 58.88024 55.61852
# Shear Modulus (GPa) = 34.36783 38.05992 36.21388
#
# Velocity S-wave (km/s) = 3.55308 3.73906 3.64726
# Velocity P-wave (km/s) = 6.00539 6.34581 6.17795
#
# Compressibility (1/GPa) = 0.01909972
#
# Stress axis : x y z
#
# Youngs Moduli (GPa) = 119.81450 62.04599 100.39826
#
# Poissons Ratio (x) = 0.21574 0.13210
# Poissons Ratio (y) = 0.41661 0.28805
# Poissons Ratio (z) = 0.15764 0.17802
#
# Static dielectric constant tensor:
#      x y z
#    x 2.156540 0.000000 0.012150 
#    y 0.000000 2.195580 0.000000 
#    z 0.012150 0.000000 2.129930 
# 
# From -- ./inp_files/28475.got.cif
#   From: 2010.05.17/outbox.cif.g08.bks.cpg/sg14_15_cif.got.tgz:28475.got - 2010.06.03 17:49:19.
