data_PCOD9248791
_publ_section_title
;
Structure prediction by ZEFSAII (Michael W. Deem and Ramdas Pophale) SiO2 
 PCOD9248791
Probable space group: P 21/C
;
_chemical_formula_sum "Si O2"
_cell_formula_units_Z 20
_cell_length_a 7.492322
_cell_length_b 9.330956
_cell_length_c 14.157160
_cell_angle_alpha 90.000000
_cell_angle_beta 92.799809
_cell_angle_gamma 90.000000
_cell_volume 988.553069
_symmetry_space_group_name_H-M "P 21/C"
_symmetry_group_IT_number 14
_symmetry_cell_setting 'monoclinic'
loop_
_space_group_symop_operation_xyz
x,y,z
-x,1/2+y,1/2-z
-x,-y,-z
x,1/2-y,1/2+z
loop_
_atom_site_type_symbol
_atom_site_label
_atom_site_fract_x
_atom_site_fract_y
_atom_site_fract_z
Si Si1 0.587254 0.844011 0.003115
Si Si2 0.842831 0.858258 0.171522
Si Si3 0.160413 0.641990 0.219441
Si Si4 0.435158 0.574890 0.093393
Si Si5 0.487536 0.306238 0.197594
O O1 0.776852 0.854003 0.061481
O O2 0.474543 0.738475 0.068342
O O3 0.580947 0.774020 0.899133
O O4 0.500000 0.000000 0.000000
O O5 0.674217 0.812154 0.232554
O O6 0.003112 0.750679 0.194877
O O7 0.888932 0.018055 0.207970
O O8 0.231461 0.568859 0.124068
O O9 0.336292 0.725115 0.262297
O O10 0.531368 0.473297 0.173794
O O11 0.500000 0.500000 0.000000
#
# Coordination Sequence:
#
# PCOD9248791 Si02
#       5
#     4   4   4   4   4
#     4  11  21  41  68  96 129 175 224 270 331 396
#     4  11  25  41  65 100 135 171 223 275 333 400
#     4  11  23  42  68  98 136 177 219 277 335 395
#     4   9  21  41  66  90 130 175 215 270 332 392
#     4  10  22  44  66  92 130 178 216 273 340 394
#
# _framework density 20.231590000000001
#
# number of rings (size 3 to 8) (size 9 to 14) (size 15 to 20)
#    0.000    1.600    4.000    0.000    2.800    1.600 
#    7.200    5.000    0.000    0.000    0.000    0.000 
#    0.000    0.000    0.000    0.000    0.000    0.000 
#
# Total GULP energy -111430.667177 kJ/mol
# GULP energy per Si atom -5571.533359 kJ/mol
# Density = 2.018554 g / cm^3
# Si number density = 20.231590 Si / 1000 Ang^3
#
#
#
# Elastic Constant Matrix: (Units=GPa)
#
#
# Indices 1 2 3 4 5 6 
#
# 1 80.7616 31.6663 45.0314 0.0000 29.2860 0.0000
# 2 31.6663 115.5475 34.0887 0.0000 18.7907 0.0000
# 3 45.0314 34.0887 96.4683 0.0000 17.7475 0.0000
# 4 0.0000 0.0000 0.0000 17.9652 0.0000 0.0596
# 5 29.2860 18.7907 17.7475 0.0000 29.6213 0.0000
# 6 0.0000 0.0000 0.0000 0.0596 0.0000 47.0040
#
#
#
# Elastic Compliance Matrix: (Units=1/GPa)
#
#
# Indices 1 2 3 4 5 6 
#
# 1 0.023439 -0.001388 -0.007136 0.000000 -0.018017 0.000000
# 2 -0.001388 0.010333 -0.002304 0.000000 -0.003802 0.000000
# 3 -0.007136 -0.002304 0.014548 0.000000 -0.000200 0.000000
# 4 0.000000 0.000000 0.000000 0.055663 0.000000 -0.000071
# 5 -0.018017 -0.003802 -0.000200 0.000000 0.054104 0.000000
# 6 0.000000 0.000000 0.000000 -0.000071 0.000000 0.021275
#
#
# Mechanical properties :
#
#
# Convention : Reuss Voigt Hill
#
# Bulk Modulus (GPa) = 37.50421 57.15003 47.32712
# Shear Modulus (GPa) = 23.82012 31.05084 27.43548
#
# Velocity S-wave (km/s) = 3.43501 3.92186 3.68648
# Velocity P-wave (km/s) = 5.85748 6.98694 6.44699
#
# Compressibility (1/GPa) = 0.02666368
#
# Stress axis : x y z
#
# Youngs Moduli (GPa) = 42.66407 96.77869 68.73783
#
# Poissons Ratio (x) = 0.13435 0.49052
# Poissons Ratio (y) = 0.05923 0.15836
# Poissons Ratio (z) = 0.30445 0.22296
#
# Static dielectric constant tensor:
#      x y z
#    x 1.677130 0.000000 0.011620 
#    y 0.000000 1.737340 0.000000 
#    z 0.011620 0.000000 1.806930 
# 
# From -- ./inp_files/38722.got.cif
#   From: 2010.05.17/outbox.cif.g08.bks.cpg/sg14_20_cif.got.tgz:38722.got - 2010.06.03 17:49:19.
