data_PCOD9248895
_publ_section_title
;
Structure prediction by ZEFSAII (Michael W. Deem and Ramdas Pophale) SiO2 
 PCOD9248895
Probable space group: P 21/C
;
_chemical_formula_sum "Si O2"
_cell_formula_units_Z 20
_cell_length_a 10.258931
_cell_length_b 17.496729
_cell_length_c 12.396488
_cell_angle_alpha 90.000000
_cell_angle_beta 23.882769
_cell_angle_gamma 90.000000
_cell_volume 900.885523
_symmetry_space_group_name_H-M "P 21/C"
_symmetry_group_IT_number 14
_symmetry_cell_setting 'monoclinic'
loop_
_space_group_symop_operation_xyz
x,y,z
-x,1/2+y,1/2-z
-x,-y,-z
x,1/2-y,1/2+z
loop_
_atom_site_type_symbol
_atom_site_label
_atom_site_fract_x
_atom_site_fract_y
_atom_site_fract_z
Si Si1 0.677842 0.132570 0.418577
Si Si2 0.238586 0.460159 0.406532
Si Si3 0.253289 0.442838 0.860250
Si Si4 0.796530 0.655974 0.908852
Si Si5 0.461810 0.709725 0.359335
O O1 0.525743 0.076615 0.621094
O O2 0.481757 0.125502 0.456165
O O3 0.592437 0.217099 0.526033
O O4 0.035868 0.105122 0.121330
O O5 0.414359 0.516350 0.357035
O O6 0.000000 0.500000 0.500000
O O7 0.350434 0.362493 0.728457
O O8 0.103117 0.410534 0.085025
O O9 0.000000 0.500000 0.000000
O O10 0.097081 0.683072 0.612412
O O11 0.648748 0.718546 0.104301
#
# Coordination Sequence:
#
# PCOD9248895 Si02
#       5
#     4   4   4   4   4
#     4  12  24  44  74 102 137 185 245 290 351 426
#     4  12  24  43  74 105 134 187 237 293 351 418
#     4  10  25  46  69 102 149 182 235 289 363 421
#     4  10  22  44  70  97 141 177 233 294 347 409
#     4  10  24  44  64 101 140 185 224 295 354 412
#
# _framework density 22.200378000000001
#
# number of rings (size 3 to 8) (size 9 to 14) (size 15 to 20)
#    1.200    0.000    2.000    4.200    2.800    2.400 
#    7.200    0.000    0.000    0.000    0.000    0.000 
#    0.000    0.000    0.000    0.000    0.000    0.000 
#
# Total GULP energy -111544.713764 kJ/mol
# GULP energy per Si atom -5577.235688 kJ/mol
# Density = 2.214985 g / cm^3
# Si number density = 22.200378 Si / 1000 Ang^3
#
#
#
# Elastic Constant Matrix: (Units=GPa)
#
#
# Indices 1 2 3 4 5 6 
#
# 1 45.4774 31.5994 15.4004 0.0000 5.9849 0.0000
# 2 31.5994 110.5691 16.8957 0.0000 4.0541 0.0000
# 3 15.4004 16.8957 87.8338 0.0000 13.0749 0.0000
# 4 0.0000 0.0000 0.0000 36.7735 0.0000 7.2541
# 5 5.9849 4.0541 13.0749 0.0000 29.6004 0.0000
# 6 0.0000 0.0000 0.0000 7.2541 0.0000 24.2879
#
#
#
# Elastic Compliance Matrix: (Units=1/GPa)
#
#
# Indices 1 2 3 4 5 6 
#
# 1 0.028780 -0.007631 -0.003070 0.000000 -0.003418 0.000000
# 2 -0.007631 0.011349 -0.000903 0.000000 0.000387 0.000000
# 3 -0.003070 -0.000903 0.012830 0.000000 -0.004923 0.000000
# 4 0.000000 0.000000 0.000000 0.028896 0.000000 -0.008630
# 5 -0.003418 0.000387 -0.004923 0.000000 0.036596 0.000000
# 6 0.000000 0.000000 0.000000 -0.008630 0.000000 0.043750
#
#
# Mechanical properties :
#
#
# Convention : Reuss Voigt Hill
#
# Bulk Modulus (GPa) = 33.61030 41.29681 37.45355
# Shear Modulus (GPa) = 25.59840 30.13134 27.86487
#
# Velocity S-wave (km/s) = 3.39936 3.68808 3.54666
# Velocity P-wave (km/s) = 5.52991 6.06450 5.80336
#
# Compressibility (1/GPa) = 0.02975278
#
# Stress axis : x y z
#
# Youngs Moduli (GPa) = 34.74590 88.11629 77.94353
#
# Poissons Ratio (x) = 0.67239 0.23925
# Poissons Ratio (y) = 0.26514 0.07036
# Poissons Ratio (z) = 0.10665 0.07955
#
# Static dielectric constant tensor:
#      x y z
#    x 1.835560 0.000000 0.020750 
#    y 0.000000 1.858900 0.000000 
#    z 0.020750 0.000000 1.804140 
# 
# From -- ./inp_files/45259.got.cif
#   From: 2010.05.17/outbox.cif.g08.bks.cpg/sg14_23_cif.got.tgz:45259.got - 2010.06.03 17:49:19.
