data_PCOD9248510
_publ_section_title
;
Structure prediction by ZEFSAII (Michael W. Deem and Ramdas Pophale) SiO2 
 PCOD9248510
Probable space group: P 21/C
;
_chemical_formula_sum "Si O2"
_cell_formula_units_Z 20
_cell_length_a 20.189352
_cell_length_b 9.858937
_cell_length_c 14.239691
_cell_angle_alpha 90.000000
_cell_angle_beta 161.118398
_cell_angle_gamma 90.000000
_cell_volume 917.233298
_symmetry_space_group_name_H-M "P 21/C"
_symmetry_group_IT_number 14
_symmetry_cell_setting 'monoclinic'
loop_
_space_group_symop_operation_xyz
x,y,z
-x,1/2+y,1/2-z
-x,-y,-z
x,1/2-y,1/2+z
loop_
_atom_site_type_symbol
_atom_site_label
_atom_site_fract_x
_atom_site_fract_y
_atom_site_fract_z
Si Si1 0.345414 0.396911 0.840303
Si Si2 0.382055 0.402425 0.102355
Si Si3 0.842245 0.819860 0.087378
Si Si4 0.096806 0.863846 0.269111
Si Si5 0.830060 0.431160 0.707463
O O1 0.300718 0.291685 0.696212
O O2 0.109506 0.446825 0.535551
O O3 0.500000 0.500000 0.000000
O O4 0.415051 0.360966 0.037707
O O5 0.215859 0.299168 0.921043
O O6 0.605468 0.404151 0.448741
O O7 0.288711 0.551646 0.991769
O O8 0.797062 0.962187 0.077765
O O9 0.065103 0.837590 0.338472
O O10 0.091075 0.715620 0.217164
O O11 0.000000 0.500000 0.000000
#
# Coordination Sequence:
#
# PCOD9248510 Si02
#       5
#     4   4   4   4   4
#     4  10  22  42  72 100 134 178 238 278 343 412
#     4  12  22  47  73  99 141 189 231 287 350 415
#     4  10  24  44  69 103 138 176 239 282 349 413
#     4  10  24  43  71 101 135 186 229 285 353 408
#     4  12  25  44  65 103 143 179 229 290 346 406
#
# _framework density 21.804701999999999
#
# number of rings (size 3 to 8) (size 9 to 14) (size 15 to 20)
#    1.200    0.000    2.000    4.200    0.000    0.000 
#    3.600    2.000    0.000    0.000    0.000    0.000 
#    0.000    0.000    0.000    0.000    0.000    0.000 
#
# Total GULP energy -111350.697914 kJ/mol
# GULP energy per Si atom -5567.534896 kJ/mol
# Density = 2.175507 g / cm^3
# Si number density = 21.804702 Si / 1000 Ang^3
#
#
#
# Elastic Constant Matrix: (Units=GPa)
#
#
# Indices 1 2 3 4 5 6 
#
# 1 85.0533 45.4269 14.8782 0.0000 -11.0500 0.0000
# 2 45.4269 101.8719 14.8837 0.0000 4.9020 0.0000
# 3 14.8782 14.8837 87.4531 0.0000 7.2173 0.0000
# 4 0.0000 0.0000 0.0000 13.6196 0.0000 4.4349
# 5 -11.0500 4.9020 7.2173 0.0000 28.0535 0.0000
# 6 0.0000 0.0000 0.0000 4.4349 0.0000 35.3304
#
#
#
# Elastic Compliance Matrix: (Units=1/GPa)
#
#
# Indices 1 2 3 4 5 6 
#
# 1 0.017555 -0.007910 -0.002376 0.000000 0.008908 0.000000
# 2 -0.007910 0.013680 -0.000540 0.000000 -0.005367 0.000000
# 3 -0.002376 -0.000540 0.012260 0.000000 -0.003996 0.000000
# 4 0.000000 0.000000 0.000000 0.076553 0.000000 -0.009609
# 5 0.008908 -0.005367 -0.003996 0.000000 0.041121 0.000000
# 6 0.000000 0.000000 0.000000 -0.009609 0.000000 0.029510
#
#
# Mechanical properties :
#
#
# Convention : Reuss Voigt Hill
#
# Bulk Modulus (GPa) = 45.77519 47.19509 46.48514
# Shear Modulus (GPa) = 22.76752 28.68000 25.72376
#
# Velocity S-wave (km/s) = 3.23485 3.63066 3.43845
# Velocity P-wave (km/s) = 5.91533 6.26634 6.09336
#
# Compressibility (1/GPa) = 0.02184589
#
# Stress axis : x y z
#
# Youngs Moduli (GPa) = 56.96490 73.09719 81.56307
#
# Poissons Ratio (x) = 0.57817 0.19376
# Poissons Ratio (y) = 0.45057 0.04402
# Poissons Ratio (z) = 0.13532 0.03945
#
# Static dielectric constant tensor:
#      x y z
#    x 2.113390 0.000000 0.691270 
#    y 0.000000 1.781510 0.000000 
#    z 0.691270 0.000000 3.867710 
# 
# From -- ./inp_files/50166.got.cif
#   From: 2010.05.17/outbox.cif.g08.bks.cpg/sg14_26_cif.got.tgz:50166.got - 2010.06.03 17:49:19.
