data_PCOD9248732
_publ_section_title
;
Structure prediction by ZEFSAII (Michael W. Deem and Ramdas Pophale) SiO2 
 PCOD9248732
Probable space group: P 21/C
;
_chemical_formula_sum "Si O2"
_cell_formula_units_Z 16
_cell_length_a 10.246973
_cell_length_b 12.073259
_cell_length_c 5.772159
_cell_angle_alpha 90.000000
_cell_angle_beta 55.194236
_cell_angle_gamma 90.000000
_cell_volume 586.340786
_symmetry_space_group_name_H-M "P 21/C"
_symmetry_group_IT_number 14
_symmetry_cell_setting 'monoclinic'
loop_
_space_group_symop_operation_xyz
x,y,z
-x,1/2+y,1/2-z
-x,-y,-z
x,1/2-y,1/2+z
loop_
_atom_site_type_symbol
_atom_site_label
_atom_site_fract_x
_atom_site_fract_y
_atom_site_fract_z
Si Si1 0.181723 0.193766 0.570868
Si Si2 0.122210 0.569834 0.530577
Si Si3 0.610629 0.243172 0.334557
Si Si4 0.313695 0.987873 0.237501
O O1 0.214340 0.251521 0.288430
O O2 0.993992 0.164659 0.753198
O O3 0.270611 0.074356 0.477542
O O4 0.195735 0.486393 0.644850
O O5 0.000000 0.500000 0.500000
O O6 0.524805 0.252410 0.671030
O O7 0.711446 0.356488 0.215905
O O8 0.723699 0.136094 0.219067
O O9 0.500000 0.000000 0.000000
#
# Coordination Sequence:
#
# PCOD9248732 Si02
#       4
#     4   4   4   4
#     4  12  26  46  73 109 146 193 253 313 369 444
#     4  11  23  47  77 108 143 190 250 310 374 449
#     4  10  22  43  72 103 140 187 241 300 371 442
#     4  11  26  46  71 106 149 196 245 305 379 451
#
# _framework density 27.287884999999999
#
# number of rings (size 3 to 8) (size 9 to 14) (size 15 to 20)
#    0.000    1.000    0.000    6.750    0.000    8.000 
#    0.000   15.000    0.000    0.000    0.000    0.000 
#    0.000    0.000    0.000    0.000    0.000    0.000 
#
# Total GULP energy -89430.128082 kJ/mol
# GULP energy per Si atom -5589.383005 kJ/mol
# Density = 2.722578 g / cm^3
# Si number density = 27.287885 Si / 1000 Ang^3
#
#
#
# Elastic Constant Matrix: (Units=GPa)
#
#
# Indices 1 2 3 4 5 6 
#
# 1 151.0497 21.9979 58.8489 0.0000 37.0431 0.0000
# 2 21.9979 131.5594 44.8936 0.0000 26.2674 0.0000
# 3 58.8489 44.8936 230.8457 0.0000 34.7480 0.0000
# 4 0.0000 0.0000 0.0000 61.1668 0.0000 -0.0962
# 5 37.0431 26.2674 34.7480 0.0000 37.0704 0.0000
# 6 0.0000 0.0000 0.0000 -0.0962 0.0000 42.7526
#
#
#
# Elastic Compliance Matrix: (Units=1/GPa)
#
#
# Indices 1 2 3 4 5 6 
#
# 1 0.009034 0.000547 -0.001155 0.000000 -0.008332 0.000000
# 2 0.000547 0.009052 -0.000992 0.000000 -0.006031 0.000000
# 3 -0.001155 -0.000992 0.005286 0.000000 -0.003097 0.000000
# 4 0.000000 0.000000 0.000000 0.016349 0.000000 0.000037
# 5 -0.008332 -0.006031 -0.003097 0.000000 0.042479 0.000000
# 6 0.000000 0.000000 0.000000 0.000037 0.000000 0.023390
#
#
# Mechanical properties :
#
#
# Convention : Reuss Voigt Hill
#
# Bulk Modulus (GPa) = 49.57394 84.99286 67.28340
# Shear Modulus (GPa) = 43.28478 54.04559 48.66518
#
# Velocity S-wave (km/s) = 3.98707 4.45519 4.22761
# Velocity P-wave (km/s) = 6.27711 7.59469 6.96711
#
# Compressibility (1/GPa) = 0.02017189
#
# Stress axis : x y z
#
# Youngs Moduli (GPa) = 110.69119 110.46819 189.19620
#
# Poissons Ratio (x) = -0.06046 0.21857
# Poissons Ratio (y) = -0.06058 0.18771
# Poissons Ratio (z) = 0.12788 0.10960
#
# Static dielectric constant tensor:
#      x y z
#    x 2.084170 0.000000 0.062580 
#    y 0.000000 2.117900 0.000000 
#    z 0.062580 0.000000 2.333360 
# 
# From -- ./inp_files/2394.got.cif
#   From: 2010.05.17/outbox.cif.g08.bks.cpg/sg14_2_cif.got.tgz:2394.got - 2010.06.03 17:49:19.
