data_PCOD9248909
_publ_section_title
;
Structure prediction by ZEFSAII (Michael W. Deem and Ramdas Pophale) SiO2 
 PCOD9248909
Probable space group: P 21/C
;
_chemical_formula_sum "Si O2"
_cell_formula_units_Z 16
_cell_length_a 11.484107
_cell_length_b 7.009690
_cell_length_c 9.194416
_cell_angle_alpha 90.000000
_cell_angle_beta 90.840840
_cell_angle_gamma 90.000000
_cell_volume 740.071063
_symmetry_space_group_name_H-M "P 21/C"
_symmetry_group_IT_number 14
_symmetry_cell_setting 'monoclinic'
loop_
_space_group_symop_operation_xyz
x,y,z
-x,1/2+y,1/2-z
-x,-y,-z
x,1/2-y,1/2+z
loop_
_atom_site_type_symbol
_atom_site_label
_atom_site_fract_x
_atom_site_fract_y
_atom_site_fract_z
Si Si1 0.677042 0.436470 0.214594
Si Si2 0.871896 0.567610 0.034403
Si Si3 0.244770 0.348230 0.274928
Si Si4 0.389390 0.632522 0.471408
O O1 0.801355 0.419355 0.134961
O O2 0.667541 0.665516 0.229851
O O3 0.586811 0.333248 0.106358
O O4 0.670483 0.347738 0.373267
O O5 0.860411 0.762309 0.128389
O O6 0.800218 0.601237 0.885059
O O7 0.000000 0.500000 0.000000
O O8 0.306447 0.518098 0.359537
O O9 0.500000 0.500000 0.500000
#
# Coordination Sequence:
#
# PCOD9248909 Si02
#       4
#     4   4   4   4
#     4  10  24  44  63 102 131 167 233 267 322 410
#     4  10  22  44  71  96 133 177 215 277 338 386
#     4  10  22  46  65  97 137 165 229 273 321 403
#     4  12  26  42  71  95 135 183 214 279 336 386
#
# _framework density 21.619544000000001
#
# number of rings (size 3 to 8) (size 9 to 14) (size 15 to 20)
#    1.500    0.000    2.500    1.500    3.500    5.000 
#    0.000    3.750    0.000    0.000    0.000    0.000 
#    0.000    0.000    0.000    0.000    0.000    0.000 
#
# Total GULP energy -89261.699390 kJ/mol
# GULP energy per Si atom -5578.856212 kJ/mol
# Density = 2.157034 g / cm^3
# Si number density = 21.619544 Si / 1000 Ang^3
#
#
#
# Elastic Constant Matrix: (Units=GPa)
#
#
# Indices 1 2 3 4 5 6 
#
# 1 59.1150 32.2005 37.8698 0.0000 -8.2756 0.0000
# 2 32.2005 91.6010 57.9380 0.0000 10.7016 0.0000
# 3 37.8698 57.9380 192.3531 0.0000 -12.5427 0.0000
# 4 0.0000 0.0000 0.0000 24.2444 0.0000 8.8209
# 5 -8.2756 10.7016 -12.5427 0.0000 20.0409 0.0000
# 6 0.0000 0.0000 0.0000 8.8209 0.0000 25.2464
#
#
#
# Elastic Compliance Matrix: (Units=1/GPa)
#
#
# Indices 1 2 3 4 5 6 
#
# 1 0.025069 -0.009976 -0.000947 0.000000 0.015086 0.000000
# 2 -0.009976 0.019782 -0.005163 0.000000 -0.017914 0.000000
# 3 -0.000947 -0.005163 0.007396 0.000000 0.006995 0.000000
# 4 0.000000 0.000000 0.000000 0.047254 0.000000 -0.016510
# 5 0.015086 -0.017914 0.006995 0.000000 0.070071 0.000000
# 6 0.000000 0.000000 0.000000 -0.016510 0.000000 0.045378
#
#
# Mechanical properties :
#
#
# Convention : Reuss Voigt Hill
#
# Bulk Modulus (GPa) = 49.81037 66.56509 58.18773
# Shear Modulus (GPa) = 19.69960 28.24374 23.97167
#
# Velocity S-wave (km/s) = 3.02187 3.61833 3.33347
# Velocity P-wave (km/s) = 5.93845 6.95073 6.46443
#
# Compressibility (1/GPa) = 0.02007614
#
# Stress axis : x y z
#
# Youngs Moduli (GPa) = 39.89034 50.55120 135.20330
#
# Poissons Ratio (x) = 0.50430 0.12802
# Poissons Ratio (y) = 0.39795 0.69799
# Poissons Ratio (z) = 0.03777 0.26097
#
# Static dielectric constant tensor:
#      x y z
#    x 1.781880 0.000000 -0.034590 
#    y 0.000000 1.961580 0.000000 
#    z -0.034590 0.000000 1.758180 
# 
# From -- ./inp_files/11643.got.cif
#   From: 2010.05.17/outbox.cif.g08.bks.cpg/sg14_6_cif.got.tgz:11643.got - 2010.06.03 17:49:19.
