data_PCOD9248773
_publ_section_title
;
Structure prediction by ZEFSAII (Michael W. Deem and Ramdas Pophale) SiO2 
 PCOD9248773
Probable space group: P 21/C
;
_chemical_formula_sum "Si O2"
_cell_formula_units_Z 24
_cell_length_a 15.976667
_cell_length_b 8.467545
_cell_length_c 18.858097
_cell_angle_alpha 90.000000
_cell_angle_beta 20.405654
_cell_angle_gamma 90.000000
_cell_volume 889.506938
_symmetry_space_group_name_H-M "P 21/C"
_symmetry_group_IT_number 14
_symmetry_cell_setting 'monoclinic'
loop_
_space_group_symop_operation_xyz
x,y,z
-x,1/2+y,1/2-z
-x,-y,-z
x,1/2-y,1/2+z
loop_
_atom_site_type_symbol
_atom_site_label
_atom_site_fract_x
_atom_site_fract_y
_atom_site_fract_z
Si Si1 0.435132 0.258096 0.151508
Si Si2 0.765231 0.877784 0.478498
Si Si3 0.560634 0.624461 0.996962
Si Si4 0.229784 0.491344 0.681474
Si Si5 0.467047 0.864781 0.268641
Si Si6 0.130988 0.806670 0.398959
O O1 0.454610 0.048004 0.300917
O O2 0.542210 0.297141 0.143505
O O3 0.146790 0.243652 0.385307
O O4 0.576577 0.105363 0.010523
O O5 0.743521 0.917418 0.414328
O O6 0.713813 0.694865 0.536417
O O7 0.994191 0.963481 0.325835
O O8 0.684632 0.810733 0.888902
O O9 0.522331 0.599668 0.940895
O O10 0.299804 0.667542 0.236027
O O11 0.166587 0.557132 0.810972
O O12 0.256331 0.839838 0.376368
#
# Coordination Sequence:
#
# PCOD9248773 Si02
#       6
#     4   4   4   4   4   4
#     4  11  23  44  68  98 142 186 228 293 364 416
#     4  11  24  47  72 108 144 182 245 291 357 428
#     4  10  22  44  65 100 138 183 233 290 354 422
#     4  11  25  44  69 103 141 187 235 299 351 426
#     4  11  24  44  74 103 139 192 233 291 357 423
#     4  10  24  44  67 100 142 179 243 291 350 430
#
# _framework density 26.981238999999999
#
# number of rings (size 3 to 8) (size 9 to 14) (size 15 to 20)
#    0.000    1.333    3.333    1.000    4.667    2.000 
#    6.000    0.000    0.000    0.000    0.000    0.000 
#    0.000    0.000    0.000    0.000    0.000    0.000 
#
# Total GULP energy -134040.948928 kJ/mol
# GULP energy per Si atom -5585.039539 kJ/mol
# Density = 2.691983 g / cm^3
# Si number density = 26.981239 Si / 1000 Ang^3
#
#
#
# Elastic Constant Matrix: (Units=GPa)
#
#
# Indices 1 2 3 4 5 6 
#
# 1 289.3392 81.4780 91.5282 0.0000 -42.5547 0.0000
# 2 81.4780 101.6329 47.5694 0.0000 -11.9698 0.0000
# 3 91.5282 47.5694 131.0789 0.0000 -8.4185 0.0000
# 4 0.0000 0.0000 0.0000 13.6318 0.0000 -8.2069
# 5 -42.5547 -11.9698 -8.4185 0.0000 47.7782 0.0000
# 6 0.0000 0.0000 0.0000 -8.2069 0.0000 43.2929
#
#
#
# Elastic Compliance Matrix: (Units=1/GPa)
#
#
# Indices 1 2 3 4 5 6 
#
# 1 0.005673 -0.002836 -0.002683 0.000000 0.003869 0.000000
# 2 -0.002836 0.013512 -0.002901 0.000000 0.000348 0.000000
# 3 -0.002683 -0.002901 0.010474 0.000000 -0.001271 0.000000
# 4 0.000000 0.000000 0.000000 0.082809 0.000000 0.015698
# 5 0.003869 0.000348 -0.001271 0.000000 0.024239 0.000000
# 6 0.000000 0.000000 0.000000 0.015698 0.000000 0.026074
#
#
# Mechanical properties :
#
#
# Convention : Reuss Voigt Hill
#
# Bulk Modulus (GPa) = 78.01705 107.02248 92.51977
# Shear Modulus (GPa) = 27.18968 41.03893 34.11430
#
# Velocity S-wave (km/s) = 3.17791 3.90425 3.55966
# Velocity P-wave (km/s) = 6.51487 7.75086 7.15959
#
# Compressibility (1/GPa) = 0.01281771
#
# Stress axis : x y z
#
# Youngs Moduli (GPa) = 176.28313 74.00994 95.47692
#
# Poissons Ratio (x) = 0.20990 0.25620
# Poissons Ratio (y) = 0.49996 0.27696
# Poissons Ratio (z) = 0.47302 0.21469
#
# Static dielectric constant tensor:
#      x y z
#    x 2.181770 0.000000 0.007290 
#    y 0.000000 2.470170 0.000000 
#    z 0.007290 0.000000 2.130020 
# 
# From -- ./inp_files/80488.got.cif
#   From: 2010.05.17/outbox.cif.g08.bks.cpg/sg14_41_cif.got.tgz:80488.got - 2010.06.03 17:49:19.
