data_PCOD9248284
_publ_section_title
;
Structure prediction by ZEFSAII (Michael W. Deem and Ramdas Pophale) SiO2 
 PCOD9248284
Probable space group: P 21/C
;
_chemical_formula_sum "Si O2"
_cell_formula_units_Z 22
_cell_length_a 11.535390
_cell_length_b 12.043235
_cell_length_c 12.029221
_cell_angle_alpha 90.000000
_cell_angle_beta 144.106329
_cell_angle_gamma 90.000000
_cell_volume 979.761016
_symmetry_space_group_name_H-M "P 21/C"
_symmetry_group_IT_number 14
_symmetry_cell_setting 'monoclinic'
loop_
_space_group_symop_operation_xyz
x,y,z
-x,1/2+y,1/2-z
-x,-y,-z
x,1/2-y,1/2+z
loop_
_atom_site_type_symbol
_atom_site_label
_atom_site_fract_x
_atom_site_fract_y
_atom_site_fract_z
Si Si1 0.073177 0.086244 0.148466
Si Si2 0.500000 0.500000 0.000000
Si Si3 0.190750 0.656123 0.359321
Si Si4 0.553677 0.350410 0.834394
Si Si5 0.193427 0.222133 0.579982
Si Si6 0.237686 0.512861 0.193358
O O1 0.121121 0.203371 0.127073
O O2 0.897157 0.100738 0.099211
O O3 0.272347 0.039062 0.357484
O O4 0.000000 0.000000 0.000000
O O5 0.474175 0.441812 0.858220
O O6 0.323552 0.760923 0.497130
O O7 0.285549 0.564961 0.350507
O O8 0.998198 0.699141 0.142649
O O9 0.359299 0.287515 0.639471
O O10 0.681920 0.402681 0.836576
O O11 0.298036 0.111473 0.707986
O O12 0.000000 0.500000 0.000000
#
# Coordination Sequence:
#
# PCOD9248284 Si02
#       6
#     4   2   4   4   4   4
#     4  11  24  41  67  96 124 168 219 261 320 392
#     4  10  22  42  64  90 128 164 204 268 316 364
#     4  11  23  41  66  91 128 169 209 267 324 377
#     4  11  24  41  66  94 125 170 218 261 319 389
#     4  10  24  41  61  93 129 165 212 267 322 388
#     4  10  22  42  63  92 132 166 209 269 325 381
#
# _framework density 22.454456
#
# number of rings (size 3 to 8) (size 9 to 14) (size 15 to 20)
#    0.000    1.455    0.000    5.455    0.000   10.909 
#    0.000    0.000    0.000    0.000    0.000    0.000 
#    0.000    0.000    0.000    0.000    0.000    0.000 
#
# Total GULP energy -122537.524717 kJ/mol
# GULP energy per Si atom -5569.887487 kJ/mol
# Density = 2.240335 g / cm^3
# Si number density = 22.454456 Si / 1000 Ang^3
#
#
#
# Elastic Constant Matrix: (Units=GPa)
#
#
# Indices 1 2 3 4 5 6 
#
# 1 121.1663 32.5606 -3.5362 0.0000 -7.6608 0.0000
# 2 32.5606 88.3663 25.3250 0.0000 -8.2036 0.0000
# 3 -3.5362 25.3250 60.8380 0.0000 4.1289 0.0000
# 4 0.0000 0.0000 0.0000 32.7210 0.0000 5.8160
# 5 -7.6608 -8.2036 4.1289 0.0000 29.2828 0.0000
# 6 0.0000 0.0000 0.0000 5.8160 0.0000 35.4480
#
#
#
# Elastic Compliance Matrix: (Units=1/GPa)
#
#
# Indices 1 2 3 4 5 6 
#
# 1 0.009458 -0.004002 0.002144 0.000000 0.001051 0.000000
# 2 -0.004002 0.015129 -0.006812 0.000000 0.004152 0.000000
# 3 0.002144 -0.006812 0.019677 0.000000 -0.004122 0.000000
# 4 0.000000 0.000000 0.000000 0.031479 0.000000 -0.005165
# 5 0.001051 0.004152 -0.004122 0.000000 0.036169 0.000000
# 6 0.000000 0.000000 0.000000 -0.005165 0.000000 0.029058
#
#
# Mechanical properties :
#
#
# Convention : Reuss Voigt Hill
#
# Bulk Modulus (GPa) = 37.14131 42.11884 39.63007
# Shear Modulus (GPa) = 29.88937 33.89178 31.89058
#
# Velocity S-wave (km/s) = 3.65240 3.88926 3.77269
# Velocity P-wave (km/s) = 5.86202 6.24232 6.05516
#
# Compressibility (1/GPa) = 0.02692420
#
# Stress axis : x y z
#
# Youngs Moduli (GPa) = 105.73592 66.09909 50.82048
#
# Poissons Ratio (x) = 0.26452 -0.10897
# Poissons Ratio (y) = 0.42313 0.34619
# Poissons Ratio (z) = -0.22672 0.45027
#
# Static dielectric constant tensor:
#      x y z
#    x 1.824990 0.000000 0.023720 
#    y 0.000000 2.332960 0.000000 
#    z 0.023720 0.000000 1.839810 
# 
# From -- ./inp_files/28944.got.cif
#   From: 2010.05.17/outbox.cif.g08.bks.cpg/sg14_15_cif.got.tgz:28944.got - 2010.06.03 17:49:19.
