data_PCOD9248963
_publ_section_title
;
Structure prediction by ZEFSAII (Michael W. Deem and Ramdas Pophale) SiO2 
 PCOD9248963
Probable space group: P 21/C
;
_chemical_formula_sum "Si O2"
_cell_formula_units_Z 26
_cell_length_a 21.606482
_cell_length_b 5.910340
_cell_length_c 15.762755
_cell_angle_alpha 90.000000
_cell_angle_beta 32.884186
_cell_angle_gamma 90.000000
_cell_volume 1092.905571
_symmetry_space_group_name_H-M "P 21/C"
_symmetry_group_IT_number 14
_symmetry_cell_setting 'monoclinic'
loop_
_space_group_symop_operation_xyz
x,y,z
-x,1/2+y,1/2-z
-x,-y,-z
x,1/2-y,1/2+z
loop_
_atom_site_type_symbol
_atom_site_label
_atom_site_fract_x
_atom_site_fract_y
_atom_site_fract_z
Si Si1 0.957075 0.151620 0.203363
Si Si2 0.391740 0.588842 0.020656
Si Si3 0.783627 0.788962 0.355995
Si Si4 0.632559 0.823851 0.284279
Si Si5 0.000000 0.000000 0.500000
Si Si6 0.817532 0.026571 0.972165
Si Si7 0.228439 0.536519 0.790270
O O1 0.870836 0.247336 0.373709
O O2 0.078566 0.108026 0.105079
O O3 0.898528 0.926675 0.236943
O O4 0.967422 0.327771 0.115016
O O5 0.321381 0.462645 0.028887
O O6 0.403738 0.393438 0.078743
O O7 0.312197 0.786554 0.149298
O O8 0.517789 0.685752 0.861548
O O9 0.769809 0.612525 0.446862
O O10 0.801513 0.657180 0.246663
O O11 0.706190 0.595421 0.210067
O O12 0.714482 0.023178 0.156697
O O13 0.899048 0.123980 0.552246
#
# Coordination Sequence:
#
# PCOD9248963 Si02
#       7
#     4   4   4   4   2   4   4
#     4  12  25  42  65  96 136 167 219 272 334 401
#     4  10  22  45  65  95 127 171 225 274 315 395
#     4  11  23  42  62  92 131 170 210 265 331 386
#     4  10  24  41  68  95 125 173 223 270 331 381
#     4  12  22  40  66  98 124 178 214 266 332 396
#     4  12  24  42  63  96 132 173 212 272 335 396
#     4  11  22  40  68  92 128 166 219 270 326 392
#
# _framework density 23.789797
#
# number of rings (size 3 to 8) (size 9 to 14) (size 15 to 20)
#    0.000    0.923    6.154    0.462    0.000    4.308 
#    5.538    0.000    0.000    0.000    0.000    0.000 
#    0.000    0.000    0.000    0.000    0.000    0.000 
#
# Total GULP energy -144981.572687 kJ/mol
# GULP energy per Si atom -5576.214334 kJ/mol
# Density = 2.373565 g / cm^3
# Si number density = 23.789797 Si / 1000 Ang^3
#
#
#
# Elastic Constant Matrix: (Units=GPa)
#
#
# Indices 1 2 3 4 5 6 
#
# 1 82.6576 13.3923 39.7411 0.0000 -15.6644 0.0000
# 2 13.3923 51.5229 18.4639 0.0000 -10.0006 0.0000
# 3 39.7411 18.4639 75.2097 0.0000 -29.7906 0.0000
# 4 0.0000 0.0000 0.0000 16.1385 0.0000 6.1259
# 5 -15.6644 -10.0006 -29.7906 0.0000 37.1845 0.0000
# 6 0.0000 0.0000 0.0000 6.1259 0.0000 32.8633
#
#
#
# Elastic Compliance Matrix: (Units=1/GPa)
#
#
# Indices 1 2 3 4 5 6 
#
# 1 0.016294 -0.001271 -0.008370 0.000000 -0.000184 0.000000
# 2 -0.001271 0.021510 -0.003706 0.000000 0.002281 0.000000
# 3 -0.008370 -0.003706 0.024664 0.000000 0.015237 0.000000
# 4 0.000000 0.000000 0.000000 0.066682 0.000000 -0.012430
# 5 -0.000184 0.002281 0.015237 0.000000 0.039636 0.000000
# 6 0.000000 0.000000 0.000000 -0.012430 0.000000 0.032746
#
#
# Mechanical properties :
#
#
# Convention : Reuss Voigt Hill
#
# Bulk Modulus (GPa) = 27.95371 39.17609 33.56490
# Shear Modulus (GPa) = 20.82024 26.42345 23.62185
#
# Velocity S-wave (km/s) = 2.96155 3.33634 3.15451
# Velocity P-wave (km/s) = 4.84460 5.59865 5.23522
#
# Compressibility (1/GPa) = 0.03577343
#
# Stress axis : x y z
#
# Youngs Moduli (GPa) = 61.37367 46.49019 40.54440
#
# Poissons Ratio (x) = 0.05910 0.33937
# Poissons Ratio (y) = 0.07802 0.15024
# Poissons Ratio (z) = 0.51372 0.17227
#
# Static dielectric constant tensor:
#      x y z
#    x 1.925450 0.000000 0.120890 
#    y 0.000000 1.671410 0.000000 
#    z 0.120890 0.000000 1.527820 
# 
# From -- ./inp_files/61578.got.cif
#   From: 2010.05.17/outbox.cif.g08.bks.cpg/sg14_31_cif.got.tgz:61578.got - 2010.06.03 17:49:19.
