data_PCOD9248427
_publ_section_title
;
Structure prediction by ZEFSAII (Michael W. Deem and Ramdas Pophale) SiO2 
 PCOD9248427
Probable space group: P 21/C
;
_chemical_formula_sum "Si O2"
_cell_formula_units_Z 20
_cell_length_a 9.878748
_cell_length_b 10.445068
_cell_length_c 10.895695
_cell_angle_alpha 90.000000
_cell_angle_beta 131.416076
_cell_angle_gamma 90.000000
_cell_volume 843.113866
_symmetry_space_group_name_H-M "P 21/C"
_symmetry_group_IT_number 14
_symmetry_cell_setting 'monoclinic'
loop_
_space_group_symop_operation_xyz
x,y,z
-x,1/2+y,1/2-z
-x,-y,-z
x,1/2-y,1/2+z
loop_
_atom_site_type_symbol
_atom_site_label
_atom_site_fract_x
_atom_site_fract_y
_atom_site_fract_z
Si Si1 0.066207 0.143636 0.565452
Si Si2 0.713784 0.259104 0.765683
Si Si3 0.858445 0.509080 0.300571
Si Si4 0.201780 0.503960 0.355314
Si Si5 0.338982 0.171113 0.144196
O O1 0.185204 0.118887 0.756358
O O2 0.187394 0.218647 0.539680
O O3 0.880574 0.221002 0.460223
O O4 0.000000 0.000000 0.500000
O O5 0.756400 0.125333 0.726265
O O6 0.720461 0.375100 0.671097
O O7 0.530784 0.268427 0.731774
O O8 0.711178 0.613210 0.252614
O O9 0.000000 0.500000 0.500000
O O10 0.996403 0.535020 0.273603
O O11 0.312413 0.449986 0.537016
#
# Coordination Sequence:
#
# PCOD9248427 Si02
#       5
#     4   4   4   4   4
#     4  10  23  42  65  95 139 175 220 281 336 401
#     4  11  23  42  69  98 136 175 229 282 338 399
#     4  10  22  42  68  95 134 179 226 273 341 406
#     4  10  23  43  69  94 137 184 219 279 346 399
#     4  11  24  44  68 103 135 179 231 277 339 410
#
# _framework density 23.721588000000001
#
# number of rings (size 3 to 8) (size 9 to 14) (size 15 to 20)
#    0.000    1.600    4.000    0.600    8.400    0.000 
#    3.600    1.000    0.000    0.000    0.000    0.000 
#    0.000    0.000    0.000    0.000    0.000    0.000 
#
# Total GULP energy -111660.405391 kJ/mol
# GULP energy per Si atom -5583.020270 kJ/mol
# Density = 2.366760 g / cm^3
# Si number density = 23.721588 Si / 1000 Ang^3
#
#
#
# Elastic Constant Matrix: (Units=GPa)
#
#
# Indices 1 2 3 4 5 6 
#
# 1 169.2525 57.6357 14.4224 0.0000 39.5383 0.0000
# 2 57.6357 132.5413 13.5766 0.0000 6.8432 0.0000
# 3 14.4224 13.5766 14.1644 0.0000 4.6162 0.0000
# 4 0.0000 0.0000 0.0000 20.6974 0.0000 -2.0460
# 5 39.5383 6.8432 4.6162 0.0000 40.5686 0.0000
# 6 0.0000 0.0000 0.0000 -2.0460 0.0000 31.4587
#
#
#
# Elastic Compliance Matrix: (Units=1/GPa)
#
#
# Indices 1 2 3 4 5 6 
#
# 1 0.009177 -0.003202 -0.003672 0.000000 -0.007986 0.000000
# 2 -0.003202 0.009494 -0.006579 0.000000 0.002268 0.000000
# 3 -0.003672 -0.006579 0.082163 0.000000 -0.004660 0.000000
# 4 0.000000 0.000000 0.000000 0.048628 0.000000 0.003163
# 5 -0.007986 0.002268 -0.004660 0.000000 0.032581 0.000000
# 6 0.000000 0.000000 0.000000 0.003163 0.000000 0.031993
#
#
# Mechanical properties :
#
#
# Convention : Reuss Voigt Hill
#
# Bulk Modulus (GPa) = 13.52665 54.13639 33.83152
# Shear Modulus (GPa) = 18.82627 33.89985 26.36306
#
# Velocity S-wave (km/s) = 2.82021 3.78441 3.33731
# Velocity P-wave (km/s) = 4.03973 6.47818 5.39843
#
# Compressibility (1/GPa) = 0.07392815
#
# Stress axis : x y z
#
# Youngs Moduli (GPa) = 108.96362 105.32861 12.17086
#
# Poissons Ratio (x) = 0.33729 0.04470
# Poissons Ratio (y) = 0.34893 0.08007
# Poissons Ratio (z) = 0.40017 0.69292
#
# Static dielectric constant tensor:
#      x y z
#    x 1.909880 0.000000 -0.037890 
#    y 0.000000 1.937860 0.000000 
#    z -0.037890 0.000000 1.995950 
# 
# From -- ./inp_files/23947.got.cif
#   From: 2010.05.17/outbox.cif.g08.bks.cpg/sg14_12_cif.got.tgz:23947.got - 2010.06.03 17:49:19.
