data_PCOD9248874
_publ_section_title
;
Structure prediction by ZEFSAII (Michael W. Deem and Ramdas Pophale) SiO2 
 PCOD9248874
Probable space group: P 21/C
;
_chemical_formula_sum "Si O2"
_cell_formula_units_Z 32
_cell_length_a 14.628711
_cell_length_b 5.170641
_cell_length_c 19.572336
_cell_angle_alpha 90.000000
_cell_angle_beta 57.764009
_cell_angle_gamma 90.000000
_cell_volume 1252.249038
_symmetry_space_group_name_H-M "P 21/C"
_symmetry_group_IT_number 14
_symmetry_cell_setting 'monoclinic'
loop_
_space_group_symop_operation_xyz
x,y,z
-x,1/2+y,1/2-z
-x,-y,-z
x,1/2-y,1/2+z
loop_
_atom_site_type_symbol
_atom_site_label
_atom_site_fract_x
_atom_site_fract_y
_atom_site_fract_z
Si Si1 0.146774 0.070210 0.842447
Si Si2 0.427374 0.735370 0.632851
Si Si3 0.365180 0.550428 0.440840
Si Si4 0.662282 0.196789 0.684051
Si Si5 0.703274 0.738867 0.840539
Si Si6 0.971773 0.053026 0.803586
Si Si7 0.217566 0.890534 0.571898
Si Si8 0.194624 0.184150 0.451801
O O1 0.220155 0.223097 0.757191
O O2 0.115909 0.225832 0.923328
O O3 0.041850 0.985155 0.842583
O O4 0.227700 0.846131 0.836433
O O5 0.547148 0.646605 0.566211
O O6 0.410213 0.690072 0.720648
O O7 0.345246 0.523840 0.633748
O O8 0.392793 0.028491 0.632773
O O9 0.397511 0.660477 0.354058
O O10 0.333935 0.785046 0.502021
O O11 0.250771 0.415118 0.470479
O O12 0.705981 0.936610 0.631908
O O13 0.764214 0.616820 0.880936
O O14 0.855163 0.167687 0.866767
O O15 0.024642 0.302596 0.745258
O O16 0.160321 0.990175 0.525004
#
# Coordination Sequence:
#
# PCOD9248874 Si02
#       8
#     4   4   4   4   4   4   4   4
#     4  10  22  45  72 107 140 185 247 300 368 435
#     4  11  25  41  71 105 138 203 244 289 353 434
#     4  10  25  41  68 104 149 195 242 298 365 431
#     4   9  21  40  67 102 145 184 241 302 351 421
#     4  11  25  43  71 103 148 190 245 303 352 432
#     4  12  29  47  81 109 137 192 250 304 374 452
#     4  11  27  47  69 105 150 189 239 312 374 429
#     4  10  22  44  70 100 150 189 231 309 363 426
#
# _framework density 25.554020999999999
#
# number of rings (size 3 to 8) (size 9 to 14) (size 15 to 20)
#    0.000    1.500    2.500    0.000   12.250    1.500 
#    0.000    5.625    0.000    0.000    0.000    0.000 
#    0.000    0.000    0.000    0.000    0.000    0.000 
#
# Total GULP energy -179168.608855 kJ/mol
# GULP energy per Si atom -5599.019027 kJ/mol
# Density = 2.549586 g / cm^3
# Si number density = 25.554021 Si / 1000 Ang^3
#
#
#
# Elastic Constant Matrix: (Units=GPa)
#
#
# Indices 1 2 3 4 5 6 
#
# 1 85.6751 16.8646 45.7522 0.0000 3.7682 0.0000
# 2 16.8646 78.3669 30.6598 0.0000 9.9323 0.0000
# 3 45.7522 30.6598 104.6056 0.0000 29.4291 0.0000
# 4 0.0000 0.0000 0.0000 30.8191 0.0000 -2.0238
# 5 3.7682 9.9323 29.4291 0.0000 28.9678 0.0000
# 6 0.0000 0.0000 0.0000 -2.0238 0.0000 31.0223
#
#
#
# Elastic Compliance Matrix: (Units=1/GPa)
#
#
# Indices 1 2 3 4 5 6 
#
# 1 0.016280 -0.000947 -0.008875 0.000000 0.007224 0.000000
# 2 -0.000947 0.014485 -0.003457 0.000000 -0.001331 0.000000
# 3 -0.008875 -0.003457 0.019318 0.000000 -0.017286 0.000000
# 4 0.000000 0.000000 0.000000 0.032587 0.000000 0.002126
# 5 0.007224 -0.001331 -0.017286 0.000000 0.051599 0.000000
# 6 0.000000 0.000000 0.000000 0.002126 0.000000 0.032374
#
#
# Mechanical properties :
#
#
# Convention : Reuss Voigt Hill
#
# Bulk Modulus (GPa) = 42.50716 50.57786 46.54251
# Shear Modulus (GPa) = 24.87026 29.85324 27.36175
#
# Velocity S-wave (km/s) = 3.12307 3.42166 3.27577
# Velocity P-wave (km/s) = 5.44748 5.95364 5.70618
#
# Compressibility (1/GPa) = 0.02352545
#
# Stress axis : x y z
#
# Youngs Moduli (GPa) = 61.42401 69.03465 51.76531
#
# Poissons Ratio (x) = 0.06535 0.45944
# Poissons Ratio (y) = 0.05815 0.17896
# Poissons Ratio (z) = 0.54516 0.23866
#
# Static dielectric constant tensor:
#      x y z
#    x 2.016830 0.000000 0.015520 
#    y 0.000000 2.017960 0.000000 
#    z 0.015520 0.000000 2.001790 
# 
# From -- ./inp_files/67833.got.cif
#   From: 2010.05.17/outbox.cif.g08.bks.cpg/sg14_34_cif.got.tgz:67833.got - 2010.06.03 17:49:19.
