data_PCOD9248736
_publ_section_title
;
Structure prediction by ZEFSAII (Michael W. Deem and Ramdas Pophale) SiO2 
 PCOD9248736
Probable space group: P 21/C
;
_chemical_formula_sum "Si O2"
_cell_formula_units_Z 20
_cell_length_a 5.228906
_cell_length_b 7.584458
_cell_length_c 20.622264
_cell_angle_alpha 90.000000
_cell_angle_beta 81.532498
_cell_angle_gamma 90.000000
_cell_volume 808.931464
_symmetry_space_group_name_H-M "P 21/C"
_symmetry_group_IT_number 14
_symmetry_cell_setting 'monoclinic'
loop_
_space_group_symop_operation_xyz
x,y,z
-x,1/2+y,1/2-z
-x,-y,-z
x,1/2-y,1/2+z
loop_
_atom_site_type_symbol
_atom_site_label
_atom_site_fract_x
_atom_site_fract_y
_atom_site_fract_z
Si Si1 0.596469 0.558596 0.078464
Si Si2 0.920171 0.610341 0.896892
Si Si3 0.206258 0.673609 0.194614
Si Si4 0.940570 0.041485 0.162414
Si Si5 0.272150 0.440187 0.461187
O O1 0.812361 0.409211 0.075581
O O2 0.485005 0.632642 0.152248
O O3 0.717667 0.730192 0.042750
O O4 0.328597 0.480500 0.061418
O O5 0.873413 0.807339 0.874524
O O6 0.960222 0.480948 0.833616
O O7 0.192565 0.633134 0.270847
O O8 0.091743 0.862837 0.176963
O O9 0.735539 0.002737 0.113138
O O10 0.500000 0.500000 0.500000
O O11 0.000000 0.500000 0.500000
#
# Coordination Sequence:
#
# PCOD9248736 Si02
#       5
#     4   4   4   4   4
#     4  10  22  47  69 102 151 180 246 307 358 446
#     4  10  23  43  68 111 136 186 236 302 389 436
#     4  10  22  43  72 111 144 181 238 319 388 433
#     4  12  23  47  78 107 151 193 247 316 386 456
#     4  12  26  48  74 108 151 210 251 300 366 445
#
# _framework density 24.723974999999999
#
# number of rings (size 3 to 8) (size 9 to 14) (size 15 to 20)
#    1.200    0.000    4.000    2.400    0.000    4.800 
#    7.200    6.000    0.000    0.000    0.000    0.000 
#    0.000    0.000    0.000    0.000    0.000    0.000 
#
# Total GULP energy -111811.299239 kJ/mol
# GULP energy per Si atom -5590.564962 kJ/mol
# Density = 2.466770 g / cm^3
# Si number density = 24.723975 Si / 1000 Ang^3
#
#
#
# Elastic Constant Matrix: (Units=GPa)
#
#
# Indices 1 2 3 4 5 6 
#
# 1 162.6923 47.5399 64.9882 0.0000 4.2732 0.0000
# 2 47.5399 184.7736 63.3064 0.0000 9.4528 0.0000
# 3 64.9882 63.3064 129.3168 0.0000 15.0626 0.0000
# 4 0.0000 0.0000 0.0000 51.6067 0.0000 3.1453
# 5 4.2732 9.4528 15.0626 0.0000 34.5305 0.0000
# 6 0.0000 0.0000 0.0000 3.1453 0.0000 32.6641
#
#
#
# Elastic Compliance Matrix: (Units=1/GPa)
#
#
# Indices 1 2 3 4 5 6 
#
# 1 0.007810 -0.000810 -0.003626 0.000000 0.000837 0.000000
# 2 -0.000810 0.006592 -0.002762 0.000000 -0.000500 0.000000
# 3 -0.003626 -0.002762 0.011343 0.000000 -0.003743 0.000000
# 4 0.000000 0.000000 0.000000 0.019492 0.000000 -0.001877
# 5 0.000837 -0.000500 -0.003743 0.000000 0.030626 0.000000
# 6 0.000000 0.000000 0.000000 -0.001877 0.000000 0.030795
#
#
# Mechanical properties :
#
#
# Convention : Reuss Voigt Hill
#
# Bulk Modulus (GPa) = 88.10714 92.05019 90.07867
# Shear Modulus (GPa) = 40.05239 43.82347 41.93793
#
# Velocity S-wave (km/s) = 4.02927 4.21469 4.12302
# Velocity P-wave (km/s) = 7.57366 7.81004 7.69276
#
# Compressibility (1/GPa) = 0.01134982
#
# Stress axis : x y z
#
# Youngs Moduli (GPa) = 128.04837 151.69278 88.15872
#
# Poissons Ratio (x) = 0.12285 0.31964
# Poissons Ratio (y) = 0.10371 0.24350
# Poissons Ratio (z) = 0.46426 0.41898
#
# Static dielectric constant tensor:
#      x y z
#    x 1.895430 0.000000 0.030620 
#    y 0.000000 1.910700 0.000000 
#    z 0.030620 0.000000 2.118180 
# 
# From -- ./inp_files/62911.got.cif
#   From: 2010.05.17/outbox.cif.g08.bks.cpg/sg14_32_cif.got.tgz:62911.got - 2010.06.03 17:49:19.
