data_PCOD9248797
_publ_section_title
;
Structure prediction by ZEFSAII (Michael W. Deem and Ramdas Pophale) SiO2 
 PCOD9248797
Probable space group: P 21/C
;
_chemical_formula_sum "Si O2"
_cell_formula_units_Z 28
_cell_length_a 17.339260
_cell_length_b 12.571424
_cell_length_c 10.172771
_cell_angle_alpha 90.000000
_cell_angle_beta 148.257258
_cell_angle_gamma 90.000000
_cell_volume 1166.615443
_symmetry_space_group_name_H-M "P 21/C"
_symmetry_group_IT_number 14
_symmetry_cell_setting 'monoclinic'
loop_
_space_group_symop_operation_xyz
x,y,z
-x,1/2+y,1/2-z
-x,-y,-z
x,1/2-y,1/2+z
loop_
_atom_site_type_symbol
_atom_site_label
_atom_site_fract_x
_atom_site_fract_y
_atom_site_fract_z
Si Si1 0.695714 0.367769 0.996204
Si Si2 0.199019 0.062232 0.934728
Si Si3 0.950975 0.992182 0.777160
Si Si4 0.216666 0.300113 0.926688
Si Si5 0.314924 0.861930 0.978773
Si Si6 0.381082 0.432984 0.947618
Si Si7 0.506714 0.872219 0.011105
O O1 0.762358 0.250343 0.104108
O O2 0.539542 0.343173 0.701956
O O3 0.801212 0.439479 0.057971
O O4 0.657676 0.446272 0.061242
O O5 0.181037 0.178591 0.849565
O O6 0.067887 0.034077 0.844005
O O7 0.340682 0.072886 0.236947
O O8 0.218257 0.966977 0.859112
O O9 0.917314 0.868029 0.709864
O O10 0.000000 0.000000 0.000000
O O11 0.272014 0.358430 0.874756
O O12 0.346904 0.321288 0.220541
O O13 0.459000 0.892420 0.275879
O O14 0.380470 0.841344 0.930102
O O15 0.500000 0.000000 0.000000
#
# Coordination Sequence:
#
# PCOD9248797 Si02
#       7
#     4   4   4   4   4   4   4
#     4  11  23  43  68  94 136 176 221 266 342 391
#     4  12  25  42  68 100 135 170 235 268 317 416
#     4  11  23  47  66  91 133 185 218 263 340 394
#     4  10  23  42  69  95 129 180 217 267 342 387
#     4  11  26  37  71 106 124 171 227 279 328 392
#     4  10  22  44  66  97 133 177 207 280 343 388
#     4  11  21  44  68  96 136 169 214 284 337 384
#
# _framework density 24.001055000000001
#
# number of rings (size 3 to 8) (size 9 to 14) (size 15 to 20)
#    0.000    1.143    7.143    1.286    8.000    1.143 
#    0.000    0.714    0.000    0.000    0.000    0.000 
#    0.000    0.000    0.000    0.000    0.000    0.000 
#
# Total GULP energy -156493.408206 kJ/mol
# GULP energy per Si atom -5589.050293 kJ/mol
# Density = 2.394643 g / cm^3
# Si number density = 24.001055 Si / 1000 Ang^3
#
#
#
# Elastic Constant Matrix: (Units=GPa)
#
#
# Indices 1 2 3 4 5 6 
#
# 1 52.3411 30.1841 -2.0091 0.0000 14.8382 0.0000
# 2 30.1841 225.0040 1.1896 0.0000 12.8394 0.0000
# 3 -2.0091 1.1896 35.2815 0.0000 -3.2887 0.0000
# 4 0.0000 0.0000 0.0000 11.3445 0.0000 3.4476
# 5 14.8382 12.8394 -3.2887 0.0000 28.6595 0.0000
# 6 0.0000 0.0000 0.0000 3.4476 0.0000 24.3112
#
#
#
# Elastic Compliance Matrix: (Units=1/GPa)
#
#
# Indices 1 2 3 4 5 6 
#
# 1 0.023741 -0.002553 0.000403 0.000000 -0.011101 0.000000
# 2 -0.002553 0.004840 -0.000392 0.000000 -0.000891 0.000000
# 3 0.000403 -0.000392 0.028683 0.000000 0.003258 0.000000
# 4 0.000000 0.000000 0.000000 0.092118 0.000000 -0.013063
# 5 -0.011101 -0.000891 0.003258 0.000000 0.041413 0.000000
# 6 0.000000 0.000000 0.000000 -0.013063 0.000000 0.042986
#
#
# Mechanical properties :
#
#
# Convention : Reuss Voigt Hill
#
# Bulk Modulus (GPa) = 19.16447 41.26178 30.21312
# Shear Modulus (GPa) = 19.51157 31.74717 25.62937
#
# Velocity S-wave (km/s) = 2.85431 3.64090 3.27133
# Velocity P-wave (km/s) = 4.34339 5.90794 5.18502
#
# Compressibility (1/GPa) = 0.05217989
#
# Stress axis : x y z
#
# Youngs Moduli (GPa) = 42.12200 206.61885 34.86347
#
# Poissons Ratio (x) = 0.52759 -0.01406
# Poissons Ratio (y) = 0.10756 0.01365
# Poissons Ratio (z) = -0.01698 0.08092
#
# Static dielectric constant tensor:
#      x y z
#    x 1.935090 0.000000 -0.037620 
#    y 0.000000 1.978620 0.000000 
#    z -0.037620 0.000000 2.198730 
# 
# From -- ./inp_files/35205.got.cif
#   From: 2010.05.17/outbox.cif.g08.bks.cpg/sg14_18_cif.got.tgz:35205.got - 2010.06.03 17:49:19.
