data_PCOD9248226
_publ_section_title
;
Structure prediction by ZEFSAII (Michael W. Deem and Ramdas Pophale) SiO2 
 PCOD9248226
Probable space group: P 21/C
;
_chemical_formula_sum "Si O2"
_cell_formula_units_Z 32
_cell_length_a 11.945033
_cell_length_b 24.067955
_cell_length_c 8.276657
_cell_angle_alpha 90.000000
_cell_angle_beta 142.760271
_cell_angle_gamma 90.000000
_cell_volume 1439.943534
_symmetry_space_group_name_H-M "P 21/C"
_symmetry_group_IT_number 14
_symmetry_cell_setting 'monoclinic'
loop_
_space_group_symop_operation_xyz
x,y,z
-x,1/2+y,1/2-z
-x,-y,-z
x,1/2-y,1/2+z
loop_
_atom_site_type_symbol
_atom_site_label
_atom_site_fract_x
_atom_site_fract_y
_atom_site_fract_z
Si Si1 0.776920 0.060432 0.334989
Si Si2 0.969409 0.642203 0.403063
Si Si3 0.388482 0.395154 0.431830
Si Si4 0.046000 0.453468 0.859925
Si Si5 0.272510 0.794897 0.099693
Si Si6 0.359589 0.201935 0.651004
Si Si7 0.243913 0.175935 0.024150
Si Si8 0.119316 0.814889 0.566929
O O1 0.556714 0.062748 0.098201
O O2 0.835171 0.123352 0.437054
O O3 0.856663 0.047748 0.246413
O O4 0.877459 0.015785 0.564086
O O5 0.877890 0.651512 0.470838
O O6 0.174308 0.667332 0.621514
O O7 0.966852 0.581415 0.319174
O O8 0.836363 0.679873 0.136634
O O9 0.199338 0.422740 0.149694
O O10 0.422035 0.339985 0.362981
O O11 0.367847 0.372208 0.588910
O O12 0.172458 0.808746 0.814826
O O13 0.229338 0.731860 0.096502
O O14 0.486547 0.804583 0.311141
O O15 0.345255 0.266429 0.681297
O O16 0.097795 0.193131 0.715219
#
# Coordination Sequence:
#
# PCOD9248226 Si02
#       8
#     4   4   4   4   4   4   4   4
#     4  11  21  42  68  93 120 166 224 261 314 373
#     4  11  23  42  61  95 130 165 209 261 324 375
#     4  11  21  41  64  92 122 167 218 260 318 376
#     4  10  22  41  70  90 122 165 219 274 306 372
#     4  12  24  41  64  93 128 165 213 256 315 383
#     4  11  23  39  62  89 126 168 210 259 312 386
#     4  12  24  39  61  92 135 169 202 263 326 384
#     4  12  23  41  64  94 129 165 204 259 317 380
#
# _framework density 22.223092999999999
#
# number of rings (size 3 to 8) (size 9 to 14) (size 15 to 20)
#    0.000    0.750    5.000    3.375    1.750    0.000 
#    2.250    1.250    0.000    0.000    0.000    0.000 
#    0.000    0.000    0.000    0.000    0.000    0.000 
#
# Total GULP energy -179042.931937 kJ/mol
# GULP energy per Si atom -5595.091623 kJ/mol
# Density = 2.217251 g / cm^3
# Si number density = 22.223093 Si / 1000 Ang^3
#
#
#
# Elastic Constant Matrix: (Units=GPa)
#
#
# Indices 1 2 3 4 5 6 
#
# 1 124.5739 19.0578 10.2110 0.0000 19.7775 0.0000
# 2 19.0578 110.6638 -3.7219 0.0000 -2.3494 0.0000
# 3 10.2110 -3.7219 32.4964 0.0000 3.8906 0.0000
# 4 0.0000 0.0000 0.0000 15.9911 0.0000 5.6890
# 5 19.7775 -2.3494 3.8906 0.0000 31.3717 0.0000
# 6 0.0000 0.0000 0.0000 5.6890 0.0000 32.3133
#
#
#
# Elastic Compliance Matrix: (Units=1/GPa)
#
#
# Indices 1 2 3 4 5 6 
#
# 1 0.009427 -0.001829 -0.002481 0.000000 -0.005772 0.000000
# 2 -0.001829 0.009436 0.001454 0.000000 0.001680 0.000000
# 3 -0.002481 0.001454 0.031993 0.000000 -0.002295 0.000000
# 4 0.000000 0.000000 0.000000 0.066713 0.000000 -0.011745
# 5 -0.005772 0.001680 -0.002295 0.000000 0.035925 0.000000
# 6 0.000000 0.000000 0.000000 -0.011745 0.000000 0.033015
#
#
# Mechanical properties :
#
#
# Convention : Reuss Voigt Hill
#
# Bulk Modulus (GPa) = 22.15063 35.42530 28.78797
# Shear Modulus (GPa) = 24.12320 32.08104 28.10212
#
# Velocity S-wave (km/s) = 3.29827 3.80358 3.55990
# Velocity P-wave (km/s) = 4.94912 5.93844 5.46621
#
# Compressibility (1/GPa) = 0.04514544
#
# Stress axis : x y z
#
# Youngs Moduli (GPa) = 106.07842 105.97700 31.25639
#
# Poissons Ratio (x) = 0.19388 0.07753
# Poissons Ratio (y) = 0.19406 -0.04546
# Poissons Ratio (z) = 0.26314 -0.15414
#
# Static dielectric constant tensor:
#      x y z
#    x 1.844500 0.000000 0.013880 
#    y 0.000000 1.815940 0.000000 
#    z 0.013880 0.000000 1.861810 
# 
# From -- ./inp_files/14546.got.cif
#   From: 2010.05.17/outbox.cif.g08.bks.cpg/sg14_8_cif.got.tgz:14546.got - 2010.06.03 17:49:19.
