data_PCOD9248982
_publ_section_title
;
Structure prediction by ZEFSAII (Michael W. Deem and Ramdas Pophale) SiO2 
 PCOD9248982
Probable space group: P 21/C
;
_chemical_formula_sum "Si O2"
_cell_formula_units_Z 28
_cell_length_a 19.003928
_cell_length_b 6.614660
_cell_length_c 13.536527
_cell_angle_alpha 90.000000
_cell_angle_beta 35.781237
_cell_angle_gamma 90.000000
_cell_volume 994.913531
_symmetry_space_group_name_H-M "P 21/C"
_symmetry_group_IT_number 14
_symmetry_cell_setting 'monoclinic'
loop_
_space_group_symop_operation_xyz
x,y,z
-x,1/2+y,1/2-z
-x,-y,-z
x,1/2-y,1/2+z
loop_
_atom_site_type_symbol
_atom_site_label
_atom_site_fract_x
_atom_site_fract_y
_atom_site_fract_z
Si Si1 0.669839 0.174549 0.450310
Si Si2 0.471680 0.200657 0.294359
Si Si3 0.841976 0.338161 0.914120
Si Si4 0.928720 0.975374 0.736878
Si Si5 0.919201 0.801932 0.066110
Si Si6 0.700438 0.805615 0.682757
Si Si7 0.468577 0.763752 0.562667
O O1 0.589385 0.346956 0.594539
O O2 0.658723 0.237543 0.350272
O O3 0.591923 0.986213 0.578704
O O4 0.796001 0.124935 0.354640
O O5 0.369649 0.279259 0.334648
O O6 0.533442 0.293840 0.321442
O O7 0.999428 0.359235 0.088768
O O8 0.768699 0.495009 0.064707
O O9 0.977077 0.374350 0.796114
O O10 0.883623 0.811476 0.709466
O O11 0.835793 0.094466 0.913121
O O12 0.797394 0.818553 0.138446
O O13 0.000000 0.000000 0.000000
O O14 0.585558 0.846112 0.883799
O O15 0.500000 0.000000 0.500000
#
# Coordination Sequence:
#
# PCOD9248982 Si02
#       7
#     4   4   4   4   4   4   4
#     4   9  19  39  60  98 137 182 240 307 372 451
#     4   9  18  38  62  96 143 181 237 304 375 457
#     4  10  22  45  67  96 146 193 251 314 382 449
#     4  10  24  46  68 104 143 193 261 312 388 457
#     4  10  23  45  69 103 147 195 254 324 377 460
#     4   9  20  42  70 102 149 198 246 324 383 456
#     4   9  18  37  64 104 142 185 246 295 380 467
#
# _framework density 28.143149999999999
#
# number of rings (size 3 to 8) (size 9 to 14) (size 15 to 20)
#    0.000    2.571    0.000    0.000    2.000    3.429 
#   23.143    3.571    0.000    0.000    0.000    0.000 
#    0.000    0.000    0.000    0.000    0.000    0.000 
#
# Total GULP energy -156140.267054 kJ/mol
# GULP energy per Si atom -5576.438109 kJ/mol
# Density = 2.807909 g / cm^3
# Si number density = 28.143150 Si / 1000 Ang^3
#
#
#
# Elastic Constant Matrix: (Units=GPa)
#
#
# Indices 1 2 3 4 5 6 
#
# 1 306.7913 79.0895 57.3039 0.0000 14.9262 0.0000
# 2 79.0895 102.7820 26.1035 0.0000 -3.2592 0.0000
# 3 57.3039 26.1035 68.6369 0.0000 -1.4968 0.0000
# 4 0.0000 0.0000 0.0000 51.9903 0.0000 0.3333
# 5 14.9262 -3.2592 -1.4968 0.0000 30.2919 0.0000
# 6 0.0000 0.0000 0.0000 0.3333 0.0000 54.8240
#
#
#
# Elastic Compliance Matrix: (Units=1/GPa)
#
#
# Indices 1 2 3 4 5 6 
#
# 1 0.004694 -0.002977 -0.002847 0.000000 -0.002774 0.000000
# 2 -0.002977 0.012685 -0.002280 0.000000 0.002719 0.000000
# 3 -0.002847 -0.002280 0.017858 0.000000 0.002040 0.000000
# 4 0.000000 0.000000 0.000000 0.019235 0.000000 -0.000117
# 5 -0.002774 0.002719 0.002040 0.000000 0.034772 0.000000
# 6 0.000000 0.000000 0.000000 -0.000117 0.000000 0.018241
#
#
# Mechanical properties :
#
#
# Convention : Reuss Voigt Hill
#
# Bulk Modulus (GPa) = 52.55003 89.24491 70.89747
# Shear Modulus (GPa) = 38.45117 48.46880 43.45998
#
# Velocity S-wave (km/s) = 3.70032 4.15447 3.93395
# Velocity P-wave (km/s) = 6.08025 7.40221 6.77356
#
# Compressibility (1/GPa) = 0.01902949
#
# Stress axis : x y z
#
# Youngs Moduli (GPa) = 213.05446 78.83328 55.99738
#
# Poissons Ratio (x) = 0.23465 0.15943
# Poissons Ratio (y) = 0.63417 0.12767
# Poissons Ratio (z) = 0.60659 0.17973
#
# Static dielectric constant tensor:
#      x y z
#    x 2.186080 0.000000 0.004940 
#    y 0.000000 2.501450 0.000000 
#    z 0.004940 0.000000 2.216080 
# 
# From -- ./inp_files/46243.got.cif
#   From: 2010.05.17/outbox.cif.g08.bks.cpg/sg14_24_cif.got.tgz:46243.got - 2010.06.03 17:49:19.
