data_PCOD9248954
_publ_section_title
;
Structure prediction by ZEFSAII (Michael W. Deem and Ramdas Pophale) SiO2 
 PCOD9248954
Probable space group: P 21/C
;
_chemical_formula_sum "Si O2"
_cell_formula_units_Z 24
_cell_length_a 5.156168
_cell_length_b 15.017186
_cell_length_c 14.450968
_cell_angle_alpha 90.000000
_cell_angle_beta 112.624967
_cell_angle_gamma 90.000000
_cell_volume 1032.843062
_symmetry_space_group_name_H-M "P 21/C"
_symmetry_group_IT_number 14
_symmetry_cell_setting 'monoclinic'
loop_
_space_group_symop_operation_xyz
x,y,z
-x,1/2+y,1/2-z
-x,-y,-z
x,1/2-y,1/2+z
loop_
_atom_site_type_symbol
_atom_site_label
_atom_site_fract_x
_atom_site_fract_y
_atom_site_fract_z
Si Si1 0.265678 0.941087 0.516052
Si Si2 0.657114 0.245577 0.471250
Si Si3 0.183738 0.057421 0.773245
Si Si4 0.980421 0.754375 0.161490
Si Si5 0.882845 0.120717 0.150853
Si Si6 0.628270 0.522627 0.224325
O O1 0.203259 0.844238 0.468121
O O2 0.409776 0.921249 0.635700
O O3 0.500000 0.000000 0.500000
O O4 0.000000 0.000000 0.500000
O O5 0.323097 0.226450 0.422405
O O6 0.794681 0.263815 0.389913
O O7 0.739655 0.326341 0.549186
O O8 0.102582 0.150064 0.806503
O O9 0.442327 0.057753 0.738784
O O10 0.267875 0.974206 0.851199
O O11 0.885597 0.016337 0.698446
O O12 0.086037 0.685493 0.254981
O O13 0.204161 0.085242 0.180930
#
# Coordination Sequence:
#
# PCOD9248954 Si02
#       6
#     4   4   4   4   4   4
#     4  12  25  43  68  99 142 176 235 289 348 404
#     4  12  27  45  70 106 136 187 232 286 347 415
#     4  10  23  44  71  95 135 186 220 280 349 404
#     4  12  26  47  70 102 144 178 235 289 343 414
#     4  10  27  44  73  98 145 175 240 281 349 414
#     4  10  22  45  63 100 136 178 224 288 337 411
#
# _framework density 23.236830000000001
#
# number of rings (size 3 to 8) (size 9 to 14) (size 15 to 20)
#    1.000    0.000    1.667    4.000    7.000    1.333 
#    0.000    0.000    0.000    0.000    0.000    0.000 
#    0.000    0.000    0.000    0.000    0.000    0.000 
#
# Total GULP energy -133854.294061 kJ/mol
# GULP energy per Si atom -5577.262253 kJ/mol
# Density = 2.318394 g / cm^3
# Si number density = 23.236830 Si / 1000 Ang^3
#
#
#
# Elastic Constant Matrix: (Units=GPa)
#
#
# Indices 1 2 3 4 5 6 
#
# 1 93.1974 -18.2270 4.7147 0.0000 -15.7350 0.0000
# 2 -18.2270 102.3020 0.9657 0.0000 -10.9028 0.0000
# 3 4.7147 0.9657 35.4566 0.0000 -6.4435 0.0000
# 4 0.0000 0.0000 0.0000 34.1010 0.0000 -5.3887
# 5 -15.7350 -10.9028 -6.4435 0.0000 29.2339 0.0000
# 6 0.0000 0.0000 0.0000 -5.3887 0.0000 37.3255
#
#
#
# Elastic Compliance Matrix: (Units=1/GPa)
#
#
# Indices 1 2 3 4 5 6 
#
# 1 0.012691 0.003108 -0.000334 0.000000 0.007917 0.000000
# 2 0.003108 0.010947 0.000348 0.000000 0.005832 0.000000
# 3 -0.000334 0.000348 0.029407 0.000000 0.006432 0.000000
# 4 0.000000 0.000000 0.000000 0.030009 0.000000 0.004332
# 5 0.007917 0.005832 0.006432 0.000000 0.042061 0.000000
# 6 0.000000 0.000000 0.000000 0.004332 0.000000 0.027417
#
#
# Mechanical properties :
#
#
# Convention : Reuss Voigt Hill
#
# Bulk Modulus (GPa) = 16.86581 22.87364 19.86973
# Shear Modulus (GPa) = 30.11136 36.36560 33.23848
#
# Velocity S-wave (km/s) = 3.60369 3.96030 3.78620
# Velocity P-wave (km/s) = 4.95877 5.54770 5.26149
#
# Compressibility (1/GPa) = 0.05929154
#
# Stress axis : x y z
#
# Youngs Moduli (GPa) = 78.79446 91.34885 34.00525
#
# Poissons Ratio (x) = -0.28392 0.01134
# Poissons Ratio (y) = -0.24490 -0.01185
# Poissons Ratio (z) = 0.02628 -0.03183
#
# Static dielectric constant tensor:
#      x y z
#    x 1.886080 0.000000 -0.031120 
#    y 0.000000 1.969840 0.000000 
#    z -0.031120 0.000000 2.008590 
# 
# From -- ./inp_files/37371.got.cif
#   From: 2010.05.17/outbox.cif.g08.bks.cpg/sg14_19_cif.got.tgz:37371.got - 2010.06.03 17:49:19.
