data_PCOD9248956
_publ_section_title
;
Structure prediction by ZEFSAII (Michael W. Deem and Ramdas Pophale) SiO2 
 PCOD9248956
Probable space group: P 21/C
;
_chemical_formula_sum "Si O2"
_cell_formula_units_Z 24
_cell_length_a 5.534360
_cell_length_b 14.176136
_cell_length_c 13.212324
_cell_angle_alpha 90.000000
_cell_angle_beta 79.777968
_cell_angle_gamma 90.000000
_cell_volume 1020.130737
_symmetry_space_group_name_H-M "P 21/C"
_symmetry_group_IT_number 14
_symmetry_cell_setting 'monoclinic'
loop_
_space_group_symop_operation_xyz
x,y,z
-x,1/2+y,1/2-z
-x,-y,-z
x,1/2-y,1/2+z
loop_
_atom_site_type_symbol
_atom_site_label
_atom_site_fract_x
_atom_site_fract_y
_atom_site_fract_z
Si Si1 0.829265 0.381570 0.642120
Si Si2 0.239479 0.708880 0.979373
Si Si3 0.624941 0.912306 0.675531
Si Si4 0.001617 0.455337 0.263463
Si Si5 0.262075 0.104886 0.557115
Si Si6 0.994069 0.735997 0.194299
O O1 0.781389 0.319379 0.547901
O O2 0.593962 0.393479 0.730816
O O3 0.942793 0.485249 0.639191
O O4 0.998979 0.314533 0.698631
O O5 0.509091 0.672259 0.930422
O O6 0.006722 0.652906 0.947112
O O7 0.204860 0.700203 0.102388
O O8 0.652192 0.941349 0.555209
O O9 0.752893 0.807648 0.661661
O O10 0.780386 0.992137 0.723834
O O11 0.210768 0.458844 0.159659
O O12 0.981254 0.346414 0.292437
#
# Coordination Sequence:
#
# PCOD9248956 Si02
#       6
#     4   4   4   4   4   4
#     4  11  23  41  65  96 133 174 222 275 324 400
#     4  11  24  43  72  94 132 183 218 265 331 399
#     4  10  23  41  65  98 131 170 226 274 324 397
#     4  11  24  39  67  99 133 172 219 278 333 388
#     4  11  23  43  70  97 131 177 220 274 332 382
#     4  10  22  45  63  93 134 176 218 270 332 392
#
# _framework density 23.526394
#
# number of rings (size 3 to 8) (size 9 to 14) (size 15 to 20)
#    0.000    1.333    3.333    1.500    4.667    2.667 
#    0.000    0.833    0.000    0.000    0.000    0.000 
#    0.000    0.000    0.000    0.000    0.000    0.000 
#
# Total GULP energy -133821.502686 kJ/mol
# GULP energy per Si atom -5575.895945 kJ/mol
# Density = 2.347285 g / cm^3
# Si number density = 23.526394 Si / 1000 Ang^3
#
#
#
# Elastic Constant Matrix: (Units=GPa)
#
#
# Indices 1 2 3 4 5 6 
#
# 1 78.8223 9.3526 -6.5469 0.0000 -2.6758 0.0000
# 2 9.3526 110.9070 -18.9771 0.0000 12.1198 0.0000
# 3 -6.5469 -18.9771 44.5301 0.0000 1.5624 0.0000
# 4 0.0000 0.0000 0.0000 41.3109 0.0000 2.9858
# 5 -2.6758 12.1198 1.5624 0.0000 21.6177 0.0000
# 6 0.0000 0.0000 0.0000 2.9858 0.0000 19.3355
#
#
#
# Elastic Compliance Matrix: (Units=1/GPa)
#
#
# Indices 1 2 3 4 5 6 
#
# 1 0.013003 -0.001094 0.001371 0.000000 0.002124 0.000000
# 2 -0.001094 0.010592 0.004578 0.000000 -0.006405 0.000000
# 3 0.001371 0.004578 0.024756 0.000000 -0.004186 0.000000
# 4 0.000000 0.000000 0.000000 0.024480 0.000000 -0.003780
# 5 0.002124 -0.006405 -0.004186 0.000000 0.050415 0.000000
# 6 0.000000 0.000000 0.000000 -0.003780 0.000000 0.052302
#
#
# Mechanical properties :
#
#
# Convention : Reuss Voigt Hill
#
# Bulk Modulus (GPa) = 17.22352 22.43517 19.82934
# Shear Modulus (GPa) = 26.99915 33.14820 30.07367
#
# Velocity S-wave (km/s) = 3.39132 3.75771 3.57920
# Velocity P-wave (km/s) = 4.76146 5.32767 5.05250
#
# Compressibility (1/GPa) = 0.05806015
#
# Stress axis : x y z
#
# Youngs Moduli (GPa) = 76.90815 94.41075 40.39414
#
# Poissons Ratio (x) = 0.10328 -0.05538
# Poissons Ratio (y) = 0.08414 -0.18492
# Poissons Ratio (z) = -0.10544 -0.43219
#
# Static dielectric constant tensor:
#      x y z
#    x 2.020760 0.000000 0.035250 
#    y 0.000000 1.924690 0.000000 
#    z 0.035250 0.000000 1.861950 
# 
# From -- ./inp_files/37182.got.cif
#   From: 2010.05.17/outbox.cif.g08.bks.cpg/sg14_19_cif.got.tgz:37182.got - 2010.06.03 17:49:19.
