data_PCOD9248752
_publ_section_title
;
Structure prediction by ZEFSAII (Michael W. Deem and Ramdas Pophale) SiO2 
 PCOD9248752
Probable space group: P 21/C
;
_chemical_formula_sum "Si O2"
_cell_formula_units_Z 28
_cell_length_a 9.084968
_cell_length_b 7.329719
_cell_length_c 26.581565
_cell_angle_alpha 90.000000
_cell_angle_beta 42.524356
_cell_angle_gamma 90.000000
_cell_volume 1196.398903
_symmetry_space_group_name_H-M "P 21/C"
_symmetry_group_IT_number 14
_symmetry_cell_setting 'monoclinic'
loop_
_space_group_symop_operation_xyz
x,y,z
-x,1/2+y,1/2-z
-x,-y,-z
x,1/2-y,1/2+z
loop_
_atom_site_type_symbol
_atom_site_label
_atom_site_fract_x
_atom_site_fract_y
_atom_site_fract_z
Si Si1 0.552175 0.756716 0.284920
Si Si2 0.060889 0.322269 0.883056
Si Si3 0.398082 0.869853 0.483884
Si Si4 0.882900 0.266523 0.168514
Si Si5 0.645701 0.909085 0.602423
Si Si6 0.306414 0.595853 0.685233
Si Si7 0.708028 0.562444 0.414641
O O1 0.762547 0.778636 0.196159
O O2 0.343661 0.714278 0.301631
O O3 0.608437 0.584755 0.306655
O O4 0.484625 0.940232 0.331279
O O5 0.058747 0.531984 0.865447
O O6 0.154229 0.333522 0.915698
O O7 0.812285 0.260172 0.942830
O O8 0.594693 0.741750 0.417646
O O9 0.500000 0.000000 0.500000
O O10 0.307175 0.988202 0.460929
O O11 0.848309 0.296857 0.236883
O O12 0.082671 0.132986 0.108036
O O13 0.502824 0.733911 0.626683
O O14 0.217888 0.554177 0.652182
O O15 0.500000 0.500000 0.500000
#
# Coordination Sequence:
#
# PCOD9248752 Si02
#       7
#     4   4   4   4   4   4   4
#     4  10  22  47  73 106 135 178 250 297 347 425
#     4  10  22  43  75 101 133 186 234 294 356 416
#     4  12  24  45  68  99 144 187 230 285 360 428
#     4  10  23  46  71 102 143 184 237 298 356 426
#     4  11  23  43  74 103 140 180 234 293 357 420
#     4  11  24  45  73 104 141 184 240 296 360 425
#     4  12  27  48  66 108 150 191 240 292 361 442
#
# _framework density 23.403566000000001
#
# number of rings (size 3 to 8) (size 9 to 14) (size 15 to 20)
#    0.000    1.143    4.286    1.286    0.000    3.429 
#    5.143    1.429    0.000    0.000    0.000    0.000 
#    0.000    0.000    0.000    0.000    0.000    0.000 
#
# Total GULP energy -156600.121073 kJ/mol
# GULP energy per Si atom -5592.861467 kJ/mol
# Density = 2.335030 g / cm^3
# Si number density = 23.403566 Si / 1000 Ang^3
#
#
#
# Elastic Constant Matrix: (Units=GPa)
#
#
# Indices 1 2 3 4 5 6 
#
# 1 76.6291 3.8784 47.1646 0.0000 -6.4543 0.0000
# 2 3.8784 40.5283 -1.8514 0.0000 -7.1595 0.0000
# 3 47.1646 -1.8514 81.9567 0.0000 -11.3612 0.0000
# 4 0.0000 0.0000 0.0000 41.1733 0.0000 -5.6196
# 5 -6.4543 -7.1595 -11.3612 0.0000 50.7402 0.0000
# 6 0.0000 0.0000 0.0000 -5.6196 0.0000 34.5159
#
#
#
# Elastic Compliance Matrix: (Units=1/GPa)
#
#
# Indices 1 2 3 4 5 6 
#
# 1 0.020466 -0.002577 -0.011895 0.000000 -0.000424 0.000000
# 2 -0.002577 0.025726 0.002603 0.000000 0.003885 0.000000
# 3 -0.011895 0.002603 0.019554 0.000000 0.003232 0.000000
# 4 0.000000 0.000000 0.000000 0.024840 0.000000 0.004044
# 5 -0.000424 0.003885 0.003232 0.000000 0.020926 0.000000
# 6 0.000000 0.000000 0.000000 0.004044 0.000000 0.029631
#
#
# Mechanical properties :
#
#
# Convention : Reuss Voigt Hill
#
# Bulk Modulus (GPa) = 23.80518 33.05526 28.43022
# Shear Modulus (GPa) = 27.95149 35.28073 31.61611
#
# Velocity S-wave (km/s) = 3.45965 3.88686 3.67946
# Velocity P-wave (km/s) = 5.11396 5.85647 5.49777
#
# Compressibility (1/GPa) = 0.04200767
#
# Stress axis : x y z
#
# Youngs Moduli (GPa) = 48.86246 38.87138 51.14163
#
# Poissons Ratio (x) = 0.10016 0.60831
# Poissons Ratio (y) = 0.12590 -0.13310
# Poissons Ratio (z) = 0.58120 -0.10116
#
# Static dielectric constant tensor:
#      x y z
#    x 1.867600 0.000000 0.024480 
#    y 0.000000 1.918460 0.000000 
#    z 0.024480 0.000000 1.912910 
# 
# From -- ./inp_files/76442.got.cif
#   From: 2010.05.17/outbox.cif.g08.bks.cpg/sg14_39_cif.got.tgz:76442.got - 2010.06.03 17:49:19.
