data_PCOD9248571
_publ_section_title
;
Structure prediction by ZEFSAII (Michael W. Deem and Ramdas Pophale) SiO2 
 PCOD9248571
Probable space group: P 21/C
;
_chemical_formula_sum "Si O2"
_cell_formula_units_Z 28
_cell_length_a 5.724882
_cell_length_b 17.008561
_cell_length_c 13.916582
_cell_angle_alpha 90.000000
_cell_angle_beta 113.164713
_cell_angle_gamma 90.000000
_cell_volume 1245.835493
_symmetry_space_group_name_H-M "P 21/C"
_symmetry_group_IT_number 14
_symmetry_cell_setting 'monoclinic'
loop_
_space_group_symop_operation_xyz
x,y,z
-x,1/2+y,1/2-z
-x,-y,-z
x,1/2-y,1/2+z
loop_
_atom_site_type_symbol
_atom_site_label
_atom_site_fract_x
_atom_site_fract_y
_atom_site_fract_z
Si Si1 0.154264 0.409683 0.208052
Si Si2 0.689529 0.703458 0.113307
Si Si3 0.894658 0.079696 0.365454
Si Si4 0.823897 0.186833 0.526562
Si Si5 0.752877 0.052534 0.813488
Si Si6 0.917395 0.669521 0.532649
Si Si7 0.406600 0.372484 0.699488
O O1 0.109335 0.486947 0.134864
O O2 0.462663 0.411846 0.271471
O O3 0.040514 0.334451 0.135924
O O4 0.944972 0.425869 0.257588
O O5 0.817857 0.788169 0.114265
O O6 0.633370 0.687265 0.217005
O O7 0.851027 0.627195 0.110889
O O8 0.466334 0.702957 0.996558
O O9 0.792593 0.113949 0.448490
O O10 0.705458 0.108543 0.250326
O O11 0.904694 0.262838 0.480832
O O12 0.914320 0.091779 0.925422
O O13 0.719670 0.958517 0.804019
O O14 0.699838 0.655073 0.419229
#
# Coordination Sequence:
#
# PCOD9248571 Si02
#       7
#     4   4   4   4   4   4   4
#     4  11  24  44  71 101 134 182 226 289 339 397
#     4  10  22  43  64 101 134 178 228 283 340 418
#     4   9  20  42  66  98 131 174 233 279 339 411
#     4  10  24  39  64  99 138 178 225 282 347 405
#     4  11  26  46  70 102 136 181 238 276 335 417
#     4  11  26  42  66  99 137 182 229 281 344 414
#     4  10  22  46  68  94 137 180 225 290 339 397
#
# _framework density 22.474876999999999
#
# number of rings (size 3 to 8) (size 9 to 14) (size 15 to 20)
#    0.000    1.714    1.429    0.857    8.000    4.000 
#    0.000    2.143    0.000    0.000    0.000    0.000 
#    0.000    0.000    0.000    0.000    0.000    0.000 
#
# Total GULP energy -155936.247401 kJ/mol
# GULP energy per Si atom -5569.151693 kJ/mol
# Density = 2.242372 g / cm^3
# Si number density = 22.474877 Si / 1000 Ang^3
#
#
#
# Elastic Constant Matrix: (Units=GPa)
#
#
# Indices 1 2 3 4 5 6 
#
# 1 52.1174 25.5300 13.7981 0.0000 4.9035 0.0000
# 2 25.5300 66.7349 33.6579 0.0000 10.4573 0.0000
# 3 13.7981 33.6579 90.2849 0.0000 18.0390 0.0000
# 4 0.0000 0.0000 0.0000 43.5890 0.0000 10.6624
# 5 4.9035 10.4573 18.0390 0.0000 27.4677 0.0000
# 6 0.0000 0.0000 0.0000 10.6624 0.0000 -0.2938
#
#
#
# Elastic Compliance Matrix: (Units=1/GPa)
#
#
# Indices 1 2 3 4 5 6 
#
# 1 0.023632 -0.008840 -0.000168 0.000000 -0.000743 0.000000
# 2 -0.008840 0.021962 -0.006309 0.000000 -0.002640 0.000000
# 3 -0.000168 -0.006309 0.014926 0.000000 -0.007371 0.000000
# 4 0.000000 0.000000 0.000000 0.002322 0.000000 0.084293
# 5 -0.000743 -0.002640 -0.007371 0.000000 0.042385 0.000000
# 6 0.000000 0.000000 0.000000 0.084293 0.000000 -0.344599
#
#
# Mechanical properties :
#
#
# Convention : Reuss Voigt Hill
#
# Bulk Modulus (GPa) = 33.45867 39.45659 36.45763
# Shear Modulus (GPa) = -25.15384 23.22934 -0.96225
#
# Velocity S-wave (km/s) = -3.34907 3.21840 -0.65504
# Velocity P-wave (km/s) = 0.18861 5.60400 3.96038
#
# Compressibility (1/GPa) = 0.02988762
#
# Stress axis : x y z
#
# Youngs Moduli (GPa) = 42.31571 45.53341 66.99564
#
# Poissons Ratio (x) = 0.40249 0.01124
# Poissons Ratio (y) = 0.37405 0.42267
# Poissons Ratio (z) = 0.00710 0.28727
#
# Static dielectric constant tensor:
#      x y z
#    x 1.918980 0.000000 -0.007250 
#    y 0.000000 1.876830 0.000000 
#    z -0.007250 0.000000 1.885950 
# 
# From -- ./inp_files/37900.got.cif
#   From: 2010.05.17/outbox.cif.g08.bks.cpg/sg14_19_cif.got.tgz:37900.got - 2010.06.03 17:49:19.
