data_PCOD9248845
_publ_section_title
;
Structure prediction by ZEFSAII (Michael W. Deem and Ramdas Pophale) SiO2 
 PCOD9248845
Probable space group: P 21/C
;
_chemical_formula_sum "Si O2"
_cell_formula_units_Z 26
_cell_length_a 15.741492
_cell_length_b 12.929919
_cell_length_c 9.685185
_cell_angle_alpha 90.000000
_cell_angle_beta 145.274156
_cell_angle_gamma 90.000000
_cell_volume 1122.943619
_symmetry_space_group_name_H-M "P 21/C"
_symmetry_group_IT_number 14
_symmetry_cell_setting 'monoclinic'
loop_
_space_group_symop_operation_xyz
x,y,z
-x,1/2+y,1/2-z
-x,-y,-z
x,1/2-y,1/2+z
loop_
_atom_site_type_symbol
_atom_site_label
_atom_site_fract_x
_atom_site_fract_y
_atom_site_fract_z
Si Si1 0.500000 0.500000 0.000000
Si Si2 0.194320 0.827524 0.668208
Si Si3 0.045152 0.170163 0.105502
Si Si4 0.482709 0.264882 0.874664
Si Si5 0.912429 0.032131 0.694743
Si Si6 0.696425 0.684095 0.630144
Si Si7 0.790529 0.486943 0.580163
O O1 0.534295 0.621447 0.083018
O O2 0.648261 0.466649 0.293571
O O3 0.162030 0.887356 0.767583
O O4 0.060293 0.749375 0.454422
O O5 0.203053 0.912140 0.559104
O O6 0.347288 0.768419 0.891469
O O7 0.165351 0.237008 0.184130
O O8 0.939292 0.104770 0.862490
O O9 0.123910 0.082995 0.303284
O O10 0.421934 0.271780 0.638720
O O11 0.384066 0.185272 0.831327
O O12 0.069588 0.023320 0.824050
O O13 0.750635 0.576067 0.638387
#
# Coordination Sequence:
#
# PCOD9248845 Si02
#       7
#     2   4   4   4   4   4   4
#     4  10  22  44  68  96 144 184 234 286 362 434
#     4  12  27  43  77 105 142 191 247 306 354 443
#     4  11  26  45  73  99 144 192 241 294 371 428
#     4  11  26  45  69 104 140 188 236 299 365 429
#     4  11  26  45  69 109 141 189 246 302 357 436
#     4  11  25  45  70  99 142 189 232 300 369 432
#     4  11  24  44  71 107 139 190 235 302 362 432
#
# _framework density 23.153431000000001
#
# number of rings (size 3 to 8) (size 9 to 14) (size 15 to 20)
#    0.000    0.923    1.538    4.154    8.615    1.846 
#    5.538    0.000    0.000    0.000    0.000    0.000 
#    0.000    0.000    0.000    0.000    0.000    0.000 
#
# Total GULP energy -145117.881107 kJ/mol
# GULP energy per Si atom -5581.456966 kJ/mol
# Density = 2.310073 g / cm^3
# Si number density = 23.153431 Si / 1000 Ang^3
#
#
#
# Elastic Constant Matrix: (Units=GPa)
#
#
# Indices 1 2 3 4 5 6 
#
# 1 29.5963 15.3910 -14.7141 0.0000 -4.1322 0.0000
# 2 15.3910 69.7868 20.9595 0.0000 -5.6888 0.0000
# 3 -14.7141 20.9595 66.1563 0.0000 -12.7042 0.0000
# 4 0.0000 0.0000 0.0000 86.4649 0.0000 91.0163
# 5 -4.1322 -5.6888 -12.7042 0.0000 28.4454 0.0000
# 6 0.0000 0.0000 0.0000 91.0163 0.0000 176.0992
#
#
#
# Elastic Compliance Matrix: (Units=1/GPa)
#
#
# Indices 1 2 3 4 5 6 
#
# 1 0.054456 -0.016937 0.020067 0.000000 0.013486 0.000000
# 2 -0.016937 0.021131 -0.011072 0.000000 -0.003180 0.000000
# 3 0.020067 -0.011072 0.025400 0.000000 0.012045 0.000000
# 4 0.000000 0.000000 0.000000 0.025366 0.000000 -0.013110
# 5 0.013486 -0.003180 0.012045 0.000000 0.041858 0.000000
# 6 0.000000 0.000000 0.000000 -0.013110 0.000000 0.012455
#
#
# Mechanical properties :
#
#
# Convention : Reuss Voigt Hill
#
# Bulk Modulus (GPa) = 11.75063 23.20135 17.47599
# Shear Modulus (GPa) = 22.23046 67.79541 45.01294
#
# Velocity S-wave (km/s) = 3.10197 5.41706 4.41400
# Velocity P-wave (km/s) = 4.23270 7.01202 5.79155
#
# Compressibility (1/GPa) = 0.08510184
#
# Stress axis : x y z
#
# Youngs Moduli (GPa) = 18.36357 47.32370 39.37017
#
# Poissons Ratio (x) = 0.80154 -0.79006
# Poissons Ratio (y) = 0.31103 0.43592
# Poissons Ratio (z) = -0.36851 0.52399
#
# Static dielectric constant tensor:
#      x y z
#    x 1.844760 0.000000 -0.033530 
#    y 0.000000 1.865230 0.000000 
#    z -0.033530 0.000000 1.826150 
# 
# From -- ./inp_files/33997.got.cif
#   From: 2010.05.17/outbox.cif.g08.bks.cpg/sg14_17_cif.got.tgz:33997.got - 2010.06.03 17:49:19.
