data_PCOD9248650
_publ_section_title
;
Structure prediction by ZEFSAII (Michael W. Deem and Ramdas Pophale) SiO2 
 PCOD9248650
Probable space group: P 21/C
;
_chemical_formula_sum "Si O2"
_cell_formula_units_Z 24
_cell_length_a 8.731254
_cell_length_b 23.561757
_cell_length_c 4.927632
_cell_angle_alpha 90.000000
_cell_angle_beta 100.520412
_cell_angle_gamma 90.000000
_cell_volume 996.689724
_symmetry_space_group_name_H-M "P 21/C"
_symmetry_group_IT_number 14
_symmetry_cell_setting 'monoclinic'
loop_
_space_group_symop_operation_xyz
x,y,z
-x,1/2+y,1/2-z
-x,-y,-z
x,1/2-y,1/2+z
loop_
_atom_site_type_symbol
_atom_site_label
_atom_site_fract_x
_atom_site_fract_y
_atom_site_fract_z
Si Si1 0.222337 0.216114 0.365315
Si Si2 0.059083 0.936937 0.447727
Si Si3 0.527960 0.549586 0.220780
Si Si4 0.781173 0.884990 0.028366
Si Si5 0.492451 0.341065 0.168213
Si Si6 0.265364 0.909594 0.012962
O O1 0.166937 0.235237 0.641235
O O2 0.411440 0.210510 0.478404
O O3 0.178409 0.157998 0.201593
O O4 0.918874 0.901581 0.271046
O O5 0.135531 0.908909 0.737704
O O6 0.811202 0.063652 0.745768
O O7 0.000000 0.000000 0.500000
O O8 0.704058 0.558413 0.379593
O O9 0.405320 0.552723 0.428263
O O10 0.500000 0.500000 0.000000
O O11 0.499180 0.608025 0.045722
O O12 0.641135 0.857273 0.157213
O O13 0.655761 0.349080 0.377623
#
# Coordination Sequence:
#
# PCOD9248650 Si02
#       6
#     4   4   4   4   4   4
#     4  11  22  42  75 105 129 165 225 297 349 405
#     4  12  28  44  65  97 147 194 234 274 337 410
#     4  10  23  41  69  96 138 184 232 282 331 400
#     4  10  25  42  69 105 135 177 238 280 341 412
#     4  10  22  43  68 104 128 173 230 281 342 407
#     4  11  25  45  64  94 140 189 226 282 336 394
#
# _framework density 24.079708
#
# number of rings (size 3 to 8) (size 9 to 14) (size 15 to 20)
#    0.000    1.333    3.333    0.500    9.333    1.333 
#    0.000    2.500    0.000    6.000    0.000    0.000 
#    0.000    0.000    0.000    0.000    0.000    0.000 
#
# Total GULP energy -134138.535488 kJ/mol
# GULP energy per Si atom -5589.105645 kJ/mol
# Density = 2.402490 g / cm^3
# Si number density = 24.079708 Si / 1000 Ang^3
#
#
#
# Elastic Constant Matrix: (Units=GPa)
#
#
# Indices 1 2 3 4 5 6 
#
# 1 82.9176 15.1708 42.2611 0.0000 2.4971 0.0000
# 2 15.1708 53.6112 32.4835 0.0000 5.4590 0.0000
# 3 42.2611 32.4835 178.0470 0.0000 16.7841 0.0000
# 4 0.0000 0.0000 0.0000 59.3392 0.0000 6.8345
# 5 2.4971 5.4590 16.7841 0.0000 69.3439 0.0000
# 6 0.0000 0.0000 0.0000 6.8345 0.0000 17.5331
#
#
#
# Elastic Compliance Matrix: (Units=1/GPa)
#
#
# Indices 1 2 3 4 5 6 
#
# 1 0.013953 -0.002202 -0.002946 0.000000 0.000384 0.000000
# 2 -0.002202 0.021356 -0.003298 0.000000 -0.000804 0.000000
# 3 -0.002946 -0.003298 0.007044 0.000000 -0.001339 0.000000
# 4 0.000000 0.000000 0.000000 0.017644 0.000000 -0.006878
# 5 0.000384 -0.000804 -0.001339 0.000000 0.014794 0.000000
# 6 0.000000 0.000000 0.000000 -0.006878 0.000000 0.059716
#
#
# Mechanical properties :
#
#
# Convention : Reuss Voigt Hill
#
# Bulk Modulus (GPa) = 39.27716 54.93407 47.10562
# Shear Modulus (GPa) = 31.27199 44.22061 37.74630
#
# Velocity S-wave (km/s) = 3.60764 4.29000 3.96353
# Velocity P-wave (km/s) = 5.80518 6.88490 6.36796
#
# Compressibility (1/GPa) = 0.02546009
#
# Stress axis : x y z
#
# Youngs Moduli (GPa) = 71.66802 46.82526 141.97038
#
# Poissons Ratio (x) = 0.10313 0.41829
# Poissons Ratio (y) = 0.15784 0.46818
# Poissons Ratio (z) = 0.21116 0.15442
#
# Static dielectric constant tensor:
#      x y z
#    x 1.963680 0.000000 0.023980 
#    y 0.000000 2.036170 0.000000 
#    z 0.023980 0.000000 2.001130 
# 
# From -- ./inp_files/1834.got.cif
#   From: 2010.05.17/outbox.cif.g08.bks.cpg/sg14_1_cif.got.tgz:1834.got - 2010.06.03 17:49:19.
