data_PCOD9248760
_publ_section_title
;
Structure prediction by ZEFSAII (Michael W. Deem and Ramdas Pophale) SiO2 
 PCOD9248760
Probable space group: P 21/C
;
_chemical_formula_sum "Si O2"
_cell_formula_units_Z 32
_cell_length_a 20.748665
_cell_length_b 9.475589
_cell_length_c 12.774105
_cell_angle_alpha 90.000000
_cell_angle_beta 142.835676
_cell_angle_gamma 90.000000
_cell_volume 1517.182650
_symmetry_space_group_name_H-M "P 21/C"
_symmetry_group_IT_number 14
_symmetry_cell_setting 'monoclinic'
loop_
_space_group_symop_operation_xyz
x,y,z
-x,1/2+y,1/2-z
-x,-y,-z
x,1/2-y,1/2+z
loop_
_atom_site_type_symbol
_atom_site_label
_atom_site_fract_x
_atom_site_fract_y
_atom_site_fract_z
Si Si1 0.914420 0.629303 0.768291
Si Si2 0.641326 0.390040 0.591300
Si Si3 0.487879 0.854947 0.870755
Si Si4 0.140283 0.487288 0.072002
Si Si5 0.306621 0.621155 0.972597
Si Si6 0.413844 0.412168 0.950419
Si Si7 0.206984 0.316570 0.589908
Si Si8 0.888330 0.939704 0.819759
O O1 0.875882 0.556382 0.826273
O O2 0.837393 0.605856 0.569881
O O3 0.909071 0.797360 0.781373
O O4 0.033376 0.570118 0.900868
O O5 0.554480 0.338821 0.564556
O O6 0.583684 0.533846 0.479560
O O7 0.752299 0.422505 0.793218
O O8 0.675258 0.280219 0.545466
O O9 0.385325 0.898126 0.671629
O O10 0.533979 0.701763 0.904546
O O11 0.163728 0.343301 0.039888
O O12 0.351359 0.524986 0.937636
O O13 0.187322 0.558195 0.832178
O O14 0.333999 0.329197 0.768876
O O15 0.500000 0.500000 0.000000
O O16 0.163814 0.388202 0.639291
O O17 0.000000 0.000000 0.000000
#
# Coordination Sequence:
#
# PCOD9248760 Si02
#       8
#     4   4   4   4   4   4   4   4
#     4  10  23  40  67  91 123 173 208 261 327 384
#     4  11  23  42  62  94 130 164 212 272 311 383
#     4  11  24  40  65  94 128 174 211 264 327 376
#     4  10  22  44  61  95 129 160 221 263 315 396
#     4  11  24  40  65  96 124 171 216 263 322 384
#     4  11  22  45  62  93 136 165 217 265 314 392
#     4  10  23  40  66  93 125 175 208 263 331 378
#     4  10  23  42  61  95 130 159 215 272 315 386
#
# _framework density 21.091726999999999
#
# number of rings (size 3 to 8) (size 9 to 14) (size 15 to 20)
#    0.000    1.500    2.500    1.500    3.500    2.000 
#    0.000    0.000    0.000    0.000    0.000    0.000 
#    0.000    0.000    0.000    0.000    0.000    0.000 
#
# Total GULP energy -178595.669246 kJ/mol
# GULP energy per Si atom -5581.114664 kJ/mol
# Density = 2.104372 g / cm^3
# Si number density = 21.091727 Si / 1000 Ang^3
#
#
#
# Elastic Constant Matrix: (Units=GPa)
#
#
# Indices 1 2 3 4 5 6 
#
# 1 33.9888 22.3256 28.5059 0.0000 16.9412 0.0000
# 2 22.3256 85.3437 31.1548 0.0000 15.2794 0.0000
# 3 28.5059 31.1548 142.8861 0.0000 15.6788 0.0000
# 4 0.0000 0.0000 0.0000 36.2860 0.0000 6.1323
# 5 16.9412 15.2794 15.6788 0.0000 38.0009 0.0000
# 6 0.0000 0.0000 0.0000 6.1323 0.0000 7.5253
#
#
#
# Elastic Compliance Matrix: (Units=1/GPa)
#
#
# Indices 1 2 3 4 5 6 
#
# 1 0.047076 -0.007309 -0.006093 0.000000 -0.015534 0.000000
# 2 -0.007309 0.014527 -0.001493 0.000000 -0.001966 0.000000
# 3 -0.006093 -0.001493 0.008564 0.000000 -0.000216 0.000000
# 4 0.000000 0.000000 0.000000 0.031960 0.000000 -0.026044
# 5 -0.015534 -0.001966 -0.000216 0.000000 0.034120 0.000000
# 6 0.000000 0.000000 0.000000 -0.026044 0.000000 0.154108
#
#
# Mechanical properties :
#
#
# Convention : Reuss Voigt Hill
#
# Bulk Modulus (GPa) = 24.76874 47.35458 36.06166
# Shear Modulus (GPa) = 14.98780 28.37791 21.68286
#
# Velocity S-wave (km/s) = 2.66860 3.67202 3.20976
# Velocity P-wave (km/s) = 4.61130 6.36229 5.55621
#
# Compressibility (1/GPa) = 0.04037347
#
# Stress axis : x y z
#
# Youngs Moduli (GPa) = 21.24243 68.83920 116.77363
#
# Poissons Ratio (x) = 0.50317 0.71155
# Poissons Ratio (y) = 0.15527 0.17439
# Poissons Ratio (z) = 0.12944 0.10281
#
# Static dielectric constant tensor:
#      x y z
#    x 1.731660 0.000000 -0.031470 
#    y 0.000000 1.758570 0.000000 
#    z -0.031470 0.000000 1.729090 
# 
# From -- ./inp_files/51375.got.cif
#   From: 2010.05.17/outbox.cif.g08.bks.cpg/sg14_26_cif.got.tgz:51375.got - 2010.06.03 17:49:19.
