data_PCOD9248270
_publ_section_title
;
Structure prediction by ZEFSAII (Michael W. Deem and Ramdas Pophale) SiO2 
 PCOD9248270
Probable space group: P 21/C
;
_chemical_formula_sum "Si O2"
_cell_formula_units_Z 28
_cell_length_a 19.586371
_cell_length_b 11.800406
_cell_length_c 11.455389
_cell_angle_alpha 90.000000
_cell_angle_beta 25.420708
_cell_angle_gamma 90.000000
_cell_volume 1136.534959
_symmetry_space_group_name_H-M "P 21/C"
_symmetry_group_IT_number 14
_symmetry_cell_setting 'monoclinic'
loop_
_space_group_symop_operation_xyz
x,y,z
-x,1/2+y,1/2-z
-x,-y,-z
x,1/2-y,1/2+z
loop_
_atom_site_type_symbol
_atom_site_label
_atom_site_fract_x
_atom_site_fract_y
_atom_site_fract_z
Si Si1 0.209161 0.700446 0.616637
Si Si2 0.486920 0.325499 0.451942
Si Si3 0.038031 0.971354 0.077991
Si Si4 0.341849 0.388844 0.082819
Si Si5 0.393317 0.942652 0.999711
Si Si6 0.924085 0.979778 0.745340
Si Si7 0.893609 0.739029 0.717231
O O1 0.344089 0.790698 0.371481
O O2 0.255499 0.642070 0.669020
O O3 0.187236 0.590502 0.568872
O O4 0.032851 0.749863 0.904285
O O5 0.394023 0.206871 0.593589
O O6 0.527113 0.379095 0.514197
O O7 0.383729 0.424642 0.548168
O O8 0.218062 0.015577 0.810048
O O9 0.966617 0.025989 0.307079
O O10 0.978389 0.843225 0.178349
O O11 0.000000 0.000000 0.000000
O O12 0.254550 0.319307 0.114483
O O13 0.494364 0.442824 0.787523
O O14 0.849009 0.857727 0.842108
O O15 0.000000 0.000000 0.500000
#
# Coordination Sequence:
#
# PCOD9248270 Si02
#       7
#     4   4   4   4   4   4   4
#     4  10  22  42  65  96 132 175 232 284 344 411
#     4  10  22  42  67  87 135 181 227 284 336 410
#     4  10  23  42  64 101 134 180 224 276 351 410
#     4  10  22  42  65  96 132 175 232 284 344 411
#     4  10  22  42  61  97 127 183 229 276 351 403
#     4  10  23  42  64 101 134 180 224 276 351 410
#     4  10  22  42  68  98 138 170 222 292 348 410
#
# _framework density 24.636285999999998
#
# number of rings (size 3 to 8) (size 9 to 14) (size 15 to 20)
#    0.000    2.000    0.000    1.714    4.000    4.571 
#   30.857    1.429    0.000    0.000    0.000    0.000 
#    0.000    0.000    0.000    0.000    0.000    0.000 
#
# Total GULP energy -156113.421179 kJ/mol
# GULP energy per Si atom -5575.479328 kJ/mol
# Density = 2.458021 g / cm^3
# Si number density = 24.636286 Si / 1000 Ang^3
#
#
#
# Elastic Constant Matrix: (Units=GPa)
#
#
# Indices 1 2 3 4 5 6 
#
# 1 98.4944 19.3678 5.7117 0.0000 25.6462 0.0000
# 2 19.3678 42.6975 -6.5505 0.0000 10.4504 0.0000
# 3 5.7117 -6.5505 65.1234 0.0000 11.5812 0.0000
# 4 0.0000 0.0000 0.0000 27.3957 0.0000 -5.0275
# 5 25.6462 10.4504 11.5812 0.0000 36.2672 0.0000
# 6 0.0000 0.0000 0.0000 -5.0275 0.0000 48.6329
#
#
#
# Elastic Compliance Matrix: (Units=1/GPa)
#
#
# Indices 1 2 3 4 5 6 
#
# 1 0.013031 -0.003961 -0.000112 0.000000 -0.008038 0.000000
# 2 -0.003961 0.027454 0.004260 0.000000 -0.006470 0.000000
# 3 -0.000112 0.004260 0.016961 0.000000 -0.006564 0.000000
# 4 0.000000 0.000000 0.000000 0.037208 0.000000 0.003846
# 5 -0.008038 -0.006470 -0.006564 0.000000 0.037218 0.000000
# 6 0.000000 0.000000 0.000000 0.003846 0.000000 0.020960
#
#
# Mechanical properties :
#
#
# Convention : Reuss Voigt Hill
#
# Bulk Modulus (GPa) = 17.29498 27.04147 22.16823
# Shear Modulus (GPa) = 29.11515 34.97824 32.04670
#
# Velocity S-wave (km/s) = 3.44146 3.77209 3.61056
# Velocity P-wave (km/s) = 4.77775 5.47464 5.13802
#
# Compressibility (1/GPa) = 0.05782024
#
# Stress axis : x y z
#
# Youngs Moduli (GPa) = 76.73940 36.42408 58.95842
#
# Poissons Ratio (x) = 0.14427 0.00660
# Poissons Ratio (y) = 0.30395 -0.25114
# Poissons Ratio (z) = 0.00859 -0.15515
#
# Static dielectric constant tensor:
#      x y z
#    x 2.028290 0.000000 0.002240 
#    y 0.000000 1.996070 0.000000 
#    z 0.002240 0.000000 2.071850 
# 
# From -- ./inp_files/35151.got.cif
#   From: 2010.05.17/outbox.cif.g08.bks.cpg/sg14_18_cif.got.tgz:35151.got - 2010.06.03 17:49:19.
