data_PCOD9248940
_publ_section_title
;
Structure prediction by ZEFSAII (Michael W. Deem and Ramdas Pophale) SiO2 
 PCOD9248940
Probable space group: P 21/C
;
_chemical_formula_sum "Si O2"
_cell_formula_units_Z 20
_cell_length_a 22.973355
_cell_length_b 8.986322
_cell_length_c 9.005043
_cell_angle_alpha 90.000000
_cell_angle_beta 150.497816
_cell_angle_gamma 90.000000
_cell_volume 915.504057
_symmetry_space_group_name_H-M "P 21/C"
_symmetry_group_IT_number 14
_symmetry_cell_setting 'monoclinic'
loop_
_space_group_symop_operation_xyz
x,y,z
-x,1/2+y,1/2-z
-x,-y,-z
x,1/2-y,1/2+z
loop_
_atom_site_type_symbol
_atom_site_label
_atom_site_fract_x
_atom_site_fract_y
_atom_site_fract_z
Si Si1 0.521014 0.786893 0.681772
Si Si2 0.886480 0.916871 0.817407
Si Si3 0.104661 0.408682 0.308423
Si Si4 0.644328 0.491025 0.641274
Si Si5 0.324534 0.493078 0.620702
O O1 0.456050 0.630210 0.541789
O O2 0.631325 0.825560 0.819794
O O3 0.424264 0.905077 0.412987
O O4 0.573060 0.855770 0.949635
O O5 0.888322 0.756662 0.742381
O O6 0.758768 0.992569 0.498612
O O7 0.901902 0.904893 0.028760
O O8 0.000000 0.000000 0.000000
O O9 0.220906 0.489662 0.506554
O O10 0.000000 0.500000 0.000000
O O11 0.696883 0.447294 0.594110
#
# Coordination Sequence:
#
# PCOD9248940 Si02
#       5
#     4   4   4   4   4
#     4   9  22  42  73 103 150 198 247 316 372 454
#     4  12  28  49  78 115 147 203 258 320 383 459
#     4  12  27  51  78 107 157 199 253 317 385 456
#     4  10  22  44  74 104 154 194 263 303 387 447
#     4   9  22  44  69 106 151 194 251 311 379 446
#
# _framework density 21.845887000000001
#
# number of rings (size 3 to 8) (size 9 to 14) (size 15 to 20)
#    1.200    0.400    0.000    3.600    5.600    1.600 
#    0.000    3.000    0.000    0.000    0.000    0.000 
#    0.000    0.000    0.000    0.000    0.000    0.000 
#
# Total GULP energy -111546.731353 kJ/mol
# GULP energy per Si atom -5577.336568 kJ/mol
# Density = 2.179616 g / cm^3
# Si number density = 21.845887 Si / 1000 Ang^3
#
#
#
# Elastic Constant Matrix: (Units=GPa)
#
#
# Indices 1 2 3 4 5 6 
#
# 1 144.4351 20.9277 59.2247 0.0000 -17.9093 0.0000
# 2 20.9277 56.4791 45.3819 0.0000 0.0787 0.0000
# 3 59.2247 45.3819 143.5171 0.0000 -17.3128 0.0000
# 4 0.0000 0.0000 0.0000 36.2325 0.0000 -0.9669
# 5 -17.9093 0.0787 -17.3128 0.0000 46.9198 0.0000
# 6 0.0000 0.0000 0.0000 -0.9669 0.0000 36.0442
#
#
#
# Elastic Compliance Matrix: (Units=1/GPa)
#
#
# Indices 1 2 3 4 5 6 
#
# 1 0.008539 -0.000728 -0.003035 0.000000 0.002141 0.000000
# 2 -0.000728 0.024193 -0.007732 0.000000 -0.003172 0.000000
# 3 -0.003035 -0.007732 0.011018 0.000000 0.002920 0.000000
# 4 0.000000 0.000000 0.000000 0.027619 0.000000 0.000741
# 5 0.002141 -0.003172 0.002920 0.000000 0.023213 0.000000
# 6 0.000000 0.000000 0.000000 0.000741 0.000000 0.027764
#
#
# Mechanical properties :
#
#
# Convention : Reuss Voigt Hill
#
# Bulk Modulus (GPa) = 48.17360 66.16665 57.17013
# Shear Modulus (GPa) = 32.83948 38.43244 35.63596
#
# Velocity S-wave (km/s) = 3.88136 4.19890 4.04325
# Velocity P-wave (km/s) = 6.49508 7.33903 6.92991
#
# Compressibility (1/GPa) = 0.02075826
#
# Stress axis : x y z
#
# Youngs Moduli (GPa) = 117.10886 41.33455 90.76368
#
# Poissons Ratio (x) = 0.03010 0.27550
# Poissons Ratio (y) = 0.08527 0.70180
# Poissons Ratio (z) = 0.35546 0.31961
#
# Static dielectric constant tensor:
#      x y z
#    x 1.857740 0.000000 0.038240 
#    y 0.000000 1.819820 0.000000 
#    z 0.038240 0.000000 1.926110 
# 
# From -- ./inp_files/19387.got.cif
#   From: 2010.05.17/outbox.cif.g08.bks.cpg/sg14_10_cif.got.tgz:19387.got - 2010.06.03 17:49:19.
