data_PCOD9248512
_publ_section_title
;
Structure prediction by ZEFSAII (Michael W. Deem and Ramdas Pophale) SiO2 
 PCOD9248512
Probable space group: P 21/C
;
_chemical_formula_sum "Si O2"
_cell_formula_units_Z 26
_cell_length_a 11.515773
_cell_length_b 13.361416
_cell_length_c 19.481387
_cell_angle_alpha 90.000000
_cell_angle_beta 157.991235
_cell_angle_gamma 90.000000
_cell_volume 1123.324612
_symmetry_space_group_name_H-M "P 21/C"
_symmetry_group_IT_number 14
_symmetry_cell_setting 'monoclinic'
loop_
_space_group_symop_operation_xyz
x,y,z
-x,1/2+y,1/2-z
-x,-y,-z
x,1/2-y,1/2+z
loop_
_atom_site_type_symbol
_atom_site_label
_atom_site_fract_x
_atom_site_fract_y
_atom_site_fract_z
Si Si1 0.500000 0.500000 0.500000
Si Si2 0.784415 0.059227 0.743377
Si Si3 0.358174 0.890020 0.486555
Si Si4 0.779557 0.250285 0.331366
Si Si5 0.273894 0.299427 0.313924
Si Si6 0.484909 0.043410 0.149605
Si Si7 0.381639 0.150473 0.715543
O O1 0.462787 0.378214 0.463990
O O2 0.404055 0.520689 0.366698
O O3 0.793159 0.063720 0.665249
O O4 0.745455 0.170204 0.751612
O O5 0.511893 0.981623 0.611945
O O6 0.118159 0.021544 0.949988
O O7 0.630360 0.813503 0.614543
O O8 0.085118 0.828567 0.372681
O O9 0.545126 0.158212 0.197677
O O10 0.698581 0.314114 0.354564
O O11 0.108924 0.197079 0.520694
O O12 0.355228 0.310345 0.278484
O O13 0.636992 0.968704 0.287178
#
# Coordination Sequence:
#
# PCOD9248512 Si02
#       7
#     2   4   4   4   4   4   4
#     4  10  22  42  72 102 136 184 238 304 354 424
#     4  11  26  46  71 105 144 183 239 304 376 425
#     4  11  26  44  71 107 138 187 237 304 369 434
#     4  12  25  49  71 105 144 192 241 293 363 439
#     4  11  24  44  71 102 144 184 242 296 363 424
#     4  11  24  48  71 106 142 189 244 302 360 434
#     4  11  27  43  72 103 140 191 239 289 353 436
#
# _framework density 23.145579000000001
#
# number of rings (size 3 to 8) (size 9 to 14) (size 15 to 20)
#    0.000    0.923    3.077    2.308    6.462    5.538 
#    0.000    0.000    0.000    0.000    0.000    0.000 
#    0.000    0.000    0.000    0.000    0.000    0.000 
#
# Total GULP energy -144919.054789 kJ/mol
# GULP energy per Si atom -5573.809800 kJ/mol
# Density = 2.309290 g / cm^3
# Si number density = 23.145579 Si / 1000 Ang^3
#
#
#
# Elastic Constant Matrix: (Units=GPa)
#
#
# Indices 1 2 3 4 5 6 
#
# 1 36.8014 10.7589 -8.1085 0.0000 -5.6308 0.0000
# 2 10.7589 139.9410 42.8697 0.0000 -22.4616 0.0000
# 3 -8.1085 42.8697 68.4150 0.0000 -6.3406 0.0000
# 4 0.0000 0.0000 0.0000 44.3408 0.0000 -14.9701
# 5 -5.6308 -22.4616 -6.3406 0.0000 16.8539 0.0000
# 6 0.0000 0.0000 0.0000 -14.9701 0.0000 35.8060
#
#
#
# Elastic Compliance Matrix: (Units=1/GPa)
#
#
# Indices 1 2 3 4 5 6 
#
# 1 0.030736 -0.002866 0.006255 0.000000 0.008802 0.000000
# 2 -0.002866 0.011129 -0.006245 0.000000 0.011525 0.000000
# 3 0.006255 -0.006245 0.019369 0.000000 0.001053 0.000000
# 4 0.000000 0.000000 0.000000 0.026259 0.000000 0.010979
# 5 0.008802 0.011525 0.001053 0.000000 0.078030 0.000000
# 6 0.000000 0.000000 0.000000 0.010979 0.000000 0.032518
#
#
# Mechanical properties :
#
#
# Convention : Reuss Voigt Hill
#
# Bulk Modulus (GPa) = 18.01165 37.35529 27.68347
# Shear Modulus (GPa) = 22.49600 32.70932 27.60266
#
# Velocity S-wave (km/s) = 3.12097 3.76333 3.45710
# Velocity P-wave (km/s) = 4.55917 5.92097 5.28412
#
# Compressibility (1/GPa) = 0.05551962
#
# Stress axis : x y z
#
# Youngs Moduli (GPa) = 32.53561 89.85295 51.62900
#
# Poissons Ratio (x) = 0.25755 -0.32292
# Poissons Ratio (y) = 0.09326 0.32244
# Poissons Ratio (z) = -0.20350 0.56116
#
# Static dielectric constant tensor:
#      x y z
#    x 1.865400 0.000000 0.061920 
#    y 0.000000 1.918550 0.000000 
#    z 0.061920 0.000000 1.910370 
# 
# From -- ./inp_files/67528.got.cif
#   From: 2010.05.17/outbox.cif.g08.bks.cpg/sg14_34_cif.got.tgz:67528.got - 2010.06.03 17:49:19.
