data_PCOD9248391
_publ_section_title
;
Structure prediction by ZEFSAII (Michael W. Deem and Ramdas Pophale) SiO2 
 PCOD9248391
Probable space group: P 21/C
;
_chemical_formula_sum "Si O2"
_cell_formula_units_Z 28
_cell_length_a 20.998350
_cell_length_b 9.122572
_cell_length_c 10.180562
_cell_angle_alpha 90.000000
_cell_angle_beta 145.724078
_cell_angle_gamma 90.000000
_cell_volume 1098.298907
_symmetry_space_group_name_H-M "P 21/C"
_symmetry_group_IT_number 14
_symmetry_cell_setting 'monoclinic'
loop_
_space_group_symop_operation_xyz
x,y,z
-x,1/2+y,1/2-z
-x,-y,-z
x,1/2-y,1/2+z
loop_
_atom_site_type_symbol
_atom_site_label
_atom_site_fract_x
_atom_site_fract_y
_atom_site_fract_z
Si Si1 0.684747 0.256063 0.265766
Si Si2 0.286677 0.446075 0.320669
Si Si3 0.347610 0.991714 0.485977
Si Si4 0.508654 0.747781 0.889824
Si Si5 0.973337 0.630819 0.788978
Si Si6 0.863884 0.805989 0.837833
Si Si7 0.829575 0.102216 0.191220
O O1 0.714622 0.401047 0.234670
O O2 0.554465 0.287392 0.083302
O O3 0.777658 0.255931 0.539111
O O4 0.693622 0.099488 0.216232
O O5 0.380225 0.344899 0.415326
O O6 0.180944 0.336166 0.156329
O O7 0.280820 0.502599 0.462916
O O8 0.446265 0.105025 0.609209
O O9 0.246064 0.090624 0.373020
O O10 0.415591 0.859372 0.670901
O O11 0.915541 0.753175 0.787320
O O12 0.952298 0.634455 0.597322
O O13 0.916022 0.481734 0.745386
O O14 0.102256 0.631928 0.058513
#
# Coordination Sequence:
#
# PCOD9248391 Si02
#       7
#     4   4   4   4   4   4   4
#     4  12  22  39  64  96 129 181 226 288 346 420
#     4  10  24  42  62  96 137 173 232 289 342 418
#     4  11  23  42  66  94 139 178 235 284 353 422
#     4  11  24  41  63  97 131 182 229 291 346 418
#     4  10  22  44  71 101 136 186 229 288 351 416
#     4  10  23  44  71 101 138 184 234 286 356 414
#     4  10  22  42  67  93 139 178 226 280 358 414
#
# _framework density 25.493971999999999
#
# number of rings (size 3 to 8) (size 9 to 14) (size 15 to 20)
#    0.000    1.429    1.429    3.429    4.000    0.000 
#    5.143    0.714    0.000    0.000    0.000    0.000 
#    0.000    0.000    0.000    0.000    0.000    0.000 
#
# Total GULP energy -156166.549786 kJ/mol
# GULP energy per Si atom -5577.376778 kJ/mol
# Density = 2.543595 g / cm^3
# Si number density = 25.493972 Si / 1000 Ang^3
#
#
#
# Elastic Constant Matrix: (Units=GPa)
#
#
# Indices 1 2 3 4 5 6 
#
# 1 49.4751 3.5788 11.0405 0.0000 13.7180 0.0000
# 2 3.5788 112.8637 15.2804 0.0000 6.6206 0.0000
# 3 11.0405 15.2804 32.5509 0.0000 5.2876 0.0000
# 4 0.0000 0.0000 0.0000 14.7852 0.0000 -0.9228
# 5 13.7180 6.6206 5.2876 0.0000 25.6035 0.0000
# 6 0.0000 0.0000 0.0000 -0.9228 0.0000 38.5110
#
#
#
# Elastic Compliance Matrix: (Units=1/GPa)
#
#
# Indices 1 2 3 4 5 6 
#
# 1 0.025087 0.000860 -0.006925 0.000000 -0.012234 0.000000
# 2 0.000860 0.009553 -0.004449 0.000000 -0.002012 0.000000
# 3 -0.006925 -0.004449 0.035562 0.000000 -0.002483 0.000000
# 4 0.000000 0.000000 0.000000 0.067736 0.000000 0.001623
# 5 -0.012234 -0.002012 -0.002483 0.000000 0.046645 0.000000
# 6 0.000000 0.000000 0.000000 0.001623 0.000000 0.026005
#
#
# Mechanical properties :
#
#
# Convention : Reuss Voigt Hill
#
# Bulk Modulus (GPa) = 20.33645 28.29877 24.31761
# Shear Modulus (GPa) = 20.16041 26.77928 23.46985
#
# Velocity S-wave (km/s) = 2.81515 3.24453 3.03744
# Velocity P-wave (km/s) = 4.30825 5.01600 4.67554
#
# Compressibility (1/GPa) = 0.04917279
#
# Stress axis : x y z
#
# Youngs Moduli (GPa) = 39.86059 104.67454 28.11977
#
# Poissons Ratio (x) = -0.08999 0.19474
# Poissons Ratio (y) = -0.03427 0.12512
# Poissons Ratio (z) = 0.27605 0.46574
#
# Static dielectric constant tensor:
#      x y z
#    x 2.140150 0.000000 -0.114930 
#    y 0.000000 2.120230 0.000000 
#    z -0.114930 0.000000 2.154310 
# 
# From -- ./inp_files/36191.got.cif
#   From: 2010.05.17/outbox.cif.g08.bks.cpg/sg14_19_cif.got.tgz:36191.got - 2010.06.03 17:49:19.
