data_PCOD9248349
_publ_section_title
;
Structure prediction by ZEFSAII (Michael W. Deem and Ramdas Pophale) SiO2 
 PCOD9248349
Probable space group: P 21/C
;
_chemical_formula_sum "Si O2"
_cell_formula_units_Z 20
_cell_length_a 4.912712
_cell_length_b 13.367950
_cell_length_c 11.283046
_cell_angle_alpha 90.000000
_cell_angle_beta 88.589966
_cell_angle_gamma 90.000000
_cell_volume 740.765846
_symmetry_space_group_name_H-M "P 21/C"
_symmetry_group_IT_number 14
_symmetry_cell_setting 'monoclinic'
loop_
_space_group_symop_operation_xyz
x,y,z
-x,1/2+y,1/2-z
-x,-y,-z
x,1/2-y,1/2+z
loop_
_atom_site_type_symbol
_atom_site_label
_atom_site_fract_x
_atom_site_fract_y
_atom_site_fract_z
Si Si1 0.233546 0.721173 0.888488
Si Si2 0.702526 0.830763 0.796076
Si Si3 0.151452 0.539291 0.611635
Si Si4 0.400005 0.587207 0.091632
Si Si5 0.357787 0.413875 0.276685
O O1 0.434374 0.816359 0.880795
O O2 0.437915 0.652830 0.804883
O O3 0.942684 0.758842 0.843538
O O4 0.212562 0.658863 0.011296
O O5 0.600167 0.834956 0.659327
O O6 0.813753 0.941532 0.808807
O O7 0.458098 0.576093 0.608532
O O8 0.000000 0.500000 0.500000
O O9 0.939837 0.615250 0.674770
O O10 0.305807 0.514132 0.199299
O O11 0.500000 0.500000 0.000000
#
# Coordination Sequence:
#
# PCOD9248349 Si02
#       5
#     4   4   4   4   4
#     4  11  24  41  66  99 132 168 218 290 342 382
#     4  11  24  41  63 101 136 170 228 285 337 407
#     4  11  23  41  62  89 129 175 215 265 328 399
#     4   9  22  45  69  94 134 184 225 271 340 417
#     4  10  22  42  66  91 125 177 229 261 320 417
#
# _framework density 26.999084
#
# number of rings (size 3 to 8) (size 9 to 14) (size 15 to 20)
#    0.000    1.600    0.000    4.200    0.000    9.600 
#    0.000   17.000    0.000    0.000    0.000    0.000 
#    0.000    0.000    0.000    0.000    0.000    0.000 
#
# Total GULP energy -111396.890223 kJ/mol
# GULP energy per Si atom -5569.844511 kJ/mol
# Density = 2.693763 g / cm^3
# Si number density = 26.999084 Si / 1000 Ang^3
#
#
#
# Elastic Constant Matrix: (Units=GPa)
#
#
# Indices 1 2 3 4 5 6 
#
# 1 98.1971 -15.6859 5.8129 0.0000 21.7081 0.0000
# 2 -15.6859 55.6350 30.1147 0.0000 19.4435 0.0000
# 3 5.8129 30.1147 103.4045 0.0000 29.2646 0.0000
# 4 0.0000 0.0000 0.0000 49.2962 0.0000 8.8864
# 5 21.7081 19.4435 29.2646 0.0000 29.7981 0.0000
# 6 0.0000 0.0000 0.0000 8.8864 0.0000 25.9584
#
#
#
# Elastic Compliance Matrix: (Units=1/GPa)
#
#
# Indices 1 2 3 4 5 6 
#
# 1 0.016453 0.010975 0.001797 0.000000 -0.020913 0.000000
# 2 0.010975 0.031521 -0.002373 0.000000 -0.026232 0.000000
# 3 0.001797 -0.002373 0.014117 0.000000 -0.013625 0.000000
# 4 0.000000 0.000000 0.000000 0.021620 0.000000 -0.007401
# 5 -0.020913 -0.026232 -0.013625 0.000000 0.079292 0.000000
# 6 0.000000 0.000000 0.000000 -0.007401 0.000000 0.041057
#
#
# Mechanical properties :
#
#
# Convention : Reuss Voigt Hill
#
# Bulk Modulus (GPa) = 12.06425 33.08000 22.57213
# Shear Modulus (GPa) = 23.70895 36.81022 30.25959
#
# Velocity S-wave (km/s) = 2.96656 3.69641 3.35141
# Velocity P-wave (km/s) = 4.02642 5.52239 4.83264
#
# Compressibility (1/GPa) = 0.08288952
#
# Stress axis : x y z
#
# Youngs Moduli (GPa) = 60.77779 31.72528 70.83746
#
# Poissons Ratio (x) = -0.34817 -0.12732
# Poissons Ratio (y) = -0.66701 0.16808
# Poissons Ratio (z) = -0.10924 0.07527
#
# Static dielectric constant tensor:
#      x y z
#    x 1.991670 0.000000 -0.035060 
#    y 0.000000 2.355050 0.000000 
#    z -0.035060 0.000000 2.107220 
# 
# From -- ./inp_files/20873.got.cif
#   From: 2010.05.17/outbox.cif.g08.bks.cpg/sg14_11_cif.got.tgz:20873.got - 2010.06.03 17:49:19.
