data_PCOD9248493
_publ_section_title
;
Structure prediction by ZEFSAII (Michael W. Deem and Ramdas Pophale) SiO2 
 PCOD9248493
Probable space group: P 21/C
;
_chemical_formula_sum "Si O2"
_cell_formula_units_Z 32
_cell_length_a 19.087203
_cell_length_b 8.815587
_cell_length_c 23.353947
_cell_angle_alpha 90.000000
_cell_angle_beta 22.315681
_cell_angle_gamma 90.000000
_cell_volume 1492.124712
_symmetry_space_group_name_H-M "P 21/C"
_symmetry_group_IT_number 14
_symmetry_cell_setting 'monoclinic'
loop_
_space_group_symop_operation_xyz
x,y,z
-x,1/2+y,1/2-z
-x,-y,-z
x,1/2-y,1/2+z
loop_
_atom_site_type_symbol
_atom_site_label
_atom_site_fract_x
_atom_site_fract_y
_atom_site_fract_z
Si Si1 0.465628 0.710726 0.612171
Si Si2 0.149986 0.898695 0.631540
Si Si3 0.094753 0.913831 0.106132
Si Si4 0.556059 0.594067 0.666703
Si Si5 0.920555 0.447348 0.121210
Si Si6 0.520635 0.545653 0.917084
Si Si7 0.779610 0.747212 0.778551
Si Si8 0.755310 0.600973 0.046506
O O1 0.533276 0.618358 0.615975
O O2 0.272411 0.640740 0.737959
O O3 0.626848 0.712660 0.442445
O O4 0.432765 0.889253 0.650260
O O5 0.121494 0.739262 0.622329
O O6 0.331519 0.894071 0.533802
O O7 0.177662 0.034213 0.564760
O O8 0.977719 0.948039 0.800083
O O9 0.929107 0.872641 0.188439
O O10 0.288705 0.969708 0.935503
O O11 0.362713 0.535671 0.836857
O O12 0.626328 0.753578 0.637491
O O13 0.882557 0.600493 0.184837
O O14 0.000000 0.500000 0.000000
O O15 0.074301 0.359309 0.041217
O O16 0.674374 0.675153 0.803776
O O17 0.500000 0.500000 0.000000
#
# Coordination Sequence:
#
# PCOD9248493 Si02
#       8
#     4   4   4   4   4   4   4   4
#     4  11  23  48  68 104 138 185 231 297 349 416
#     4  12  23  43  71 103 140 180 232 289 348 420
#     4  12  25  43  71 107 140 180 235 294 348 417
#     4  12  27  45  71  99 145 184 237 289 354 419
#     4  12  27  45  71 101 144 184 240 286 350 423
#     4  10  22  42  71 101 140 174 228 288 356 412
#     4  11  24  45  69 105 139 182 232 292 352 415
#     4  12  26  47  69 101 140 191 232 288 352 418
#
# _framework density 21.445930000000001
#
# number of rings (size 3 to 8) (size 9 to 14) (size 15 to 20)
#    0.000    0.500    6.250    2.625    3.500    3.000 
#    0.000    0.625    0.000    0.000    0.000    0.000 
#    0.000    0.000    0.000    0.000    0.000    0.000 
#
# Total GULP energy -179011.489526 kJ/mol
# GULP energy per Si atom -5594.109048 kJ/mol
# Density = 2.139712 g / cm^3
# Si number density = 21.445930 Si / 1000 Ang^3
#
#
#
# Elastic Constant Matrix: (Units=GPa)
#
#
# Indices 1 2 3 4 5 6 
#
# 1 82.0866 -5.0077 36.0571 0.0000 -33.0560 0.0000
# 2 -5.0077 50.9193 -0.2237 0.0000 -7.9527 0.0000
# 3 36.0571 -0.2237 87.7242 0.0000 -17.3086 0.0000
# 4 0.0000 0.0000 0.0000 41.3595 0.0000 -13.5093
# 5 -33.0560 -7.9527 -17.3086 0.0000 37.9867 0.0000
# 6 0.0000 0.0000 0.0000 -13.5093 0.0000 32.3016
#
#
#
# Elastic Compliance Matrix: (Units=1/GPa)
#
#
# Indices 1 2 3 4 5 6 
#
# 1 0.022040 0.004903 -0.005560 0.000000 0.017673 0.000000
# 2 0.004903 0.021470 -0.000255 0.000000 0.008646 0.000000
# 3 -0.005560 -0.000255 0.013975 0.000000 0.001476 0.000000
# 4 0.000000 0.000000 0.000000 0.028004 0.000000 0.011712
# 5 0.017673 0.008646 0.001476 0.000000 0.044187 0.000000
# 6 0.000000 0.000000 0.000000 0.011712 0.000000 0.035856
#
#
# Mechanical properties :
#
#
# Convention : Reuss Voigt Hill
#
# Bulk Modulus (GPa) = 17.96513 31.37573 24.67043
# Shear Modulus (GPa) = 26.89483 34.98985 30.94234
#
# Velocity S-wave (km/s) = 3.54514 4.04361 3.80255
# Velocity P-wave (km/s) = 5.01522 6.03846 5.55047
#
# Compressibility (1/GPa) = 0.05566339
#
# Stress axis : x y z
#
# Youngs Moduli (GPa) = 45.37148 46.57596 71.55520
#
# Poissons Ratio (x) = -0.22838 0.39783
# Poissons Ratio (y) = -0.22247 0.01823
# Poissons Ratio (z) = 0.25225 0.01187
#
# Static dielectric constant tensor:
#      x y z
#    x 1.787650 0.000000 -0.002800 
#    y 0.000000 1.784740 0.000000 
#    z -0.002800 0.000000 1.830830 
# 
# From -- ./inp_files/77979.got.cif
#   From: 2010.05.17/outbox.cif.g08.bks.cpg/sg14_39_cif.got.tgz:77979.got - 2010.06.03 17:49:19.
