data_PCOD9248129
_publ_section_title
;
Structure prediction by ZEFSAII (Michael W. Deem and Ramdas Pophale) SiO2 
 PCOD9248129
Probable space group: P 21/C
;
_chemical_formula_sum "Si O2"
_cell_formula_units_Z 28
_cell_length_a 8.392783
_cell_length_b 7.673309
_cell_length_c 18.369221
_cell_angle_alpha 90.000000
_cell_angle_beta 98.923718
_cell_angle_gamma 90.000000
_cell_volume 1168.666332
_symmetry_space_group_name_H-M "P 21/C"
_symmetry_group_IT_number 14
_symmetry_cell_setting 'monoclinic'
loop_
_space_group_symop_operation_xyz
x,y,z
-x,1/2+y,1/2-z
-x,-y,-z
x,1/2-y,1/2+z
loop_
_atom_site_type_symbol
_atom_site_label
_atom_site_fract_x
_atom_site_fract_y
_atom_site_fract_z
Si Si1 0.786558 0.512531 0.364692
Si Si2 0.916090 0.788846 0.475868
Si Si3 0.565125 0.513033 0.714646
Si Si4 0.919627 0.512025 0.720715
Si Si5 0.534075 0.603782 0.142730
Si Si6 0.771207 0.156249 0.445893
Si Si7 0.114540 0.116719 0.356965
O O1 0.608143 0.561636 0.324157
O O2 0.829498 0.620617 0.439614
O O3 0.931345 0.552351 0.318973
O O4 0.787538 0.306753 0.385363
O O5 0.839855 0.962799 0.437057
O O6 0.897496 0.817447 0.561096
O O7 0.110817 0.780942 0.480782
O O8 0.738642 0.431502 0.704675
O O9 0.554143 0.507366 0.801268
O O10 0.559848 0.706593 0.681085
O O11 0.984709 0.503399 0.807537
O O12 0.897729 0.708169 0.691678
O O13 0.420284 0.631030 0.064692
O O14 0.709424 0.532611 0.137929
#
# Coordination Sequence:
#
# PCOD9248129 Si02
#       7
#     4   4   4   4   4   4   4
#     4  11  23  47  71 100 140 190 225 288 357 404
#     4  11  24  43  71 102 140 186 234 277 354 428
#     4  10  23  40  66  98 132 181 233 291 343 411
#     4  11  24  43  69 100 136 179 237 294 340 415
#     4  10  22  41  65  96 139 175 234 289 346 406
#     4  10  23  42  67  96 139 180 224 289 337 413
#     4  11  24  44  67 105 136 179 238 287 348 421
#
# _framework density 23.958935
#
# number of rings (size 3 to 8) (size 9 to 14) (size 15 to 20)
#    0.000    1.429    2.857    1.286    4.000    2.857 
#    2.571    2.143    0.000    0.000    0.000    0.000 
#    0.000    0.000    0.000    0.000    0.000    0.000 
#
# Total GULP energy -156196.124913 kJ/mol
# GULP energy per Si atom -5578.433033 kJ/mol
# Density = 2.390440 g / cm^3
# Si number density = 23.958935 Si / 1000 Ang^3
#
#
#
# Elastic Constant Matrix: (Units=GPa)
#
#
# Indices 1 2 3 4 5 6 
#
# 1 196.4338 32.6836 64.5212 0.0000 37.5014 0.0000
# 2 32.6836 69.4130 47.6661 0.0000 7.3752 0.0000
# 3 64.5212 47.6661 121.9727 0.0000 17.5983 0.0000
# 4 0.0000 0.0000 0.0000 38.4812 0.0000 8.1067
# 5 37.5014 7.3752 17.5983 0.0000 46.7764 0.0000
# 6 0.0000 0.0000 0.0000 8.1067 0.0000 15.2390
#
#
#
# Elastic Compliance Matrix: (Units=1/GPa)
#
#
# Indices 1 2 3 4 5 6 
#
# 1 0.006977 -0.000983 -0.002667 0.000000 -0.004435 0.000000
# 2 -0.000983 0.019831 -0.007288 0.000000 0.000403 0.000000
# 3 -0.002667 -0.007288 0.012671 0.000000 -0.001480 0.000000
# 4 0.000000 0.000000 0.000000 0.029267 0.000000 -0.015569
# 5 -0.004435 0.000403 -0.001480 0.000000 0.025427 0.000000
# 6 0.000000 0.000000 0.000000 -0.015569 0.000000 0.073903
#
#
# Mechanical properties :
#
#
# Convention : Reuss Voigt Hill
#
# Bulk Modulus (GPa) = 56.80567 75.28457 66.04512
# Shear Modulus (GPa) = 25.53370 36.29589 30.91479
#
# Velocity S-wave (km/s) = 3.26809 3.89642 3.59601
# Velocity P-wave (km/s) = 6.16455 7.19259 6.69832
#
# Compressibility (1/GPa) = 0.01760388
#
# Stress axis : x y z
#
# Youngs Moduli (GPa) = 143.32928 50.42543 78.92068
#
# Poissons Ratio (x) = 0.04955 0.21046
# Poissons Ratio (y) = 0.14084 0.57520
# Poissons Ratio (z) = 0.38222 0.36751
#
# Static dielectric constant tensor:
#      x y z
#    x 2.052300 0.000000 -0.034470 
#    y 0.000000 1.900860 0.000000 
#    z -0.034470 0.000000 1.944100 
# 
# From -- ./inp_files/71795.got.cif
#   From: 2010.05.17/outbox.cif.g08.bks.cpg/sg14_36_cif.got.tgz:71795.got - 2010.06.03 17:49:19.
