data_PCOD9248285
_publ_section_title
;
Structure prediction by ZEFSAII (Michael W. Deem and Ramdas Pophale) SiO2 
 PCOD9248285
Probable space group: P 21/C
;
_chemical_formula_sum "Si O2"
_cell_formula_units_Z 20
_cell_length_a 7.317232
_cell_length_b 10.527621
_cell_length_c 11.310885
_cell_angle_alpha 90.000000
_cell_angle_beta 57.275255
_cell_angle_gamma 90.000000
_cell_volume 733.015009
_symmetry_space_group_name_H-M "P 21/C"
_symmetry_group_IT_number 14
_symmetry_cell_setting 'monoclinic'
loop_
_space_group_symop_operation_xyz
x,y,z
-x,1/2+y,1/2-z
-x,-y,-z
x,1/2-y,1/2+z
loop_
_atom_site_type_symbol
_atom_site_label
_atom_site_fract_x
_atom_site_fract_y
_atom_site_fract_z
Si Si1 0.766767 0.953039 0.505682
Si Si2 0.916752 0.191424 0.716448
Si Si3 0.869140 0.534275 0.392150
Si Si4 0.582140 0.204389 0.488583
Si Si5 0.482236 0.570380 0.336846
O O1 0.010831 0.897116 0.419619
O O2 0.652484 0.849334 0.458474
O O3 0.601366 0.949220 0.672507
O O4 0.741373 0.086452 0.450896
O O5 0.003051 0.333495 0.658475
O O6 0.670395 0.217741 0.845244
O O7 0.980591 0.096666 0.806002
O O8 0.673174 0.550155 0.365960
O O9 0.736100 0.509622 0.560111
O O10 0.586571 0.286800 0.605218
#
# Coordination Sequence:
#
# PCOD9248285 Si02
#       5
#     4   4   4   4   4
#     4  11  23  41  66  92 127 168 207 259 316 370
#     4  11  21  42  64  90 132 162 205 263 312 367
#     4  10  22  42  63  93 126 165 208 264 310 368
#     4  10  23  42  62  94 129 164 209 260 312 370
#     4  10  23  41  69  88 124 170 213 255 312 374
#
# _framework density 27.284573000000002
#
# number of rings (size 3 to 8) (size 9 to 14) (size 15 to 20)
#    0.000    1.600    4.000    0.000    2.800    0.800 
#    7.200    1.000    0.000    0.000    0.000    0.000 
#    0.000    0.000    0.000    0.000    0.000    0.000 
#
# Total GULP energy -111732.560299 kJ/mol
# GULP energy per Si atom -5586.628015 kJ/mol
# Density = 2.722247 g / cm^3
# Si number density = 27.284573 Si / 1000 Ang^3
#
#
#
# Elastic Constant Matrix: (Units=GPa)
#
#
# Indices 1 2 3 4 5 6 
#
# 1 15.9714 -6.0284 5.7175 0.0000 -3.0029 0.0000
# 2 -6.0284 151.1616 62.8289 0.0000 -19.0471 0.0000
# 3 5.7175 62.8289 230.4177 0.0000 -23.2184 0.0000
# 4 0.0000 0.0000 0.0000 58.4726 0.0000 -19.8337
# 5 -3.0029 -19.0471 -23.2184 0.0000 35.9465 0.0000
# 6 0.0000 0.0000 0.0000 -19.8337 0.0000 19.5574
#
#
#
# Elastic Compliance Matrix: (Units=1/GPa)
#
#
# Indices 1 2 3 4 5 6 
#
# 1 0.066250 0.004361 -0.002185 0.000000 0.006434 0.000000
# 2 0.004361 0.008026 -0.001959 0.000000 0.003352 0.000000
# 3 -0.002185 -0.001959 0.005140 0.000000 0.002099 0.000000
# 4 0.000000 0.000000 0.000000 0.026070 0.000000 0.026438
# 5 0.006434 0.003352 0.002099 0.000000 0.031489 0.000000
# 6 0.000000 0.000000 0.000000 0.026438 0.000000 0.077943
#
#
# Mechanical properties :
#
#
# Convention : Reuss Voigt Hill
#
# Bulk Modulus (GPa) = 12.52349 58.06519 35.29434
# Shear Modulus (GPa) = 20.73838 45.13080 32.93459
#
# Velocity S-wave (km/s) = 2.75994 4.07145 3.47807
# Velocity P-wave (km/s) = 3.84139 6.59013 5.39380
#
# Compressibility (1/GPa) = 0.07984993
#
# Stress axis : x y z
#
# Youngs Moduli (GPa) = 15.09441 124.59689 194.55823
#
# Poissons Ratio (x) = -0.54334 0.42504
# Poissons Ratio (y) = -0.06582 0.38112
# Poissons Ratio (z) = 0.03298 0.24407
#
# Static dielectric constant tensor:
#      x y z
#    x 2.169660 0.000000 0.011100 
#    y 0.000000 2.175220 0.000000 
#    z 0.011100 0.000000 2.153770 
# 
# From -- ./inp_files/23423.got.cif
#   From: 2010.05.17/outbox.cif.g08.bks.cpg/sg14_12_cif.got.tgz:23423.got - 2010.06.03 17:49:19.
