data_PCOD9248606
_publ_section_title
;
Structure prediction by ZEFSAII (Michael W. Deem and Ramdas Pophale) SiO2 
 PCOD9248606
Probable space group: P 21/C
;
_chemical_formula_sum "Si O2"
_cell_formula_units_Z 32
_cell_length_a 16.634078
_cell_length_b 15.348844
_cell_length_c 11.767487
_cell_angle_alpha 90.000000
_cell_angle_beta 151.165445
_cell_angle_gamma 90.000000
_cell_volume 1448.969565
_symmetry_space_group_name_H-M "P 21/C"
_symmetry_group_IT_number 14
_symmetry_cell_setting 'monoclinic'
loop_
_space_group_symop_operation_xyz
x,y,z
-x,1/2+y,1/2-z
-x,-y,-z
x,1/2-y,1/2+z
loop_
_atom_site_type_symbol
_atom_site_label
_atom_site_fract_x
_atom_site_fract_y
_atom_site_fract_z
Si Si1 0.968359 0.336056 0.627227
Si Si2 0.169758 0.967038 0.864962
Si Si3 0.759158 0.114872 0.670722
Si Si4 0.518344 0.805156 0.506943
Si Si5 0.683664 0.853587 0.333964
Si Si6 0.542508 0.950655 0.359849
Si Si7 0.182098 0.524679 0.111529
Si Si8 0.750898 0.309818 0.924980
O O1 0.877470 0.380989 0.622673
O O2 0.911508 0.389662 0.446877
O O3 0.892942 0.239474 0.529288
O O4 0.161443 0.336462 0.890651
O O5 0.173583 0.956218 0.734147
O O6 0.355588 0.991248 0.136608
O O7 0.004652 0.026991 0.675103
O O8 0.611068 0.160165 0.559026
O O9 0.805115 0.172665 0.619778
O O10 0.683122 0.024472 0.532768
O O11 0.637793 0.735359 0.714039
O O12 0.579970 0.888364 0.513365
O O13 0.411334 0.749698 0.283666
O O14 0.546517 0.894872 0.248328
O O15 0.742427 0.929525 0.320326
O O16 0.288480 0.598672 0.182652
#
# Coordination Sequence:
#
# PCOD9248606 Si02
#       8
#     4   4   4   4   4   4   4   4
#     4  10  25  44  64  96 140 177 222 282 334 412
#     4  10  22  43  66  95 136 175 222 277 341 389
#     4  11  24  43  69  98 135 180 226 275 350 401
#     4  11  25  41  66 101 136 178 223 282 346 397
#     4  11  25  46  64 104 134 170 236 278 332 406
#     4  12  23  44  70 100 137 178 224 291 335 410
#     4  10  23  43  69  99 132 181 226 279 327 408
#     4  11  22  42  68  99 130 185 220 274 346 394
#
# _framework density 22.08466
#
# number of rings (size 3 to 8) (size 9 to 14) (size 15 to 20)
#    0.000    1.250    3.750    1.875    5.250    3.500 
#    6.750    0.000    0.000    0.000    0.000    0.000 
#    0.000    0.000    0.000    0.000    0.000    0.000 
#
# Total GULP energy -178776.181649 kJ/mol
# GULP energy per Si atom -5586.755677 kJ/mol
# Density = 2.203439 g / cm^3
# Si number density = 22.084660 Si / 1000 Ang^3
#
#
#
# Elastic Constant Matrix: (Units=GPa)
#
#
# Indices 1 2 3 4 5 6 
#
# 1 46.0987 -9.9712 -3.9671 0.0000 -18.1574 0.0000
# 2 -9.9712 53.4250 27.6315 0.0000 -11.9532 0.0000
# 3 -3.9671 27.6315 85.0501 0.0000 1.4075 0.0000
# 4 0.0000 0.0000 0.0000 28.0984 0.0000 -12.9070
# 5 -18.1574 -11.9532 1.4075 0.0000 31.0235 0.0000
# 6 0.0000 0.0000 0.0000 -12.9070 0.0000 26.0067
#
#
#
# Elastic Compliance Matrix: (Units=1/GPa)
#
#
# Indices 1 2 3 4 5 6 
#
# 1 0.034564 0.013942 -0.003344 0.000000 0.025753 0.000000
# 2 0.013942 0.030954 -0.009746 0.000000 0.020529 0.000000
# 3 -0.003344 -0.009746 0.014874 0.000000 -0.006387 0.000000
# 4 0.000000 0.000000 0.000000 0.046099 0.000000 0.022878
# 5 0.025753 0.020529 -0.006387 0.000000 0.055506 0.000000
# 6 0.000000 0.000000 0.000000 0.022878 0.000000 0.049806
#
#
# Mechanical properties :
#
#
# Convention : Reuss Voigt Hill
#
# Bulk Modulus (GPa) = 12.18060 23.55115 17.86587
# Shear Modulus (GPa) = 19.42032 28.41775 23.91904
#
# Velocity S-wave (km/s) = 2.96861 3.59104 3.29456
# Velocity P-wave (km/s) = 4.15663 5.28027 4.75178
#
# Compressibility (1/GPa) = 0.08209778
#
# Stress axis : x y z
#
# Youngs Moduli (GPa) = 28.93150 32.30644 67.23248
#
# Poissons Ratio (x) = -0.45043 0.22480
# Poissons Ratio (y) = -0.40338 0.65523
# Poissons Ratio (z) = 0.09674 0.31485
#
# Static dielectric constant tensor:
#      x y z
#    x 1.786650 0.000000 0.024430 
#    y 0.000000 1.812110 0.000000 
#    z 0.024430 0.000000 1.833130 
# 
# From -- ./inp_files/34177.got.cif
#   From: 2010.05.17/outbox.cif.g08.bks.cpg/sg14_18_cif.got.tgz:34177.got - 2010.06.03 17:49:19.
