data_PCOD9248539
_publ_section_title
;
Structure prediction by ZEFSAII (Michael W. Deem and Ramdas Pophale) SiO2 
 PCOD9248539
Probable space group: P 21/C
;
_chemical_formula_sum "Si O2"
_cell_formula_units_Z 32
_cell_length_a 4.939483
_cell_length_b 17.403247
_cell_length_c 15.854646
_cell_angle_alpha 90.000000
_cell_angle_beta 92.405208
_cell_angle_gamma 90.000000
_cell_volume 1361.712911
_symmetry_space_group_name_H-M "P 21/C"
_symmetry_group_IT_number 14
_symmetry_cell_setting 'monoclinic'
loop_
_space_group_symop_operation_xyz
x,y,z
-x,1/2+y,1/2-z
-x,-y,-z
x,1/2-y,1/2+z
loop_
_atom_site_type_symbol
_atom_site_label
_atom_site_fract_x
_atom_site_fract_y
_atom_site_fract_z
Si Si1 0.074940 0.601805 0.156916
Si Si2 0.094898 0.390743 0.668995
Si Si3 0.389595 0.007491 0.296276
Si Si4 0.207094 0.343382 0.345232
Si Si5 0.430518 0.262352 0.583175
Si Si6 0.242602 0.503870 0.437048
Si Si7 0.063301 0.767237 0.523003
Si Si8 0.321398 0.831771 0.263947
O O1 0.825677 0.543278 0.140584
O O2 0.987504 0.646784 0.242138
O O3 0.331407 0.550603 0.184155
O O4 0.124968 0.659772 0.082356
O O5 0.663186 0.265084 0.515137
O O6 0.829943 0.420803 0.618028
O O7 0.277741 0.338787 0.612388
O O8 0.264049 0.035381 0.204676
O O9 0.404797 0.916695 0.296649
O O10 0.238491 0.430968 0.375243
O O11 0.495838 0.314467 0.315908
O O12 0.084752 0.295787 0.420806
O O13 0.990109 0.336048 0.267034
O O14 0.590629 0.227270 0.664028
O O15 0.172648 0.212425 0.547650
O O16 0.500000 0.500000 0.500000
O O17 0.000000 0.500000 0.500000
#
# Coordination Sequence:
#
# PCOD9248539 Si02
#       8
#     4   4   4   4   4   4   4   4
#     4  10  23  43  75  95 139 190 247 289 353 443
#     4  10  25  43  73 104 142 194 244 289 367 456
#     4  10  22  42  75 103 134 177 257 292 346 432
#     4  12  25  45  71  99 144 188 233 288 358 445
#     4  12  28  44  71 102 151 181 242 311 370 421
#     4  12  26  42  68 110 150 183 224 294 371 433
#     4  12  27  48  64 108 145 192 239 305 366 436
#     4  12  24  47  74 108 132 191 243 303 355 440
#
# _framework density 23.499814000000001
#
# number of rings (size 3 to 8) (size 9 to 14) (size 15 to 20)
#    0.750    0.000    1.250    6.000    5.250    2.000 
#    0.000    3.750    0.000    0.000    0.000    0.000 
#    0.000    0.000    0.000    0.000    0.000    0.000 
#
# Total GULP energy -179201.503030 kJ/mol
# GULP energy per Si atom -5600.046970 kJ/mol
# Density = 2.344633 g / cm^3
# Si number density = 23.499814 Si / 1000 Ang^3
#
#
#
# Elastic Constant Matrix: (Units=GPa)
#
#
# Indices 1 2 3 4 5 6 
#
# 1 119.6381 10.2285 4.6015 0.0000 12.2536 0.0000
# 2 10.2285 68.5554 21.6193 0.0000 8.3047 0.0000
# 3 4.6015 21.6193 65.4716 0.0000 11.9270 0.0000
# 4 0.0000 0.0000 0.0000 28.9938 0.0000 4.6035
# 5 12.2536 8.3047 11.9270 0.0000 38.7507 0.0000
# 6 0.0000 0.0000 0.0000 4.6035 0.0000 28.2940
#
#
#
# Elastic Compliance Matrix: (Units=1/GPa)
#
#
# Indices 1 2 3 4 5 6 
#
# 1 0.008706 -0.001050 0.000207 0.000000 -0.002592 0.000000
# 2 -0.001050 0.016548 -0.005090 0.000000 -0.001648 0.000000
# 3 0.000207 -0.005090 0.017749 0.000000 -0.004437 0.000000
# 4 0.000000 0.000000 0.000000 0.035405 0.000000 -0.005760
# 5 -0.002592 -0.001648 -0.004437 0.000000 0.028344 0.000000
# 6 0.000000 0.000000 0.000000 -0.005760 0.000000 0.036280
#
#
# Mechanical properties :
#
#
# Convention : Reuss Voigt Hill
#
# Bulk Modulus (GPa) = 32.11786 36.28486 34.20136
# Shear Modulus (GPa) = 30.25208 33.68876 31.97042
#
# Velocity S-wave (km/s) = 3.59183 3.79037 3.69243
# Velocity P-wave (km/s) = 5.55866 5.88471 5.72401
#
# Compressibility (1/GPa) = 0.03113532
#
# Stress axis : x y z
#
# Youngs Moduli (GPa) = 114.86591 60.42904 56.34274
#
# Poissons Ratio (x) = 0.06347 -0.01167
# Poissons Ratio (y) = 0.12064 0.28681
# Poissons Ratio (z) = -0.02378 0.30761
#
# Static dielectric constant tensor:
#      x y z
#    x 1.880870 0.000000 -0.016030 
#    y 0.000000 1.884470 0.000000 
#    z -0.016030 0.000000 1.910340 
# 
# From -- ./inp_files/37875.got.cif
#   From: 2010.05.17/outbox.cif.g08.bks.cpg/sg14_19_cif.got.tgz:37875.got - 2010.06.03 17:49:19.
