data_PCOD9248458
_publ_section_title
;
Structure prediction by ZEFSAII (Michael W. Deem and Ramdas Pophale) SiO2 
 PCOD9248458
Probable space group: P 21/C
;
_chemical_formula_sum "Si O2"
_cell_formula_units_Z 20
_cell_length_a 10.591142
_cell_length_b 14.363521
_cell_length_c 9.295558
_cell_angle_alpha 90.000000
_cell_angle_beta 41.711405
_cell_angle_gamma 90.000000
_cell_volume 940.910328
_symmetry_space_group_name_H-M "P 21/C"
_symmetry_group_IT_number 14
_symmetry_cell_setting 'monoclinic'
loop_
_space_group_symop_operation_xyz
x,y,z
-x,1/2+y,1/2-z
-x,-y,-z
x,1/2-y,1/2+z
loop_
_atom_site_type_symbol
_atom_site_label
_atom_site_fract_x
_atom_site_fract_y
_atom_site_fract_z
Si Si1 0.113925 0.906355 0.933298
Si Si2 0.507262 0.958846 0.655923
Si Si3 0.083703 0.281409 0.818392
Si Si4 0.347593 0.230911 0.361146
Si Si5 0.288237 0.861935 0.473165
O O1 0.291547 0.936275 0.880984
O O2 0.201661 0.868575 0.708207
O O3 0.987793 0.825393 0.107825
O O4 0.000000 0.000000 0.000000
O O5 0.610882 0.860538 0.579878
O O6 0.500000 0.000000 0.500000
O O7 0.615801 0.039676 0.647522
O O8 0.200459 0.295033 0.572811
O O9 0.234868 0.298978 0.815013
O O10 0.887743 0.337974 0.980127
O O11 0.544146 0.285377 0.169306
#
# Coordination Sequence:
#
# PCOD9248458 Si02
#       5
#     4   4   4   4   4
#     4  11  21  44  74 102 132 191 245 279 349 434
#     4  10  22  42  69  96 139 188 231 285 346 430
#     4  12  24  41  72 101 142 186 236 296 362 418
#     4  12  25  45  71 104 143 191 233 299 361 420
#     4  11  24  44  68 104 143 179 245 293 348 422
#
# _framework density 21.25601
#
# number of rings (size 3 to 8) (size 9 to 14) (size 15 to 20)
#    0.000    0.800    4.000    6.000    0.000    0.800 
#    0.000    1.000    0.000    0.000    0.000    0.000 
#    0.000    0.000    0.000    0.000    0.000    0.000 
#
# Total GULP energy -111723.988883 kJ/mol
# GULP energy per Si atom -5586.199444 kJ/mol
# Density = 2.120763 g / cm^3
# Si number density = 21.256010 Si / 1000 Ang^3
#
#
#
# Elastic Constant Matrix: (Units=GPa)
#
#
# Indices 1 2 3 4 5 6 
#
# 1 49.7886 -3.7200 32.2043 0.0000 -22.5431 0.0000
# 2 -3.7200 89.4978 41.8267 0.0000 -20.3684 0.0000
# 3 32.2043 41.8267 110.2522 0.0000 -25.8737 0.0000
# 4 0.0000 0.0000 0.0000 33.0091 0.0000 -18.6387
# 5 -22.5431 -20.3684 -25.8737 0.0000 41.3855 0.0000
# 6 0.0000 0.0000 0.0000 -18.6387 0.0000 42.5842
#
#
#
# Elastic Compliance Matrix: (Units=1/GPa)
#
#
# Indices 1 2 3 4 5 6 
#
# 1 0.035576 0.010306 -0.010036 0.000000 0.018176 0.000000
# 2 0.010306 0.017174 -0.007295 0.000000 0.009505 0.000000
# 3 -0.010036 -0.007295 0.014818 0.000000 0.000207 0.000000
# 4 0.000000 0.000000 0.000000 0.040240 0.000000 0.017613
# 5 0.018176 0.009505 0.000207 0.000000 0.038872 0.000000
# 6 0.000000 0.000000 0.000000 0.017613 0.000000 0.031192
#
#
# Mechanical properties :
#
#
# Convention : Reuss Voigt Hill
#
# Bulk Modulus (GPa) = 18.68535 43.35117 31.01826
# Shear Modulus (GPa) = 23.83668 35.34426 29.59047
#
# Velocity S-wave (km/s) = 3.35238 4.08215 3.73513
# Velocity P-wave (km/s) = 4.87794 6.53129 5.76420
#
# Compressibility (1/GPa) = 0.05351785
#
# Stress axis : x y z
#
# Youngs Moduli (GPa) = 28.10879 58.22596 67.48721
#
# Poissons Ratio (x) = -0.60006 0.67728
# Poissons Ratio (y) = -0.28968 0.49232
# Poissons Ratio (z) = 0.28209 0.42476
#
# Static dielectric constant tensor:
#      x y z
#    x 1.839730 0.000000 -0.032710 
#    y 0.000000 1.778320 0.000000 
#    z -0.032710 0.000000 1.818020 
# 
# From -- ./inp_files/28785.got.cif
#   From: 2010.05.17/outbox.cif.g08.bks.cpg/sg14_15_cif.got.tgz:28785.got - 2010.06.03 17:49:19.
