data_PCOD9248969
_publ_section_title
;
Structure prediction by ZEFSAII (Michael W. Deem and Ramdas Pophale) SiO2 
 PCOD9248969
Probable space group: P 21/C
;
_chemical_formula_sum "Si O2"
_cell_formula_units_Z 20
_cell_length_a 8.919478
_cell_length_b 10.802423
_cell_length_c 18.681285
_cell_angle_alpha 90.000000
_cell_angle_beta 147.632061
_cell_angle_gamma 90.000000
_cell_volume 963.626244
_symmetry_space_group_name_H-M "P 21/C"
_symmetry_group_IT_number 14
_symmetry_cell_setting 'monoclinic'
loop_
_space_group_symop_operation_xyz
x,y,z
-x,1/2+y,1/2-z
-x,-y,-z
x,1/2-y,1/2+z
loop_
_atom_site_type_symbol
_atom_site_label
_atom_site_fract_x
_atom_site_fract_y
_atom_site_fract_z
Si Si1 0.850553 0.874816 0.915825
Si Si2 0.782946 0.858294 0.469109
Si Si3 0.683972 0.513351 0.786298
Si Si4 0.153479 0.258391 0.235576
Si Si5 0.474490 0.851480 0.487026
O O1 0.947729 0.755957 0.999858
O O2 0.869285 0.837301 0.840229
O O3 0.529787 0.901784 0.807716
O O4 0.000000 0.000000 0.000000
O O5 0.624060 0.923340 0.339089
O O6 0.589859 0.815115 0.455601
O O7 0.004272 0.958904 0.586172
O O8 0.677195 0.621974 0.725646
O O9 0.323387 0.201755 0.369870
O O10 0.841172 0.303245 0.129454
O O11 0.500000 0.000000 0.500000
#
# Coordination Sequence:
#
# PCOD9248969 Si02
#       5
#     4   4   4   4   4
#     4  11  25  41  69  98 132 177 231 277 337 410
#     4  10  24  40  69  91 132 178 223 272 339 400
#     4  10  22  45  66  95 131 176 232 277 328 405
#     4  11  26  44  72  99 144 177 231 288 346 411
#     4  12  25  45  68 104 140 183 225 288 356 408
#
# _framework density 20.754936000000001
#
# number of rings (size 3 to 8) (size 9 to 14) (size 15 to 20)
#    0.000    1.200    2.000    2.400   14.000    1.600 
#    0.000    3.000    0.000    0.000    0.000    0.000 
#    0.000    0.000    0.000    0.000    0.000    0.000 
#
# Total GULP energy -111793.379478 kJ/mol
# GULP energy per Si atom -5589.668974 kJ/mol
# Density = 2.070770 g / cm^3
# Si number density = 20.754936 Si / 1000 Ang^3
#
#
#
# Elastic Constant Matrix: (Units=GPa)
#
#
# Indices 1 2 3 4 5 6 
#
# 1 136.9552 29.7507 53.7855 0.0000 -11.6765 0.0000
# 2 29.7507 103.2678 42.6832 0.0000 -17.7354 0.0000
# 3 53.7855 42.6832 90.6853 0.0000 -2.9912 0.0000
# 4 0.0000 0.0000 0.0000 42.1554 0.0000 -1.3112
# 5 -11.6765 -17.7354 -2.9912 0.0000 24.1410 0.0000
# 6 0.0000 0.0000 0.0000 -1.3112 0.0000 36.0167
#
#
#
# Elastic Compliance Matrix: (Units=1/GPa)
#
#
# Indices 1 2 3 4 5 6 
#
# 1 0.009910 0.000315 -0.005884 0.000000 0.004296 0.000000
# 2 0.000315 0.013882 -0.006405 0.000000 0.009557 0.000000
# 3 -0.005884 -0.006405 0.017354 0.000000 -0.005402 0.000000
# 4 0.000000 0.000000 0.000000 0.023749 0.000000 0.000865
# 5 0.004296 0.009557 -0.005402 0.000000 0.049853 0.000000
# 6 0.000000 0.000000 0.000000 0.000865 0.000000 0.027796
#
#
# Mechanical properties :
#
#
# Convention : Reuss Voigt Hill
#
# Bulk Modulus (GPa) = 58.15216 64.81635 61.48425
# Shear Modulus (GPa) = 29.03177 34.10854 31.57016
#
# Velocity S-wave (km/s) = 3.74410 4.05828 3.90435
# Velocity P-wave (km/s) = 6.83888 7.29772 7.07202
#
# Compressibility (1/GPa) = 0.01719627
#
# Stress axis : x y z
#
# Youngs Moduli (GPa) = 100.90371 72.03780 57.62448
#
# Poissons Ratio (x) = -0.02267 0.33908
# Poissons Ratio (y) = -0.03176 0.36909
# Poissons Ratio (z) = 0.59375 0.46141
#
# Static dielectric constant tensor:
#      x y z
#    x 1.753140 0.000000 0.047090 
#    y 0.000000 1.778980 0.000000 
#    z 0.047090 0.000000 1.827190 
# 
# From -- ./inp_files/7855.got.cif
#   From: 2010.05.17/outbox.cif.g08.bks.cpg/sg14_4_cif.got.tgz:7855.got - 2010.06.03 17:49:19.
