data_PCOD9248396
_publ_section_title
;
Structure prediction by ZEFSAII (Michael W. Deem and Ramdas Pophale) SiO2 
 PCOD9248396
Probable space group: P 21/C
;
_chemical_formula_sum "Si O2"
_cell_formula_units_Z 24
_cell_length_a 7.023220
_cell_length_b 8.152345
_cell_length_c 21.256333
_cell_angle_alpha 90.000000
_cell_angle_beta 60.329112
_cell_angle_gamma 90.000000
_cell_volume 1057.471182
_symmetry_space_group_name_H-M "P 21/C"
_symmetry_group_IT_number 14
_symmetry_cell_setting 'monoclinic'
loop_
_space_group_symop_operation_xyz
x,y,z
-x,1/2+y,1/2-z
-x,-y,-z
x,1/2-y,1/2+z
loop_
_atom_site_type_symbol
_atom_site_label
_atom_site_fract_x
_atom_site_fract_y
_atom_site_fract_z
Si Si1 0.982614 0.463404 0.077110
Si Si2 0.272090 0.628147 0.668861
Si Si3 0.580053 0.538990 0.228753
Si Si4 0.622668 0.338187 0.953924
Si Si5 0.288882 0.204442 0.091243
Si Si6 0.235395 0.149034 0.732971
O O1 0.124856 0.612712 0.083029
O O2 0.105868 0.293844 0.077311
O O3 0.745030 0.472296 0.147854
O O4 0.000000 0.500000 0.000000
O O5 0.384876 0.564156 0.713068
O O6 0.407570 0.768278 0.610715
O O7 0.243127 0.475221 0.625241
O O8 0.023216 0.674019 0.725200
O O9 0.655227 0.716143 0.239863
O O10 0.333419 0.519972 0.243583
O O11 0.500000 0.500000 0.000000
O O12 0.520309 0.205124 0.017421
O O13 0.307969 0.319546 0.149672
#
# Coordination Sequence:
#
# PCOD9248396 Si02
#       6
#     4   4   4   4   4   4
#     4  11  22  40  63  96 133 176 226 277 338 407
#     4  11  23  45  69  98 141 178 230 286 344 404
#     4  11  25  41  68 100 135 178 229 279 343 401
#     4  10  22  42  67  94 133 179 223 273 343 407
#     4  10  23  41  67  96 137 181 222 286 342 401
#     4  11  24  41  67 101 136 179 229 283 338 409
#
# _framework density 22.695654000000001
#
# number of rings (size 3 to 8) (size 9 to 14) (size 15 to 20)
#    0.000    1.333    3.333    1.500    2.333    5.333 
#    0.000    0.833    0.000    0.000    0.000    0.000 
#    0.000    0.000    0.000    0.000    0.000    0.000 
#
# Total GULP energy -134052.468662 kJ/mol
# GULP energy per Si atom -5585.519528 kJ/mol
# Density = 2.264400 g / cm^3
# Si number density = 22.695654 Si / 1000 Ang^3
#
#
#
# Elastic Constant Matrix: (Units=GPa)
#
#
# Indices 1 2 3 4 5 6 
#
# 1 59.3875 19.1726 18.0418 0.0000 3.0247 0.0000
# 2 19.1726 63.3373 28.2882 0.0000 19.6303 0.0000
# 3 18.0418 28.2882 136.1979 0.0000 6.1871 0.0000
# 4 0.0000 0.0000 0.0000 42.5838 0.0000 11.6205
# 5 3.0247 19.6303 6.1871 0.0000 32.8605 0.0000
# 6 0.0000 0.0000 0.0000 11.6205 0.0000 38.4179
#
#
#
# Elastic Compliance Matrix: (Units=1/GPa)
#
#
# Indices 1 2 3 4 5 6 
#
# 1 0.019019 -0.005723 -0.001419 0.000000 0.001936 0.000000
# 2 -0.005723 0.022940 -0.003437 0.000000 -0.012530 0.000000
# 3 -0.001419 -0.003437 0.008215 0.000000 0.000637 0.000000
# 4 0.000000 0.000000 0.000000 0.025596 0.000000 -0.007742
# 5 0.001936 -0.012530 0.000637 0.000000 0.037619 0.000000
# 6 0.000000 0.000000 0.000000 -0.007742 0.000000 0.028371
#
#
# Mechanical properties :
#
#
# Convention : Reuss Voigt Hill
#
# Bulk Modulus (GPa) = 34.46483 43.32533 38.89508
# Shear Modulus (GPa) = 28.97055 35.66709 32.31882
#
# Velocity S-wave (km/s) = 3.57666 3.96856 3.77770
# Velocity P-wave (km/s) = 5.68114 6.33486 6.01688
#
# Compressibility (1/GPa) = 0.02901508
#
# Stress axis : x y z
#
# Youngs Moduli (GPa) = 52.57992 43.59287 121.72671
#
# Poissons Ratio (x) = 0.24950 0.17267
# Poissons Ratio (y) = 0.30094 0.41840
# Poissons Ratio (z) = 0.07459 0.14984
#
# Static dielectric constant tensor:
#      x y z
#    x 1.854350 0.000000 -0.015070 
#    y 0.000000 1.961370 0.000000 
#    z -0.015070 0.000000 1.846890 
# 
# From -- ./inp_files/64742.got.cif
#   From: 2010.05.17/outbox.cif.g08.bks.cpg/sg14_33_cif.got.tgz:64742.got - 2010.06.03 17:49:19.
