data_PCOD9248382
_publ_section_title
;
Structure prediction by ZEFSAII (Michael W. Deem and Ramdas Pophale) SiO2 
 PCOD9248382
Probable space group: P 21/C
;
_chemical_formula_sum "Si O2"
_cell_formula_units_Z 28
_cell_length_a 5.417573
_cell_length_b 19.445959
_cell_length_c 12.015969
_cell_angle_alpha 90.000000
_cell_angle_beta 67.925548
_cell_angle_gamma 90.000000
_cell_volume 1173.087384
_symmetry_space_group_name_H-M "P 21/C"
_symmetry_group_IT_number 14
_symmetry_cell_setting 'monoclinic'
loop_
_space_group_symop_operation_xyz
x,y,z
-x,1/2+y,1/2-z
-x,-y,-z
x,1/2-y,1/2+z
loop_
_atom_site_type_symbol
_atom_site_label
_atom_site_fract_x
_atom_site_fract_y
_atom_site_fract_z
Si Si1 0.588461 0.898738 0.208037
Si Si2 0.876596 0.469842 0.709265
Si Si3 0.291429 0.659505 0.154214
Si Si4 0.062494 0.947334 0.391293
Si Si5 0.307387 0.178422 0.604845
Si Si6 0.396853 0.422203 0.527423
Si Si7 0.666647 0.684014 0.287506
O O1 0.362791 0.922257 0.332318
O O2 0.725672 0.841326 0.258267
O O3 0.755922 0.967603 0.162050
O O4 0.506043 0.880859 0.097696
O O5 0.680339 0.419285 0.808226
O O6 0.026360 0.510032 0.783338
O O7 0.077903 0.427392 0.598624
O O8 0.462976 0.700676 0.220011
O O9 0.971775 0.669669 0.197700
O O10 0.426055 0.670195 0.012811
O O11 0.887404 0.877617 0.419336
O O12 0.000000 0.000000 0.500000
O O13 0.284147 0.260065 0.623157
O O14 0.500000 0.500000 0.500000
O O15 0.468370 0.381159 0.626950
#
# Coordination Sequence:
#
# PCOD9248382 Si02
#       7
#     4   4   4   4   4   4   4
#     4  11  23  41  68 104 143 179 246 297 369 434
#     4  10  22  42  67 108 134 190 231 305 371 432
#     4  11  26  49  74 100 146 186 245 293 371 439
#     4  11  23  40  72 104 143 183 245 304 368 433
#     4  11  28  45  71 104 145 196 243 307 366 452
#     4  11  22  43  72 104 143 190 244 311 368 444
#     4  11  29  47  73 106 142 201 240 302 371 443
#
# _framework density 23.868641
#
# number of rings (size 3 to 8) (size 9 to 14) (size 15 to 20)
#    0.000    1.143    1.429    3.000   12.000    3.429 
#    2.571    0.000    0.000    0.000    0.000    0.000 
#    0.000    0.000    0.000    0.000    0.000    0.000 
#
# Total GULP energy -156119.980633 kJ/mol
# GULP energy per Si atom -5575.713594 kJ/mol
# Density = 2.381431 g / cm^3
# Si number density = 23.868641 Si / 1000 Ang^3
#
#
#
# Elastic Constant Matrix: (Units=GPa)
#
#
# Indices 1 2 3 4 5 6 
#
# 1 51.0865 -5.4290 13.4123 0.0000 15.9195 0.0000
# 2 -5.4290 72.5919 9.6155 0.0000 2.4227 0.0000
# 3 13.4123 9.6155 119.1312 0.0000 9.7703 0.0000
# 4 0.0000 0.0000 0.0000 32.7917 0.0000 5.0190
# 5 15.9195 2.4227 9.7703 0.0000 28.1729 0.0000
# 6 0.0000 0.0000 0.0000 5.0190 0.0000 25.4818
#
#
#
# Elastic Compliance Matrix: (Units=1/GPa)
#
#
# Indices 1 2 3 4 5 6 
#
# 1 0.024516 0.002528 -0.001863 0.000000 -0.013424 0.000000
# 2 0.002528 0.014204 -0.001249 0.000000 -0.002217 0.000000
# 3 -0.001863 -0.001249 0.008862 0.000000 -0.001913 0.000000
# 4 0.000000 0.000000 0.000000 0.031443 0.000000 -0.006193
# 5 -0.013424 -0.002217 -0.001913 0.000000 0.043935 0.000000
# 6 0.000000 0.000000 0.000000 -0.006193 0.000000 0.040463
#
#
# Mechanical properties :
#
#
# Convention : Reuss Voigt Hill
#
# Bulk Modulus (GPa) = 21.54561 30.88968 26.21764
# Shear Modulus (GPa) = 27.76812 32.30333 30.03572
#
# Velocity S-wave (km/s) = 3.41452 3.68282 3.55121
# Velocity P-wave (km/s) = 4.95900 5.57260 5.27473
#
# Compressibility (1/GPa) = 0.04641317
#
# Stress axis : x y z
#
# Youngs Moduli (GPa) = 40.79010 70.40168 112.84650
#
# Poissons Ratio (x) = -0.17800 0.21025
# Poissons Ratio (y) = -0.10313 0.14098
# Poissons Ratio (z) = 0.07600 0.08795
#
# Static dielectric constant tensor:
#      x y z
#    x 2.027210 0.000000 0.031070 
#    y 0.000000 1.999370 0.000000 
#    z 0.031070 0.000000 1.968150 
# 
# From -- ./inp_files/21680.got.cif
#   From: 2010.05.17/outbox.cif.g08.bks.cpg/sg14_11_cif.got.tgz:21680.got - 2010.06.03 17:49:19.
