data_PCOD9248950
_publ_section_title
;
Structure prediction by ZEFSAII (Michael W. Deem and Ramdas Pophale) SiO2 
 PCOD9248950
Probable space group: P 21/C
;
_chemical_formula_sum "Si O2"
_cell_formula_units_Z 30
_cell_length_a 7.069704
_cell_length_b 22.760856
_cell_length_c 7.588442
_cell_angle_alpha 90.000000
_cell_angle_beta 78.478334
_cell_angle_gamma 90.000000
_cell_volume 1196.469696
_symmetry_space_group_name_H-M "P 21/C"
_symmetry_group_IT_number 14
_symmetry_cell_setting 'monoclinic'
loop_
_space_group_symop_operation_xyz
x,y,z
-x,1/2+y,1/2-z
-x,-y,-z
x,1/2-y,1/2+z
loop_
_atom_site_type_symbol
_atom_site_label
_atom_site_fract_x
_atom_site_fract_y
_atom_site_fract_z
Si Si1 0.967135 0.925033 0.881531
Si Si2 0.913813 0.957952 0.275021
Si Si3 0.600444 0.393274 0.707520
Si Si4 0.994834 0.642225 0.018975
Si Si5 0.500000 0.500000 0.000000
Si Si6 0.743507 0.224007 0.367247
Si Si7 0.408478 0.184506 0.001859
Si Si8 0.167309 0.221489 0.724520
O O1 0.194044 0.918658 0.889298
O O2 0.946759 0.987112 0.787676
O O3 0.872783 0.930107 0.090489
O O4 0.743410 0.813410 0.129827
O O5 0.015807 0.913783 0.390547
O O6 0.714449 0.980170 0.395280
O O7 0.463453 0.379135 0.567284
O O8 0.518817 0.437329 0.870271
O O9 0.653930 0.326455 0.759812
O O10 0.836569 0.681220 0.948433
O O11 0.190959 0.680807 0.985370
O O12 0.945820 0.622330 0.227382
O O13 0.595250 0.276595 0.417486
O O14 0.951660 0.253767 0.290500
O O15 0.303747 0.224029 0.166252
#
# Coordination Sequence:
#
# PCOD9248950 Si02
#       8
#     4   4   4   4   2   4   4   4
#     4   9  22  46  76 111 149 206 261 332 402 484
#     4  10  22  44  77 112 152 201 271 324 412 481
#     4  10  23  45  78 112 164 209 281 340 417 498
#     4  11  24  43  77 110 155 207 261 333 401 493
#     4  10  24  46  76 120 160 212 272 356 408 486
#     4  11  25  46  74 111 161 213 269 339 420 498
#     4  12  26  46  74 115 162 216 270 342 411 511
#     4  12  27  44  73 116 157 214 265 331 421 489
#
# _framework density 25.073765000000002
#
# number of rings (size 3 to 8) (size 9 to 14) (size 15 to 20)
#    0.000    1.333    2.667    1.200    5.600    1.067 
#    0.000    0.667    5.867    0.000    0.000    0.000 
#    0.000    0.000    0.000    0.000    0.000    0.000 
#
# Total GULP energy -167169.796729 kJ/mol
# GULP energy per Si atom -5572.326558 kJ/mol
# Density = 2.501670 g / cm^3
# Si number density = 25.073765 Si / 1000 Ang^3
#
#
#
# Elastic Constant Matrix: (Units=GPa)
#
#
# Indices 1 2 3 4 5 6 
#
# 1 90.4224 45.9118 36.3594 0.0000 14.4350 0.0000
# 2 45.9118 109.5865 37.7670 0.0000 11.2261 0.0000
# 3 36.3594 37.7670 80.1345 0.0000 3.1956 0.0000
# 4 0.0000 0.0000 0.0000 10.5987 0.0000 25.8331
# 5 14.4350 11.2261 3.1956 0.0000 51.7019 0.0000
# 6 0.0000 0.0000 0.0000 25.8331 0.0000 44.6586
#
#
#
# Elastic Compliance Matrix: (Units=1/GPa)
#
#
# Indices 1 2 3 4 5 6 
#
# 1 0.015886 -0.004650 -0.004892 0.000000 -0.003123 0.000000
# 2 -0.004650 0.012477 -0.003724 0.000000 -0.001181 0.000000
# 3 -0.004892 -0.003724 0.016407 0.000000 0.001160 0.000000
# 4 0.000000 0.000000 0.000000 -0.230172 0.000000 0.133145
# 5 -0.003123 -0.001181 0.001160 0.000000 0.020398 0.000000
# 6 0.000000 0.000000 0.000000 0.133145 0.000000 -0.054626
#
#
# Mechanical properties :
#
#
# Convention : Reuss Voigt Hill
#
# Bulk Modulus (GPa) = 54.82482 57.80221 56.31352
# Shear Modulus (GPa) = -26.73529 32.06552 2.66511
#
# Velocity S-wave (km/s) = -3.26891 3.57998 1.03209
# Velocity P-wave (km/s) = 2.76860 6.33965 4.89164
#
# Compressibility (1/GPa) = 0.01823991
#
# Stress axis : x y z
#
# Youngs Moduli (GPa) = 62.94979 80.14435 60.94801
#
# Poissons Ratio (x) = 0.37263 0.29816
# Poissons Ratio (y) = 0.29269 0.22696
# Poissons Ratio (z) = 0.30795 0.29845
#
# Static dielectric constant tensor:
#      x y z
#    x 2.045970 0.000000 0.047990 
#    y 0.000000 2.062160 0.000000 
#    z 0.047990 0.000000 2.033120 
# 
# From -- ./inp_files/26621.got.cif
#   From: 2010.05.17/outbox.cif.g08.bks.cpg/sg14_14_cif.got.tgz:26621.got - 2010.06.03 17:49:19.
