data_PCOD9248340
_publ_section_title
;
Structure prediction by ZEFSAII (Michael W. Deem and Ramdas Pophale) SiO2 
 PCOD9248340
Probable space group: P 21/C
;
_chemical_formula_sum "Si O2"
_cell_formula_units_Z 20
_cell_length_a 7.195291
_cell_length_b 15.238450
_cell_length_c 9.433447
_cell_angle_alpha 90.000000
_cell_angle_beta 51.775903
_cell_angle_gamma 90.000000
_cell_volume 812.567116
_symmetry_space_group_name_H-M "P 21/C"
_symmetry_group_IT_number 14
_symmetry_cell_setting 'monoclinic'
loop_
_space_group_symop_operation_xyz
x,y,z
-x,1/2+y,1/2-z
-x,-y,-z
x,1/2-y,1/2+z
loop_
_atom_site_type_symbol
_atom_site_label
_atom_site_fract_x
_atom_site_fract_y
_atom_site_fract_z
Si Si1 0.707080 0.702783 0.151035
Si Si2 0.900955 0.178849 0.747581
Si Si3 0.812430 0.343484 0.976836
Si Si4 0.291518 0.579452 0.250081
Si Si5 0.838005 0.894018 0.137514
O O1 0.899708 0.648688 0.152045
O O2 0.476438 0.646678 0.231135
O O3 0.852574 0.712851 0.935726
O O4 0.700223 0.697868 0.711217
O O5 0.782079 0.250537 0.906851
O O6 0.758040 0.157960 0.671181
O O7 0.988705 0.100631 0.806255
O O8 0.699446 0.412964 0.924247
O O9 0.314873 0.481058 0.294924
O O10 0.027916 0.608092 0.421483
#
# Coordination Sequence:
#
# PCOD9248340 Si02
#       5
#     4   4   4   4   4
#     4   9  21  41  64  91 133 168 211 273 318 394
#     4   9  18  40  63  83 136 159 212 274 306 386
#     4   9  18  39  60  93 122 161 223 260 305 401
#     4  11  21  42  72  90 133 175 211 270 335 362
#     4  10  22  42  66 101 128 169 223 266 313 409
#
# _framework density 24.613353
#
# number of rings (size 3 to 8) (size 9 to 14) (size 15 to 20)
#    1.200    1.200    2.000    0.000    0.000    1.600 
#   21.600    8.000    0.000    0.000    0.000    0.000 
#    0.000    0.000    0.000    0.000    0.000    0.000 
#
# Total GULP energy -111525.832019 kJ/mol
# GULP energy per Si atom -5576.291601 kJ/mol
# Density = 2.455733 g / cm^3
# Si number density = 24.613353 Si / 1000 Ang^3
#
#
#
# Elastic Constant Matrix: (Units=GPa)
#
#
# Indices 1 2 3 4 5 6 
#
# 1 122.1064 35.8963 40.1854 0.0000 11.5533 0.0000
# 2 35.8963 78.3655 20.5885 0.0000 -18.8251 0.0000
# 3 40.1854 20.5885 99.8516 0.0000 22.1535 0.0000
# 4 0.0000 0.0000 0.0000 23.2846 0.0000 -4.5215
# 5 11.5533 -18.8251 22.1535 0.0000 40.7368 0.0000
# 6 0.0000 0.0000 0.0000 -4.5215 0.0000 35.5375
#
#
#
# Elastic Compliance Matrix: (Units=1/GPa)
#
#
# Indices 1 2 3 4 5 6 
#
# 1 0.010975 -0.005471 -0.002317 0.000000 -0.004381 0.000000
# 2 -0.005471 0.019721 -0.004811 0.000000 0.013282 0.000000
# 3 -0.002317 -0.004811 0.013973 0.000000 -0.009165 0.000000
# 4 0.000000 0.000000 0.000000 0.044035 0.000000 0.005603
# 5 -0.004381 0.013282 -0.009165 0.000000 0.036912 0.000000
# 6 0.000000 0.000000 0.000000 0.005603 0.000000 0.028852
#
#
# Mechanical properties :
#
#
# Convention : Reuss Voigt Hill
#
# Bulk Modulus (GPa) = 51.35893 54.85154 53.10524
# Shear Modulus (GPa) = 26.85920 33.48866 30.17393
#
# Velocity S-wave (km/s) = 3.30698 3.69262 3.50511
# Velocity P-wave (km/s) = 5.95761 6.36508 6.16471
#
# Compressibility (1/GPa) = 0.01947081
#
# Stress axis : x y z
#
# Youngs Moduli (GPa) = 91.11757 50.70669 71.56796
#
# Poissons Ratio (x) = 0.27741 0.16581
# Poissons Ratio (y) = 0.49849 0.34434
# Poissons Ratio (z) = 0.21111 0.24397
#
# Static dielectric constant tensor:
#      x y z
#    x 1.983890 0.000000 -0.015100 
#    y 0.000000 1.947190 0.000000 
#    z -0.015100 0.000000 2.008310 
# 
# From -- ./inp_files/9310.got.cif
#   From: 2010.05.17/outbox.cif.g08.bks.cpg/sg14_5_cif.got.tgz:9310.got - 2010.06.03 17:49:19.
