data_PCOD9248594
_publ_section_title
;
Structure prediction by ZEFSAII (Michael W. Deem and Ramdas Pophale) SiO2 
 PCOD9248594
Probable space group: P 21/C
;
_chemical_formula_sum "Si O2"
_cell_formula_units_Z 24
_cell_length_a 21.397076
_cell_length_b 5.043654
_cell_length_c 18.598171
_cell_angle_alpha 90.000000
_cell_angle_beta 154.992082
_cell_angle_gamma 90.000000
_cell_volume 848.490327
_symmetry_space_group_name_H-M "P 21/C"
_symmetry_group_IT_number 14
_symmetry_cell_setting 'monoclinic'
loop_
_space_group_symop_operation_xyz
x,y,z
-x,1/2+y,1/2-z
-x,-y,-z
x,1/2-y,1/2+z
loop_
_atom_site_type_symbol
_atom_site_label
_atom_site_fract_x
_atom_site_fract_y
_atom_site_fract_z
Si Si1 0.325792 0.977527 0.808473
Si Si2 0.750746 0.106895 0.642127
Si Si3 0.341686 0.479298 0.561710
Si Si4 0.955619 0.819108 0.522097
Si Si5 0.965886 0.829764 0.259778
Si Si6 0.551087 0.172731 0.685497
O O1 0.272383 0.853862 0.826820
O O2 0.219175 0.220393 0.675372
O O3 0.329604 0.774185 0.745769
O O4 0.500000 0.000000 0.000000
O O5 0.718493 0.244020 0.531572
O O6 0.928336 0.076854 0.843465
O O7 0.604760 0.934320 0.508784
O O8 0.207296 0.281249 0.402438
O O9 0.488891 0.404815 0.672487
O O10 0.376522 0.475821 0.681758
O O11 0.967654 0.008225 0.604515
O O12 0.000000 0.000000 0.500000
O O13 0.032776 0.554829 0.301939
#
# Coordination Sequence:
#
# PCOD9248594 Si02
#       6
#     4   4   4   4   4   4
#     4  11  22  41  69  99 137 180 238 298 358 437
#     4  10  22  43  65  98 135 187 229 296 359 437
#     4  11  24  40  70  98 140 181 236 294 364 429
#     4   9  22  45  69  96 147 187 242 293 376 437
#     4  11  26  46  72 104 145 190 243 300 367 444
#     4  12  23  40  70 103 137 181 239 300 366 434
#
# _framework density 28.285530999999999
#
# number of rings (size 3 to 8) (size 9 to 14) (size 15 to 20)
#    0.000    1.333    3.333    1.500    4.667    2.667 
#    0.000    5.000    0.000    0.000    0.000    0.000 
#    0.000    0.000    0.000    0.000    0.000    0.000 
#
# Total GULP energy -134225.107624 kJ/mol
# GULP energy per Si atom -5592.712818 kJ/mol
# Density = 2.822115 g / cm^3
# Si number density = 28.285531 Si / 1000 Ang^3
#
#
#
# Elastic Constant Matrix: (Units=GPa)
#
#
# Indices 1 2 3 4 5 6 
#
# 1 70.7166 -9.8723 9.9172 0.0000 -19.7625 0.0000
# 2 -9.8723 75.8721 23.8649 0.0000 2.7890 0.0000
# 3 9.9172 23.8649 209.9406 0.0000 -5.3480 0.0000
# 4 0.0000 0.0000 0.0000 42.8999 0.0000 21.4151
# 5 -19.7625 2.7890 -5.3480 0.0000 45.0452 0.0000
# 6 0.0000 0.0000 0.0000 21.4151 0.0000 15.2063
#
#
#
# Elastic Compliance Matrix: (Units=1/GPa)
#
#
# Indices 1 2 3 4 5 6 
#
# 1 0.016521 0.002158 -0.000847 0.000000 0.007014 0.000000
# 2 0.002158 0.013999 -0.001696 0.000000 -0.000121 0.000000
# 3 -0.000847 -0.001696 0.005004 0.000000 0.000328 0.000000
# 4 0.000000 0.000000 0.000000 0.078487 0.000000 -0.110533
# 5 0.007014 -0.000121 0.000328 0.000000 0.025324 0.000000
# 6 0.000000 0.000000 0.000000 -0.110533 0.000000 0.221425
#
#
# Mechanical properties :
#
#
# Convention : Reuss Voigt Hill
#
# Bulk Modulus (GPa) = 28.77341 44.92766 36.85053
# Shear Modulus (GPa) = 13.40068 42.80492 28.10280
#
# Velocity S-wave (km/s) = 2.17897 3.89436 3.15547
# Velocity P-wave (km/s) = 4.06511 6.01161 5.13150
#
# Compressibility (1/GPa) = 0.03475432
#
# Stress axis : x y z
#
# Youngs Moduli (GPa) = 60.52821 71.43392 199.82238
#
# Poissons Ratio (x) = -0.15418 0.16927
# Poissons Ratio (y) = -0.13064 0.33897
# Poissons Ratio (z) = 0.05127 0.12118
#
# Static dielectric constant tensor:
#      x y z
#    x 6.304170 0.000000 5.680190 
#    y 0.000000 2.334780 0.000000 
#    z 5.680190 0.000000 10.392980 
# 
# From -- ./inp_files/75119.got.cif
#   From: 2010.05.17/outbox.cif.g08.bks.cpg/sg14_38_cif.got.tgz:75119.got - 2010.06.03 17:49:19.
