data_PCOD9248191
_publ_section_title
;
Structure prediction by ZEFSAII (Michael W. Deem and Ramdas Pophale) SiO2 
 PCOD9248191
Probable space group: P 21/C
;
_chemical_formula_sum "Si O2"
_cell_formula_units_Z 22
_cell_length_a 12.214784
_cell_length_b 5.980002
_cell_length_c 18.263590
_cell_angle_alpha 90.000000
_cell_angle_beta 33.281752
_cell_angle_gamma 90.000000
_cell_volume 732.070697
_symmetry_space_group_name_H-M "P 21/C"
_symmetry_group_IT_number 14
_symmetry_cell_setting 'monoclinic'
loop_
_space_group_symop_operation_xyz
x,y,z
-x,1/2+y,1/2-z
-x,-y,-z
x,1/2-y,1/2+z
loop_
_atom_site_type_symbol
_atom_site_label
_atom_site_fract_x
_atom_site_fract_y
_atom_site_fract_z
Si Si1 0.959138 0.569330 0.174278
Si Si2 0.500000 0.000000 0.000000
Si Si3 0.207090 0.879309 0.395961
Si Si4 0.008320 0.414319 0.593087
Si Si5 0.569474 0.416257 0.623170
Si Si6 0.244558 0.741517 0.135396
O O1 0.132014 0.589429 0.140326
O O2 0.752738 0.537323 0.339429
O O3 0.049156 0.507610 0.040282
O O4 0.945871 0.841538 0.158578
O O5 0.400915 0.867413 0.979603
O O6 0.549958 0.263876 0.933398
O O7 0.120267 0.657087 0.405527
O O8 0.377164 0.795550 0.357801
O O9 0.343116 0.017833 0.264190
O O10 0.931722 0.248751 0.700955
O O11 0.249054 0.415575 0.458701
#
# Coordination Sequence:
#
# PCOD9248191 Si02
#       6
#     4   2   4   4   4   4
#     4  10  22  41  68  96 136 180 229 282 346 416
#     4  12  22  46  70  96 142 186 228 284 348 418
#     4  12  24  44  69 104 137 182 236 288 361 410
#     4  10  24  43  69 100 138 177 233 291 349 420
#     4  12  25  45  71 101 141 186 230 296 348 425
#     4  10  22  41  69  97 134 184 230 280 345 414
#
# _framework density 30.051741
#
# number of rings (size 3 to 8) (size 9 to 14) (size 15 to 20)
#    1.091    0.000    3.636    3.273    0.000    1.455 
#    0.000    2.727    0.000    0.000    0.000    0.000 
#    0.000    0.000    0.000    0.000    0.000    0.000 
#
# Total GULP energy -122585.368663 kJ/mol
# GULP energy per Si atom -5572.062212 kJ/mol
# Density = 2.998334 g / cm^3
# Si number density = 30.051741 Si / 1000 Ang^3
#
#
#
# Elastic Constant Matrix: (Units=GPa)
#
#
# Indices 1 2 3 4 5 6 
#
# 1 123.0635 17.7506 51.6644 0.0000 20.9811 0.0000
# 2 17.7506 82.4795 54.7018 0.0000 -6.4303 0.0000
# 3 51.6644 54.7018 273.2493 0.0000 -6.7381 0.0000
# 4 0.0000 0.0000 0.0000 51.9580 0.0000 -7.1663
# 5 20.9811 -6.4303 -6.7381 0.0000 87.5220 0.0000
# 6 0.0000 0.0000 0.0000 -7.1663 0.0000 9.1137
#
#
#
# Elastic Compliance Matrix: (Units=1/GPa)
#
#
# Indices 1 2 3 4 5 6 
#
# 1 0.009384 -0.001146 -0.001605 0.000000 -0.002457 0.000000
# 2 -0.001146 0.014178 -0.002594 0.000000 0.001117 0.000000
# 3 -0.001605 -0.002594 0.004496 0.000000 0.000540 0.000000
# 4 0.000000 0.000000 0.000000 0.021588 0.000000 0.016975
# 5 -0.002457 0.001117 0.000540 0.000000 0.012138 0.000000
# 6 0.000000 0.000000 0.000000 0.016975 0.000000 0.123072
#
#
# Mechanical properties :
#
#
# Convention : Reuss Voigt Hill
#
# Bulk Modulus (GPa) = 57.58172 80.78065 69.18119
# Shear Modulus (GPa) = 24.83390 53.36377 39.09884
#
# Velocity S-wave (km/s) = 2.87779 4.21851 3.61092
# Velocity P-wave (km/s) = 5.49951 7.11805 6.36048
#
# Compressibility (1/GPa) = 0.01736662
#
# Stress axis : x y z
#
# Youngs Moduli (GPa) = 106.56217 70.52946 222.42803
#
# Poissons Ratio (x) = 0.08086 0.35709
# Poissons Ratio (y) = 0.12217 0.57700
# Poissons Ratio (z) = 0.17107 0.18296
#
# Static dielectric constant tensor:
#      x y z
#    x 2.319740 0.000000 0.106280 
#    y 0.000000 2.765850 0.000000 
#    z 0.106280 0.000000 2.332750 
# 
# From -- ./inp_files/42984.got.cif
#   From: 2010.05.17/outbox.cif.g08.bks.cpg/sg14_22_cif.got.tgz:42984.got - 2010.06.03 17:49:19.
