data_PCOD9248853
_publ_section_title
;
Structure prediction by ZEFSAII (Michael W. Deem and Ramdas Pophale) SiO2 
 PCOD9248853
Probable space group: P 21/C
;
_chemical_formula_sum "Si O2"
_cell_formula_units_Z 20
_cell_length_a 5.308002
_cell_length_b 11.291135
_cell_length_c 13.703525
_cell_angle_alpha 90.000000
_cell_angle_beta 99.644803
_cell_angle_gamma 90.000000
_cell_volume 809.689613
_symmetry_space_group_name_H-M "P 21/C"
_symmetry_group_IT_number 14
_symmetry_cell_setting 'monoclinic'
loop_
_space_group_symop_operation_xyz
x,y,z
-x,1/2+y,1/2-z
-x,-y,-z
x,1/2-y,1/2+z
loop_
_atom_site_type_symbol
_atom_site_label
_atom_site_fract_x
_atom_site_fract_y
_atom_site_fract_z
Si Si1 0.345095 0.022905 0.089533
Si Si2 0.984852 0.871408 0.663640
Si Si3 0.331453 0.736329 0.341956
Si Si4 0.919883 0.311039 0.477547
Si Si5 0.479458 0.487491 0.117105
O O1 0.519498 0.112017 0.160370
O O2 0.247602 0.891470 0.107736
O O3 0.099563 0.100441 0.047850
O O4 0.500000 0.000000 0.000000
O O5 0.088458 0.788100 0.757452
O O6 0.918225 0.782799 0.571094
O O7 0.218924 0.950976 0.637155
O O8 0.738918 0.948702 0.671750
O O9 0.249492 0.747286 0.449983
O O10 0.500967 0.853365 0.340485
O O11 0.500000 0.500000 0.000000
#
# Coordination Sequence:
#
# PCOD9248853 Si02
#       5
#     4   4   4   4   4
#     4   9  21  41  69  98 136 186 234 299 364 421
#     4  12  29  44  76 109 144 196 244 299 377 430
#     4  11  26  43  73 103 147 186 247 304 360 447
#     4  10  22  44  69 102 143 187 240 301 363 437
#     4  12  27  51  75 108 150 197 244 304 374 442
#
# _framework density 24.700824000000001
#
# number of rings (size 3 to 8) (size 9 to 14) (size 15 to 20)
#    0.000    1.200    2.000    1.800   11.200    3.200 
#    0.000    0.000    0.000    0.000    0.000    0.000 
#    0.000    0.000    0.000    0.000    0.000    0.000 
#
# Total GULP energy -111794.849813 kJ/mol
# GULP energy per Si atom -5589.742491 kJ/mol
# Density = 2.464460 g / cm^3
# Si number density = 24.700824 Si / 1000 Ang^3
#
#
#
# Elastic Constant Matrix: (Units=GPa)
#
#
# Indices 1 2 3 4 5 6 
#
# 1 76.1271 7.1056 3.2705 0.0000 -13.8571 0.0000
# 2 7.1056 56.5313 16.8459 0.0000 -20.6572 0.0000
# 3 3.2705 16.8459 84.5249 0.0000 3.5766 0.0000
# 4 0.0000 0.0000 0.0000 22.7184 0.0000 5.2854
# 5 -13.8571 -20.6572 3.5766 0.0000 30.1617 0.0000
# 6 0.0000 0.0000 0.0000 5.2854 0.0000 29.4491
#
#
#
# Elastic Compliance Matrix: (Units=1/GPa)
#
#
# Indices 1 2 3 4 5 6 
#
# 1 0.014462 0.001338 -0.001152 0.000000 0.007697 0.000000
# 2 0.001338 0.026470 -0.006151 0.000000 0.019473 0.000000
# 3 -0.001152 -0.006151 0.013369 0.000000 -0.006327 0.000000
# 4 0.000000 0.000000 0.000000 0.045935 0.000000 -0.008244
# 5 0.007697 0.019473 -0.006327 0.000000 0.050778 0.000000
# 6 0.000000 0.000000 0.000000 -0.008244 0.000000 0.035437
#
#
# Mechanical properties :
#
#
# Convention : Reuss Voigt Hill
#
# Bulk Modulus (GPa) = 23.60134 30.18081 26.89107
# Shear Modulus (GPa) = 23.52899 29.12991 26.32945
#
# Velocity S-wave (km/s) = 3.08970 3.43783 3.26841
# Velocity P-wave (km/s) = 4.72271 5.29182 5.01534
#
# Compressibility (1/GPa) = 0.04237048
#
# Stress axis : x y z
#
# Youngs Moduli (GPa) = 69.14860 37.77895 74.79934
#
# Poissons Ratio (x) = -0.05056 0.08617
# Poissons Ratio (y) = -0.09254 0.46011
# Poissons Ratio (z) = 0.07966 0.23239
#
# Static dielectric constant tensor:
#      x y z
#    x 2.250430 0.000000 -0.117320 
#    y 0.000000 2.459250 0.000000 
#    z -0.117320 0.000000 2.111470 
# 
# From -- ./inp_files/36912.got.cif
#   From: 2010.05.17/outbox.cif.g08.bks.cpg/sg14_19_cif.got.tgz:36912.got - 2010.06.03 17:49:19.
