data_PCOD9248105
_publ_section_title
;
Structure prediction by ZEFSAII (Michael W. Deem and Ramdas Pophale) SiO2 
 PCOD9248105
Probable space group: P 21/C
;
_chemical_formula_sum "Si O2"
_cell_formula_units_Z 24
_cell_length_a 11.199808
_cell_length_b 10.976017
_cell_length_c 25.498839
_cell_angle_alpha 90.000000
_cell_angle_beta 22.504639
_cell_angle_gamma 90.000000
_cell_volume 1199.776351
_symmetry_space_group_name_H-M "P 21/C"
_symmetry_group_IT_number 14
_symmetry_cell_setting 'monoclinic'
loop_
_space_group_symop_operation_xyz
x,y,z
-x,1/2+y,1/2-z
-x,-y,-z
x,1/2-y,1/2+z
loop_
_atom_site_type_symbol
_atom_site_label
_atom_site_fract_x
_atom_site_fract_y
_atom_site_fract_z
Si Si1 0.183341 0.616453 0.677844
Si Si2 0.078948 0.350077 0.016500
Si Si3 0.697805 0.277444 0.263893
Si Si4 0.086123 0.210739 0.810548
Si Si5 0.898884 0.950616 0.874233
Si Si6 0.798539 0.127176 0.516037
O O1 0.147900 0.641547 0.753077
O O2 0.037671 0.494727 0.711410
O O3 0.552550 0.602890 0.517719
O O4 0.040448 0.720499 0.697955
O O5 0.777685 0.328712 0.174729
O O6 0.988570 0.348180 0.992375
O O7 0.335279 0.245541 0.921367
O O8 0.218063 0.480404 0.977718
O O9 0.859891 0.146353 0.203183
O O10 0.455562 0.186721 0.659137
O O11 0.929225 0.080711 0.891499
O O12 0.975318 0.315598 0.894421
#
# Coordination Sequence:
#
# PCOD9248105 Si02
#       6
#     4   4   4   4   4   4
#     4   9  21  36  64  90 123 159 194 250 312 368
#     4  11  25  41  64  87 127 159 215 252 301 362
#     4  12  21  41  63  93 121 164 196 260 310 363
#     4  10  22  41  65  85 128 157 201 255 307 358
#     4   9  20  39  58  92 126 151 197 258 299 371
#     4  11  24  44  60  92 120 168 208 256 296 368
#
# _framework density 20.003727999999999
#
# number of rings (size 3 to 8) (size 9 to 14) (size 15 to 20)
#    1.000    0.667    3.333    1.000    2.333    2.667 
#    0.000    3.333    0.000    0.000    0.000    0.000 
#    0.000    0.000    0.000    0.000    0.000    0.000 
#
# Total GULP energy -133695.950178 kJ/mol
# GULP energy per Si atom -5570.664591 kJ/mol
# Density = 1.995820 g / cm^3
# Si number density = 20.003728 Si / 1000 Ang^3
#
#
#
# Elastic Constant Matrix: (Units=GPa)
#
#
# Indices 1 2 3 4 5 6 
#
# 1 20.8589 -5.3971 4.0697 0.0000 5.8813 0.0000
# 2 -5.3971 21.0798 9.0122 0.0000 -3.1055 0.0000
# 3 4.0697 9.0122 69.0185 0.0000 -6.4529 0.0000
# 4 0.0000 0.0000 0.0000 15.5972 0.0000 9.1989
# 5 5.8813 -3.1055 -6.4529 0.0000 26.7497 0.0000
# 6 0.0000 0.0000 0.0000 9.1989 0.0000 24.5419
#
#
#
# Elastic Compliance Matrix: (Units=1/GPa)
#
#
# Indices 1 2 3 4 5 6 
#
# 1 0.056667 0.015489 -0.006507 0.000000 -0.012231 0.000000
# 2 0.015489 0.054977 -0.007994 0.000000 0.001049 0.000000
# 3 -0.006507 -0.007994 0.016332 0.000000 0.004442 0.000000
# 4 0.000000 0.000000 0.000000 0.082310 0.000000 -0.030852
# 5 -0.012231 0.001049 0.004442 0.000000 0.041266 0.000000
# 6 0.000000 0.000000 0.000000 -0.030852 0.000000 0.052311
#
#
# Mechanical properties :
#
#
# Convention : Reuss Voigt Hill
#
# Bulk Modulus (GPa) = 7.69527 14.03632 10.86580
# Shear Modulus (GPa) = 14.48420 20.26257 17.37338
#
# Velocity S-wave (km/s) = 2.69378 3.18612 2.95024
# Velocity P-wave (km/s) = 3.67839 4.53511 4.12903
#
# Compressibility (1/GPa) = 0.12994994
#
# Stress axis : x y z
#
# Youngs Moduli (GPa) = 17.64699 18.18959 61.23040
#
# Poissons Ratio (x) = -0.28173 0.39845
# Poissons Ratio (y) = -0.27333 0.48947
# Poissons Ratio (z) = 0.11484 0.14541
#
# Static dielectric constant tensor:
#      x y z
#    x 1.708340 0.000000 -0.008630 
#    y 0.000000 1.732800 0.000000 
#    z -0.008630 0.000000 1.677190 
# 
# From -- ./inp_files/77241.got.cif
#   From: 2010.05.17/outbox.cif.g08.bks.cpg/sg14_39_cif.got.tgz:77241.got - 2010.06.03 17:49:19.
