data_PCOD9248075
_publ_section_title
;
Structure prediction by ZEFSAII (Michael W. Deem and Ramdas Pophale) SiO2 
 PCOD9248075
Probable space group: P 21/C
;
_chemical_formula_sum "Si O2"
_cell_formula_units_Z 28
_cell_length_a 16.435363
_cell_length_b 12.461688
_cell_length_c 9.889648
_cell_angle_alpha 90.000000
_cell_angle_beta 43.670580
_cell_angle_gamma 90.000000
_cell_volume 1398.645553
_symmetry_space_group_name_H-M "P 21/C"
_symmetry_group_IT_number 14
_symmetry_cell_setting 'monoclinic'
loop_
_space_group_symop_operation_xyz
x,y,z
-x,1/2+y,1/2-z
-x,-y,-z
x,1/2-y,1/2+z
loop_
_atom_site_type_symbol
_atom_site_label
_atom_site_fract_x
_atom_site_fract_y
_atom_site_fract_z
Si Si1 0.633409 0.915054 0.990793
Si Si2 0.710961 0.668507 0.925084
Si Si3 0.816730 0.182033 0.122488
Si Si4 0.375364 0.496389 0.780126
Si Si5 0.829376 0.133037 0.408006
Si Si6 0.636387 0.505638 0.790237
Si Si7 0.959957 0.559752 0.686952
O O1 0.651555 0.970226 0.113392
O O2 0.493414 0.933589 0.131312
O O3 0.680486 0.793413 0.942888
O O4 0.680919 0.973316 0.798884
O O5 0.690854 0.603830 0.810291
O O6 0.845044 0.636314 0.807823
O O7 0.620984 0.617197 0.144963
O O8 0.850315 0.192177 0.240333
O O9 0.705800 0.103759 0.238282
O O10 0.800332 0.293092 0.067887
O O11 0.927062 0.128086 0.912248
O O12 0.286588 0.563000 0.978158
O O13 0.927357 0.042466 0.317584
O O14 0.500000 0.500000 0.000000
O O15 0.000000 0.500000 0.500000
#
# Coordination Sequence:
#
# PCOD9248075 Si02
#       7
#     4   4   4   4   4   4   4
#     4  11  24  37  65  94 126 168 211 253 320 377
#     4  11  21  43  66  88 126 173 207 258 320 372
#     4  11  23  42  69  89 127 172 208 262 320 374
#     4  10  22  44  57  92 139 160 203 272 307 382
#     4  10  22  41  64  91 123 169 208 259 321 368
#     4  12  23  41  63  96 126 160 215 257 309 391
#     4   9  19  44  63  86 129 162 209 260 311 373
#
# _framework density 20.019369000000001
#
# number of rings (size 3 to 8) (size 9 to 14) (size 15 to 20)
#    0.000    1.429    5.714    0.857    4.000    1.143 
#   12.857    0.714    0.000    0.000    0.000    0.000 
#    0.000    0.000    0.000    0.000    0.000    0.000 
#
# Total GULP energy -155964.894206 kJ/mol
# GULP energy per Si atom -5570.174793 kJ/mol
# Density = 1.997380 g / cm^3
# Si number density = 20.019369 Si / 1000 Ang^3
#
#
#
# Elastic Constant Matrix: (Units=GPa)
#
#
# Indices 1 2 3 4 5 6 
#
# 1 59.6803 21.1499 19.9819 0.0000 17.3306 0.0000
# 2 21.1499 88.9703 32.0764 0.0000 -0.3546 0.0000
# 3 19.9819 32.0764 72.4849 0.0000 1.0183 0.0000
# 4 0.0000 0.0000 0.0000 35.5419 0.0000 7.8125
# 5 17.3306 -0.3546 1.0183 0.0000 47.9610 0.0000
# 6 0.0000 0.0000 0.0000 7.8125 0.0000 27.6831
#
#
#
# Elastic Compliance Matrix: (Units=1/GPa)
#
#
# Indices 1 2 3 4 5 6 
#
# 1 0.021745 -0.003663 -0.004264 0.000000 -0.007794 0.000000
# 2 -0.003663 0.013993 -0.005204 0.000000 0.001538 0.000000
# 3 -0.004264 -0.005204 0.017258 0.000000 0.001136 0.000000
# 4 0.000000 0.000000 0.000000 0.029997 0.000000 -0.008465
# 5 -0.007794 0.001538 0.001136 0.000000 0.023654 0.000000
# 6 0.000000 0.000000 0.000000 -0.008465 0.000000 0.038512
#
#
# Mechanical properties :
#
#
# Convention : Reuss Voigt Hill
#
# Bulk Modulus (GPa) = 37.40517 40.83911 39.12214
# Shear Modulus (GPa) = 27.72660 32.09901 29.91280
#
# Velocity S-wave (km/s) = 3.72558 4.00859 3.86967
# Velocity P-wave (km/s) = 6.10178 6.47064 6.28891
#
# Compressibility (1/GPa) = 0.02673427
#
# Stress axis : x y z
#
# Youngs Moduli (GPa) = 45.98750 71.46538 57.94291
#
# Poissons Ratio (x) = 0.26178 0.24707
# Poissons Ratio (y) = 0.16845 0.30153
# Poissons Ratio (z) = 0.19609 0.37191
#
# Static dielectric constant tensor:
#      x y z
#    x 1.741310 0.000000 -0.005580 
#    y 0.000000 1.736820 0.000000 
#    z -0.005580 0.000000 1.765350 
# 
# From -- ./inp_files/33792.got.cif
#   From: 2010.05.17/outbox.cif.g08.bks.cpg/sg14_17_cif.got.tgz:33792.got - 2010.06.03 17:49:19.
