data_PCOD9248422
_publ_section_title
;
Structure prediction by ZEFSAII (Michael W. Deem and Ramdas Pophale) SiO2 
 PCOD9248422
Probable space group: P 21/C
;
_chemical_formula_sum "Si O2"
_cell_formula_units_Z 28
_cell_length_a 4.911354
_cell_length_b 24.186464
_cell_length_c 8.087951
_cell_angle_alpha 90.000000
_cell_angle_beta 98.401213
_cell_angle_gamma 90.000000
_cell_volume 950.444223
_symmetry_space_group_name_H-M "P 21/C"
_symmetry_group_IT_number 14
_symmetry_cell_setting 'monoclinic'
loop_
_space_group_symop_operation_xyz
x,y,z
-x,1/2+y,1/2-z
-x,-y,-z
x,1/2-y,1/2+z
loop_
_atom_site_type_symbol
_atom_site_label
_atom_site_fract_x
_atom_site_fract_y
_atom_site_fract_z
Si Si1 0.019473 0.239832 0.614158
Si Si2 0.268205 0.328233 0.404899
Si Si3 0.514593 0.089445 0.500180
Si Si4 0.000000 0.500000 0.000000
Si Si5 0.500000 0.500000 0.500000
Si Si6 0.217059 0.669325 0.202352
Si Si7 0.918558 0.944327 0.769977
Si Si8 0.729749 0.107265 0.867802
O O1 0.163391 0.290571 0.541045
O O2 0.241300 0.211983 0.749735
O O3 0.926013 0.192265 0.480705
O O4 0.789510 0.271810 0.702410
O O5 0.571404 0.348366 0.465233
O O6 0.036267 0.374828 0.359090
O O7 0.246986 0.052088 0.430889
O O8 0.535363 0.109523 0.688391
O O9 0.527598 0.136949 0.361992
O O10 0.778573 0.050465 0.517026
O O11 0.112297 0.504700 0.230950
O O12 0.307064 0.457199 0.611807
O O13 0.304266 0.550196 0.543404
O O14 0.049882 0.616794 0.268470
#
# Coordination Sequence:
#
# PCOD9248422 Si02
#       8
#     4   4   4   2   2   4   4   4
#     4  10  22  47  71 102 140 188 244 303 371 437
#     4  11  26  47  73 107 147 190 248 306 377 443
#     4  11  23  41  70  96 136 191 239 297 359 456
#     4  10  22  42  68  94 134 190 242 290 366 440
#     4  12  28  44  70 112 148 196 244 322 374 436
#     4  10  22  44  67 100 135 185 235 301 359 441
#     4  11  24  44  68 102 140 187 247 298 369 442
#     4  12  27  47  71 109 151 195 246 313 371 456
#
# _framework density 29.459909
#
# number of rings (size 3 to 8) (size 9 to 14) (size 15 to 20)
#    0.000    1.143    2.857    2.143    4.000    1.714 
#   10.286    0.000    0.000    0.000    0.000    0.000 
#    0.000    0.000    0.000    0.000    0.000    0.000 
#
# Total GULP energy -156174.385030 kJ/mol
# GULP energy per Si atom -5577.656608 kJ/mol
# Density = 2.939286 g / cm^3
# Si number density = 29.459909 Si / 1000 Ang^3
#
#
#
# Elastic Constant Matrix: (Units=GPa)
#
#
# Indices 1 2 3 4 5 6 
#
# 1 148.8160 63.3642 27.3970 0.0000 -24.8855 0.0000
# 2 63.3642 171.5964 57.0285 0.0000 1.5325 0.0000
# 3 27.3970 57.0285 89.6313 0.0000 -22.2222 0.0000
# 4 0.0000 0.0000 0.0000 68.7270 0.0000 -2.9500
# 5 -24.8855 1.5325 -22.2222 0.0000 39.2982 0.0000
# 6 0.0000 0.0000 0.0000 -2.9500 0.0000 58.2264
#
#
#
# Elastic Compliance Matrix: (Units=1/GPa)
#
#
# Indices 1 2 3 4 5 6 
#
# 1 0.009285 -0.003939 0.001354 0.000000 0.006799 0.000000
# 2 -0.003939 0.009481 -0.006442 0.000000 -0.006507 0.000000
# 3 0.001354 -0.006442 0.017581 0.000000 0.011050 0.000000
# 4 0.000000 0.000000 0.000000 0.014582 0.000000 0.000739
# 5 0.006799 -0.006507 0.011050 0.000000 0.036254 0.000000
# 6 0.000000 0.000000 0.000000 0.000739 0.000000 0.017212
#
#
# Mechanical properties :
#
#
# Convention : Reuss Voigt Hill
#
# Bulk Modulus (GPa) = 54.66493 78.40257 66.53375
# Shear Modulus (GPa) = 38.89659 50.73394 44.81526
#
# Velocity S-wave (km/s) = 3.63757 4.15436 3.90452
# Velocity P-wave (km/s) = 6.01984 7.04860 6.55444
#
# Compressibility (1/GPa) = 0.01829326
#
# Stress axis : x y z
#
# Youngs Moduli (GPa) = 107.70547 105.47286 56.87915
#
# Poissons Ratio (x) = 0.41547 -0.07701
# Poissons Ratio (y) = 0.42427 0.36639
# Poissons Ratio (z) = -0.14583 0.67941
#
# Static dielectric constant tensor:
#      x y z
#    x 5.000620 0.000000 3.053220 
#    y 0.000000 1.773550 0.000000 
#    z 3.053220 0.000000 5.878710 
# 
# From -- ./inp_files/6529.got.cif
#   From: 2010.05.17/outbox.cif.g08.bks.cpg/sg14_4_cif.got.tgz:6529.got - 2010.06.03 17:49:19.
