data_PCOD9248824
_publ_section_title
;
Structure prediction by ZEFSAII (Michael W. Deem and Ramdas Pophale) SiO2 
 PCOD9248824
Probable space group: P 21/C
;
_chemical_formula_sum "Si O2"
_cell_formula_units_Z 20
_cell_length_a 5.499094
_cell_length_b 18.275916
_cell_length_c 7.798447
_cell_angle_alpha 90.000000
_cell_angle_beta 82.481098
_cell_angle_gamma 90.000000
_cell_volume 777.012672
_symmetry_space_group_name_H-M "P 21/C"
_symmetry_group_IT_number 14
_symmetry_cell_setting 'monoclinic'
loop_
_space_group_symop_operation_xyz
x,y,z
-x,1/2+y,1/2-z
-x,-y,-z
x,1/2-y,1/2+z
loop_
_atom_site_type_symbol
_atom_site_label
_atom_site_fract_x
_atom_site_fract_y
_atom_site_fract_z
Si Si1 0.599200 0.172821 0.390748
Si Si2 0.898166 0.394666 0.174921
Si Si3 0.218991 0.051323 0.907581
Si Si4 0.616696 0.531315 0.160874
Si Si5 0.444524 0.833110 0.988358
O O1 0.799630 0.143006 0.509893
O O2 0.376379 0.115958 0.384667
O O3 0.499487 0.250269 0.462090
O O4 0.689622 0.173695 0.184030
O O5 0.853068 0.482257 0.165631
O O6 0.724367 0.363875 0.343145
O O7 0.155429 0.396410 0.250099
O O8 0.423635 0.994646 0.823136
O O9 0.324409 0.111095 0.031504
O O10 0.000000 0.000000 0.000000
O O11 0.500000 0.500000 0.000000
#
# Coordination Sequence:
#
# PCOD9248824 Si02
#       5
#     4   4   4   4   4
#     4  11  21  41  67  92 133 184 219 276 345 408
#     4  10  22  44  67  99 132 177 230 278 343 412
#     4  11  23  43  71 105 133 176 235 287 338 409
#     4   9  21  40  70  95 130 172 224 278 337 406
#     4  11  23  43  64  96 141 181 223 282 349 405
#
# _framework density 25.739606999999999
#
# number of rings (size 3 to 8) (size 9 to 14) (size 15 to 20)
#    0.000    1.600    2.000    2.400    0.000    6.400 
#    3.600   12.000    0.000    0.000    0.000    0.000 
#    0.000    0.000    0.000    0.000    0.000    0.000 
#
# Total GULP energy -111596.035881 kJ/mol
# GULP energy per Si atom -5579.801794 kJ/mol
# Density = 2.568102 g / cm^3
# Si number density = 25.739607 Si / 1000 Ang^3
#
#
#
# Elastic Constant Matrix: (Units=GPa)
#
#
# Indices 1 2 3 4 5 6 
#
# 1 43.0475 29.6183 45.2134 0.0000 5.3141 0.0000
# 2 29.6183 198.8134 53.4092 0.0000 15.4048 0.0000
# 3 45.2134 53.4092 249.6624 0.0000 29.6305 0.0000
# 4 0.0000 0.0000 0.0000 45.8406 0.0000 10.5405
# 5 5.3141 15.4048 29.6305 0.0000 51.4785 0.0000
# 6 0.0000 0.0000 0.0000 10.5405 0.0000 12.4943
#
#
#
# Elastic Compliance Matrix: (Units=1/GPa)
#
#
# Indices 1 2 3 4 5 6 
#
# 1 0.030567 -0.003285 -0.004911 0.000000 0.000654 0.000000
# 2 -0.003285 0.005739 -0.000504 0.000000 -0.001088 0.000000
# 3 -0.004911 -0.000504 0.005285 0.000000 -0.002385 0.000000
# 4 0.000000 0.000000 0.000000 0.027065 0.000000 -0.022832
# 5 0.000654 -0.001088 -0.002385 0.000000 0.021056 0.000000
# 6 0.000000 0.000000 0.000000 -0.022832 0.000000 0.099298
#
#
# Mechanical properties :
#
#
# Convention : Reuss Voigt Hill
#
# Bulk Modulus (GPa) = 41.33439 83.11169 62.22304
# Shear Modulus (GPa) = 23.31287 46.18153 34.74720
#
# Velocity S-wave (km/s) = 3.01278 4.24037 3.67815
# Velocity P-wave (km/s) = 5.30999 7.50559 6.50115
#
# Compressibility (1/GPa) = 0.02419293
#
# Stress axis : x y z
#
# Youngs Moduli (GPa) = 32.71456 174.25000 189.19914
#
# Poissons Ratio (x) = 0.57247 0.92907
# Poissons Ratio (y) = 0.10748 0.09527
# Poissons Ratio (z) = 0.16065 0.08774
#
# Static dielectric constant tensor:
#      x y z
#    x 2.105630 0.000000 -0.028950 
#    y 0.000000 2.053290 0.000000 
#    z -0.028950 0.000000 2.191800 
# 
# From -- ./inp_files/5536.got.cif
#   From: 2010.05.17/outbox.cif.g08.bks.cpg/sg14_3_cif.got.tgz:5536.got - 2010.06.03 17:49:19.
