data_PCOD9248443
_publ_section_title
;
Structure prediction by ZEFSAII (Michael W. Deem and Ramdas Pophale) SiO2 
 PCOD9248443
Probable space group: P 21/C
;
_chemical_formula_sum "Si O2"
_cell_formula_units_Z 32
_cell_length_a 6.746792
_cell_length_b 11.013681
_cell_length_c 22.391702
_cell_angle_alpha 90.000000
_cell_angle_beta 59.904167
_cell_angle_gamma 90.000000
_cell_volume 1439.551988
_symmetry_space_group_name_H-M "P 21/C"
_symmetry_group_IT_number 14
_symmetry_cell_setting 'monoclinic'
loop_
_space_group_symop_operation_xyz
x,y,z
-x,1/2+y,1/2-z
-x,-y,-z
x,1/2-y,1/2+z
loop_
_atom_site_type_symbol
_atom_site_label
_atom_site_fract_x
_atom_site_fract_y
_atom_site_fract_z
Si Si1 0.872995 0.865069 0.698857
Si Si2 0.775458 0.991650 0.494712
Si Si3 0.623663 0.351373 0.909913
Si Si4 0.252293 0.640936 0.790714
Si Si5 0.356289 0.202256 0.861777
Si Si6 0.083397 0.963938 0.922348
Si Si7 0.500161 0.725028 0.350135
Si Si8 0.822841 0.750461 0.905003
O O1 0.770115 0.812049 0.652791
O O2 0.709531 0.816605 0.776060
O O3 0.143571 0.839845 0.663003
O O4 0.843461 0.007989 0.701344
O O5 0.552669 0.963837 0.568820
O O6 0.809845 0.867248 0.450196
O O7 0.726076 0.108581 0.459888
O O8 0.000000 0.000000 0.500000
O O9 0.460225 0.240765 0.910949
O O10 0.425793 0.669202 0.711638
O O11 0.386485 0.663084 0.832436
O O12 0.034959 0.728102 0.828169
O O13 0.176253 0.091871 0.883574
O O14 0.304844 0.876964 0.885034
O O15 0.882384 0.880999 0.924567
O O16 0.000000 0.000000 0.000000
O O17 0.595247 0.747114 0.400966
#
# Coordination Sequence:
#
# PCOD9248443 Si02
#       8
#     4   4   4   4   4   4   4   4
#     4  11  22  43  69 101 135 179 227 289 339 406
#     4  11  25  44  67 101 136 177 232 291 348 408
#     4  11  24  39  69  99 132 177 226 282 340 414
#     4  10  22  42  68  98 140 173 223 287 345 404
#     4  11  24  43  67 102 139 181 229 283 352 407
#     4  11  25  45  68  97 139 184 228 286 337 417
#     4  10  24  43  68  99 133 182 225 279 347 410
#     4  11  24  45  69  98 134 181 232 279 348 415
#
# _framework density 22.229140000000001
#
# number of rings (size 3 to 8) (size 9 to 14) (size 15 to 20)
#    0.000    1.250    2.500    2.250    1.750    5.500 
#    4.500    0.000    0.000    0.000    0.000    0.000 
#    0.000    0.000    0.000    0.000    0.000    0.000 
#
# Total GULP energy -178514.407176 kJ/mol
# GULP energy per Si atom -5578.575224 kJ/mol
# Density = 2.217855 g / cm^3
# Si number density = 22.229140 Si / 1000 Ang^3
#
#
#
# Elastic Constant Matrix: (Units=GPa)
#
#
# Indices 1 2 3 4 5 6 
#
# 1 121.9187 12.0476 15.2347 0.0000 17.9448 0.0000
# 2 12.0476 40.8677 2.2266 0.0000 20.5795 0.0000
# 3 15.2347 2.2266 62.2944 0.0000 -14.0546 0.0000
# 4 0.0000 0.0000 0.0000 26.6568 0.0000 -8.5074
# 5 17.9448 20.5795 -14.0546 0.0000 45.8114 0.0000
# 6 0.0000 0.0000 0.0000 -8.5074 0.0000 26.6904
#
#
#
# Elastic Compliance Matrix: (Units=1/GPa)
#
#
# Indices 1 2 3 4 5 6 
#
# 1 0.009307 -0.000286 -0.003287 0.000000 -0.004526 0.000000
# 2 -0.000286 0.032941 -0.004750 0.000000 -0.016143 0.000000
# 3 -0.003287 -0.004750 0.019122 0.000000 0.009288 0.000000
# 4 0.000000 0.000000 0.000000 0.041762 0.000000 0.013311
# 5 -0.004526 -0.016143 0.009288 0.000000 0.033703 0.000000
# 6 0.000000 0.000000 0.000000 0.013311 0.000000 0.041709
#
#
# Mechanical properties :
#
#
# Convention : Reuss Voigt Hill
#
# Bulk Modulus (GPa) = 22.35851 31.56652 26.96252
# Shear Modulus (GPa) = 23.79834 32.86986 28.33410
#
# Velocity S-wave (km/s) = 3.27554 3.84954 3.57408
# Velocity P-wave (km/s) = 4.93818 5.83009 5.40257
#
# Compressibility (1/GPa) = 0.04472571
#
# Stress axis : x y z
#
# Youngs Moduli (GPa) = 107.44237 30.35695 52.29590
#
# Poissons Ratio (x) = 0.00867 0.17190
# Poissons Ratio (y) = 0.03068 0.24840
# Poissons Ratio (z) = 0.35318 0.14419
#
# Static dielectric constant tensor:
#      x y z
#    x 1.823970 0.000000 0.007940 
#    y 0.000000 1.894190 0.000000 
#    z 0.007940 0.000000 1.858160 
# 
# From -- ./inp_files/71304.got.cif
#   From: 2010.05.17/outbox.cif.g08.bks.cpg/sg14_36_cif.got.tgz:71304.got - 2010.06.03 17:49:19.
