data_PCOD9248059
_publ_section_title
;
Structure prediction by ZEFSAII (Michael W. Deem and Ramdas Pophale) SiO2 
 PCOD9248059
Probable space group: P 21/C
;
_chemical_formula_sum "Si O2"
_cell_formula_units_Z 32
_cell_length_a 21.369125
_cell_length_b 11.444810
_cell_length_c 13.517062
_cell_angle_alpha 90.000000
_cell_angle_beta 152.473952
_cell_angle_gamma 90.000000
_cell_volume 1527.785210
_symmetry_space_group_name_H-M "P 21/C"
_symmetry_group_IT_number 14
_symmetry_cell_setting 'monoclinic'
loop_
_space_group_symop_operation_xyz
x,y,z
-x,1/2+y,1/2-z
-x,-y,-z
x,1/2-y,1/2+z
loop_
_atom_site_type_symbol
_atom_site_label
_atom_site_fract_x
_atom_site_fract_y
_atom_site_fract_z
Si Si1 0.432256 0.227874 0.051358
Si Si2 0.339814 0.803459 0.470751
Si Si3 0.371379 0.468695 0.888177
Si Si4 0.750742 0.910982 0.332112
Si Si5 0.964391 0.999182 0.335619
Si Si6 0.848657 0.820195 0.036100
Si Si7 0.350296 0.656452 0.299788
Si Si8 0.132644 0.747922 0.347466
O O1 0.524975 0.190359 0.272532
O O2 0.520771 0.208335 0.075634
O O3 0.404383 0.365660 0.012760
O O4 0.300796 0.150065 0.842009
O O5 0.347362 0.690397 0.410441
O O6 0.212177 0.799395 0.365150
O O7 0.330687 0.914486 0.387203
O O8 0.251761 0.412380 0.655482
O O9 0.500000 0.500000 0.000000
O O10 0.770899 0.803152 0.435166
O O11 0.894606 0.973779 0.521339
O O12 0.655212 0.018009 0.226196
O O13 0.871394 0.109071 0.176030
O O14 0.901736 0.878614 0.210324
O O15 0.000000 0.000000 0.500000
O O16 0.980278 0.793256 0.152248
O O17 0.221836 0.716991 0.066984
#
# Coordination Sequence:
#
# PCOD9248059 Si02
#       8
#     4   4   4   4   4   4   4   4
#     4  10  24  41  62  98 132 170 230 269 333 402
#     4  11  24  39  70  95 133 180 217 280 332 402
#     4  11  23  45  66  96 132 176 221 277 335 400
#     4  10  22  41  63  93 134 171 222 276 335 398
#     4  11  22  41  67  95 130 174 226 279 335 407
#     4  10  23  43  65  94 136 174 219 282 336 398
#     4  11  20  42  66  96 132 178 220 273 334 399
#     4  10  23  41  63 101 128 171 230 268 340 401
#
# _framework density 20.945352
#
# number of rings (size 3 to 8) (size 9 to 14) (size 15 to 20)
#    0.000    1.500    2.500    1.875    3.500    1.500 
#    0.000    5.000    0.000    0.000    0.000    0.000 
#    0.000    0.000    0.000    0.000    0.000    0.000 
#
# Total GULP energy -178764.688000 kJ/mol
# GULP energy per Si atom -5586.396500 kJ/mol
# Density = 2.089768 g / cm^3
# Si number density = 20.945352 Si / 1000 Ang^3
#
#
#
# Elastic Constant Matrix: (Units=GPa)
#
#
# Indices 1 2 3 4 5 6 
#
# 1 37.5388 15.8124 15.1738 0.0000 -12.9491 0.0000
# 2 15.8124 131.4544 42.5702 0.0000 -9.6715 0.0000
# 3 15.1738 42.5702 86.5698 0.0000 -8.3045 0.0000
# 4 0.0000 0.0000 0.0000 39.5730 0.0000 -0.1925
# 5 -12.9491 -9.6715 -8.3045 0.0000 28.0724 0.0000
# 6 0.0000 0.0000 0.0000 -0.1925 0.0000 12.4229
#
#
#
# Elastic Compliance Matrix: (Units=1/GPa)
#
#
# Indices 1 2 3 4 5 6 
#
# 1 0.033662 -0.001845 -0.003668 0.000000 0.013806 0.000000
# 2 -0.001845 0.009244 -0.004115 0.000000 0.001116 0.000000
# 3 -0.003668 -0.004115 0.014326 0.000000 0.001128 0.000000
# 4 0.000000 0.000000 0.000000 0.025272 0.000000 0.000392
# 5 0.013806 0.001116 0.001128 0.000000 0.042709 0.000000
# 6 0.000000 0.000000 0.000000 0.000392 0.000000 0.080503
#
#
# Mechanical properties :
#
#
# Convention : Reuss Voigt Hill
#
# Bulk Modulus (GPa) = 26.33365 44.74177 35.53771
# Shear Modulus (GPa) = 21.04103 28.14744 24.59423
#
# Velocity S-wave (km/s) = 3.17293 3.66983 3.43039
# Velocity P-wave (km/s) = 5.10129 6.27411 5.71785
#
# Compressibility (1/GPa) = 0.03797423
#
# Stress axis : x y z
#
# Youngs Moduli (GPa) = 29.70731 108.17901 69.80238
#
# Poissons Ratio (x) = 0.19963 0.25606
# Poissons Ratio (y) = 0.05482 0.28725
# Poissons Ratio (z) = 0.10897 0.44517
#
# Static dielectric constant tensor:
#      x y z
#    x 1.749740 0.000000 0.038090 
#    y 0.000000 1.757480 0.000000 
#    z 0.038090 0.000000 1.777390 
# 
# From -- ./inp_files/35297.got.cif
#   From: 2010.05.17/outbox.cif.g08.bks.cpg/sg14_18_cif.got.tgz:35297.got - 2010.06.03 17:49:19.
