data_PCOD9248805
_publ_section_title
;
Structure prediction by ZEFSAII (Michael W. Deem and Ramdas Pophale) SiO2 
 PCOD9248805
Probable space group: P 21/C
;
_chemical_formula_sum "Si O2"
_cell_formula_units_Z 28
_cell_length_a 18.618871
_cell_length_b 11.394263
_cell_length_c 11.339127
_cell_angle_alpha 90.000000
_cell_angle_beta 152.566140
_cell_angle_gamma 90.000000
_cell_volume 1108.307805
_symmetry_space_group_name_H-M "P 21/C"
_symmetry_group_IT_number 14
_symmetry_cell_setting 'monoclinic'
loop_
_space_group_symop_operation_xyz
x,y,z
-x,1/2+y,1/2-z
-x,-y,-z
x,1/2-y,1/2+z
loop_
_atom_site_type_symbol
_atom_site_label
_atom_site_fract_x
_atom_site_fract_y
_atom_site_fract_z
Si Si1 0.146447 0.047286 0.985419
Si Si2 0.810019 0.118605 0.541528
Si Si3 0.117841 0.829136 0.100826
Si Si4 0.398700 0.100013 0.167482
Si Si5 0.653435 0.582034 0.663598
Si Si6 0.793479 0.728416 0.237806
Si Si7 0.395576 0.756280 0.386544
O O1 0.251520 0.049246 0.022836
O O2 0.233528 0.118327 0.217459
O O3 0.108939 0.918953 0.979747
O O4 0.982445 0.116768 0.737016
O O5 0.833553 0.096352 0.713027
O O6 0.710846 0.238367 0.384912
O O7 0.711753 0.019958 0.331687
O O8 0.254283 0.735117 0.274010
O O9 0.948703 0.782842 0.888760
O O10 0.534154 0.122938 0.459750
O O11 0.422398 0.042164 0.073357
O O12 0.349972 0.232201 0.052822
O O13 0.800396 0.659282 0.834885
O O14 0.538469 0.670935 0.563424
#
# Coordination Sequence:
#
# PCOD9248805 Si02
#       7
#     4   4   4   4   4   4   4
#     4  11  23  42  72 100 139 183 235 284 344 418
#     4  11  25  45  69 107 132 185 238 284 346 414
#     4  11  26  43  71 106 138 181 234 291 345 417
#     4  10  22  44  67 103 134 185 225 283 356 403
#     4  10  24  44  72  96 142 181 228 288 346 415
#     4   9  21  44  68  99 136 183 224 283 346 416
#     4  12  24  44  67 102 140 178 228 290 346 415
#
# _framework density 25.263742000000001
#
# number of rings (size 3 to 8) (size 9 to 14) (size 15 to 20)
#    0.857    0.571    1.429    3.857    4.000    3.429 
#    5.143    0.000    0.000    0.000    0.000    0.000 
#    0.000    0.000    0.000    0.000    0.000    0.000 
#
# Total GULP energy -156160.265157 kJ/mol
# GULP energy per Si atom -5577.152327 kJ/mol
# Density = 2.520624 g / cm^3
# Si number density = 25.263742 Si / 1000 Ang^3
#
#
#
# Elastic Constant Matrix: (Units=GPa)
#
#
# Indices 1 2 3 4 5 6 
#
# 1 122.5564 24.0573 14.5802 0.0000 6.9221 0.0000
# 2 24.0573 52.7699 14.5066 0.0000 -1.1491 0.0000
# 3 14.5802 14.5066 68.1182 0.0000 -6.1963 0.0000
# 4 0.0000 0.0000 0.0000 30.1558 0.0000 3.5901
# 5 6.9221 -1.1491 -6.1963 0.0000 34.2572 0.0000
# 6 0.0000 0.0000 0.0000 3.5901 0.0000 45.6940
#
#
#
# Elastic Compliance Matrix: (Units=1/GPa)
#
#
# Indices 1 2 3 4 5 6 
#
# 1 0.009207 -0.003875 -0.001349 0.000000 -0.002234 0.000000
# 2 -0.003875 0.021760 -0.003728 0.000000 0.000839 0.000000
# 3 -0.001349 -0.003728 0.016040 0.000000 0.003049 0.000000
# 4 0.000000 0.000000 0.000000 0.033474 0.000000 -0.002630
# 5 -0.002234 0.000839 0.003049 0.000000 0.030222 0.000000
# 6 0.000000 0.000000 0.000000 -0.002630 0.000000 0.022091
#
#
# Mechanical properties :
#
#
# Convention : Reuss Voigt Hill
#
# Bulk Modulus (GPa) = 34.36083 38.85919 36.61001
# Shear Modulus (GPa) = 31.17204 34.70809 32.94006
#
# Velocity S-wave (km/s) = 3.51645 3.71054 3.61480
# Velocity P-wave (km/s) = 5.48795 5.81139 5.65199
#
# Compressibility (1/GPa) = 0.02910290
#
# Stress axis : x y z
#
# Youngs Moduli (GPa) = 108.61499 45.95572 62.34282
#
# Poissons Ratio (x) = 0.17809 0.08408
# Poissons Ratio (y) = 0.42091 0.23244
# Poissons Ratio (z) = 0.14648 0.17134
#
# Static dielectric constant tensor:
#      x y z
#    x 1.976010 0.000000 -0.013420 
#    y 0.000000 2.099340 0.000000 
#    z -0.013420 0.000000 2.061500 
# 
# From -- ./inp_files/34113.got.cif
#   From: 2010.05.17/outbox.cif.g08.bks.cpg/sg14_18_cif.got.tgz:34113.got - 2010.06.03 17:49:19.
