data_PCOD9248593
_publ_section_title
;
Structure prediction by ZEFSAII (Michael W. Deem and Ramdas Pophale) SiO2 
 PCOD9248593
Probable space group: P 21/C
;
_chemical_formula_sum "Si O2"
_cell_formula_units_Z 30
_cell_length_a 11.873969
_cell_length_b 8.354542
_cell_length_c 14.952836
_cell_angle_alpha 90.000000
_cell_angle_beta 115.874899
_cell_angle_gamma 90.000000
_cell_volume 1334.638123
_symmetry_space_group_name_H-M "P 21/C"
_symmetry_group_IT_number 14
_symmetry_cell_setting 'monoclinic'
loop_
_space_group_symop_operation_xyz
x,y,z
-x,1/2+y,1/2-z
-x,-y,-z
x,1/2-y,1/2+z
loop_
_atom_site_type_symbol
_atom_site_label
_atom_site_fract_x
_atom_site_fract_y
_atom_site_fract_z
Si Si1 0.512007 0.054069 0.345560
Si Si2 0.843398 0.866017 0.911575
Si Si3 0.751559 0.093487 0.725702
Si Si4 0.097142 0.887833 0.920498
Si Si5 0.237551 0.931078 0.469309
Si Si6 0.649223 0.648278 0.756156
Si Si7 0.000000 0.500000 0.000000
Si Si8 0.861384 0.443731 0.762819
O O1 0.618988 0.040543 0.456547
O O2 0.450589 0.229727 0.320179
O O3 0.396222 0.934481 0.317245
O O4 0.580590 0.000775 0.278021
O O5 0.724823 0.753550 0.856384
O O6 0.980234 0.797023 0.930361
O O7 0.819899 0.003589 0.829941
O O8 0.866033 0.954194 0.012373
O O9 0.788558 0.022605 0.641987
O O10 0.788568 0.276677 0.743683
O O11 0.207920 0.759463 0.962790
O O12 0.069843 0.933761 0.809037
O O13 0.144178 0.005089 0.508958
O O14 0.758385 0.585497 0.728881
O O15 0.054134 0.540695 0.120797
#
# Coordination Sequence:
#
# PCOD9248593 Si02
#       8
#     4   4   4   4   4   4   2   4
#     4  11  24  43  69  96 136 174 230 274 333 397
#     4  10  22  43  65  98 133 180 219 272 338 399
#     4  10  23  44  69  95 138 174 224 278 334 393
#     4  10  23  42  67  96 139 172 221 275 340 401
#     4  11  23  41  67 102 132 179 223 280 330 401
#     4  11  24  42  68  96 132 179 225 276 336 396
#     4  12  22  38  70  98 136 166 222 270 336 396
#     4  11  23  44  67 102 131 176 221 278 338 401
#
# _framework density 22.478002
#
# number of rings (size 3 to 8) (size 9 to 14) (size 15 to 20)
#    0.000    1.333    1.333    3.600    3.733    2.133 
#    7.200    1.333    0.000    0.000    0.000    0.000 
#    0.000    0.000    0.000    0.000    0.000    0.000 
#
# Total GULP energy -167309.777501 kJ/mol
# GULP energy per Si atom -5576.992583 kJ/mol
# Density = 2.242684 g / cm^3
# Si number density = 22.478002 Si / 1000 Ang^3
#
#
#
# Elastic Constant Matrix: (Units=GPa)
#
#
# Indices 1 2 3 4 5 6 
#
# 1 86.1500 4.5436 34.5116 0.0000 7.7908 0.0000
# 2 4.5436 36.9653 13.5330 0.0000 9.8396 0.0000
# 3 34.5116 13.5330 125.2976 0.0000 -0.7413 0.0000
# 4 0.0000 0.0000 0.0000 31.0490 0.0000 4.2432
# 5 7.7908 9.8396 -0.7413 0.0000 41.1946 0.0000
# 6 0.0000 0.0000 0.0000 4.2432 0.0000 31.5684
#
#
#
# Elastic Compliance Matrix: (Units=1/GPa)
#
#
# Indices 1 2 3 4 5 6 
#
# 1 0.013324 0.000446 -0.003734 0.000000 -0.002694 0.000000
# 2 0.000446 0.030213 -0.003430 0.000000 -0.007363 0.000000
# 3 -0.003734 -0.003430 0.009390 0.000000 0.001694 0.000000
# 4 0.000000 0.000000 0.000000 0.032810 0.000000 -0.004410
# 5 -0.002694 -0.007363 0.001694 0.000000 0.026574 0.000000
# 6 0.000000 0.000000 0.000000 -0.004410 0.000000 0.032270
#
#
# Mechanical properties :
#
#
# Convention : Reuss Voigt Hill
#
# Bulk Modulus (GPa) = 25.32172 39.28769 32.30471
# Shear Modulus (GPa) = 29.20929 33.81738 31.51333
#
# Velocity S-wave (km/s) = 3.60871 3.88295 3.74834
# Velocity P-wave (km/s) = 5.35288 6.13346 5.75642
#
# Compressibility (1/GPa) = 0.03949178
#
# Stress axis : x y z
#
# Youngs Moduli (GPa) = 75.05521 33.09835 106.49722
#
# Poissons Ratio (x) = -0.01477 0.39765
# Poissons Ratio (y) = -0.03350 0.36525
# Poissons Ratio (z) = 0.28025 0.11352
#
# Static dielectric constant tensor:
#      x y z
#    x 1.828690 0.000000 -0.080520 
#    y 0.000000 2.556040 0.000000 
#    z -0.080520 0.000000 1.663420 
# 
# From -- ./inp_files/43800.got.cif
#   From: 2010.05.17/outbox.cif.g08.bks.cpg/sg14_22_cif.got.tgz:43800.got - 2010.06.03 17:49:19.
