data_PCOD9248060
_publ_section_title
;
Structure prediction by ZEFSAII (Michael W. Deem and Ramdas Pophale) SiO2 
 PCOD9248060
Probable space group: P 21/C
;
_chemical_formula_sum "Si O2"
_cell_formula_units_Z 20
_cell_length_a 7.541462
_cell_length_b 24.202422
_cell_length_c 5.357082
_cell_angle_alpha 90.000000
_cell_angle_beta 61.676512
_cell_angle_gamma 90.000000
_cell_volume 860.726057
_symmetry_space_group_name_H-M "P 21/C"
_symmetry_group_IT_number 14
_symmetry_cell_setting 'monoclinic'
loop_
_space_group_symop_operation_xyz
x,y,z
-x,1/2+y,1/2-z
-x,-y,-z
x,1/2-y,1/2+z
loop_
_atom_site_type_symbol
_atom_site_label
_atom_site_fract_x
_atom_site_fract_y
_atom_site_fract_z
Si Si1 0.935299 0.400169 0.946391
Si Si2 0.670100 0.763314 0.331635
Si Si3 0.419947 0.832846 0.193184
Si Si4 0.473539 0.549714 0.703839
Si Si5 0.884582 0.943607 0.157922
O O1 0.055206 0.401649 0.608743
O O2 0.000000 0.500000 0.500000
O O3 0.750466 0.443998 0.041020
O O4 0.051213 0.420320 0.116113
O O5 0.558920 0.820200 0.343950
O O6 0.486555 0.718341 0.480525
O O7 0.785603 0.756738 0.510081
O O8 0.489388 0.891939 0.042884
O O9 0.188694 0.843738 0.417295
O O10 0.500000 0.500000 0.500000
O O11 0.646674 0.547794 0.792636
#
# Coordination Sequence:
#
# PCOD9248060 Si02
#       5
#     4   4   4   4   4
#     4  10  25  38  62  89 123 160 208 249 306 363
#     4   8  16  32  60  86 111 155 209 241 308 365
#     4   8  19  36  61  91 114 165 201 254 308 367
#     4  10  22  41  63  94 124 170 204 252 315 370
#     4  12  23  41  59  90 130 164 207 252 299 373
#
# _framework density 23.236197000000001
#
# number of rings (size 3 to 8) (size 9 to 14) (size 15 to 20)
#    2.400    0.000    2.000    0.600    2.800    2.400 
#    3.600    0.000    0.000    7.200    0.000    0.000 
#    0.000    0.000    0.000    0.000    0.000    0.000 
#
# Total GULP energy -111336.847706 kJ/mol
# GULP energy per Si atom -5566.842385 kJ/mol
# Density = 2.318331 g / cm^3
# Si number density = 23.236197 Si / 1000 Ang^3
#
#
#
# Elastic Constant Matrix: (Units=GPa)
#
#
# Indices 1 2 3 4 5 6 
#
# 1 112.4688 -3.7404 45.5679 0.0000 15.9639 0.0000
# 2 -3.7404 93.8074 0.9046 0.0000 -11.4227 0.0000
# 3 45.5679 0.9046 122.9788 0.0000 8.5124 0.0000
# 4 0.0000 0.0000 0.0000 28.3471 0.0000 -8.2829
# 5 15.9639 -11.4227 8.5124 0.0000 24.5742 0.0000
# 6 0.0000 0.0000 0.0000 -8.2829 0.0000 6.5250
#
#
#
# Elastic Compliance Matrix: (Units=1/GPa)
#
#
# Indices 1 2 3 4 5 6 
#
# 1 0.011275 -0.000263 -0.003750 0.000000 -0.006147 0.000000
# 2 -0.000263 0.011331 -0.000371 0.000000 0.005566 0.000000
# 3 -0.003750 -0.000371 0.009597 0.000000 -0.001061 0.000000
# 4 0.000000 0.000000 0.000000 0.056077 0.000000 0.071185
# 5 -0.006147 0.005566 -0.001061 0.000000 0.047641 0.000000
# 6 0.000000 0.000000 0.000000 0.071185 0.000000 0.243619
#
#
# Mechanical properties :
#
#
# Convention : Reuss Voigt Hill
#
# Bulk Modulus (GPa) = 42.67248 46.07993 44.37621
# Shear Modulus (GPa) = 12.62243 30.99077 21.80660
#
# Velocity S-wave (km/s) = 2.33324 3.65599 3.06678
# Velocity P-wave (km/s) = 5.06589 6.13969 5.62846
#
# Compressibility (1/GPa) = 0.02343430
#
# Stress axis : x y z
#
# Youngs Moduli (GPa) = 88.69493 88.25316 104.19690
#
# Poissons Ratio (x) = 0.02320 0.39076
# Poissons Ratio (y) = 0.02331 0.03868
# Poissons Ratio (z) = 0.33262 0.03276
#
# Static dielectric constant tensor:
#      x y z
#    x 1.870460 0.000000 -0.011430 
#    y 0.000000 2.009280 0.000000 
#    z -0.011430 0.000000 1.946080 
# 
# From -- ./inp_files/3008.got.cif
#   From: 2010.05.17/outbox.cif.g08.bks.cpg/sg14_2_cif.got.tgz:3008.got - 2010.06.03 17:49:19.
