data_PCOD9248643
_publ_section_title
;
Structure prediction by ZEFSAII (Michael W. Deem and Ramdas Pophale) SiO2 
 PCOD9248643
Probable space group: P 21/C
;
_chemical_formula_sum "Si O2"
_cell_formula_units_Z 32
_cell_length_a 5.094697
_cell_length_b 26.577145
_cell_length_c 10.208062
_cell_angle_alpha 90.000000
_cell_angle_beta 76.105143
_cell_angle_gamma 90.000000
_cell_volume 1341.751329
_symmetry_space_group_name_H-M "P 21/C"
_symmetry_group_IT_number 14
_symmetry_cell_setting 'monoclinic'
loop_
_space_group_symop_operation_xyz
x,y,z
-x,1/2+y,1/2-z
-x,-y,-z
x,1/2-y,1/2+z
loop_
_atom_site_type_symbol
_atom_site_label
_atom_site_fract_x
_atom_site_fract_y
_atom_site_fract_z
Si Si1 0.605637 0.185764 0.195170
Si Si2 0.788300 0.543238 0.301545
Si Si3 0.097320 0.289707 0.448896
Si Si4 0.592199 0.878574 0.993994
Si Si5 0.722194 0.777739 0.334924
Si Si6 0.870790 0.074787 0.799871
Si Si7 0.552162 0.607930 0.859407
Si Si8 0.651395 0.087883 0.338773
O O1 0.383734 0.153059 0.143267
O O2 0.484095 0.241161 0.219197
O O3 0.680474 0.147860 0.301907
O O4 0.843408 0.191726 0.061995
O O5 0.766923 0.572023 0.443748
O O6 0.811025 0.484090 0.316014
O O7 0.522354 0.559021 0.251370
O O8 0.052460 0.563954 0.196276
O O9 0.304318 0.336676 0.418398
O O10 0.038957 0.277693 0.303652
O O11 0.210679 0.246181 0.531742
O O12 0.293205 0.897337 0.065057
O O13 0.609216 0.832996 0.371405
O O14 0.716562 0.097250 0.691472
O O15 0.187506 0.084377 0.744196
O O16 0.504920 0.583500 0.006526
#
# Coordination Sequence:
#
# PCOD9248643 Si02
#       8
#     4   4   4   4   4   4   4   4
#     4  10  23  43  68  96 136 181 227 291 345 422
#     4  11  24  44  73 100 133 188 234 292 356 420
#     4  11  22  43  68  97 137 179 233 289 354 420
#     4  10  22  43  67  99 136 175 232 291 346 422
#     4  11  25  41  67 101 134 185 232 283 357 422
#     4  12  26  44  70 101 141 183 233 293 354 415
#     4  12  27  44  67 101 143 185 229 297 344 428
#     4  11  24  46  69 101 140 180 240 285 355 421
#
# _framework density 23.849428
#
# number of rings (size 3 to 8) (size 9 to 14) (size 15 to 20)
#    0.000    1.000    2.500    3.375    1.750    6.000 
#    0.000    3.125    0.000    0.000    0.000    0.000 
#    0.000    0.000    0.000    0.000    0.000    0.000 
#
# Total GULP energy -178857.589133 kJ/mol
# GULP energy per Si atom -5589.299660 kJ/mol
# Density = 2.379515 g / cm^3
# Si number density = 23.849428 Si / 1000 Ang^3
#
#
#
# Elastic Constant Matrix: (Units=GPa)
#
#
# Indices 1 2 3 4 5 6 
#
# 1 39.1033 0.4080 2.3825 0.0000 -4.8643 0.0000
# 2 0.4080 100.9968 12.2546 0.0000 -6.0103 0.0000
# 3 2.3825 12.2546 112.6110 0.0000 -7.8509 0.0000
# 4 0.0000 0.0000 0.0000 18.9969 0.0000 -6.3253
# 5 -4.8643 -6.0103 -7.8509 0.0000 36.9828 0.0000
# 6 0.0000 0.0000 0.0000 -6.3253 0.0000 27.7961
#
#
#
# Elastic Compliance Matrix: (Units=1/GPa)
#
#
# Indices 1 2 3 4 5 6 
#
# 1 0.026012 0.000136 -0.000330 0.000000 0.003373 0.000000
# 2 0.000136 0.010108 -0.001002 0.000000 0.001448 0.000000
# 3 -0.000330 -0.001002 0.009117 0.000000 0.001729 0.000000
# 4 0.000000 0.000000 0.000000 0.056955 0.000000 0.012961
# 5 0.003373 0.001448 0.001729 0.000000 0.028086 0.000000
# 6 0.000000 0.000000 0.000000 0.012961 0.000000 0.038926
#
#
# Mechanical properties :
#
#
# Convention : Reuss Voigt Hill
#
# Bulk Modulus (GPa) = 23.34025 31.42237 27.38131
# Shear Modulus (GPa) = 26.89945 32.59956 29.74951
#
# Velocity S-wave (km/s) = 3.36205 3.70116 3.53567
# Velocity P-wave (km/s) = 4.98787 5.60970 5.30790
#
# Compressibility (1/GPa) = 0.04284445
#
# Stress axis : x y z
#
# Youngs Moduli (GPa) = 38.44436 98.92665 109.68895
#
# Poissons Ratio (x) = -0.01342 0.03619
# Poissons Ratio (y) = -0.00522 0.10990
# Poissons Ratio (z) = 0.01268 0.09912
#
# Static dielectric constant tensor:
#      x y z
#    x 1.953050 0.000000 0.027610 
#    y 0.000000 1.947330 0.000000 
#    z 0.027610 0.000000 1.945200 
# 
# From -- ./inp_files/22294.got.cif
#   From: 2010.05.17/outbox.cif.g08.bks.cpg/sg14_12_cif.got.tgz:22294.got - 2010.06.03 17:49:19.
