data_PCOD9248700
_publ_section_title
;
Structure prediction by ZEFSAII (Michael W. Deem and Ramdas Pophale) SiO2 
 PCOD9248700
Probable space group: P 21/C
;
_chemical_formula_sum "Si O2"
_cell_formula_units_Z 32
_cell_length_a 18.260976
_cell_length_b 5.210807
_cell_length_c 14.144457
_cell_angle_alpha 90.000000
_cell_angle_beta 85.834232
_cell_angle_gamma 90.000000
_cell_volume 1342.351812
_symmetry_space_group_name_H-M "P 21/C"
_symmetry_group_IT_number 14
_symmetry_cell_setting 'monoclinic'
loop_
_space_group_symop_operation_xyz
x,y,z
-x,1/2+y,1/2-z
-x,-y,-z
x,1/2-y,1/2+z
loop_
_atom_site_type_symbol
_atom_site_label
_atom_site_fract_x
_atom_site_fract_y
_atom_site_fract_z
Si Si1 0.209028 0.774189 0.238028
Si Si2 0.275751 0.117912 0.379810
Si Si3 0.696796 0.241665 0.447411
Si Si4 0.569636 0.087897 0.831038
Si Si5 0.189912 0.505861 0.443864
Si Si6 0.954969 0.249025 0.029141
Si Si7 0.044483 0.899369 0.259427
Si Si8 0.408897 0.413168 0.293661
O O1 0.254522 0.648202 0.147740
O O2 0.200214 0.605676 0.334818
O O3 0.128362 0.879074 0.214099
O O4 0.259688 0.996009 0.278805
O O5 0.193748 0.203119 0.423351
O O6 0.335379 0.338028 0.354664
O O7 0.306945 0.943885 0.461376
O O8 0.619412 0.338153 0.415216
O O9 0.744991 0.469457 0.486817
O O10 0.590697 0.301927 0.749563
O O11 0.481943 0.115109 0.850379
O O12 0.583153 0.801561 0.789962
O O13 0.125810 0.671216 0.495544
O O14 0.948693 0.269084 0.140557
O O15 0.000000 0.500000 0.000000
O O16 0.000000 0.000000 0.000000
O O17 0.987225 0.688264 0.221368
#
# Coordination Sequence:
#
# PCOD9248700 Si02
#       8
#     4   4   4   4   4   4   4   4
#     4  10  24  44  66  90 141 177 224 286 352 407
#     4  11  24  42  69 101 140 184 236 290 347 417
#     4  11  24  41  68 102 135 181 237 286 351 416
#     4  10  22  43  70 102 140 190 232 280 355 415
#     4  10  26  42  66 100 134 179 231 285 346 416
#     4  11  26  45  70  95 139 179 220 286 350 408
#     4  11  26  44  67 100 129 174 232 278 340 414
#     4  10  22  43  71 100 143 189 230 286 348 417
#
# _framework density 23.838757000000001
#
# number of rings (size 3 to 8) (size 9 to 14) (size 15 to 20)
#    0.000    1.500    1.250    1.500   15.750    1.500 
#    0.000    0.625    0.000    0.000    0.000    0.000 
#    0.000    0.000    0.000    0.000    0.000    0.000 
#
# Total GULP energy -178356.160525 kJ/mol
# GULP energy per Si atom -5573.630016 kJ/mol
# Density = 2.378450 g / cm^3
# Si number density = 23.838757 Si / 1000 Ang^3
#
#
#
# Elastic Constant Matrix: (Units=GPa)
#
#
# Indices 1 2 3 4 5 6 
#
# 1 128.6582 30.0196 19.4704 0.0000 6.0340 0.0000
# 2 30.0196 80.6669 -2.5007 0.0000 -2.7847 0.0000
# 3 19.4704 -2.5007 87.2607 0.0000 6.9226 0.0000
# 4 0.0000 0.0000 0.0000 26.7840 0.0000 -10.9116
# 5 6.0340 -2.7847 6.9226 0.0000 33.0033 0.0000
# 6 0.0000 0.0000 0.0000 -10.9116 0.0000 31.9402
#
#
#
# Elastic Compliance Matrix: (Units=1/GPa)
#
#
# Indices 1 2 3 4 5 6 
#
# 1 0.008945 -0.003442 -0.001975 0.000000 -0.001512 0.000000
# 2 -0.003442 0.013764 0.001038 0.000000 0.001573 0.000000
# 3 -0.001975 0.001038 0.012096 0.000000 -0.002089 0.000000
# 4 0.000000 0.000000 0.000000 0.043372 0.000000 0.014817
# 5 -0.001512 0.001573 -0.002089 0.000000 0.031147 0.000000
# 6 0.000000 0.000000 0.000000 0.014817 0.000000 0.036370
#
#
# Mechanical properties :
#
#
# Convention : Reuss Voigt Hill
#
# Bulk Modulus (GPa) = 38.39227 43.39605 40.89416
# Shear Modulus (GPa) = 30.64922 34.98529 32.81725
#
# Velocity S-wave (km/s) = 3.58954 3.83506 3.71433
# Velocity P-wave (km/s) = 5.77232 6.15254 5.96546
#
# Compressibility (1/GPa) = 0.02604691
#
# Stress axis : x y z
#
# Youngs Moduli (GPa) = 111.78823 72.65226 82.67222
#
# Poissons Ratio (x) = 0.25010 0.16325
# Poissons Ratio (y) = 0.38482 -0.08579
# Poissons Ratio (z) = 0.22075 -0.07540
#
# Static dielectric constant tensor:
#      x y z
#    x 1.998340 0.000000 -0.038570 
#    y 0.000000 1.965740 0.000000 
#    z -0.038570 0.000000 1.922310 
# 
# From -- ./inp_files/48167.got.cif
#   From: 2010.05.17/outbox.cif.g08.bks.cpg/sg14_25_cif.got.tgz:48167.got - 2010.06.03 17:49:19.
