data_PCOD9248901
_publ_section_title
;
Structure prediction by ZEFSAII (Michael W. Deem and Ramdas Pophale) SiO2 
 PCOD9248901
Probable space group: P 21/C
;
_chemical_formula_sum "Si O2"
_cell_formula_units_Z 22
_cell_length_a 11.907441
_cell_length_b 8.032153
_cell_length_c 21.290954
_cell_angle_alpha 90.000000
_cell_angle_beta 22.283573
_cell_angle_gamma 90.000000
_cell_volume 772.153097
_symmetry_space_group_name_H-M "P 21/C"
_symmetry_group_IT_number 14
_symmetry_cell_setting 'monoclinic'
loop_
_space_group_symop_operation_xyz
x,y,z
-x,1/2+y,1/2-z
-x,-y,-z
x,1/2-y,1/2+z
loop_
_atom_site_type_symbol
_atom_site_label
_atom_site_fract_x
_atom_site_fract_y
_atom_site_fract_z
Si Si1 0.231420 0.762165 0.319502
Si Si2 0.500000 0.500000 0.500000
Si Si3 0.386503 0.963173 0.413351
Si Si4 0.633053 0.012263 0.047918
Si Si5 0.090605 0.302852 0.146749
Si Si6 0.079651 0.242062 0.888948
O O1 0.446289 0.603880 0.211316
O O2 0.051815 0.756256 0.347316
O O3 0.015289 0.738775 0.489496
O O4 0.460352 0.915032 0.191708
O O5 0.588324 0.594435 0.387591
O O6 0.825487 0.363505 0.326412
O O7 0.579207 0.800268 0.297413
O O8 0.066306 0.915961 0.554282
O O9 0.326433 0.048202 0.511828
O O10 0.716584 0.871062 0.945942
O O11 0.911645 0.105415 0.932191
#
# Coordination Sequence:
#
# PCOD9248901 Si02
#       6
#     4   2   4   4   4   4
#     4  10  22  44  71 100 143 194 236 292 368 440
#     4  10  24  46  72  96 136 192 242 304 354 408
#     4  11  26  40  66 106 146 188 238 298 365 439
#     4  10  23  45  72 102 141 188 245 297 356 443
#     4  10  23  47  71 101 139 188 249 298 362 431
#     4  12  25  42  68 109 149 188 235 301 370 442
#
# _framework density 28.491758000000001
#
# number of rings (size 3 to 8) (size 9 to 14) (size 15 to 20)
#    0.000    1.455    1.818    1.636   10.182    2.182 
#    0.000    0.909    0.000    0.000    0.000    0.000 
#    0.000    0.000    0.000    0.000    0.000    0.000 
#
# Total GULP energy -122675.595927 kJ/mol
# GULP energy per Si atom -5576.163451 kJ/mol
# Density = 2.842691 g / cm^3
# Si number density = 28.491758 Si / 1000 Ang^3
#
#
#
# Elastic Constant Matrix: (Units=GPa)
#
#
# Indices 1 2 3 4 5 6 
#
# 1 107.3510 19.3094 47.7316 0.0000 16.1998 0.0000
# 2 19.3094 78.1712 29.2815 0.0000 -3.5927 0.0000
# 3 47.7316 29.2815 178.5722 0.0000 -9.7267 0.0000
# 4 0.0000 0.0000 0.0000 71.1725 0.0000 -6.9656
# 5 16.1998 -3.5927 -9.7267 0.0000 41.0575 0.0000
# 6 0.0000 0.0000 0.0000 -6.9656 0.0000 46.0191
#
#
#
# Elastic Compliance Matrix: (Units=1/GPa)
#
#
# Indices 1 2 3 4 5 6 
#
# 1 0.011937 -0.002022 -0.003166 0.000000 -0.005637 0.000000
# 2 -0.002022 0.013990 -0.001665 0.000000 0.001627 0.000000
# 3 -0.003166 -0.001665 0.006868 0.000000 0.002731 0.000000
# 4 0.000000 0.000000 0.000000 0.014262 0.000000 0.002159
# 5 -0.005637 0.001627 0.002731 0.000000 0.027370 0.000000
# 6 0.000000 0.000000 0.000000 0.002159 0.000000 0.022057
#
#
# Mechanical properties :
#
#
# Convention : Reuss Voigt Hill
#
# Bulk Modulus (GPa) = 52.38454 61.85994 57.12224
# Shear Modulus (GPa) = 42.89880 49.50128 46.20004
#
# Velocity S-wave (km/s) = 3.88449 4.17272 4.03118
# Velocity P-wave (km/s) = 6.20844 6.70628 6.46216
#
# Compressibility (1/GPa) = 0.01908960
#
# Stress axis : x y z
#
# Youngs Moduli (GPa) = 83.77019 71.47802 145.60076
#
# Poissons Ratio (x) = 0.14451 0.46102
# Poissons Ratio (y) = 0.16936 0.24243
# Poissons Ratio (z) = 0.26525 0.11901
#
# Static dielectric constant tensor:
#      x y z
#    x 2.340630 0.000000 -0.022990 
#    y 0.000000 2.599770 0.000000 
#    z -0.022990 0.000000 2.242180 
# 
# From -- ./inp_files/73707.got.cif
#   From: 2010.05.17/outbox.cif.g08.bks.cpg/sg14_37_cif.got.tgz:73707.got - 2010.06.03 17:49:19.
