data_PCOD9248344
_publ_section_title
;
Structure prediction by ZEFSAII (Michael W. Deem and Ramdas Pophale) SiO2 
 PCOD9248344
Probable space group: P 21/C
;
_chemical_formula_sum "Si O2"
_cell_formula_units_Z 22
_cell_length_a 8.457354
_cell_length_b 13.247669
_cell_length_c 11.461853
_cell_angle_alpha 90.000000
_cell_angle_beta 49.633782
_cell_angle_gamma 90.000000
_cell_volume 978.449382
_symmetry_space_group_name_H-M "P 21/C"
_symmetry_group_IT_number 14
_symmetry_cell_setting 'monoclinic'
loop_
_space_group_symop_operation_xyz
x,y,z
-x,1/2+y,1/2-z
-x,-y,-z
x,1/2-y,1/2+z
loop_
_atom_site_type_symbol
_atom_site_label
_atom_site_fract_x
_atom_site_fract_y
_atom_site_fract_z
Si Si1 0.049895 0.576146 0.652975
Si Si2 0.737580 0.222095 0.510587
Si Si3 0.331137 0.936437 0.656394
Si Si4 0.012747 0.888923 0.440962
Si Si5 0.405967 0.141968 0.251194
Si Si6 0.500000 0.500000 0.500000
O O1 0.108370 0.682204 0.565699
O O2 0.267260 0.516478 0.552168
O O3 0.855067 0.508145 0.709338
O O4 0.000627 0.606866 0.809678
O O5 0.758263 0.148335 0.389977
O O6 0.508578 0.268770 0.626871
O O7 0.781124 0.161328 0.607556
O O8 0.447540 0.885996 0.709592
O O9 0.500000 0.000000 0.500000
O O10 0.815714 0.832429 0.589750
O O11 0.000000 0.000000 0.500000
O O12 0.392670 0.049272 0.168321
#
# Coordination Sequence:
#
# PCOD9248344 Si02
#       6
#     4   4   4   4   4   2
#     4  11  24  45  72 101 140 188 234 290 349 425
#     4  11  26  42  67 107 139 181 243 284 350 424
#     4  12  24  46  71 105 142 184 234 296 355 415
#     4  12  21  45  71  92 140 191 227 278 358 424
#     4  11  24  42  70 104 137 182 236 292 349 422
#     4  10  22  42  66 102 134 182 226 284 348 402
#
# _framework density 22.484556000000001
#
# number of rings (size 3 to 8) (size 9 to 14) (size 15 to 20)
#    0.000    0.727    5.455    1.091    2.545    2.909 
#    0.000    3.636    0.000    0.000    0.000    0.000 
#    0.000    0.000    0.000    0.000    0.000    0.000 
#
# Total GULP energy -122489.422374 kJ/mol
# GULP energy per Si atom -5567.701017 kJ/mol
# Density = 2.243338 g / cm^3
# Si number density = 22.484556 Si / 1000 Ang^3
#
#
#
# Elastic Constant Matrix: (Units=GPa)
#
#
# Indices 1 2 3 4 5 6 
#
# 1 66.8820 18.2664 -23.2188 0.0000 -5.2235 0.0000
# 2 18.2664 65.6620 -4.0888 0.0000 -13.7303 0.0000
# 3 -23.2188 -4.0888 63.9652 0.0000 -20.4304 0.0000
# 4 0.0000 0.0000 0.0000 27.3288 0.0000 -3.6743
# 5 -5.2235 -13.7303 -20.4304 0.0000 48.1956 0.0000
# 6 0.0000 0.0000 0.0000 -3.6743 0.0000 23.5028
#
#
#
# Elastic Compliance Matrix: (Units=1/GPa)
#
#
# Indices 1 2 3 4 5 6 
#
# 1 0.019183 -0.003909 0.008121 0.000000 0.004408 0.000000
# 2 -0.003909 0.017470 0.001333 0.000000 0.005118 0.000000
# 3 0.008121 0.001333 0.022055 0.000000 0.010609 0.000000
# 4 0.000000 0.000000 0.000000 0.037377 0.000000 0.005843
# 5 0.004408 0.005118 0.010609 0.000000 0.027182 0.000000
# 6 0.000000 0.000000 0.000000 0.005843 0.000000 0.043462
#
#
# Mechanical properties :
#
#
# Convention : Reuss Voigt Hill
#
# Bulk Modulus (GPa) = 14.32703 19.82521 17.07612
# Shear Modulus (GPa) = 27.94776 33.50880 30.72828
#
# Velocity S-wave (km/s) = 3.52941 3.86463 3.70082
# Velocity P-wave (km/s) = 4.79529 5.36192 5.08650
#
# Compressibility (1/GPa) = 0.06979814
#
# Stress axis : x y z
#
# Youngs Moduli (GPa) = 52.12953 57.24038 45.34078
#
# Poissons Ratio (x) = 0.22375 -0.36823
# Poissons Ratio (y) = 0.20377 -0.06042
# Poissons Ratio (z) = -0.42336 -0.07628
#
# Static dielectric constant tensor:
#      x y z
#    x 1.781330 0.000000 -0.046750 
#    y 0.000000 1.765980 0.000000 
#    z -0.046750 0.000000 1.817850 
# 
# From -- ./inp_files/24766.got.cif
#   From: 2010.05.17/outbox.cif.g08.bks.cpg/sg14_13_cif.got.tgz:24766.got - 2010.06.03 17:49:19.
