data_PCOD9248414
_publ_section_title
;
Structure prediction by ZEFSAII (Michael W. Deem and Ramdas Pophale) SiO2 
 PCOD9248414
Probable space group: P 21/C
;
_chemical_formula_sum "Si O2"
_cell_formula_units_Z 30
_cell_length_a 5.186434
_cell_length_b 9.963279
_cell_length_c 23.292353
_cell_angle_alpha 90.000000
_cell_angle_beta 69.917286
_cell_angle_gamma 90.000000
_cell_volume 1130.424651
_symmetry_space_group_name_H-M "P 21/C"
_symmetry_group_IT_number 14
_symmetry_cell_setting 'monoclinic'
loop_
_space_group_symop_operation_xyz
x,y,z
-x,1/2+y,1/2-z
-x,-y,-z
x,1/2-y,1/2+z
loop_
_atom_site_type_symbol
_atom_site_label
_atom_site_fract_x
_atom_site_fract_y
_atom_site_fract_z
Si Si1 0.445048 0.590384 0.601681
Si Si2 0.498603 0.155123 0.780241
Si Si3 0.179336 0.404642 0.784123
Si Si4 0.886658 0.564839 0.078048
Si Si5 0.989796 0.763351 0.421335
Si Si6 0.541104 0.309775 0.980744
Si Si7 0.000000 0.000000 0.000000
Si Si8 0.952324 0.423319 0.682971
O O1 0.423119 0.682372 0.659619
O O2 0.349454 0.664529 0.550738
O O3 0.747689 0.545987 0.562138
O O4 0.250045 0.469485 0.635378
O O5 0.408507 0.290605 0.756691
O O6 0.715202 0.055987 0.734227
O O7 0.236739 0.054570 0.806041
O O8 0.968453 0.383308 0.748398
O O9 0.105116 0.387925 0.856117
O O10 0.863128 0.404886 0.081832
O O11 0.191747 0.600655 0.032834
O O12 0.654781 0.632685 0.055829
O O13 0.660701 0.795473 0.449771
O O14 0.007639 0.651072 0.469198
O O15 0.105259 0.697463 0.355104
#
# Coordination Sequence:
#
# PCOD9248414 Si02
#       8
#     4   4   4   4   4   4   2   4
#     4  10  22  42  70  99 144 190 249 307 384 449
#     4  11  24  48  65 103 144 192 254 316 382 459
#     4  11  28  43  78 101 152 201 254 325 385 462
#     4  12  27  49  76 113 152 205 254 321 389 466
#     4  11  26  45  76 110 152 200 261 315 388 462
#     4  11  26  48  77 110 153 200 251 314 387 463
#     4  10  22  42  68 104 138 192 238 318 366 452
#     4  11  26  44  70 109 145 197 259 320 382 464
#
# _framework density 26.538699999999999
#
# number of rings (size 3 to 8) (size 9 to 14) (size 15 to 20)
#    0.000    1.067    2.667    1.600    5.600    6.400 
#    0.000    0.000    0.000    0.000    0.000    0.000 
#    0.000    0.000    0.000    0.000    0.000    0.000 
#
# Total GULP energy -167618.213535 kJ/mol
# GULP energy per Si atom -5587.273785 kJ/mol
# Density = 2.647830 g / cm^3
# Si number density = 26.538700 Si / 1000 Ang^3
#
#
#
# Elastic Constant Matrix: (Units=GPa)
#
#
# Indices 1 2 3 4 5 6 
#
# 1 93.4600 12.9149 35.7689 0.0000 11.3020 0.0000
# 2 12.9149 119.5392 15.1123 0.0000 1.8431 0.0000
# 3 35.7689 15.1123 144.6036 0.0000 3.4319 0.0000
# 4 0.0000 0.0000 0.0000 52.6782 0.0000 -2.3410
# 5 11.3020 1.8431 3.4319 0.0000 32.9008 0.0000
# 6 0.0000 0.0000 0.0000 -2.3410 0.0000 19.0917
#
#
#
# Elastic Compliance Matrix: (Units=1/GPa)
#
#
# Indices 1 2 3 4 5 6 
#
# 1 0.012401 -0.000916 -0.002879 0.000000 -0.003908 0.000000
# 2 -0.000916 0.008550 -0.000665 0.000000 -0.000095 0.000000
# 3 -0.002879 -0.000665 0.007692 0.000000 0.000224 0.000000
# 4 0.000000 0.000000 0.000000 0.019087 0.000000 0.002340
# 5 -0.003908 -0.000095 0.000224 0.000000 0.031719 0.000000
# 6 0.000000 0.000000 0.000000 0.002340 0.000000 0.052666
#
#
# Mechanical properties :
#
#
# Convention : Reuss Voigt Hill
#
# Bulk Modulus (GPa) = 50.70038 53.91054 52.30546
# Shear Modulus (GPa) = 33.87358 40.52124 37.19741
#
# Velocity S-wave (km/s) = 3.57653 3.91176 3.74790
# Velocity P-wave (km/s) = 6.01674 6.38440 6.20330
#
# Compressibility (1/GPa) = 0.01972372
#
# Stress axis : x y z
#
# Youngs Moduli (GPa) = 80.64025 116.96066 130.00915
#
# Poissons Ratio (x) = 0.10708 0.37429
# Poissons Ratio (y) = 0.07383 0.08643
# Poissons Ratio (z) = 0.23216 0.07776
#
# Static dielectric constant tensor:
#      x y z
#    x 2.182220 0.000000 0.047080 
#    y 0.000000 2.100330 0.000000 
#    z 0.047080 0.000000 1.919710 
# 
# From -- ./inp_files/75802.got.cif
#   From: 2010.05.17/outbox.cif.g08.bks.cpg/sg14_38_cif.got.tgz:75802.got - 2010.06.03 17:49:19.
