data_PCOD9248218
_publ_section_title
;
Structure prediction by ZEFSAII (Michael W. Deem and Ramdas Pophale) SiO2 
 PCOD9248218
Probable space group: P 21/C
;
_chemical_formula_sum "Si O2"
_cell_formula_units_Z 32
_cell_length_a 10.445477
_cell_length_b 18.290112
_cell_length_c 8.720956
_cell_angle_alpha 90.000000
_cell_angle_beta 131.756158
_cell_angle_gamma 90.000000
_cell_volume 1242.908906
_symmetry_space_group_name_H-M "P 21/C"
_symmetry_group_IT_number 14
_symmetry_cell_setting 'monoclinic'
loop_
_space_group_symop_operation_xyz
x,y,z
-x,1/2+y,1/2-z
-x,-y,-z
x,1/2-y,1/2+z
loop_
_atom_site_type_symbol
_atom_site_label
_atom_site_fract_x
_atom_site_fract_y
_atom_site_fract_z
Si Si1 0.593897 0.407636 0.712259
Si Si2 0.787295 0.909213 0.948103
Si Si3 0.871124 0.739410 0.028132
Si Si4 0.602954 0.859023 0.210079
Si Si5 0.416673 0.422776 0.980918
Si Si6 0.889786 0.217948 0.024595
Si Si7 0.157262 0.476126 0.226616
Si Si8 0.300018 0.670639 0.919828
O O1 0.408300 0.420989 0.642391
O O2 0.539108 0.350367 0.534787
O O3 0.686796 0.469431 0.688323
O O4 0.717070 0.386228 0.951613
O O5 0.856369 0.827363 0.033981
O O6 0.888319 0.967350 0.131279
O O7 0.765860 0.923147 0.750761
O O8 0.956671 0.696821 0.237841
O O9 0.005978 0.725829 0.999535
O O10 0.679685 0.714287 0.840516
O O11 0.564164 0.911476 0.322725
O O12 0.767752 0.898149 0.265467
O O13 0.511212 0.350429 0.988172
O O14 0.500000 0.500000 0.000000
O O15 0.803795 0.167840 0.824579
O O16 0.752091 0.256459 0.027298
O O17 0.000000 0.500000 0.000000
#
# Coordination Sequence:
#
# PCOD9248218 Si02
#       8
#     4   4   4   4   4   4   4   4
#     4  10  22  41  70 100 140 178 245 286 349 427
#     4  10  22  43  68  97 143 188 235 297 356 425
#     4  11  23  41  68 101 140 183 226 294 358 427
#     4  11  23  42  69 103 139 186 238 294 359 426
#     4  11  23  43  66  98 139 183 239 296 353 419
#     4  10  23  42  65  97 145 173 230 284 361 425
#     4  11  24  42  71 103 139 197 243 290 364 435
#     4  10  24  42  68  97 141 184 224 296 355 416
#
# _framework density 25.746051999999999
#
# number of rings (size 3 to 8) (size 9 to 14) (size 15 to 20)
#    0.000    1.500    0.000    6.000    5.250    6.000 
#    2.250    0.625    0.000    0.000    0.000    0.000 
#    0.000    0.000    0.000    0.000    0.000    0.000 
#
# Total GULP energy -178361.459126 kJ/mol
# GULP energy per Si atom -5573.795598 kJ/mol
# Density = 2.568745 g / cm^3
# Si number density = 25.746052 Si / 1000 Ang^3
#
#
#
# Elastic Constant Matrix: (Units=GPa)
#
#
# Indices 1 2 3 4 5 6 
#
# 1 70.3720 20.7004 31.7320 0.0000 -13.0209 0.0000
# 2 20.7004 44.6171 25.8562 0.0000 7.3343 0.0000
# 3 31.7320 25.8562 177.9290 0.0000 -17.3502 0.0000
# 4 0.0000 0.0000 0.0000 46.5582 0.0000 -4.0508
# 5 -13.0209 7.3343 -17.3502 0.0000 39.7685 0.0000
# 6 0.0000 0.0000 0.0000 -4.0508 0.0000 36.4222
#
#
#
# Elastic Compliance Matrix: (Units=1/GPa)
#
#
# Indices 1 2 3 4 5 6 
#
# 1 0.018855 -0.009183 -0.001317 0.000000 0.007292 0.000000
# 2 -0.009183 0.030576 -0.003811 0.000000 -0.010308 0.000000
# 3 -0.001317 -0.003811 0.006721 0.000000 0.003204 0.000000
# 4 0.000000 0.000000 0.000000 0.021688 0.000000 0.002412
# 5 0.007292 -0.010308 0.003204 0.000000 0.030832 0.000000
# 6 0.000000 0.000000 0.000000 0.002412 0.000000 0.027724
#
#
# Mechanical properties :
#
#
# Convention : Reuss Voigt Hill
#
# Bulk Modulus (GPa) = 36.32344 49.94392 43.13368
# Shear Modulus (GPa) = 28.70333 38.85840 33.78087
#
# Velocity S-wave (km/s) = 3.34258 3.88918 3.62619
# Velocity P-wave (km/s) = 5.38852 6.29352 5.85852
#
# Compressibility (1/GPa) = 0.02753043
#
# Stress axis : x y z
#
# Youngs Moduli (GPa) = 53.03725 32.70490 148.78129
#
# Poissons Ratio (x) = 0.30034 0.19594
# Poissons Ratio (y) = 0.48706 0.56696
# Poissons Ratio (z) = 0.06985 0.12463
#
# Static dielectric constant tensor:
#      x y z
#    x 2.084520 0.000000 -0.051900 
#    y 0.000000 2.082720 0.000000 
#    z -0.051900 0.000000 2.220710 
# 
# From -- ./inp_files/14341.got.cif
#   From: 2010.05.17/outbox.cif.g08.bks.cpg/sg14_8_cif.got.tgz:14341.got - 2010.06.03 17:49:19.
