data_PCOD9248295
_publ_section_title
;
Structure prediction by ZEFSAII (Michael W. Deem and Ramdas Pophale) SiO2 
 PCOD9248295
Probable space group: P 21/C
;
_chemical_formula_sum "Si O2"
_cell_formula_units_Z 28
_cell_length_a 6.466833
_cell_length_b 14.383167
_cell_length_c 14.953869
_cell_angle_alpha 90.000000
_cell_angle_beta 68.966240
_cell_angle_gamma 90.000000
_cell_volume 1298.234549
_symmetry_space_group_name_H-M "P 21/C"
_symmetry_group_IT_number 14
_symmetry_cell_setting 'monoclinic'
loop_
_space_group_symop_operation_xyz
x,y,z
-x,1/2+y,1/2-z
-x,-y,-z
x,1/2-y,1/2+z
loop_
_atom_site_type_symbol
_atom_site_label
_atom_site_fract_x
_atom_site_fract_y
_atom_site_fract_z
Si Si1 0.341982 0.558361 0.959759
Si Si2 0.388599 0.766423 0.964756
Si Si3 0.529177 0.706577 0.642450
Si Si4 0.943773 0.135432 0.755132
Si Si5 0.979682 0.598409 0.553142
Si Si6 0.931184 0.971418 0.641238
Si Si7 0.743206 0.688964 0.274436
O O1 0.407308 0.662355 0.922756
O O2 0.283643 0.496656 0.883261
O O3 0.500000 0.500000 0.000000
O O4 0.110786 0.573524 0.048588
O O5 0.573818 0.822788 0.881810
O O6 0.443424 0.753671 0.061235
O O7 0.157897 0.823155 0.992862
O O8 0.316665 0.654328 0.715589
O O9 0.617875 0.778295 0.702890
O O10 0.732708 0.639461 0.585893
O O11 0.974543 0.090016 0.847869
O O12 0.080161 0.230514 0.732021
O O13 0.025955 0.066905 0.665727
O O14 0.000000 0.500000 0.500000
O O15 0.870209 0.904411 0.730855
#
# Coordination Sequence:
#
# PCOD9248295 Si02
#       7
#     4   4   4   4   4   4   4
#     4  11  23  43  66  95 131 169 218 273 334 393
#     4  11  24  42  67  95 131 176 219 274 335 388
#     4  10  22  42  64  88 134 167 218 274 325 388
#     4  10  23  42  63  93 132 166 219 274 322 392
#     4  10  24  42  63  94 129 174 222 264 327 393
#     4  11  24  40  66  96 130 167 221 268 327 393
#     4  11  24  42  64  99 129 174 219 270 333 392
#
# _framework density 21.567751999999999
#
# number of rings (size 3 to 8) (size 9 to 14) (size 15 to 20)
#    0.000    1.429    0.000    5.143    4.000    6.857 
#    2.571    0.000    0.000    0.000    0.000    0.000 
#    0.000    0.000    0.000    0.000    0.000    0.000 
#
# Total GULP energy -156530.087664 kJ/mol
# GULP energy per Si atom -5590.360274 kJ/mol
# Density = 2.151866 g / cm^3
# Si number density = 21.567752 Si / 1000 Ang^3
#
#
#
# Elastic Constant Matrix: (Units=GPa)
#
#
# Indices 1 2 3 4 5 6 
#
# 1 82.4518 29.6809 -1.7506 0.0000 -5.3817 0.0000
# 2 29.6809 69.7003 -1.2038 0.0000 4.6805 0.0000
# 3 -1.7506 -1.2038 60.6807 0.0000 -8.7736 0.0000
# 4 0.0000 0.0000 0.0000 42.1980 0.0000 4.9732
# 5 -5.3817 4.6805 -8.7736 0.0000 29.5212 0.0000
# 6 0.0000 0.0000 0.0000 4.9732 0.0000 18.7306
#
#
#
# Elastic Compliance Matrix: (Units=1/GPa)
#
#
# Indices 1 2 3 4 5 6 
#
# 1 0.014761 -0.006538 0.000873 0.000000 0.003987 0.000000
# 2 -0.006538 0.017398 -0.000433 0.000000 -0.004079 0.000000
# 3 0.000873 -0.000433 0.017271 0.000000 0.005361 0.000000
# 4 0.000000 0.000000 0.000000 0.024463 0.000000 -0.006495
# 5 0.003987 -0.004079 0.005361 0.000000 0.036841 0.000000
# 6 0.000000 0.000000 0.000000 -0.006495 0.000000 0.055113
#
#
# Mechanical properties :
#
#
# Convention : Reuss Voigt Hill
#
# Bulk Modulus (GPa) = 26.85868 29.58731 28.22300
# Shear Modulus (GPa) = 26.25284 30.49705 28.37494
#
# Velocity S-wave (km/s) = 3.49266 3.76441 3.63108
# Velocity P-wave (km/s) = 5.36145 5.71336 5.54020
#
# Compressibility (1/GPa) = 0.03723191
#
# Stress axis : x y z
#
# Youngs Moduli (GPa) = 67.74749 57.47851 57.89931
#
# Poissons Ratio (x) = 0.37581 -0.05052
# Poissons Ratio (y) = 0.44295 0.02509
# Poissons Ratio (z) = -0.05911 0.02490
#
# Static dielectric constant tensor:
#      x y z
#    x 1.802270 0.000000 0.010540 
#    y 0.000000 1.657660 0.000000 
#    z 0.010540 0.000000 1.759270 
# 
# From -- ./inp_files/53256.got.cif
#   From: 2010.05.17/outbox.cif.g08.bks.cpg/sg14_27_cif.got.tgz:53256.got - 2010.06.03 17:49:19.
