data_PCOD9248949
_publ_section_title
;
Structure prediction by ZEFSAII (Michael W. Deem and Ramdas Pophale) SiO2 
 PCOD9248949
Probable space group: P 21/C
;
_chemical_formula_sum "Si O2"
_cell_formula_units_Z 20
_cell_length_a 20.982132
_cell_length_b 5.070595
_cell_length_c 8.519567
_cell_angle_alpha 90.000000
_cell_angle_beta 132.595208
_cell_angle_gamma 90.000000
_cell_volume 667.259181
_symmetry_space_group_name_H-M "P 21/C"
_symmetry_group_IT_number 14
_symmetry_cell_setting 'monoclinic'
loop_
_space_group_symop_operation_xyz
x,y,z
-x,1/2+y,1/2-z
-x,-y,-z
x,1/2-y,1/2+z
loop_
_atom_site_type_symbol
_atom_site_label
_atom_site_fract_x
_atom_site_fract_y
_atom_site_fract_z
Si Si1 0.242287 0.596166 0.864550
Si Si2 0.348213 0.000643 0.248020
Si Si3 0.124812 0.570590 0.944532
Si Si4 0.000000 0.500000 0.500000
Si Si5 0.490789 0.217248 0.839127
Si Si6 0.000000 0.000000 0.500000
O O1 0.303105 0.452129 0.840372
O O2 0.197986 0.462105 0.944123
O O3 0.168746 0.693362 0.618549
O O4 0.289711 0.850465 0.021703
O O5 0.428639 0.806886 0.420956
O O6 0.397706 0.254232 0.265557
O O7 0.022161 0.260757 0.650327
O O8 0.086061 0.409134 0.025554
O O9 0.939342 0.290209 0.296754
O O10 0.490331 0.439970 0.705116
#
# Coordination Sequence:
#
# PCOD9248949 Si02
#       6
#     4   4   4   2   4   2
#     4  10  22  48  74 118 156 202 250 332 388 456
#     4  10  22  44  77 106 163 197 259 308 393 449
#     4  11  24  44  81 106 159 193 261 308 396 447
#     4  12  26  48  76 110 144 196 250 312 370 470
#     4  11  24  47  78 115 148 209 258 315 370 469
#     4  12  26  48  76 110 144 196 250 312 370 470
#
# _framework density 29.973358999999999
#
# number of rings (size 3 to 8) (size 9 to 14) (size 15 to 20)
#    0.000    1.200    4.000    1.200    0.000    3.200 
#    0.000    6.000    0.000    0.000    0.000    0.000 
#    0.000    0.000    0.000    0.000    0.000    0.000 
#
# Total GULP energy -111335.749855 kJ/mol
# GULP energy per Si atom -5566.787493 kJ/mol
# Density = 2.990514 g / cm^3
# Si number density = 29.973359 Si / 1000 Ang^3
#
#
#
# Elastic Constant Matrix: (Units=GPa)
#
#
# Indices 1 2 3 4 5 6 
#
# 1 308.4273 11.9520 46.9404 0.0000 -42.6878 0.0000
# 2 11.9520 109.6410 33.0092 0.0000 -16.4244 0.0000
# 3 46.9404 33.0092 204.6166 0.0000 -27.0375 0.0000
# 4 0.0000 0.0000 0.0000 38.0904 0.0000 -15.6018
# 5 -42.6878 -16.4244 -27.0375 0.0000 57.9959 0.0000
# 6 0.0000 0.0000 0.0000 -15.6018 0.0000 26.4969
#
#
#
# Elastic Compliance Matrix: (Units=1/GPa)
#
#
# Indices 1 2 3 4 5 6 
#
# 1 0.003662 0.000134 -0.000533 0.000000 0.002485 0.000000
# 2 0.000134 0.009843 -0.001318 0.000000 0.002271 0.000000
# 3 -0.000533 -0.001318 0.005457 0.000000 0.001778 0.000000
# 4 0.000000 0.000000 0.000000 0.034598 0.000000 0.020372
# 5 0.002485 0.002271 0.001778 0.000000 0.020544 0.000000
# 6 0.000000 0.000000 0.000000 0.020372 0.000000 0.049735
#
#
# Mechanical properties :
#
#
# Convention : Reuss Voigt Hill
#
# Bulk Modulus (GPa) = 64.40738 89.60977 77.00858
# Shear Modulus (GPa) = 37.74978 59.90218 48.82598
#
# Velocity S-wave (km/s) = 3.55272 4.47532 4.04044
# Velocity P-wave (km/s) = 6.19386 7.52769 6.89311
#
# Compressibility (1/GPa) = 0.01552617
#
# Stress axis : x y z
#
# Youngs Moduli (GPa) = 273.06401 101.59196 183.24400
#
# Poissons Ratio (x) = -0.01357 0.09773
# Poissons Ratio (y) = -0.03647 0.24160
# Poissons Ratio (z) = 0.14564 0.13395
#
# Static dielectric constant tensor:
#      x y z
#    x -0.521750 0.000000 -1.932640 
#    y 0.000000 2.673200 0.000000 
#    z -1.932640 0.000000 0.998400 
# 
# From -- ./inp_files/18423.got.cif
#   From: 2010.05.17/outbox.cif.g08.bks.cpg/sg14_10_cif.got.tgz:18423.got - 2010.06.03 17:49:19.
