data_PCOD9248672
_publ_section_title
;
Structure prediction by ZEFSAII (Michael W. Deem and Ramdas Pophale) SiO2 
 PCOD9248672
Probable space group: P 21/C
;
_chemical_formula_sum "Si O2"
_cell_formula_units_Z 32
_cell_length_a 11.945340
_cell_length_b 8.505531
_cell_length_c 17.581823
_cell_angle_alpha 90.000000
_cell_angle_beta 49.104540
_cell_angle_gamma 90.000000
_cell_volume 1350.303112
_symmetry_space_group_name_H-M "P 21/C"
_symmetry_group_IT_number 14
_symmetry_cell_setting 'monoclinic'
loop_
_space_group_symop_operation_xyz
x,y,z
-x,1/2+y,1/2-z
-x,-y,-z
x,1/2-y,1/2+z
loop_
_atom_site_type_symbol
_atom_site_label
_atom_site_fract_x
_atom_site_fract_y
_atom_site_fract_z
Si Si1 0.447661 0.114961 0.092011
Si Si2 0.393850 0.126504 0.505763
Si Si3 0.010852 0.138122 0.435534
Si Si4 0.383257 0.694339 0.697603
Si Si5 0.839338 0.936353 0.095933
Si Si6 0.690890 0.201035 0.096976
Si Si7 0.884546 0.381637 0.726497
Si Si8 0.931253 0.921632 0.349517
O O1 0.575374 0.211600 0.079986
O O2 0.385983 0.991600 0.180561
O O3 0.353520 0.245294 0.089337
O O4 0.500000 0.000000 0.000000
O O5 0.475990 0.213684 0.399868
O O6 0.237912 0.058334 0.548248
O O7 0.500000 0.000000 0.500000
O O8 0.853410 0.229615 0.506077
O O9 0.142066 0.253402 0.401155
O O10 0.030791 0.049643 0.347974
O O11 0.000000 0.000000 0.500000
O O12 0.358866 0.729218 0.798516
O O13 0.252919 0.763530 0.700210
O O14 0.717909 0.012739 0.096241
O O15 0.822888 0.021178 0.183326
O O16 0.000000 0.000000 0.000000
O O17 0.931292 0.515521 0.764019
O O18 0.015499 0.255025 0.657013
#
# Coordination Sequence:
#
# PCOD9248672 Si02
#       8
#     4   4   4   4   4   4   4   4
#     4  10  24  41  67  97 134 183 228 280 347 425
#     4  11  23  44  66  98 137 185 225 283 352 418
#     4  11  23  41  66 100 137 181 231 286 352 425
#     4  10  23  45  66  97 142 170 237 288 352 419
#     4   9  20  41  66  92 135 171 222 286 352 405
#     4  10  22  43  68  98 137 182 230 296 346 423
#     4  11  24  43  66 102 133 178 234 297 336 428
#     4  12  25  41  70  97 136 186 228 287 356 410
#
# _framework density 23.698381999999999
#
# number of rings (size 3 to 8) (size 9 to 14) (size 15 to 20)
#    0.000    1.500    1.250    3.750    3.500    8.000 
#    2.250    0.000    0.000    0.000    0.000    0.000 
#    0.000    0.000    0.000    0.000    0.000    0.000 
#
# Total GULP energy -178656.342423 kJ/mol
# GULP energy per Si atom -5583.010701 kJ/mol
# Density = 2.364444 g / cm^3
# Si number density = 23.698382 Si / 1000 Ang^3
#
#
#
# Elastic Constant Matrix: (Units=GPa)
#
#
# Indices 1 2 3 4 5 6 
#
# 1 71.8078 8.5268 -2.2477 0.0000 3.6183 0.0000
# 2 8.5268 111.0520 -0.9427 0.0000 -7.1496 0.0000
# 3 -2.2477 -0.9427 34.1563 0.0000 -3.7258 0.0000
# 4 0.0000 0.0000 0.0000 38.4496 0.0000 -2.6413
# 5 3.6183 -7.1496 -3.7258 0.0000 29.5314 0.0000
# 6 0.0000 0.0000 0.0000 -2.6413 0.0000 41.4028
#
#
#
# Elastic Compliance Matrix: (Units=1/GPa)
#
#
# Indices 1 2 3 4 5 6 
#
# 1 0.014189 -0.001209 0.000688 0.000000 -0.001944 0.000000
# 2 -0.001209 0.009259 0.000443 0.000000 0.002446 0.000000
# 3 0.000688 0.000443 0.029747 0.000000 0.003776 0.000000
# 4 0.000000 0.000000 0.000000 0.026123 0.000000 0.001666
# 5 -0.001944 0.002446 0.003776 0.000000 0.035169 0.000000
# 6 0.000000 0.000000 0.000000 0.001666 0.000000 0.024259
#
#
# Mechanical properties :
#
#
# Convention : Reuss Voigt Hill
#
# Bulk Modulus (GPa) = 18.85407 25.29877 22.07642
# Shear Modulus (GPa) = 31.93245 35.98873 33.96059
#
# Velocity S-wave (km/s) = 3.67475 3.90117 3.78965
# Velocity P-wave (km/s) = 5.09688 5.56693 5.33708
#
# Compressibility (1/GPa) = 0.05303896
#
# Stress axis : x y z
#
# Youngs Moduli (GPa) = 70.47650 108.00522 33.61730
#
# Poissons Ratio (x) = 0.13056 -0.02314
# Poissons Ratio (y) = 0.08519 -0.01488
# Poissons Ratio (z) = -0.04851 -0.04782
#
# Static dielectric constant tensor:
#      x y z
#    x 1.612710 0.000000 -0.107000 
#    y 0.000000 1.923210 0.000000 
#    z -0.107000 0.000000 1.915370 
# 
# From -- ./inp_files/67034.got.cif
#   From: 2010.05.17/outbox.cif.g08.bks.cpg/sg14_34_cif.got.tgz:67034.got - 2010.06.03 17:49:19.
