data_PCOD9248897
_publ_section_title
;
Structure prediction by ZEFSAII (Michael W. Deem and Ramdas Pophale) SiO2 
 PCOD9248897
Probable space group: P 21/C
;
_chemical_formula_sum "Si O2"
_cell_formula_units_Z 28
_cell_length_a 8.470338
_cell_length_b 20.335509
_cell_length_c 9.248591
_cell_angle_alpha 90.000000
_cell_angle_beta 52.613354
_cell_angle_gamma 90.000000
_cell_volume 1265.773391
_symmetry_space_group_name_H-M "P 21/C"
_symmetry_group_IT_number 14
_symmetry_cell_setting 'monoclinic'
loop_
_space_group_symop_operation_xyz
x,y,z
-x,1/2+y,1/2-z
-x,-y,-z
x,1/2-y,1/2+z
loop_
_atom_site_type_symbol
_atom_site_label
_atom_site_fract_x
_atom_site_fract_y
_atom_site_fract_z
Si Si1 0.964929 0.665875 0.886407
Si Si2 0.335052 0.746338 0.565760
Si Si3 0.787779 0.114528 0.247711
Si Si4 0.858005 0.444352 0.014892
Si Si5 0.396521 0.259914 0.332354
Si Si6 0.836640 0.618753 0.659184
Si Si7 0.443490 0.499601 0.200954
O O1 0.128199 0.712618 0.720539
O O2 0.077568 0.623021 0.943288
O O3 0.883827 0.619853 0.802900
O O4 0.780828 0.707690 0.051227
O O5 0.310035 0.822929 0.620796
O O6 0.408158 0.736222 0.362494
O O7 0.518067 0.719816 0.560034
O O8 0.866019 0.069357 0.338066
O O9 0.631641 0.073633 0.237014
O O10 0.970752 0.132061 0.044257
O O11 0.635636 0.470089 0.171837
O O12 0.000000 0.500000 0.000000
O O13 0.313166 0.322011 0.291955
O O14 0.737087 0.550054 0.673418
O O15 0.500000 0.500000 0.000000
#
# Coordination Sequence:
#
# PCOD9248897 Si02
#       7
#     4   4   4   4   4   4   4
#     4  12  26  45  69 105 144 180 241 294 350 429
#     4  12  25  44  68 106 141 187 232 289 356 423
#     4  11  24  44  74 100 141 185 240 291 360 422
#     4  11  26  46  72 100 145 185 240 295 350 415
#     4  12  26  41  70  99 143 184 229 287 362 418
#     4  12  24  46  69 104 138 185 234 294 355 425
#     4  10  22  44  70  98 135 185 231 285 351 418
#
# _framework density 22.120863
#
# number of rings (size 3 to 8) (size 9 to 14) (size 15 to 20)
#    0.000    0.571    2.857    6.429    6.000    0.000 
#    0.000    1.429    0.000    0.000    0.000    0.000 
#    0.000    0.000    0.000    0.000    0.000    0.000 
#
# Total GULP energy -156642.813827 kJ/mol
# GULP energy per Si atom -5594.386208 kJ/mol
# Density = 2.207052 g / cm^3
# Si number density = 22.120863 Si / 1000 Ang^3
#
#
#
# Elastic Constant Matrix: (Units=GPa)
#
#
# Indices 1 2 3 4 5 6 
#
# 1 71.7326 12.2558 -3.4947 0.0000 -1.7249 0.0000
# 2 12.2558 67.3604 21.7492 0.0000 -17.9930 0.0000
# 3 -3.4947 21.7492 89.9017 0.0000 -19.0216 0.0000
# 4 0.0000 0.0000 0.0000 30.2899 0.0000 1.1865
# 5 -1.7249 -17.9930 -19.0216 0.0000 41.4393 0.0000
# 6 0.0000 0.0000 0.0000 1.1865 0.0000 38.9239
#
#
#
# Elastic Compliance Matrix: (Units=1/GPa)
#
#
# Indices 1 2 3 4 5 6 
#
# 1 0.014529 -0.003098 0.001282 0.000000 -0.000152 0.000000
# 2 -0.003098 0.018111 -0.003173 0.000000 0.006278 0.000000
# 3 0.001282 -0.003173 0.012915 0.000000 0.004604 0.000000
# 4 0.000000 0.000000 0.000000 0.033054 0.000000 -0.001008
# 5 -0.000152 0.006278 0.004604 0.000000 0.028965 0.000000
# 6 0.000000 0.000000 0.000000 -0.001008 0.000000 0.025722
#
#
# Mechanical properties :
#
#
# Convention : Reuss Voigt Hill
#
# Bulk Modulus (GPa) = 28.10901 32.22391 30.16646
# Shear Modulus (GPa) = 32.23065 35.36291 33.79678
#
# Velocity S-wave (km/s) = 3.82124 4.00262 3.91298
# Velocity P-wave (km/s) = 5.67484 5.99667 5.83797
#
# Compressibility (1/GPa) = 0.03557579
#
# Stress axis : x y z
#
# Youngs Moduli (GPa) = 68.82897 55.21576 77.43008
#
# Poissons Ratio (x) = 0.17105 -0.09927
# Poissons Ratio (y) = 0.21323 0.24572
# Poissons Ratio (z) = -0.08825 0.17523
#
# Static dielectric constant tensor:
#      x y z
#    x 1.825420 0.000000 -0.015850 
#    y 0.000000 1.859740 0.000000 
#    z -0.015850 0.000000 1.792070 
# 
# From -- ./inp_files/10376.got.cif
#   From: 2010.05.17/outbox.cif.g08.bks.cpg/sg14_6_cif.got.tgz:10376.got - 2010.06.03 17:49:19.
