data_PCOD9248590
_publ_section_title
;
Structure prediction by ZEFSAII (Michael W. Deem and Ramdas Pophale) SiO2 
 PCOD9248590
Probable space group: P 21/C
;
_chemical_formula_sum "Si O2"
_cell_formula_units_Z 28
_cell_length_a 8.031186
_cell_length_b 13.721265
_cell_length_c 15.771329
_cell_angle_alpha 90.000000
_cell_angle_beta 48.020140
_cell_angle_gamma 90.000000
_cell_volume 1291.971673
_symmetry_space_group_name_H-M "P 21/C"
_symmetry_group_IT_number 14
_symmetry_cell_setting 'monoclinic'
loop_
_space_group_symop_operation_xyz
x,y,z
-x,1/2+y,1/2-z
-x,-y,-z
x,1/2-y,1/2+z
loop_
_atom_site_type_symbol
_atom_site_label
_atom_site_fract_x
_atom_site_fract_y
_atom_site_fract_z
Si Si1 0.291571 0.761865 0.901376
Si Si2 0.203856 0.760175 0.620246
Si Si3 0.566398 0.593973 0.529489
Si Si4 0.430996 0.430164 0.159857
Si Si5 0.941597 0.737492 0.374081
Si Si6 0.395614 0.398546 0.980999
Si Si7 0.743573 0.013742 0.115945
O O1 0.480247 0.677232 0.844966
O O2 0.344236 0.877940 0.878775
O O3 0.158800 0.752975 0.858574
O O4 0.154187 0.743003 0.036417
O O5 0.380072 0.673584 0.574531
O O6 0.351621 0.854992 0.596669
O O7 0.005102 0.745886 0.754513
O O8 0.500000 0.500000 0.500000
O O9 0.809481 0.635823 0.421681
O O10 0.588568 0.562657 0.618920
O O11 0.623178 0.512386 0.077363
O O12 0.274074 0.481069 0.281273
O O13 0.332720 0.426566 0.098723
O O14 0.769515 0.810203 0.478926
O O15 0.000000 0.000000 0.000000
#
# Coordination Sequence:
#
# PCOD9248590 Si02
#       7
#     4   4   4   4   4   4   4
#     4  11  23  43  65 100 130 170 229 267 336 393
#     4  10  22  43  65  96 136 175 224 273 329 401
#     4  11  23  42  62  96 132 170 222 269 332 391
#     4  10  23  44  66  93 134 175 215 278 326 404
#     4  11  23  41  67  95 132 175 216 285 322 399
#     4   9  22  42  67  93 132 179 217 263 343 387
#     4  12  24  41  69  99 130 178 222 275 333 399
#
# _framework density 21.672301999999998
#
# number of rings (size 3 to 8) (size 9 to 14) (size 15 to 20)
#    0.000    1.429    2.857    1.714    2.000    1.714 
#    7.714    0.000    0.000    0.000    0.000    0.000 
#    0.000    0.000    0.000    0.000    0.000    0.000 
#
# Total GULP energy -156075.984081 kJ/mol
# GULP energy per Si atom -5574.142289 kJ/mol
# Density = 2.162297 g / cm^3
# Si number density = 21.672302 Si / 1000 Ang^3
#
#
#
# Elastic Constant Matrix: (Units=GPa)
#
#
# Indices 1 2 3 4 5 6 
#
# 1 25.8551 17.6354 9.1820 0.0000 2.8638 0.0000
# 2 17.6354 127.1737 32.1757 0.0000 -10.2862 0.0000
# 3 9.1820 32.1757 101.3310 0.0000 2.9908 0.0000
# 4 0.0000 0.0000 0.0000 26.2725 0.0000 9.0793
# 5 2.8638 -10.2862 2.9908 0.0000 13.0441 0.0000
# 6 0.0000 0.0000 0.0000 9.0793 0.0000 16.3792
#
#
#
# Elastic Compliance Matrix: (Units=1/GPa)
#
#
# Indices 1 2 3 4 5 6 
#
# 1 0.045832 -0.007254 -0.001393 0.000000 -0.015463 0.000000
# 2 -0.007254 0.010475 -0.002980 0.000000 0.010536 0.000000
# 3 -0.001393 -0.002980 0.011076 0.000000 -0.004584 0.000000
# 4 0.000000 0.000000 0.000000 0.047082 0.000000 -0.026098
# 5 -0.015463 0.010536 -0.004584 0.000000 0.089418 0.000000
# 6 0.000000 0.000000 0.000000 -0.026098 0.000000 0.075520
#
#
# Mechanical properties :
#
#
# Convention : Reuss Voigt Hill
#
# Bulk Modulus (GPa) = 22.66038 41.37179 32.01608
# Shear Modulus (GPa) = 15.75460 24.16359 19.95910
#
# Velocity S-wave (km/s) = 2.69912 3.34271 3.03801
# Velocity P-wave (km/s) = 4.49358 5.83348 5.20681
#
# Compressibility (1/GPa) = 0.04412989
#
# Stress axis : x y z
#
# Youngs Moduli (GPa) = 21.81865 95.46262 90.28206
#
# Poissons Ratio (x) = 0.69247 0.12579
# Poissons Ratio (y) = 0.15827 0.26903
# Poissons Ratio (z) = 0.03040 0.28447
#
# Static dielectric constant tensor:
#      x y z
#    x 1.813120 0.000000 0.037510 
#    y 0.000000 1.892430 0.000000 
#    z 0.037510 0.000000 1.914290 
# 
# From -- ./inp_files/41121.got.cif
#   From: 2010.05.17/outbox.cif.g08.bks.cpg/sg14_21_cif.got.tgz:41121.got - 2010.06.03 17:49:19.
