data_PCOD9248935
_publ_section_title
;
Structure prediction by ZEFSAII (Michael W. Deem and Ramdas Pophale) SiO2 
 PCOD9248935
Probable space group: P 21/C
;
_chemical_formula_sum "Si O2"
_cell_formula_units_Z 32
_cell_length_a 11.775093
_cell_length_b 14.347099
_cell_length_c 18.544205
_cell_angle_alpha 90.000000
_cell_angle_beta 154.701873
_cell_angle_gamma 90.000000
_cell_volume 1338.746426
_symmetry_space_group_name_H-M "P 21/C"
_symmetry_group_IT_number 14
_symmetry_cell_setting 'monoclinic'
loop_
_space_group_symop_operation_xyz
x,y,z
-x,1/2+y,1/2-z
-x,-y,-z
x,1/2-y,1/2+z
loop_
_atom_site_type_symbol
_atom_site_label
_atom_site_fract_x
_atom_site_fract_y
_atom_site_fract_z
Si Si1 0.010995 0.078987 0.881987
Si Si2 0.858934 0.733139 0.131110
Si Si3 0.329928 0.732836 0.604934
Si Si4 0.851589 0.061820 0.152126
Si Si5 0.406614 0.927713 0.715548
Si Si6 0.477348 0.098625 0.666680
Si Si7 0.763746 0.756989 0.237480
Si Si8 0.759518 0.965803 0.244602
O O1 0.056116 0.171728 0.858941
O O2 0.973752 0.990608 0.807513
O O3 0.758877 0.089579 0.788245
O O4 0.281738 0.067647 0.083203
O O5 0.708454 0.753466 0.120283
O O6 0.094621 0.667762 0.295669
O O7 0.697593 0.667152 0.983455
O O8 0.337850 0.820759 0.662703
O O9 0.474905 0.648976 0.729278
O O10 0.508276 0.763771 0.639165
O O11 0.031388 0.702129 0.413433
O O12 0.887462 0.007593 0.247158
O O13 0.552651 0.047746 0.953816
O O14 0.369432 0.996508 0.626120
O O15 0.238341 0.967073 0.685956
O O16 0.855412 0.861646 0.309966
#
# Coordination Sequence:
#
# PCOD9248935 Si02
#       8
#     4   4   4   4   4   4   4   4
#     4  11  25  46  72 104 149 200 239 307 372 440
#     4  12  28  44  73 108 146 188 249 305 364 441
#     4  12  28  48  76 108 148 197 244 307 366 441
#     4  10  24  42  69 105 143 192 238 299 366 438
#     4  11  25  47  71 105 144 193 247 303 369 439
#     4  12  28  45  73 105 147 193 249 300 374 438
#     4  12  27  48  72 108 149 192 244 303 369 438
#     4  10  22  44  73  98 143 188 245 296 366 427
#
# _framework density 23.902958000000002
#
# number of rings (size 3 to 8) (size 9 to 14) (size 15 to 20)
#    0.000    0.750    3.750    1.875   10.500    1.000 
#    0.000    0.000    0.000    0.000    0.000    0.000 
#    0.000    0.000    0.000    0.000    0.000    0.000 
#
# Total GULP energy -179181.657908 kJ/mol
# GULP energy per Si atom -5599.426810 kJ/mol
# Density = 2.384855 g / cm^3
# Si number density = 23.902958 Si / 1000 Ang^3
#
#
#
# Elastic Constant Matrix: (Units=GPa)
#
#
# Indices 1 2 3 4 5 6 
#
# 1 99.3110 1.7464 22.2079 0.0000 -13.4747 0.0000
# 2 1.7464 104.2822 8.4894 0.0000 -12.6279 0.0000
# 3 22.2079 8.4894 78.7063 0.0000 -7.2676 0.0000
# 4 0.0000 0.0000 0.0000 43.3632 0.0000 -12.4415
# 5 -13.4747 -12.6279 -7.2676 0.0000 20.5720 0.0000
# 6 0.0000 0.0000 0.0000 -12.4415 0.0000 42.9731
#
#
#
# Elastic Compliance Matrix: (Units=1/GPa)
#
#
# Indices 1 2 3 4 5 6 
#
# 1 0.011640 0.000900 -0.002715 0.000000 0.007218 0.000000
# 2 0.000900 0.010452 -0.000759 0.000000 0.006737 0.000000
# 3 -0.002715 -0.000759 0.013796 0.000000 0.002630 0.000000
# 4 0.000000 0.000000 0.000000 0.025150 0.000000 0.007281
# 5 0.007218 0.006737 0.002630 0.000000 0.058402 0.000000
# 6 0.000000 0.000000 0.000000 0.007281 0.000000 0.025378
#
#
# Mechanical properties :
#
#
# Convention : Reuss Voigt Hill
#
# Bulk Modulus (GPa) = 32.53103 38.57630 35.55367
# Shear Modulus (GPa) = 31.20836 38.03871 34.62353
#
# Velocity S-wave (km/s) = 3.61727 3.99354 3.81005
# Velocity P-wave (km/s) = 5.57542 6.11868 5.85336
#
# Compressibility (1/GPa) = 0.03073988
#
# Stress axis : x y z
#
# Youngs Moduli (GPa) = 85.91087 95.67615 72.48355
#
# Poissons Ratio (x) = -0.08612 0.19679
# Poissons Ratio (y) = -0.07733 0.05503
# Poissons Ratio (z) = 0.23325 0.07264
#
# Static dielectric constant tensor:
#      x y z
#    x 1.884830 0.000000 0.010710 
#    y 0.000000 1.908290 0.000000 
#    z 0.010710 0.000000 1.952940 
# 
# From -- ./inp_files/58008.got.cif
#   From: 2010.05.17/outbox.cif.g08.bks.cpg/sg14_30_cif.got.tgz:58008.got - 2010.06.03 17:49:19.
