data_PCOD9248206
_publ_section_title
;
Structure prediction by ZEFSAII (Michael W. Deem and Ramdas Pophale) SiO2 
 PCOD9248206
Probable space group: P 21/C
;
_chemical_formula_sum "Si O2"
_cell_formula_units_Z 20
_cell_length_a 18.204860
_cell_length_b 10.991756
_cell_length_c 15.944089
_cell_angle_alpha 90.000000
_cell_angle_beta 16.691242
_cell_angle_gamma 90.000000
_cell_volume 916.346870
_symmetry_space_group_name_H-M "P 21/C"
_symmetry_group_IT_number 14
_symmetry_cell_setting 'monoclinic'
loop_
_space_group_symop_operation_xyz
x,y,z
-x,1/2+y,1/2-z
-x,-y,-z
x,1/2-y,1/2+z
loop_
_atom_site_type_symbol
_atom_site_label
_atom_site_fract_x
_atom_site_fract_y
_atom_site_fract_z
Si Si1 0.722845 0.731435 0.206137
Si Si2 0.967675 0.457447 0.676174
Si Si3 0.693930 0.468181 0.149512
Si Si4 0.290070 0.605910 0.217858
Si Si5 0.107130 0.391904 0.824691
O O1 0.711990 0.604113 0.169398
O O2 0.440422 0.769376 0.543448
O O3 0.873930 0.717775 0.129339
O O4 0.842984 0.841161 0.020619
O O5 0.827902 0.426124 0.742639
O O6 0.113495 0.581998 0.491869
O O7 0.782747 0.470962 0.956407
O O8 0.401368 0.422230 0.477776
O O9 0.909447 0.390250 0.964023
O O10 0.500000 0.500000 0.000000
O O11 0.000000 0.500000 0.000000
#
# Coordination Sequence:
#
# PCOD9248206 Si02
#       5
#     4   4   4   4   4
#     4  10  22  41  69  89 134 183 215 264 351 390
#     4  10  23  42  64 100 132 172 224 282 321 401
#     4  11  25  42  68 102 135 163 233 282 317 396
#     4   9  21  42  64  88 134 175 216 262 338 399
#     4  10  23  43  66  95 132 173 213 273 334 399
#
# _framework density 21.825796
#
# number of rings (size 3 to 8) (size 9 to 14) (size 15 to 20)
#    0.000    2.000    0.000    2.400   14.000    1.600 
#    7.200    0.000    0.000    0.000    0.000    0.000 
#    0.000    0.000    0.000    0.000    0.000    0.000 
#
# Total GULP energy -111596.080653 kJ/mol
# GULP energy per Si atom -5579.804033 kJ/mol
# Density = 2.177612 g / cm^3
# Si number density = 21.825796 Si / 1000 Ang^3
#
#
#
# Elastic Constant Matrix: (Units=GPa)
#
#
# Indices 1 2 3 4 5 6 
#
# 1 80.8514 25.6792 73.9040 0.0000 12.3189 0.0000
# 2 25.6792 91.6052 49.1256 0.0000 13.2017 0.0000
# 3 73.9040 49.1256 185.2675 0.0000 21.7363 0.0000
# 4 0.0000 0.0000 0.0000 43.1039 0.0000 -3.4187
# 5 12.3189 13.2017 21.7363 0.0000 46.2982 0.0000
# 6 0.0000 0.0000 0.0000 -3.4187 0.0000 25.0867
#
#
#
# Elastic Compliance Matrix: (Units=1/GPa)
#
#
# Indices 1 2 3 4 5 6 
#
# 1 0.019731 -0.001394 -0.007336 0.000000 -0.001408 0.000000
# 2 -0.001394 0.013033 -0.002653 0.000000 -0.002100 0.000000
# 3 -0.007336 -0.002653 0.009217 0.000000 -0.001619 0.000000
# 4 0.000000 0.000000 0.000000 0.023453 0.000000 0.003196
# 5 -0.001408 -0.002100 -0.001619 0.000000 0.023333 0.000000
# 6 0.000000 0.000000 0.000000 0.003196 0.000000 0.040297
#
#
# Mechanical properties :
#
#
# Convention : Reuss Voigt Hill
#
# Bulk Modulus (GPa) = 52.04358 72.79356 62.41857
# Shear Modulus (GPa) = 31.59826 36.83211 34.21518
#
# Velocity S-wave (km/s) = 3.80906 4.11244 3.96365
# Velocity P-wave (km/s) = 6.57586 7.48158 7.04329
#
# Compressibility (1/GPa) = 0.01921467
#
# Stress axis : x y z
#
# Youngs Moduli (GPa) = 50.68059 76.73012 108.48955
#
# Poissons Ratio (x) = 0.10697 0.79589
# Poissons Ratio (y) = 0.07065 0.28786
# Poissons Ratio (z) = 0.37180 0.20359
#
# Static dielectric constant tensor:
#      x y z
#    x 1.806450 0.000000 -0.070390 
#    y 0.000000 1.886710 0.000000 
#    z -0.070390 0.000000 1.854280 
# 
# From -- ./inp_files/48849.got.cif
#   From: 2010.05.17/outbox.cif.g08.bks.cpg/sg14_25_cif.got.tgz:48849.got - 2010.06.03 17:49:19.
