data_PCOD9248977
_publ_section_title
;
Structure prediction by ZEFSAII (Michael W. Deem and Ramdas Pophale) SiO2 
 PCOD9248977
Probable space group: P 21/C
;
_chemical_formula_sum "Si O2"
_cell_formula_units_Z 32
_cell_length_a 9.270282
_cell_length_b 22.819908
_cell_length_c 14.634825
_cell_angle_alpha 90.000000
_cell_angle_beta 30.450756
_cell_angle_gamma 90.000000
_cell_volume 1569.021680
_symmetry_space_group_name_H-M "P 21/C"
_symmetry_group_IT_number 14
_symmetry_cell_setting 'monoclinic'
loop_
_space_group_symop_operation_xyz
x,y,z
-x,1/2+y,1/2-z
-x,-y,-z
x,1/2-y,1/2+z
loop_
_atom_site_type_symbol
_atom_site_label
_atom_site_fract_x
_atom_site_fract_y
_atom_site_fract_z
Si Si1 0.422269 0.743941 0.242291
Si Si2 0.631934 0.655244 0.274267
Si Si3 0.115101 0.935271 0.047610
Si Si4 0.134250 0.663607 0.276463
Si Si5 0.724992 0.368547 0.089817
Si Si6 0.759987 0.763556 0.869294
Si Si7 0.355907 0.366467 0.108540
Si Si8 0.246744 0.066299 0.944057
O O1 0.605653 0.702885 0.207901
O O2 0.159385 0.703174 0.353034
O O3 0.331537 0.803136 0.341141
O O4 0.585863 0.758920 0.059016
O O5 0.377849 0.609187 0.404859
O O6 0.619402 0.692677 0.374231
O O7 0.938643 0.624336 0.102188
O O8 0.946800 0.931377 0.042654
O O9 0.889417 0.914255 0.247113
O O10 0.218479 0.001814 0.000206
O O11 0.060464 0.708176 0.234710
O O12 0.891164 0.615559 0.416421
O O13 0.436137 0.632680 0.092437
O O14 0.565010 0.373537 0.080523
O O15 0.562855 0.414072 0.244088
O O16 0.781246 0.698518 0.816779
#
# Coordination Sequence:
#
# PCOD9248977 Si02
#       8
#     4   4   4   4   4   4   4   4
#     4  11  23  38  62  99 135 168 210 258 333 391
#     4  12  24  40  65  98 133 171 214 268 327 387
#     4  10  24  43  64  91 125 179 223 261 314 395
#     4  11  21  41  63  96 128 166 209 275 319 382
#     4  11  22  38  65  94 127 174 207 266 329 379
#     4  11  23  38  63  97 138 162 209 268 326 391
#     4  10  23  37  63  94 128 171 211 259 328 386
#     4  10  22  45  67  87 129 174 224 264 317 389
#
# _framework density 20.394874000000002
#
# number of rings (size 3 to 8) (size 9 to 14) (size 15 to 20)
#    0.000    1.250    5.000    0.750    5.250    1.000 
#    0.000    0.625    0.000    0.000    0.000    0.000 
#    0.000    0.000    0.000    0.000    0.000    0.000 
#
# Total GULP energy -178809.984336 kJ/mol
# GULP energy per Si atom -5587.812010 kJ/mol
# Density = 2.034845 g / cm^3
# Si number density = 20.394874 Si / 1000 Ang^3
#
#
#
# Elastic Constant Matrix: (Units=GPa)
#
#
# Indices 1 2 3 4 5 6 
#
# 1 62.2126 13.7258 11.5458 0.0000 -7.5083 0.0000
# 2 13.7258 49.3923 6.1965 0.0000 -5.4331 0.0000
# 3 11.5458 6.1965 75.3990 0.0000 -8.5876 0.0000
# 4 0.0000 0.0000 0.0000 27.3805 0.0000 -0.0059
# 5 -7.5083 -5.4331 -8.5876 0.0000 20.1370 0.0000
# 6 0.0000 0.0000 0.0000 -0.0059 0.0000 20.4676
#
#
#
# Elastic Compliance Matrix: (Units=1/GPa)
#
#
# Indices 1 2 3 4 5 6 
#
# 1 0.017924 -0.004225 -0.001856 0.000000 0.004752 0.000000
# 2 -0.004225 0.021953 -0.000696 0.000000 0.004051 0.000000
# 3 -0.001856 -0.000696 0.014193 0.000000 0.005173 0.000000
# 4 0.000000 0.000000 0.000000 0.036522 0.000000 0.000011
# 5 0.004752 0.004051 0.005173 0.000000 0.054731 0.000000
# 6 0.000000 0.000000 0.000000 0.000011 0.000000 0.048858
#
#
# Mechanical properties :
#
#
# Convention : Reuss Voigt Hill
#
# Bulk Modulus (GPa) = 24.68179 27.77113 26.22646
# Shear Modulus (GPa) = 22.59973 23.96606 23.28290
#
# Velocity S-wave (km/s) = 3.33244 3.43170 3.38243
# Velocity P-wave (km/s) = 5.18990 5.41741 5.30488
#
# Compressibility (1/GPa) = 0.04051570
#
# Stress axis : x y z
#
# Youngs Moduli (GPa) = 55.79075 45.55144 70.45535
#
# Poissons Ratio (x) = 0.19248 0.13078
# Poissons Ratio (y) = 0.23574 0.04902
# Poissons Ratio (z) = 0.10356 0.03169
#
# Static dielectric constant tensor:
#      x y z
#    x 1.747750 0.000000 -0.005470 
#    y 0.000000 1.703700 0.000000 
#    z -0.005470 0.000000 1.755400 
# 
# From -- ./inp_files/42230.got.cif
#   From: 2010.05.17/outbox.cif.g08.bks.cpg/sg14_22_cif.got.tgz:42230.got - 2010.06.03 17:49:19.
