data_PCOD9248024
_publ_section_title
;
Structure prediction by ZEFSAII (Michael W. Deem and Ramdas Pophale) SiO2 
 PCOD9248024
Probable space group: P 21/C
;
_chemical_formula_sum "Si O2"
_cell_formula_units_Z 32
_cell_length_a 12.961115
_cell_length_b 13.145053
_cell_length_c 8.994019
_cell_angle_alpha 90.000000
_cell_angle_beta 102.334049
_cell_angle_gamma 90.000000
_cell_volume 1496.983370
_symmetry_space_group_name_H-M "P 21/C"
_symmetry_group_IT_number 14
_symmetry_cell_setting 'monoclinic'
loop_
_space_group_symop_operation_xyz
x,y,z
-x,1/2+y,1/2-z
-x,-y,-z
x,1/2-y,1/2+z
loop_
_atom_site_type_symbol
_atom_site_label
_atom_site_fract_x
_atom_site_fract_y
_atom_site_fract_z
Si Si1 0.402467 0.401764 0.381102
Si Si2 0.327058 0.641194 0.831589
Si Si3 0.924287 0.024965 0.197150
Si Si4 0.189435 0.142892 0.656242
Si Si5 0.555315 0.274515 0.868215
Si Si6 0.568281 0.953324 0.794949
Si Si7 0.866314 0.450437 0.357968
Si Si8 0.881325 0.655227 0.202134
O O1 0.309891 0.359880 0.249607
O O2 0.495439 0.318917 0.428989
O O3 0.365871 0.432215 0.534738
O O4 0.458844 0.496839 0.320063
O O5 0.384162 0.726564 0.751298
O O6 0.379054 0.535209 0.795490
O O7 0.205394 0.628801 0.751825
O O8 0.358974 0.667488 0.006974
O O9 0.860838 0.963104 0.300457
O O10 0.010913 0.946344 0.152562
O O11 0.996940 0.117298 0.278897
O O12 0.858301 0.060125 0.032869
O O13 0.174208 0.153788 0.475308
O O14 0.133821 0.238081 0.720981
O O15 0.462745 0.351241 0.796315
O O16 0.836405 0.564462 0.293151
#
# Coordination Sequence:
#
# PCOD9248024 Si02
#       8
#     4   4   4   4   4   4   4   4
#     4  10  24  39  64  94 125 168 210 263 317 373
#     4  11  23  41  65  89 127 166 209 257 315 381
#     4   9  21  45  64  89 127 158 208 262 314 375
#     4  12  23  39  66  94 122 167 210 259 312 380
#     4  11  23  41  61  95 126 163 215 258 308 383
#     4  10  22  41  62  87 128 165 206 265 316 359
#     4   9  21  43  64  89 123 165 201 258 316 373
#     4  10  24  38  64  93 128 155 215 253 316 372
#
# _framework density 21.376322999999999
#
# number of rings (size 3 to 8) (size 9 to 14) (size 15 to 20)
#    0.750    1.000    1.250    2.250    5.250    0.000 
#    2.250    0.000    0.000    0.000    0.000    0.000 
#    0.000    0.000    0.000    0.000    0.000    0.000 
#
# Total GULP energy -178652.412503 kJ/mol
# GULP energy per Si atom -5582.887891 kJ/mol
# Density = 2.132767 g / cm^3
# Si number density = 21.376323 Si / 1000 Ang^3
#
#
#
# Elastic Constant Matrix: (Units=GPa)
#
#
# Indices 1 2 3 4 5 6 
#
# 1 22.1113 -11.8842 32.0940 0.0000 15.1363 0.0000
# 2 -11.8842 46.4413 51.6380 0.0000 4.7267 0.0000
# 3 32.0940 51.6380 29.1754 0.0000 36.0248 0.0000
# 4 0.0000 0.0000 0.0000 -513.6454 0.0000 -17.4224
# 5 15.1363 4.7267 36.0248 0.0000 27.3051 0.0000
# 6 0.0000 0.0000 0.0000 -17.4224 0.0000 16.8046
#
#
#
# Elastic Compliance Matrix: (Units=1/GPa)
#
#
# Indices 1 2 3 4 5 6 
#
# 1 0.049478 -0.004852 0.020682 0.000000 -0.053875 0.000000
# 2 -0.004852 0.006808 0.013635 0.000000 -0.016478 0.000000
# 3 0.020682 0.013635 -0.007094 0.000000 -0.004466 0.000000
# 4 0.000000 0.000000 0.000000 -0.001881 0.000000 -0.001950
# 5 -0.053875 -0.016478 -0.004466 0.000000 0.075233 0.000000
# 6 0.000000 0.000000 0.000000 -0.001950 0.000000 0.057486
#
#
# Mechanical properties :
#
#
# Convention : Reuss Voigt Hill
#
# Bulk Modulus (GPa) = 9.24878 26.82483 18.03681
# Shear Modulus (GPa) = 31.81880 -92.18178 -30.18149
#
# Velocity S-wave (km/s) = 3.86230 -6.57396 -3.76162
# Velocity P-wave (km/s) = 4.92198 6.71167 3.22650
#
# Compressibility (1/GPa) = 0.10812232
#
# Stress axis : x y z
#
# Youngs Moduli (GPa) = 20.21087 146.89666 -140.96363
#
# Poissons Ratio (x) = 0.71272 2.91544
# Poissons Ratio (y) = 0.09806 1.92202
# Poissons Ratio (z) = -0.41801 -2.00292
#
# Static dielectric constant tensor:
#      x y z
#    x 1.793920 0.000000 0.014050 
#    y 0.000000 1.735750 0.000000 
#    z 0.014050 0.000000 1.767790 
# 
# From -- ./inp_files/15852.got.cif
#   From: 2010.05.17/outbox.cif.g08.bks.cpg/sg14_8_cif.got.tgz:15852.got - 2010.06.03 17:49:19.
