data_PCOD9248322
_publ_section_title
;
Structure prediction by ZEFSAII (Michael W. Deem and Ramdas Pophale) SiO2 
 PCOD9248322
Probable space group: P 21/C
;
_chemical_formula_sum "Si O2"
_cell_formula_units_Z 32
_cell_length_a 14.502402
_cell_length_b 7.907057
_cell_length_c 14.519045
_cell_angle_alpha 90.000000
_cell_angle_beta 59.376916
_cell_angle_gamma 90.000000
_cell_volume 1432.723360
_symmetry_space_group_name_H-M "P 21/C"
_symmetry_group_IT_number 14
_symmetry_cell_setting 'monoclinic'
loop_
_space_group_symop_operation_xyz
x,y,z
-x,1/2+y,1/2-z
-x,-y,-z
x,1/2-y,1/2+z
loop_
_atom_site_type_symbol
_atom_site_label
_atom_site_fract_x
_atom_site_fract_y
_atom_site_fract_z
Si Si1 0.562434 0.168858 0.713337
Si Si2 0.743093 0.649906 0.437505
Si Si3 0.611468 0.511038 0.997665
Si Si4 0.335151 0.041827 0.834864
Si Si5 0.268872 0.549831 0.737436
Si Si6 0.954526 0.659309 0.758539
Si Si7 0.213767 0.579804 0.230413
Si Si8 0.046652 0.447209 0.876615
O O1 0.609142 0.357504 0.688842
O O2 0.619503 0.067017 0.766955
O O3 0.593944 0.072036 0.604827
O O4 0.434726 0.169283 0.785765
O O5 0.654628 0.797925 0.479474
O O6 0.740174 0.571510 0.539872
O O7 0.716401 0.511638 0.373998
O O8 0.856614 0.733938 0.353414
O O9 0.705888 0.413388 0.896644
O O10 0.500000 0.500000 0.000000
O O11 0.269617 0.046926 0.773997
O O12 0.217388 0.736093 0.771750
O O13 0.175121 0.430835 0.825266
O O14 0.899406 0.494236 0.741166
O O15 0.996652 0.776474 0.652675
O O16 0.024748 0.587500 0.807075
O O17 0.000000 0.500000 0.000000
#
# Coordination Sequence:
#
# PCOD9248322 Si02
#       8
#     4   4   4   4   4   4   4   4
#     4  11  24  38  62  91 129 174 218 269 316 398
#     4  10  24  40  66  90 133 168 213 274 328 394
#     4  11  22  37  59  88 125 174 213 265 319 378
#     4  11  23  39  62  95 128 172 218 262 328 395
#     4  10  24  44  63  96 126 168 221 270 330 397
#     4  10  24  45  70 100 133 170 219 284 334 415
#     4  10  22  42  65  91 131 167 214 271 329 396
#     4  11  25  46  72 101 132 177 225 280 350 404
#
# _framework density 22.335084999999999
#
# number of rings (size 3 to 8) (size 9 to 14) (size 15 to 20)
#    0.000    1.500    1.250    2.250    8.750    3.500 
#    9.000    1.250    0.000    0.000    0.000    0.000 
#    0.000    0.000    0.000    0.000    0.000    0.000 
#
# Total GULP energy -178865.903984 kJ/mol
# GULP energy per Si atom -5589.559499 kJ/mol
# Density = 2.228425 g / cm^3
# Si number density = 22.335085 Si / 1000 Ang^3
#
#
#
# Elastic Constant Matrix: (Units=GPa)
#
#
# Indices 1 2 3 4 5 6 
#
# 1 70.2709 7.4276 -6.9079 0.0000 14.6882 0.0000
# 2 7.4276 70.6606 -1.6381 0.0000 0.8702 0.0000
# 3 -6.9079 -1.6381 92.5100 0.0000 4.3459 0.0000
# 4 0.0000 0.0000 0.0000 32.2685 0.0000 -1.9210
# 5 14.6882 0.8702 4.3459 0.0000 21.2398 0.0000
# 6 0.0000 0.0000 0.0000 -1.9210 0.0000 22.0517
#
#
#
# Elastic Compliance Matrix: (Units=1/GPa)
#
#
# Indices 1 2 3 4 5 6 
#
# 1 0.017118 -0.001608 0.001820 0.000000 -0.012144 0.000000
# 2 -0.001608 0.014317 0.000110 0.000000 0.000503 0.000000
# 3 0.001820 0.000110 0.011114 0.000000 -0.003537 0.000000
# 4 0.000000 0.000000 0.000000 0.031152 0.000000 0.002714
# 5 -0.012144 0.000503 -0.003537 0.000000 0.056183 0.000000
# 6 0.000000 0.000000 0.000000 0.002714 0.000000 0.045584
#
#
# Mechanical properties :
#
#
# Convention : Reuss Voigt Hill
#
# Bulk Modulus (GPa) = 23.15126 25.68942 24.42034
# Shear Modulus (GPa) = 26.42411 30.74933 28.58672
#
# Velocity S-wave (km/s) = 3.44332 3.71445 3.58145
# Velocity P-wave (km/s) = 5.11825 5.47019 5.29715
#
# Compressibility (1/GPa) = 0.04319419
#
# Stress axis : x y z
#
# Youngs Moduli (GPa) = 58.41811 69.84461 89.97910
#
# Poissons Ratio (x) = 0.11228 -0.16379
# Poissons Ratio (y) = 0.09392 -0.00988
# Poissons Ratio (z) = -0.10634 -0.00767
#
# Static dielectric constant tensor:
#      x y z
#    x 1.846860 0.000000 0.001330 
#    y 0.000000 1.944370 0.000000 
#    z 0.001330 0.000000 1.783820 
# 
# From -- ./inp_files/31799.got.cif
#   From: 2010.05.17/outbox.cif.g08.bks.cpg/sg14_16_cif.got.tgz:31799.got - 2010.06.03 17:49:19.
