data_PCOD9248257
_publ_section_title
;
Structure prediction by ZEFSAII (Michael W. Deem and Ramdas Pophale) SiO2 
 PCOD9248257
Probable space group: P 21/C
;
_chemical_formula_sum "Si O2"
_cell_formula_units_Z 16
_cell_length_a 10.158998
_cell_length_b 13.371076
_cell_length_c 9.442430
_cell_angle_alpha 90.000000
_cell_angle_beta 38.231256
_cell_angle_gamma 90.000000
_cell_volume 793.738198
_symmetry_space_group_name_H-M "P 21/C"
_symmetry_group_IT_number 14
_symmetry_cell_setting 'monoclinic'
loop_
_space_group_symop_operation_xyz
x,y,z
-x,1/2+y,1/2-z
-x,-y,-z
x,1/2-y,1/2+z
loop_
_atom_site_type_symbol
_atom_site_label
_atom_site_fract_x
_atom_site_fract_y
_atom_site_fract_z
Si Si1 0.638966 0.348222 0.658753
Si Si2 0.130913 0.791651 0.760549
Si Si3 0.879622 0.966948 0.823776
Si Si4 0.809886 0.619672 0.093136
O O1 0.695220 0.327500 0.773412
O O2 0.756974 0.264508 0.464412
O O3 0.735637 0.455318 0.530949
O O4 0.393173 0.347807 0.824888
O O5 0.986422 0.882652 0.829352
O O6 0.976624 0.710129 0.963128
O O7 0.754130 0.917387 0.798102
O O8 0.069136 0.030841 0.591223
#
# Coordination Sequence:
#
# PCOD9248257 Si02
#       4
#     4   4   4   4
#     4  11  24  38  66  90 121 166 200 243 309 354
#     4  11  23  41  61  94 124 156 205 252 292 363
#     4  10  22  42  61  89 127 154 203 253 298 356
#     4  10  23  41  63  91 124 159 198 254 300 356
#
# _framework density 20.157782000000001
#
# number of rings (size 3 to 8) (size 9 to 14) (size 15 to 20)
#    0.000    1.500    2.500    1.500    3.500    3.000 
#    0.000    0.000    0.000    0.000    0.000    0.000 
#    0.000    0.000    0.000    0.000    0.000    0.000 
#
# Total GULP energy -89473.633007 kJ/mol
# GULP energy per Si atom -5592.102063 kJ/mol
# Density = 2.011190 g / cm^3
# Si number density = 20.157782 Si / 1000 Ang^3
#
#
#
# Elastic Constant Matrix: (Units=GPa)
#
#
# Indices 1 2 3 4 5 6 
#
# 1 101.7267 34.2829 -6.3650 0.0000 11.3790 0.0000
# 2 34.2829 76.0348 -1.4764 0.0000 8.5878 0.0000
# 3 -6.3650 -1.4764 5.3669 0.0000 1.5803 0.0000
# 4 0.0000 0.0000 0.0000 -4.6839 0.0000 -6.6344
# 5 11.3790 8.5878 1.5803 0.0000 27.6249 0.0000
# 6 0.0000 0.0000 0.0000 -6.6344 0.0000 296.0470
#
#
#
# Elastic Compliance Matrix: (Units=1/GPa)
#
#
# Indices 1 2 3 4 5 6 
#
# 1 0.013018 -0.005042 0.015429 0.000000 -0.004678 0.000000
# 2 -0.005042 0.015721 -0.000841 0.000000 -0.002762 0.000000
# 3 0.015429 -0.000841 0.209720 0.000000 -0.018091 0.000000
# 4 0.000000 0.000000 0.000000 -0.206929 0.000000 -0.004637
# 5 -0.004678 -0.002762 -0.018091 0.000000 0.040020 0.000000
# 6 0.000000 0.000000 0.000000 -0.004637 0.000000 0.003274
#
#
# Mechanical properties :
#
#
# Convention : Reuss Voigt Hill
#
# Bulk Modulus (GPa) = 3.88271 26.22349 15.05310
# Shear Modulus (GPa) = 35.31541 74.24341 54.77941
#
# Velocity S-wave (km/s) = 4.19017 6.07545 5.21865
# Velocity P-wave (km/s) = 5.03392 7.89000 6.61787
#
# Compressibility (1/GPa) = 0.25755174
#
# Stress axis : x y z
#
# Youngs Moduli (GPa) = 76.81667 63.61015 4.76826
#
# Poissons Ratio (x) = 0.32070 -0.07357
# Poissons Ratio (y) = 0.38729 0.00401
# Poissons Ratio (z) = -1.18523 0.05351
#
# Static dielectric constant tensor:
#      x y z
#    x 1.676730 0.000000 0.011990 
#    y 0.000000 1.700380 0.000000 
#    z 0.011990 0.000000 1.686500 
# 
# From -- ./inp_files/4868.got.cif
#   From: 2010.05.17/outbox.cif.g08.bks.cpg/sg14_3_cif.got.tgz:4868.got - 2010.06.03 17:49:19.
