data_PCOD9248927
_publ_section_title
;
Structure prediction by ZEFSAII (Michael W. Deem and Ramdas Pophale) SiO2 
 PCOD9248927
Probable space group: P 21/C
;
_chemical_formula_sum "Si O2"
_cell_formula_units_Z 32
_cell_length_a 10.664129
_cell_length_b 22.535177
_cell_length_c 8.788733
_cell_angle_alpha 90.000000
_cell_angle_beta 140.763953
_cell_angle_gamma 90.000000
_cell_volume 1335.932909
_symmetry_space_group_name_H-M "P 21/C"
_symmetry_group_IT_number 14
_symmetry_cell_setting 'monoclinic'
loop_
_space_group_symop_operation_xyz
x,y,z
-x,1/2+y,1/2-z
-x,-y,-z
x,1/2-y,1/2+z
loop_
_atom_site_type_symbol
_atom_site_label
_atom_site_fract_x
_atom_site_fract_y
_atom_site_fract_z
Si Si1 0.361144 0.628110 0.888967
Si Si2 0.779603 0.720209 0.764060
Si Si3 0.779637 0.932408 0.357597
Si Si4 0.456814 0.097868 0.159665
Si Si5 0.788956 0.071030 0.263867
Si Si6 0.928461 0.292502 0.235014
Si Si7 0.453374 0.538579 0.754340
Si Si8 0.473542 0.779825 0.239330
O O1 0.533057 0.636704 0.178802
O O2 0.155042 0.647375 0.768393
O O3 0.371407 0.561161 0.836242
O O4 0.397400 0.668167 0.777007
O O5 0.612676 0.742803 0.486203
O O6 0.625748 0.697478 0.751962
O O7 0.945937 0.696982 0.799662
O O8 0.924584 0.761761 0.004601
O O9 0.670502 0.936330 0.416655
O O10 0.996006 0.906336 0.572622
O O11 0.791484 0.002404 0.323099
O O12 0.684588 0.901270 0.119418
O O13 0.670175 0.105769 0.280039
O O14 0.438790 0.030807 0.205547
O O15 0.669028 0.068314 0.996958
O O16 0.724891 0.253719 0.011135
#
# Coordination Sequence:
#
# PCOD9248927 Si02
#       8
#     4   4   4   4   4   4   4   4
#     4  12  23  40  60  94 130 158 205 258 308 366
#     4  10  22  44  72  86 120 166 202 256 328 368
#     4   8  15  35  59  79 111 160 207 250 298 352
#     4   9  19  37  59  86 124 164 203 248 301 358
#     4   8  15  35  59  79 111 160 207 250 298 352
#     4  11  22  45  67  92 124 162 205 263 315 379
#     4   9  19  37  59  86 124 164 203 248 301 358
#     4  11  22  45  67  92 124 162 205 263 315 379
#
# _framework density 23.953299000000001
#
# number of rings (size 3 to 8) (size 9 to 14) (size 15 to 20)
#    0.000    2.250    2.500    1.875    0.000    0.000 
#   15.750    0.000    0.000    6.000    0.000    0.000 
#    0.000    0.000    0.000    0.000    0.000    0.000 
#
# Total GULP energy -178388.723834 kJ/mol
# GULP energy per Si atom -5574.647620 kJ/mol
# Density = 2.389878 g / cm^3
# Si number density = 23.953299 Si / 1000 Ang^3
#
#
#
# Elastic Constant Matrix: (Units=GPa)
#
#
# Indices 1 2 3 4 5 6 
#
# 1 143.9449 33.1173 24.2891 0.0000 -5.0188 0.0000
# 2 33.1173 27.1361 20.3269 0.0000 -2.4730 0.0000
# 3 24.2891 20.3269 77.7751 0.0000 -2.0905 0.0000
# 4 0.0000 0.0000 0.0000 27.8039 0.0000 -11.0475
# 5 -5.0188 -2.4730 -2.0905 0.0000 46.9526 0.0000
# 6 0.0000 0.0000 0.0000 -11.0475 0.0000 41.0738
#
#
#
# Elastic Compliance Matrix: (Units=1/GPa)
#
#
# Indices 1 2 3 4 5 6 
#
# 1 0.009668 -0.011822 0.000082 0.000000 0.000414 0.000000
# 2 -0.011822 0.060445 -0.012068 0.000000 0.001383 0.000000
# 3 0.000082 -0.012068 0.015989 0.000000 0.000085 0.000000
# 4 0.000000 0.000000 0.000000 0.040270 0.000000 0.010831
# 5 0.000414 0.001383 0.000085 0.000000 0.021419 0.000000
# 6 0.000000 0.000000 0.000000 0.010831 0.000000 0.027260
#
#
# Mechanical properties :
#
#
# Convention : Reuss Voigt Hill
#
# Bulk Modulus (GPa) = 25.98503 44.92476 35.45489
# Shear Modulus (GPa) = 21.23188 34.57424 27.90306
#
# Velocity S-wave (km/s) = 2.98045 3.80333 3.41676
# Velocity P-wave (km/s) = 4.76612 6.17114 5.51357
#
# Compressibility (1/GPa) = 0.03848370
#
# Stress axis : x y z
#
# Youngs Moduli (GPa) = 103.43796 16.54397 62.54484
#
# Poissons Ratio (x) = 0.19558 -0.00511
# Poissons Ratio (y) = 1.22283 0.75482
# Poissons Ratio (z) = -0.00845 0.19966
#
# Static dielectric constant tensor:
#      x y z
#    x 1.886840 0.000000 0.017280 
#    y 0.000000 2.055460 0.000000 
#    z 0.017280 0.000000 1.908290 
# 
# From -- ./inp_files/14624.got.cif
#   From: 2010.05.17/outbox.cif.g08.bks.cpg/sg14_8_cif.got.tgz:14624.got - 2010.06.03 17:49:19.
