data_PCOD9248988
_publ_section_title
;
Structure prediction by ZEFSAII (Michael W. Deem and Ramdas Pophale) SiO2 
 PCOD9248988
Probable space group: P 21/C
;
_chemical_formula_sum "Si O2"
_cell_formula_units_Z 24
_cell_length_a 11.235853
_cell_length_b 10.877942
_cell_length_c 11.700856
_cell_angle_alpha 90.000000
_cell_angle_beta 48.588046
_cell_angle_gamma 90.000000
_cell_volume 1072.546418
_symmetry_space_group_name_H-M "P 21/C"
_symmetry_group_IT_number 14
_symmetry_cell_setting 'monoclinic'
loop_
_space_group_symop_operation_xyz
x,y,z
-x,1/2+y,1/2-z
-x,-y,-z
x,1/2-y,1/2+z
loop_
_atom_site_type_symbol
_atom_site_label
_atom_site_fract_x
_atom_site_fract_y
_atom_site_fract_z
Si Si1 0.925492 0.108736 0.622702
Si Si2 0.533393 0.910131 0.584039
Si Si3 0.824031 0.368945 0.634867
Si Si4 0.406169 0.998129 0.212665
Si Si5 0.964127 0.502888 0.327504
Si Si6 0.680305 0.657689 0.426453
O O1 0.929848 0.244963 0.569605
O O2 0.737534 0.081979 0.745451
O O3 0.991260 0.092874 0.708315
O O4 0.000000 0.000000 0.500000
O O5 0.364537 0.854766 0.734941
O O6 0.603584 0.984112 0.646642
O O7 0.644135 0.796920 0.479459
O O8 0.500000 0.000000 0.500000
O O9 0.866944 0.441366 0.492758
O O10 0.880752 0.444211 0.710431
O O11 0.567322 0.931917 0.073597
O O12 0.377715 0.127302 0.165604
O O13 0.857617 0.611171 0.339006
#
# Coordination Sequence:
#
# PCOD9248988 Si02
#       6
#     4   4   4   4   4   4
#     4  11  26  44  69  99 132 180 227 275 333 400
#     4  12  27  40  72 104 132 172 229 278 334 404
#     4  11  25  45  69  97 138 175 220 284 332 404
#     4  10  23  44  67  95 129 175 220 271 343 384
#     4  10  25  46  67  97 136 178 218 274 346 384
#     4  10  22  45  68  92 134 176 217 279 330 403
#
# _framework density 22.376655
#
# number of rings (size 3 to 8) (size 9 to 14) (size 15 to 20)
#    0.000    1.333    3.333    0.000    9.333    0.000 
#    6.000    0.000    0.000    0.000    0.000    0.000 
#    0.000    0.000    0.000    0.000    0.000    0.000 
#
# Total GULP energy -134200.671885 kJ/mol
# GULP energy per Si atom -5591.694662 kJ/mol
# Density = 2.232572 g / cm^3
# Si number density = 22.376655 Si / 1000 Ang^3
#
#
#
# Elastic Constant Matrix: (Units=GPa)
#
#
# Indices 1 2 3 4 5 6 
#
# 1 86.0268 22.5503 18.8804 0.0000 24.4428 0.0000
# 2 22.5503 70.3301 -2.0810 0.0000 10.7824 0.0000
# 3 18.8804 -2.0810 30.1418 0.0000 14.8061 0.0000
# 4 0.0000 0.0000 0.0000 20.0230 0.0000 -5.5388
# 5 24.4428 10.7824 14.8061 0.0000 51.2138 0.0000
# 6 0.0000 0.0000 0.0000 -5.5388 0.0000 25.9921
#
#
#
# Elastic Compliance Matrix: (Units=1/GPa)
#
#
# Indices 1 2 3 4 5 6 
#
# 1 0.015841 -0.004675 -0.008176 0.000000 -0.004212 0.000000
# 2 -0.004675 0.016302 0.005413 0.000000 -0.002766 0.000000
# 3 -0.008176 0.005413 0.043491 0.000000 -0.009811 0.000000
# 4 0.000000 0.000000 0.000000 0.053071 0.000000 0.011309
# 5 -0.004212 -0.002766 -0.009811 0.000000 0.024955 0.000000
# 6 0.000000 0.000000 0.000000 0.011309 0.000000 0.040883
#
#
# Mechanical properties :
#
#
# Convention : Reuss Voigt Hill
#
# Bulk Modulus (GPa) = 16.45939 29.46646 22.96293
# Shear Modulus (GPa) = 21.77007 29.25569 25.51288
#
# Velocity S-wave (km/s) = 3.12251 3.61975 3.38028
# Velocity P-wave (km/s) = 4.51349 5.53779 5.05167
#
# Compressibility (1/GPa) = 0.06075561
#
# Stress axis : x y z
#
# Youngs Moduli (GPa) = 63.12665 61.34260 22.99333
#
# Poissons Ratio (x) = 0.28680 0.18800
# Poissons Ratio (y) = 0.29514 -0.12445
# Poissons Ratio (z) = 0.51614 -0.33202
#
# Static dielectric constant tensor:
#      x y z
#    x 1.816370 0.000000 -0.014870 
#    y 0.000000 1.844440 0.000000 
#    z -0.014870 0.000000 1.806550 
# 
# From -- ./inp_files/28972.got.cif
#   From: 2010.05.17/outbox.cif.g08.bks.cpg/sg14_15_cif.got.tgz:28972.got - 2010.06.03 17:49:19.
