data_PCOD9248413
_publ_section_title
;
Structure prediction by ZEFSAII (Michael W. Deem and Ramdas Pophale) SiO2 
 PCOD9248413
Probable space group: P 21/C
;
_chemical_formula_sum "Si O2"
_cell_formula_units_Z 22
_cell_length_a 8.427496
_cell_length_b 4.773418
_cell_length_c 27.043788
_cell_angle_alpha 90.000000
_cell_angle_beta 53.071710
_cell_angle_gamma 90.000000
_cell_volume 869.667467
_symmetry_space_group_name_H-M "P 21/C"
_symmetry_group_IT_number 14
_symmetry_cell_setting 'monoclinic'
loop_
_space_group_symop_operation_xyz
x,y,z
-x,1/2+y,1/2-z
-x,-y,-z
x,1/2-y,1/2+z
loop_
_atom_site_type_symbol
_atom_site_label
_atom_site_fract_x
_atom_site_fract_y
_atom_site_fract_z
Si Si1 0.786397 0.789955 0.093210
Si Si2 0.371019 0.991296 0.774477
Si Si3 0.451307 0.524543 0.089195
Si Si4 0.206790 0.658368 0.501938
Si Si5 0.500000 0.000000 0.000000
Si Si6 0.130183 0.180306 0.723942
O O1 0.729182 0.906027 0.156646
O O2 0.614938 0.603478 0.100663
O O3 0.803979 0.048238 0.051478
O O4 0.010924 0.673531 0.051179
O O5 0.577206 0.165081 0.733018
O O6 0.246951 0.077577 0.750233
O O7 0.569069 0.292299 0.033462
O O8 0.264193 0.393789 0.151637
O O9 0.410948 0.791705 0.063710
O O10 0.261431 0.407344 0.528201
O O11 0.926265 0.004139 0.761495
#
# Coordination Sequence:
#
# PCOD9248413 Si02
#       6
#     4   4   4   4   2   4
#     4  10  23  41  69 102 136 184 249 299 358 448
#     4  12  25  48  75 105 142 201 250 308 370 441
#     4  11  23  46  69  98 149 187 243 303 369 438
#     4  10  22  42  68 103 139 186 235 302 372 424
#     4  10  24  40  66 102 138 186 232 296 370 436
#     4  12  29  48  74 109 150 199 248 309 378 446
#
# _framework density 25.297024
#
# number of rings (size 3 to 8) (size 9 to 14) (size 15 to 20)
#    0.000    1.091    1.818    3.273    7.636    0.000 
#    0.000    0.000    0.000    0.000    0.000    0.000 
#    0.000    0.000    0.000    0.000    0.000    0.000 
#
# Total GULP energy -122822.125322 kJ/mol
# GULP energy per Si atom -5582.823878 kJ/mol
# Density = 2.523945 g / cm^3
# Si number density = 25.297024 Si / 1000 Ang^3
#
#
#
# Elastic Constant Matrix: (Units=GPa)
#
#
# Indices 1 2 3 4 5 6 
#
# 1 97.9258 3.1000 50.9316 0.0000 21.7497 0.0000
# 2 3.1000 82.4460 38.4638 0.0000 -2.3954 0.0000
# 3 50.9316 38.4638 156.2691 0.0000 5.3905 0.0000
# 4 0.0000 0.0000 0.0000 38.8396 0.0000 -3.3119
# 5 21.7497 -2.3954 5.3905 0.0000 35.7621 0.0000
# 6 0.0000 0.0000 0.0000 -3.3119 0.0000 45.8639
#
#
#
# Elastic Compliance Matrix: (Units=1/GPa)
#
#
# Indices 1 2 3 4 5 6 
#
# 1 0.014420 0.001459 -0.004785 0.000000 -0.007951 0.000000
# 2 0.001459 0.013924 -0.003925 0.000000 0.000637 0.000000
# 3 -0.004785 -0.003925 0.008880 0.000000 0.001309 0.000000
# 4 0.000000 0.000000 0.000000 0.025906 0.000000 0.001871
# 5 -0.007951 0.000637 0.001309 0.000000 0.032644 0.000000
# 6 0.000000 0.000000 0.000000 0.001871 0.000000 0.021939
#
#
# Mechanical properties :
#
#
# Convention : Reuss Voigt Hill
#
# Bulk Modulus (GPa) = 44.00879 57.95908 50.98393
# Shear Modulus (GPa) = 35.76866 40.36949 38.06907
#
# Velocity S-wave (km/s) = 3.76433 3.99910 3.88349
# Velocity P-wave (km/s) = 6.02728 6.65469 6.34874
#
# Compressibility (1/GPa) = 0.02272273
#
# Stress axis : x y z
#
# Youngs Moduli (GPa) = 69.34756 71.81956 112.61868
#
# Poissons Ratio (x) = -0.10479 0.53884
# Poissons Ratio (y) = -0.10118 0.44199
# Poissons Ratio (z) = 0.33181 0.28187
#
# Static dielectric constant tensor:
#      x y z
#    x 2.123080 0.000000 -0.008410 
#    y 0.000000 2.163550 0.000000 
#    z -0.008410 0.000000 2.009630 
# 
# From -- ./inp_files/64166.got.cif
#   From: 2010.05.17/outbox.cif.g08.bks.cpg/sg14_33_cif.got.tgz:64166.got - 2010.06.03 17:49:19.
