data_PCOD9248034
_publ_section_title
;
Structure prediction by ZEFSAII (Michael W. Deem and Ramdas Pophale) SiO2 
 PCOD9248034
Probable space group: P 21/C
;
_chemical_formula_sum "Si O2"
_cell_formula_units_Z 28
_cell_length_a 9.137233
_cell_length_b 13.021176
_cell_length_c 15.700831
_cell_angle_alpha 90.000000
_cell_angle_beta 46.641872
_cell_angle_gamma 90.000000
_cell_volume 1358.212482
_symmetry_space_group_name_H-M "P 21/C"
_symmetry_group_IT_number 14
_symmetry_cell_setting 'monoclinic'
loop_
_space_group_symop_operation_xyz
x,y,z
-x,1/2+y,1/2-z
-x,-y,-z
x,1/2-y,1/2+z
loop_
_atom_site_type_symbol
_atom_site_label
_atom_site_fract_x
_atom_site_fract_y
_atom_site_fract_z
Si Si1 0.478534 0.884152 0.474270
Si Si2 0.514733 0.189089 0.352120
Si Si3 0.566881 0.960050 0.261625
Si Si4 0.014148 0.812960 0.650899
Si Si5 0.847503 0.683620 0.567484
Si Si6 0.873759 0.019603 0.636510
Si Si7 0.960454 0.231773 0.675171
O O1 0.563128 0.817943 0.518952
O O2 0.569756 0.885869 0.343593
O O3 0.244516 0.853102 0.559489
O O4 0.500000 0.000000 0.500000
O O5 0.347653 0.242416 0.362009
O O6 0.720533 0.250734 0.272132
O O7 0.567132 0.076169 0.296085
O O8 0.754167 0.926273 0.128981
O O9 0.352582 0.950741 0.299691
O O10 0.984249 0.731628 0.586973
O O11 0.966001 0.763300 0.761035
O O12 0.881852 0.914089 0.685448
O O13 0.954225 0.696691 0.434185
O O14 0.983316 0.112495 0.641432
O O15 0.000000 0.000000 0.500000
#
# Coordination Sequence:
#
# PCOD9248034 Si02
#       7
#     4   4   4   4   4   4   4
#     4   9  20  37  63  96 120 163 218 275 318 375
#     4  10  22  41  62  94 133 169 222 273 331 389
#     4  11  21  38  67  95 127 173 221 275 331 392
#     4  11  24  40  67 100 129 170 220 277 331 386
#     4  12  24  40  66  96 130 180 217 273 338 395
#     4  12  20  42  72  94 124 174 232 278 319 385
#     4  11  25  42  64  98 135 165 222 275 331 407
#
# _framework density 20.615331000000001
#
# number of rings (size 3 to 8) (size 9 to 14) (size 15 to 20)
#    0.000    1.143    5.714    0.000    4.000    2.857 
#    0.000    0.714    0.000    0.000    0.000    0.000 
#    0.000    0.000    0.000    0.000    0.000    0.000 
#
# Total GULP energy -156446.539847 kJ/mol
# GULP energy per Si atom -5587.376423 kJ/mol
# Density = 2.056841 g / cm^3
# Si number density = 20.615331 Si / 1000 Ang^3
#
#
#
# Elastic Constant Matrix: (Units=GPa)
#
#
# Indices 1 2 3 4 5 6 
#
# 1 99.3124 18.3097 12.3443 0.0000 16.5565 0.0000
# 2 18.3097 46.1232 1.0723 0.0000 12.9989 0.0000
# 3 12.3443 1.0723 53.7987 0.0000 20.0550 0.0000
# 4 0.0000 0.0000 0.0000 33.7049 0.0000 -1.1538
# 5 16.5565 12.9989 20.0550 0.0000 36.9663 0.0000
# 6 0.0000 0.0000 0.0000 -1.1538 0.0000 34.2919
#
#
#
# Elastic Compliance Matrix: (Units=1/GPa)
#
#
# Indices 1 2 3 4 5 6 
#
# 1 0.011427 -0.003636 -0.001402 0.000000 -0.003079 0.000000
# 2 -0.003636 0.025715 0.003868 0.000000 -0.009513 0.000000
# 3 -0.001402 0.003868 0.023949 0.000000 -0.013725 0.000000
# 4 0.000000 0.000000 0.000000 0.029704 0.000000 0.000999
# 5 -0.003079 -0.009513 -0.013725 0.000000 0.039222 0.000000
# 6 0.000000 0.000000 0.000000 0.000999 0.000000 0.029195
#
#
# Mechanical properties :
#
#
# Convention : Reuss Voigt Hill
#
# Bulk Modulus (GPa) = 17.02086 29.18742 23.10414
# Shear Modulus (GPa) = 27.60370 32.15980 29.88175
#
# Velocity S-wave (km/s) = 3.66319 3.95396 3.81135
# Velocity P-wave (km/s) = 5.11530 5.91895 5.53174
#
# Compressibility (1/GPa) = 0.05875144
#
# Stress axis : x y z
#
# Youngs Moduli (GPa) = 87.51126 38.88716 41.75594
#
# Poissons Ratio (x) = 0.14139 0.05853
# Poissons Ratio (y) = 0.31818 -0.16150
# Poissons Ratio (z) = 0.12267 -0.15041
#
# Static dielectric constant tensor:
#      x y z
#    x 1.747010 0.000000 0.002920 
#    y 0.000000 1.738650 0.000000 
#    z 0.002920 0.000000 1.741850 
# 
# From -- ./inp_files/41124.got.cif
#   From: 2010.05.17/outbox.cif.g08.bks.cpg/sg14_21_cif.got.tgz:41124.got - 2010.06.03 17:49:19.
