data_PCOD9248329
_publ_section_title
;
Structure prediction by ZEFSAII (Michael W. Deem and Ramdas Pophale) SiO2 
 PCOD9248329
Probable space group: P 21/C
;
_chemical_formula_sum "Si O2"
_cell_formula_units_Z 16
_cell_length_a 11.010837
_cell_length_b 11.911274
_cell_length_c 11.902170
_cell_angle_alpha 90.000000
_cell_angle_beta 153.989503
_cell_angle_gamma 90.000000
_cell_volume 684.557220
_symmetry_space_group_name_H-M "P 21/C"
_symmetry_group_IT_number 14
_symmetry_cell_setting 'monoclinic'
loop_
_space_group_symop_operation_xyz
x,y,z
-x,1/2+y,1/2-z
-x,-y,-z
x,1/2-y,1/2+z
loop_
_atom_site_type_symbol
_atom_site_label
_atom_site_fract_x
_atom_site_fract_y
_atom_site_fract_z
Si Si1 0.304431 0.947974 0.243930
Si Si2 0.603452 0.210821 0.262965
Si Si3 0.849735 0.927444 0.249886
Si Si4 0.549645 0.096132 0.877019
O O1 0.298944 0.812109 0.239196
O O2 0.434382 0.968649 0.228514
O O3 0.500000 0.000000 0.500000
O O4 0.000000 0.000000 0.000000
O O5 0.543370 0.276048 0.329685
O O6 0.856489 0.128581 0.494238
O O7 0.342777 0.151390 0.989285
O O8 0.698334 0.927817 0.244393
O O9 0.818758 0.050831 0.168639
#
# Coordination Sequence:
#
# PCOD9248329 Si02
#       4
#     4   4   4   4
#     4  10  22  42  65  96 132 168 223 273 329 392
#     4  10  25  40  68 102 131 183 220 272 340 403
#     4  11  23  46  68  97 140 178 221 287 332 407
#     4   9  26  43  69 102 135 178 229 275 346 397
#
# _framework density 23.372772999999999
#
# number of rings (size 3 to 8) (size 9 to 14) (size 15 to 20)
#    1.500    0.500    0.000    1.500    0.000   18.000 
#    0.000    0.000    0.000    0.000    0.000    0.000 
#    0.000    0.000    0.000    0.000    0.000    0.000 
#
# Total GULP energy -89413.854330 kJ/mol
# GULP energy per Si atom -5588.365896 kJ/mol
# Density = 2.331958 g / cm^3
# Si number density = 23.372773 Si / 1000 Ang^3
#
#
#
# Elastic Constant Matrix: (Units=GPa)
#
#
# Indices 1 2 3 4 5 6 
#
# 1 139.1485 31.5672 45.7278 0.0000 -25.9074 0.0000
# 2 31.5672 106.7265 66.6645 0.0000 -4.8266 0.0000
# 3 45.7278 66.6645 176.5878 0.0000 -9.9434 0.0000
# 4 0.0000 0.0000 0.0000 46.7524 0.0000 -12.3842
# 5 -25.9074 -4.8266 -9.9434 0.0000 32.4527 0.0000
# 6 0.0000 0.0000 0.0000 -12.3842 0.0000 55.2641
#
#
#
# Elastic Compliance Matrix: (Units=1/GPa)
#
#
# Indices 1 2 3 4 5 6 
#
# 1 0.009260 -0.001536 -0.001440 0.000000 0.006723 0.000000
# 2 -0.001536 0.012521 -0.004369 0.000000 -0.000702 0.000000
# 3 -0.001440 -0.004369 0.007717 0.000000 0.000565 0.000000
# 4 0.000000 0.000000 0.000000 0.022739 0.000000 0.005096
# 5 0.006723 -0.000702 0.000565 0.000000 0.036250 0.000000
# 6 0.000000 0.000000 0.000000 0.005096 0.000000 0.019237
#
#
# Mechanical properties :
#
#
# Convention : Reuss Voigt Hill
#
# Bulk Modulus (GPa) = 67.52344 78.93131 73.22737
# Shear Modulus (GPa) = 39.26266 45.46072 42.36169
#
# Velocity S-wave (km/s) = 4.10304 4.41503 4.26189
# Velocity P-wave (km/s) = 7.16931 7.73524 7.45765
#
# Compressibility (1/GPa) = 0.01480967
#
# Stress axis : x y z
#
# Youngs Moduli (GPa) = 107.99525 79.86556 129.58741
#
# Poissons Ratio (x) = 0.12264 0.18655
# Poissons Ratio (y) = 0.16583 0.56614
# Poissons Ratio (z) = 0.15547 0.34891
#
# Static dielectric constant tensor:
#      x y z
#    x 1.877690 0.000000 -0.020660 
#    y 0.000000 1.994610 0.000000 
#    z -0.020660 0.000000 1.887250 
# 
# From -- ./inp_files/30105.got.cif
#   From: 2010.05.17/outbox.cif.g08.bks.cpg/sg14_16_cif.got.tgz:30105.got - 2010.06.03 17:49:19.
