data_PCOD9248636
_publ_section_title
;
Structure prediction by ZEFSAII (Michael W. Deem and Ramdas Pophale) SiO2 
 PCOD9248636
Probable space group: P 21/C
;
_chemical_formula_sum "Si O2"
_cell_formula_units_Z 32
_cell_length_a 15.648488
_cell_length_b 10.934228
_cell_length_c 31.088868
_cell_angle_alpha 90.000000
_cell_angle_beta 162.183231
_cell_angle_gamma 90.000000
_cell_volume 1627.608228
_symmetry_space_group_name_H-M "P 21/C"
_symmetry_group_IT_number 14
_symmetry_cell_setting 'monoclinic'
loop_
_space_group_symop_operation_xyz
x,y,z
-x,1/2+y,1/2-z
-x,-y,-z
x,1/2-y,1/2+z
loop_
_atom_site_type_symbol
_atom_site_label
_atom_site_fract_x
_atom_site_fract_y
_atom_site_fract_z
Si Si1 0.105453 0.127930 0.172963
Si Si2 0.578266 0.240398 0.457405
Si Si3 0.663391 0.364723 0.315129
Si Si4 0.318932 0.121895 0.914058
Si Si5 0.788916 0.028876 0.614792
Si Si6 0.254137 0.354785 0.644031
Si Si7 0.310204 0.857691 0.274319
Si Si8 0.175912 0.204209 0.419762
O O1 0.338978 0.207838 0.308965
O O2 0.142759 0.140765 0.139684
O O3 0.804106 0.169795 0.044869
O O4 0.168766 0.988416 0.215573
O O5 0.439602 0.294514 0.433825
O O6 0.734447 0.119062 0.548887
O O7 0.610805 0.509911 0.300257
O O8 0.461316 0.260646 0.238024
O O9 0.639003 0.350932 0.252169
O O10 0.982202 0.342146 0.483337
O O11 0.318208 0.191417 0.958728
O O12 0.998510 0.910388 0.250268
O O13 0.500000 0.000000 0.000000
O O14 0.907758 0.903071 0.653119
O O15 0.500000 0.000000 0.500000
O O16 0.594655 0.844621 0.437065
O O17 0.091952 0.755827 0.184585
#
# Coordination Sequence:
#
# PCOD9248636 Si02
#       8
#     4   4   4   4   4   4   4   4
#     4  11  24  43  66  93 129 166 214 268 318 379
#     4  12  24  43  62  91 127 166 217 263 315 377
#     4  10  22  43  67  97 132 167 212 263 330 394
#     4  12  27  40  64  90 122 172 216 259 316 379
#     4  12  25  42  61  87 125 169 213 264 314 366
#     4  10  22  43  68  97 131 170 211 268 330 393
#     4  11  24  42  65  94 128 165 207 268 317 381
#     4  12  24  41  63  88 128 165 212 258 319 371
#
# _framework density 19.660751999999999
#
# number of rings (size 3 to 8) (size 9 to 14) (size 15 to 20)
#    0.000    0.750    3.750    3.750    3.500    0.500 
#    2.250    0.000    0.000    0.000    0.000    0.000 
#    0.000    0.000    0.000    0.000    0.000    0.000 
#
# Total GULP energy -178973.808330 kJ/mol
# GULP energy per Si atom -5592.931510 kJ/mol
# Density = 1.961600 g / cm^3
# Si number density = 19.660752 Si / 1000 Ang^3
#
#
#
# Elastic Constant Matrix: (Units=GPa)
#
#
# Indices 1 2 3 4 5 6 
#
# 1 53.0918 18.2646 17.7481 0.0000 0.4145 0.0000
# 2 18.2646 73.6251 19.3181 0.0000 8.6322 0.0000
# 3 17.7481 19.3181 78.5755 0.0000 -7.3954 0.0000
# 4 0.0000 0.0000 0.0000 36.1765 0.0000 4.4444
# 5 0.4145 8.6322 -7.3954 0.0000 36.4532 0.0000
# 6 0.0000 0.0000 0.0000 4.4444 0.0000 37.9437
#
#
#
# Elastic Compliance Matrix: (Units=1/GPa)
#
#
# Indices 1 2 3 4 5 6 
#
# 1 0.021609 -0.004364 -0.003807 0.000000 0.000015 0.000000
# 2 -0.004364 0.016074 -0.003384 0.000000 -0.004443 0.000000
# 3 -0.003807 -0.003384 0.014780 0.000000 0.003843 0.000000
# 4 0.000000 0.000000 0.000000 0.028046 0.000000 -0.003285
# 5 0.000015 -0.004443 0.003843 0.000000 0.029264 0.000000
# 6 0.000000 0.000000 0.000000 -0.003285 0.000000 0.026740
#
#
# Mechanical properties :
#
#
# Convention : Reuss Voigt Hill
#
# Bulk Modulus (GPa) = 34.06734 35.10602 34.58668
# Shear Modulus (GPa) = 29.51486 32.11213 30.81350
#
# Velocity S-wave (km/s) = 3.87875 4.04581 3.96316
# Velocity P-wave (km/s) = 6.11758 6.30233 6.21064
#
# Compressibility (1/GPa) = 0.02935362
#
# Stress axis : x y z
#
# Youngs Moduli (GPa) = 46.27730 62.21306 67.65811
#
# Poissons Ratio (x) = 0.27148 0.25755
# Poissons Ratio (y) = 0.20194 0.22898
# Poissons Ratio (z) = 0.17616 0.21055
#
# Static dielectric constant tensor:
#      x y z
#    x 1.639180 0.000000 0.014880 
#    y 0.000000 1.711620 0.000000 
#    z 0.014880 0.000000 1.634580 
# 
# From -- ./inp_files/77605.got.cif
#   From: 2010.05.17/outbox.cif.g08.bks.cpg/sg14_39_cif.got.tgz:77605.got - 2010.06.03 17:49:19.
