data_PCOD9248515
_publ_section_title
;
Structure prediction by ZEFSAII (Michael W. Deem and Ramdas Pophale) SiO2 
 PCOD9248515
Probable space group: P 21/C
;
_chemical_formula_sum "Si O2"
_cell_formula_units_Z 24
_cell_length_a 13.599811
_cell_length_b 10.689059
_cell_length_c 9.515651
_cell_angle_alpha 90.000000
_cell_angle_beta 40.510234
_cell_angle_gamma 90.000000
_cell_volume 898.557922
_symmetry_space_group_name_H-M "P 21/C"
_symmetry_group_IT_number 14
_symmetry_cell_setting 'monoclinic'
loop_
_space_group_symop_operation_xyz
x,y,z
-x,1/2+y,1/2-z
-x,-y,-z
x,1/2-y,1/2+z
loop_
_atom_site_type_symbol
_atom_site_label
_atom_site_fract_x
_atom_site_fract_y
_atom_site_fract_z
Si Si1 0.881570 0.992224 0.352753
Si Si2 0.584141 0.662324 0.547805
Si Si3 0.074617 0.285480 0.729090
Si Si4 0.424985 0.830538 0.928864
Si Si5 0.400450 0.953533 0.481928
Si Si6 0.134365 0.601501 0.860022
O O1 0.761385 0.981524 0.359164
O O2 0.783527 0.053802 0.586248
O O3 0.012370 0.097767 0.202968
O O4 0.929480 0.850934 0.335905
O O5 0.760512 0.680013 0.390896
O O6 0.539978 0.644249 0.433809
O O7 0.509066 0.789214 0.695121
O O8 0.509717 0.551592 0.724191
O O9 0.955446 0.277971 0.988178
O O10 0.363471 0.691944 0.043135
O O11 0.261847 0.897535 0.105912
O O12 0.500000 0.000000 0.500000
O O13 0.000000 0.500000 0.000000
#
# Coordination Sequence:
#
# PCOD9248515 Si02
#       6
#     4   4   4   4   4   4
#     4  10  23  46  72 103 153 191 255 304 387 451
#     4  10  22  45  72 105 146 200 250 318 375 458
#     4  10  24  45  73 106 149 193 255 309 386 456
#     4  10  22  45  72 102 148 193 253 311 384 445
#     4  10  22  42  72 103 145 193 253 308 381 452
#     4  10  23  43  71 107 147 198 247 309 385 452
#
# _framework density 26.709465000000002
#
# number of rings (size 3 to 8) (size 9 to 14) (size 15 to 20)
#    2.000    0.000    1.667    1.000    2.333    2.667 
#    6.000    3.333    0.000    0.000    0.000    0.000 
#    0.000    0.000    0.000    0.000    0.000    0.000 
#
# Total GULP energy -133895.707176 kJ/mol
# GULP energy per Si atom -5578.987799 kJ/mol
# Density = 2.664867 g / cm^3
# Si number density = 26.709465 Si / 1000 Ang^3
#
#
#
# Elastic Constant Matrix: (Units=GPa)
#
#
# Indices 1 2 3 4 5 6 
#
# 1 141.5528 26.7432 56.5265 0.0000 -22.0552 0.0000
# 2 26.7432 92.3440 22.8541 0.0000 -20.0230 0.0000
# 3 56.5265 22.8541 134.5222 0.0000 -38.8196 0.0000
# 4 0.0000 0.0000 0.0000 45.2215 0.0000 -0.6725
# 5 -22.0552 -20.0230 -38.8196 0.0000 48.8312 0.0000
# 6 0.0000 0.0000 0.0000 -0.6725 0.0000 47.2627
#
#
#
# Elastic Compliance Matrix: (Units=1/GPa)
#
#
# Indices 1 2 3 4 5 6 
#
# 1 0.008756 -0.001579 -0.003188 0.000000 0.000773 0.000000
# 2 -0.001579 0.012237 -0.000225 0.000000 0.004126 0.000000
# 3 -0.003188 -0.000225 0.010861 0.000000 0.007102 0.000000
# 4 0.000000 0.000000 0.000000 0.022118 0.000000 0.000315
# 5 0.000773 0.004126 0.007102 0.000000 0.028166 0.000000
# 6 0.000000 0.000000 0.000000 0.000315 0.000000 0.021163
#
#
# Mechanical properties :
#
#
# Convention : Reuss Voigt Hill
#
# Bulk Modulus (GPa) = 45.72513 64.51852 55.12182
# Shear Modulus (GPa) = 41.46808 45.74943 43.60875
#
# Velocity S-wave (km/s) = 3.94453 4.14315 4.04506
# Velocity P-wave (km/s) = 6.15649 6.86263 6.51913
#
# Compressibility (1/GPa) = 0.02186981
#
# Stress axis : x y z
#
# Youngs Moduli (GPa) = 114.20209 81.72194 92.07219
#
# Poissons Ratio (x) = 0.12906 0.29354
# Poissons Ratio (y) = 0.18036 0.02069
# Poissons Ratio (z) = 0.36409 0.01837
#
# Static dielectric constant tensor:
#      x y z
#    x 2.241570 0.000000 0.139220 
#    y 0.000000 2.423600 0.000000 
#    z 0.139220 0.000000 2.137860 
# 
# From -- ./inp_files/32141.got.cif
#   From: 2010.05.17/outbox.cif.g08.bks.cpg/sg14_17_cif.got.tgz:32141.got - 2010.06.03 17:49:19.
