data_PCOD9248959
_publ_section_title
;
Structure prediction by ZEFSAII (Michael W. Deem and Ramdas Pophale) SiO2 
 PCOD9248959
Probable space group: P 21/C
;
_chemical_formula_sum "Si O2"
_cell_formula_units_Z 32
_cell_length_a 14.008546
_cell_length_b 10.813297
_cell_length_c 14.947751
_cell_angle_alpha 90.000000
_cell_angle_beta 40.129973
_cell_angle_gamma 90.000000
_cell_volume 1459.371746
_symmetry_space_group_name_H-M "P 21/C"
_symmetry_group_IT_number 14
_symmetry_cell_setting 'monoclinic'
loop_
_space_group_symop_operation_xyz
x,y,z
-x,1/2+y,1/2-z
-x,-y,-z
x,1/2-y,1/2+z
loop_
_atom_site_type_symbol
_atom_site_label
_atom_site_fract_x
_atom_site_fract_y
_atom_site_fract_z
Si Si1 0.322534 0.251602 0.222639
Si Si2 0.683119 0.240025 0.224495
Si Si3 0.608896 0.113823 0.447047
Si Si4 0.947782 0.528804 0.256282
Si Si5 0.668521 0.015895 0.852522
Si Si6 0.767309 0.083834 0.522368
Si Si7 0.363398 0.334381 0.881277
Si Si8 0.121868 0.313992 0.210803
O O1 0.323252 0.258119 0.329107
O O2 0.198425 0.319089 0.253133
O O3 0.287615 0.109443 0.227909
O O4 0.484791 0.285042 0.066526
O O5 0.705300 0.142293 0.289131
O O6 0.681843 0.365253 0.282526
O O7 0.771685 0.288132 0.074015
O O8 0.525695 0.199723 0.297677
O O9 0.716005 0.102240 0.455938
O O10 0.500000 0.000000 0.500000
O O11 0.784888 0.481114 0.349779
O O12 0.943237 0.678334 0.268567
O O13 0.013267 0.430294 0.279067
O O14 0.071375 0.520113 0.088784
O O15 0.500000 0.000000 0.000000
O O16 0.649863 0.978857 0.637960
O O17 0.254944 0.324422 0.043385
#
# Coordination Sequence:
#
# PCOD9248959 Si02
#       8
#     4   4   4   4   4   4   4   4
#     4  11  21  39  66  93 131 174 221 273 334 391
#     4  12  22  37  66  99 128 169 226 271 326 395
#     4  12  22  38  64  98 138 175 218 280 333 387
#     4  10  24  44  66  93 138 179 224 281 346 401
#     4  11  22  40  67  96 123 168 230 278 327 405
#     4  11  24  41  63  97 139 176 225 277 337 398
#     4  11  21  42  66  96 134 180 216 281 338 390
#     4  10  22  45  64  94 135 181 222 281 342 399
#
# _framework density 21.927243000000001
#
# number of rings (size 3 to 8) (size 9 to 14) (size 15 to 20)
#    0.000    1.000    6.250    1.500    1.750    0.500 
#    2.250    1.875    0.000    0.000    0.000    0.000 
#    0.000    0.000    0.000    0.000    0.000    0.000 
#
# Total GULP energy -178249.949536 kJ/mol
# GULP energy per Si atom -5570.310923 kJ/mol
# Density = 2.187734 g / cm^3
# Si number density = 21.927243 Si / 1000 Ang^3
#
#
#
# Elastic Constant Matrix: (Units=GPa)
#
#
# Indices 1 2 3 4 5 6 
#
# 1 129.9333 22.3088 35.8705 0.0000 12.4294 0.0000
# 2 22.3088 69.2644 5.5559 0.0000 0.8625 0.0000
# 3 35.8705 5.5559 31.9834 0.0000 8.1266 0.0000
# 4 0.0000 0.0000 0.0000 37.9855 0.0000 -1.1126
# 5 12.4294 0.8625 8.1266 0.0000 41.4242 0.0000
# 6 0.0000 0.0000 0.0000 -1.1126 0.0000 39.9568
#
#
#
# Elastic Compliance Matrix: (Units=1/GPa)
#
#
# Indices 1 2 3 4 5 6 
#
# 1 0.011680 -0.002758 -0.012361 0.000000 -0.001022 0.000000
# 2 -0.002758 0.015294 0.000323 0.000000 0.000446 0.000000
# 3 -0.012361 0.000323 0.046448 0.000000 -0.005410 0.000000
# 4 0.000000 0.000000 0.000000 0.026347 0.000000 0.000734
# 5 -0.001022 0.000446 -0.005410 0.000000 0.025499 0.000000
# 6 0.000000 0.000000 0.000000 0.000734 0.000000 0.025047
#
#
# Mechanical properties :
#
#
# Convention : Reuss Voigt Hill
#
# Bulk Modulus (GPa) = 22.81507 39.85014 31.33260
# Shear Modulus (GPa) = 25.70471 35.03635 30.37053
#
# Velocity S-wave (km/s) = 3.42756 4.00164 3.72568
# Velocity P-wave (km/s) = 5.10801 6.29000 5.72957
#
# Compressibility (1/GPa) = 0.04383069
#
# Stress axis : x y z
#
# Youngs Moduli (GPa) = 85.61719 65.38431 21.52967
#
# Poissons Ratio (x) = 0.18031 0.26612
# Poissons Ratio (y) = 0.23610 -0.00695
# Poissons Ratio (z) = 1.05828 -0.02111
#
# Static dielectric constant tensor:
#      x y z
#    x 1.848350 0.000000 0.035000 
#    y 0.000000 1.796620 0.000000 
#    z 0.035000 0.000000 1.852710 
# 
# From -- ./inp_files/47142.got.cif
#   From: 2010.05.17/outbox.cif.g08.bks.cpg/sg14_24_cif.got.tgz:47142.got - 2010.06.03 17:49:19.
