data_PCOD9248455
_publ_section_title
;
Structure prediction by ZEFSAII (Michael W. Deem and Ramdas Pophale) SiO2 
 PCOD9248455
Probable space group: P 21/C
;
_chemical_formula_sum "Si O2"
_cell_formula_units_Z 16
_cell_length_a 9.882476
_cell_length_b 9.535626
_cell_length_c 9.181297
_cell_angle_alpha 90.000000
_cell_angle_beta 49.273347
_cell_angle_gamma 90.000000
_cell_volume 655.679082
_symmetry_space_group_name_H-M "P 21/C"
_symmetry_group_IT_number 14
_symmetry_cell_setting 'monoclinic'
loop_
_space_group_symop_operation_xyz
x,y,z
-x,1/2+y,1/2-z
-x,-y,-z
x,1/2-y,1/2+z
loop_
_atom_site_type_symbol
_atom_site_label
_atom_site_fract_x
_atom_site_fract_y
_atom_site_fract_z
Si Si1 0.793323 0.496972 0.187119
Si Si2 0.846224 0.320821 0.679528
Si Si3 0.411646 0.562499 0.917620
Si Si4 0.232940 0.089776 0.966082
O O1 0.758841 0.329365 0.216378
O O2 0.761820 0.567285 0.364566
O O3 0.662898 0.545133 0.150126
O O4 0.000000 0.500000 0.000000
O O5 0.764841 0.366907 0.891854
O O6 0.801761 0.437484 0.588003
O O7 0.060978 0.318548 0.542834
O O8 0.422402 0.359340 0.273158
O O9 0.500000 0.500000 0.000000
#
# Coordination Sequence:
#
# PCOD9248455 Si02
#       4
#     4   4   4   4
#     4  12  23  42  70 101 137 176 224 273 337 404
#     4  10  22  44  66  97 136 179 216 278 331 393
#     4  10  22  45  66  95 131 174 223 277 325 390
#     4  10  22  42  69  95 137 175 224 273 332 390
#
# _framework density 24.402182
#
# number of rings (size 3 to 8) (size 9 to 14) (size 15 to 20)
#    0.000    1.500    2.500    2.250    0.000    0.000 
#   18.000    0.000    0.000    0.000    0.000    0.000 
#    0.000    0.000    0.000    0.000    0.000    0.000 
#
# Total GULP energy -89422.916105 kJ/mol
# GULP energy per Si atom -5588.932257 kJ/mol
# Density = 2.434664 g / cm^3
# Si number density = 24.402182 Si / 1000 Ang^3
#
#
#
# Elastic Constant Matrix: (Units=GPa)
#
#
# Indices 1 2 3 4 5 6 
#
# 1 157.3877 7.1221 54.9225 0.0000 5.8439 0.0000
# 2 7.1221 51.1719 -13.6149 0.0000 6.6074 0.0000
# 3 54.9225 -13.6149 175.2753 0.0000 -4.1269 0.0000
# 4 0.0000 0.0000 0.0000 -0.7485 0.0000 -2.1506
# 5 5.8439 6.6074 -4.1269 0.0000 65.0879 0.0000
# 6 0.0000 0.0000 0.0000 -2.1506 0.0000 15.9607
#
#
#
# Elastic Compliance Matrix: (Units=1/GPa)
#
#
# Indices 1 2 3 4 5 6 
#
# 1 0.007295 -0.001576 -0.002424 0.000000 -0.000649 0.000000
# 2 -0.001576 0.020540 0.002047 0.000000 -0.001814 0.000000
# 3 -0.002424 0.002047 0.006634 0.000000 0.000430 0.000000
# 4 0.000000 0.000000 0.000000 -0.963159 0.000000 -0.129781
# 5 -0.000649 -0.001814 0.000430 0.000000 0.015634 0.000000
# 6 0.000000 0.000000 0.000000 -0.129781 0.000000 0.045166
#
#
# Mechanical properties :
#
#
# Convention : Reuss Voigt Hill
#
# Bulk Modulus (GPa) = 32.71983 53.41048 43.06516
# Shear Modulus (GPa) = -5.85620 38.42037 16.28209
#
# Velocity S-wave (km/s) = -1.55083 3.97226 2.58590
# Velocity P-wave (km/s) = 3.19858 6.55542 5.15773
#
# Compressibility (1/GPa) = 0.03056251
#
# Stress axis : x y z
#
# Youngs Moduli (GPa) = 137.08219 48.68512 150.74180
#
# Poissons Ratio (x) = 0.07675 0.36533
# Poissons Ratio (y) = 0.21609 -0.30853
# Poissons Ratio (z) = 0.33223 -0.09965
#
# Static dielectric constant tensor:
#      x y z
#    x 1.988730 0.000000 0.031560 
#    y 0.000000 2.086880 0.000000 
#    z 0.031560 0.000000 1.920940 
# 
# From -- ./inp_files/7591.got.cif
#   From: 2010.05.17/outbox.cif.g08.bks.cpg/sg14_4_cif.got.tgz:7591.got - 2010.06.03 17:49:19.
