data_PCOD9248213
_publ_section_title
;
Structure prediction by ZEFSAII (Michael W. Deem and Ramdas Pophale) SiO2 
 PCOD9248213
Probable space group: P 21/C
;
_chemical_formula_sum "Si O2"
_cell_formula_units_Z 24
_cell_length_a 8.378342
_cell_length_b 9.918758
_cell_length_c 13.156667
_cell_angle_alpha 90.000000
_cell_angle_beta 97.217494
_cell_angle_gamma 90.000000
_cell_volume 1084.691843
_symmetry_space_group_name_H-M "P 21/C"
_symmetry_group_IT_number 14
_symmetry_cell_setting 'monoclinic'
loop_
_space_group_symop_operation_xyz
x,y,z
-x,1/2+y,1/2-z
-x,-y,-z
x,1/2-y,1/2+z
loop_
_atom_site_type_symbol
_atom_site_label
_atom_site_fract_x
_atom_site_fract_y
_atom_site_fract_z
Si Si1 0.762599 0.627829 0.000456
Si Si2 0.506522 0.376977 0.162682
Si Si3 0.144814 0.993248 0.300259
Si Si4 0.019296 0.265236 0.650921
Si Si5 0.415760 0.348300 0.379609
Si Si6 0.322284 0.642133 0.447160
O O1 0.867041 0.532542 0.080985
O O2 0.682048 0.730813 0.073766
O O3 0.618945 0.556122 0.925948
O O4 0.858413 0.710462 0.923407
O O5 0.665827 0.462501 0.199131
O O6 0.416443 0.343135 0.259256
O O7 0.571615 0.240608 0.115679
O O8 0.086363 0.111896 0.222922
O O9 0.039150 0.857920 0.281556
O O10 0.860003 0.314059 0.579143
O O11 0.345421 0.490248 0.411559
O O12 0.598958 0.343352 0.435836
#
# Coordination Sequence:
#
# PCOD9248213 Si02
#       6
#     4   4   4   4   4   4
#     4  11  24  43  71  99 135 177 228 282 338 401
#     4  10  23  43  69  96 133 179 230 278 334 405
#     4  11  26  46  67 102 134 183 223 280 339 405
#     4  11  26  45  67 102 140 178 224 276 348 398
#     4  10  22  41  69  98 132 180 230 279 332 404
#     4   9  23  42  62 101 136 176 229 281 336 395
#
# _framework density 22.126099
#
# number of rings (size 3 to 8) (size 9 to 14) (size 15 to 20)
#    0.000    1.667    0.000    2.000   14.000    3.333 
#    0.000    0.000    0.000    0.000    0.000    0.000 
#    0.000    0.000    0.000    0.000    0.000    0.000 
#
# Total GULP energy -134296.171716 kJ/mol
# GULP energy per Si atom -5595.673821 kJ/mol
# Density = 2.207574 g / cm^3
# Si number density = 22.126099 Si / 1000 Ang^3
#
#
#
# Elastic Constant Matrix: (Units=GPa)
#
#
# Indices 1 2 3 4 5 6 
#
# 1 53.0115 19.9625 20.4032 0.0000 -4.4143 0.0000
# 2 19.9625 87.6829 6.5494 0.0000 13.6565 0.0000
# 3 20.4032 6.5494 78.5035 0.0000 0.5041 0.0000
# 4 0.0000 0.0000 0.0000 -65.3258 0.0000 -37.3677
# 5 -4.4143 13.6565 0.5041 0.0000 22.7726 0.0000
# 6 0.0000 0.0000 0.0000 -37.3677 0.0000 -2.3706
#
#
#
# Elastic Compliance Matrix: (Units=1/GPa)
#
#
# Indices 1 2 3 4 5 6 
#
# 1 0.024254 -0.006441 -0.005822 0.000000 0.008693 0.000000
# 2 -0.006441 0.014369 0.000539 0.000000 -0.009878 0.000000
# 3 -0.005822 0.000539 0.014218 0.000000 -0.001766 0.000000
# 4 0.000000 0.000000 0.000000 0.001909 0.000000 -0.030099
# 5 0.008693 -0.009878 -0.001766 0.000000 0.051560 0.000000
# 6 0.000000 0.000000 0.000000 -0.030099 0.000000 0.052619
#
#
# Mechanical properties :
#
#
# Convention : Reuss Voigt Hill
#
# Bulk Modulus (GPa) = 34.02241 34.78092 34.40166
# Shear Modulus (GPa) = 26.01787 2.50077 14.25932
#
# Velocity S-wave (km/s) = 3.43285 1.06428 2.54137
# Velocity P-wave (km/s) = 5.57876 4.15497 4.91866
#
# Compressibility (1/GPa) = 0.02939239
#
# Stress axis : x y z
#
# Youngs Moduli (GPa) = 41.23042 69.59285 70.33398
#
# Poissons Ratio (x) = 0.44824 0.40949
# Poissons Ratio (y) = 0.26556 -0.03788
# Poissons Ratio (z) = 0.24005 -0.03748
#
# Static dielectric constant tensor:
#      x y z
#    x 1.829880 0.000000 0.034080 
#    y 0.000000 1.803150 0.000000 
#    z 0.034080 0.000000 1.779940 
# 
# From -- ./inp_files/38997.got.cif
#   From: 2010.05.17/outbox.cif.g08.bks.cpg/sg14_20_cif.got.tgz:38997.got - 2010.06.03 17:49:19.
