data_PCOD9248470
_publ_section_title
;
Structure prediction by ZEFSAII (Michael W. Deem and Ramdas Pophale) SiO2 
 PCOD9248470
Probable space group: P 21/C
;
_chemical_formula_sum "Si O2"
_cell_formula_units_Z 32
_cell_length_a 9.514357
_cell_length_b 20.675958
_cell_length_c 11.048230
_cell_angle_alpha 90.000000
_cell_angle_beta 138.416572
_cell_angle_gamma 90.000000
_cell_volume 1442.500869
_symmetry_space_group_name_H-M "P 21/C"
_symmetry_group_IT_number 14
_symmetry_cell_setting 'monoclinic'
loop_
_space_group_symop_operation_xyz
x,y,z
-x,1/2+y,1/2-z
-x,-y,-z
x,1/2-y,1/2+z
loop_
_atom_site_type_symbol
_atom_site_label
_atom_site_fract_x
_atom_site_fract_y
_atom_site_fract_z
Si Si1 0.463152 0.097477 0.178585
Si Si2 0.007871 0.423225 0.514171
Si Si3 0.499794 0.799961 0.612815
Si Si4 0.800590 0.879394 0.629910
Si Si5 0.840282 0.009802 0.509528
Si Si6 0.121445 0.807143 0.203637
Si Si7 0.146140 0.203567 0.568776
Si Si8 0.144183 0.384126 0.288997
O O1 0.237392 0.089619 0.100741
O O2 0.558619 0.161867 0.301685
O O3 0.631175 0.043288 0.320823
O O4 0.380365 0.099095 0.987159
O O5 0.000000 0.500000 0.500000
O O6 0.842110 0.376641 0.338125
O O7 0.016156 0.398120 0.656877
O O8 0.617688 0.850687 0.598420
O O9 0.303913 0.779602 0.404997
O O10 0.651351 0.742704 0.752365
O O11 0.843006 0.824079 0.559348
O O12 0.768876 0.945592 0.534614
O O13 0.975315 0.057108 0.685860
O O14 0.000000 0.000000 0.500000
O O15 0.932917 0.825350 0.175294
O O16 0.040219 0.756378 0.053287
O O17 0.124725 0.142882 0.642314
#
# Coordination Sequence:
#
# PCOD9248470 Si02
#       8
#     4   4   4   4   4   4   4   4
#     4  10  23  42  70  95 135 178 220 279 344 404
#     4  10  22  42  70 107 134 175 228 291 343 403
#     4  11  24  41  66 102 130 178 225 280 347 404
#     4  11  24  44  67  99 140 171 230 289 332 421
#     4  12  25  46  68 100 134 184 230 280 354 403
#     4  11  23  41  69  98 130 183 224 275 348 405
#     4  12  24  45  64  98 142 179 225 283 336 418
#     4  11  23  45  69  93 141 178 223 286 340 412
#
# _framework density 22.183696000000001
#
# number of rings (size 3 to 8) (size 9 to 14) (size 15 to 20)
#    0.000    1.000    6.250    2.250    1.750    3.500 
#    0.000    0.000    0.000    0.000    0.000    0.000 
#    0.000    0.000    0.000    0.000    0.000    0.000 
#
# Total GULP energy -178501.092762 kJ/mol
# GULP energy per Si atom -5578.159149 kJ/mol
# Density = 2.213320 g / cm^3
# Si number density = 22.183696 Si / 1000 Ang^3
#
#
#
# Elastic Constant Matrix: (Units=GPa)
#
#
# Indices 1 2 3 4 5 6 
#
# 1 30.3397 11.1161 9.7800 0.0000 -13.9771 0.0000
# 2 11.1161 116.6322 62.5852 0.0000 2.1365 0.0000
# 3 9.7800 62.5852 142.8676 0.0000 -8.8036 0.0000
# 4 0.0000 0.0000 0.0000 49.0293 0.0000 -5.5135
# 5 -13.9771 2.1365 -8.8036 0.0000 24.2823 0.0000
# 6 0.0000 0.0000 0.0000 -5.5135 0.0000 15.5812
#
#
#
# Elastic Compliance Matrix: (Units=1/GPa)
#
#
# Indices 1 2 3 4 5 6 
#
# 1 0.047739 -0.005557 0.000910 0.000000 0.028298 0.000000
# 2 -0.005557 0.012049 -0.005278 0.000000 -0.006172 0.000000
# 3 0.000910 -0.005278 0.009523 0.000000 0.004441 0.000000
# 4 0.000000 0.000000 0.000000 0.021241 0.000000 0.007516
# 5 0.028298 -0.006172 0.004441 0.000000 0.059624 0.000000
# 6 0.000000 0.000000 0.000000 0.007516 0.000000 0.066839
#
#
# Mechanical properties :
#
#
# Convention : Reuss Voigt Hill
#
# Bulk Modulus (GPa) = 20.21775 50.75577 35.48676
# Shear Modulus (GPa) = 19.73535 31.53579 25.63557
#
# Velocity S-wave (km/s) = 2.98591 3.77447 3.40311
# Velocity P-wave (km/s) = 4.58488 6.47495 5.61008
#
# Compressibility (1/GPa) = 0.04946149
#
# Stress axis : x y z
#
# Youngs Moduli (GPa) = 20.94713 82.99526 105.00884
#
# Poissons Ratio (x) = 0.46117 -0.09555
# Poissons Ratio (y) = 0.11639 0.55425
# Poissons Ratio (z) = -0.01906 0.43806
#
# Static dielectric constant tensor:
#      x y z
#    x 1.855820 0.000000 -0.040330 
#    y 0.000000 1.892030 0.000000 
#    z -0.040330 0.000000 1.906930 
# 
# From -- ./inp_files/30464.got.cif
#   From: 2010.05.17/outbox.cif.g08.bks.cpg/sg14_16_cif.got.tgz:30464.got - 2010.06.03 17:49:19.
