data_PCOD9248227
_publ_section_title
;
Structure prediction by ZEFSAII (Michael W. Deem and Ramdas Pophale) SiO2 
 PCOD9248227
Probable space group: P 21/C
;
_chemical_formula_sum "Si O2"
_cell_formula_units_Z 28
_cell_length_a 9.115489
_cell_length_b 12.403756
_cell_length_c 26.591653
_cell_angle_alpha 90.000000
_cell_angle_beta 27.701308
_cell_angle_gamma 90.000000
_cell_volume 1397.664094
_symmetry_space_group_name_H-M "P 21/C"
_symmetry_group_IT_number 14
_symmetry_cell_setting 'monoclinic'
loop_
_space_group_symop_operation_xyz
x,y,z
-x,1/2+y,1/2-z
-x,-y,-z
x,1/2-y,1/2+z
loop_
_atom_site_type_symbol
_atom_site_label
_atom_site_fract_x
_atom_site_fract_y
_atom_site_fract_z
Si Si1 0.590563 0.695838 0.067048
Si Si2 0.166767 0.903308 0.200663
Si Si3 0.671430 0.927123 0.700527
Si Si4 0.097623 0.793335 0.500667
Si Si5 0.799068 0.578096 0.912919
Si Si6 0.599225 0.520345 0.819136
Si Si7 0.677811 0.432288 0.589929
O O1 0.342093 0.790931 0.142300
O O2 0.446299 0.582780 0.130485
O O3 0.714763 0.678204 0.973337
O O4 0.870251 0.719740 0.021277
O O5 0.921257 0.892895 0.321154
O O6 0.951340 0.935972 0.219113
O O7 0.421505 0.993301 0.139598
O O8 0.460834 0.900996 0.812909
O O9 0.874853 0.830436 0.614316
O O10 0.477504 0.979115 0.713449
O O11 0.923566 0.014482 0.642983
O O12 0.344321 0.888836 0.412924
O O13 0.259135 0.678264 0.458838
O O14 0.500000 0.500000 0.000000
O O15 0.000000 0.500000 0.500000
#
# Coordination Sequence:
#
# PCOD9248227 Si02
#       7
#     4   4   4   4   4   4   4
#     4  11  21  40  67  95 132 165 224 270 324 390
#     4  11  25  40  67  99 134 173 213 282 330 389
#     4  10  22  41  70  93 125 181 217 268 329 390
#     4  11  21  41  70  95 131 173 224 269 325 398
#     4  11  20  41  68  96 125 171 228 265 326 393
#     4  11  22  42  66  99 130 171 225 269 325 398
#     4  11  25  44  64  99 139 169 219 275 334 388
#
# _framework density 20.033427
#
# number of rings (size 3 to 8) (size 9 to 14) (size 15 to 20)
#    0.000    1.143    5.714    0.857    2.000    3.429 
#    0.000    2.143    0.000    0.000    0.000    0.000 
#    0.000    0.000    0.000    0.000    0.000    0.000 
#
# Total GULP energy -156547.847351 kJ/mol
# GULP energy per Si atom -5590.994548 kJ/mol
# Density = 1.998783 g / cm^3
# Si number density = 20.033427 Si / 1000 Ang^3
#
#
#
# Elastic Constant Matrix: (Units=GPa)
#
#
# Indices 1 2 3 4 5 6 
#
# 1 80.2345 17.6388 35.5916 0.0000 -8.1419 0.0000
# 2 17.6388 106.1839 50.3776 0.0000 -0.8084 0.0000
# 3 35.5916 50.3776 108.2147 0.0000 -2.0271 0.0000
# 4 0.0000 0.0000 0.0000 43.7208 0.0000 -5.4505
# 5 -8.1419 -0.8084 -2.0271 0.0000 32.6394 0.0000
# 6 0.0000 0.0000 0.0000 -5.4505 0.0000 9.5273
#
#
#
# Elastic Compliance Matrix: (Units=1/GPa)
#
#
# Indices 1 2 3 4 5 6 
#
# 1 0.014970 -0.000199 -0.004767 0.000000 0.003433 0.000000
# 2 -0.000199 0.012090 -0.005565 0.000000 -0.000096 0.000000
# 3 -0.004767 -0.005565 0.013390 0.000000 -0.000495 0.000000
# 4 0.000000 0.000000 0.000000 0.024629 0.000000 0.014090
# 5 0.003433 -0.000096 -0.000495 0.000000 0.031461 0.000000
# 6 0.000000 0.000000 0.000000 0.014090 0.000000 0.113023
#
#
# Mechanical properties :
#
#
# Convention : Reuss Voigt Hill
#
# Bulk Modulus (GPa) = 51.57506 55.76100 53.66803
# Shear Modulus (GPa) = 21.08935 29.91249 25.50092
#
# Velocity S-wave (km/s) = 3.24807 3.86829 3.57167
# Velocity P-wave (km/s) = 6.31403 6.91708 6.62242
#
# Compressibility (1/GPa) = 0.01938922
#
# Stress axis : x y z
#
# Youngs Moduli (GPa) = 66.79985 82.71275 74.68345
#
# Poissons Ratio (x) = 0.01648 0.35599
# Poissons Ratio (y) = 0.01331 0.41558
# Poissons Ratio (z) = 0.31841 0.46026
#
# Static dielectric constant tensor:
#      x y z
#    x 1.690450 0.000000 0.011100 
#    y 0.000000 1.708420 0.000000 
#    z 0.011100 0.000000 1.692340 
# 
# From -- ./inp_files/76647.got.cif
#   From: 2010.05.17/outbox.cif.g08.bks.cpg/sg14_39_cif.got.tgz:76647.got - 2010.06.03 17:49:19.
