data_PCOD9248095
_publ_section_title
;
Structure prediction by ZEFSAII (Michael W. Deem and Ramdas Pophale) SiO2 
 PCOD9248095
Probable space group: P 21/C
;
_chemical_formula_sum "Si O2"
_cell_formula_units_Z 32
_cell_length_a 8.037458
_cell_length_b 18.796973
_cell_length_c 9.598188
_cell_angle_alpha 90.000000
_cell_angle_beta 112.433501
_cell_angle_gamma 90.000000
_cell_volume 1340.354496
_symmetry_space_group_name_H-M "P 21/C"
_symmetry_group_IT_number 14
_symmetry_cell_setting 'monoclinic'
loop_
_space_group_symop_operation_xyz
x,y,z
-x,1/2+y,1/2-z
-x,-y,-z
x,1/2-y,1/2+z
loop_
_atom_site_type_symbol
_atom_site_label
_atom_site_fract_x
_atom_site_fract_y
_atom_site_fract_z
Si Si1 0.999086 0.884879 0.931576
Si Si2 0.535187 0.195541 0.066744
Si Si3 0.413034 0.021253 0.621405
Si Si4 0.426534 0.638621 0.142213
Si Si5 0.634188 0.052145 0.956383
Si Si6 0.138474 0.727899 0.922130
Si Si7 0.780500 0.863448 0.577909
Si Si8 0.155855 0.297440 0.394374
O O1 0.147060 0.947451 0.991080
O O2 0.867056 0.869336 0.020112
O O3 0.084043 0.804272 0.966661
O O4 0.894837 0.887255 0.750594
O O5 0.475132 0.181388 0.203892
O O6 0.688393 0.254026 0.118674
O O7 0.620618 0.124156 0.038144
O O8 0.363270 0.204883 0.915033
O O9 0.551902 0.055634 0.774741
O O10 0.243596 0.073296 0.541697
O O11 0.500000 0.000000 0.500000
O O12 0.381085 0.942061 0.668827
O O13 0.572300 0.642130 0.064616
O O14 0.233192 0.674330 0.056979
O O15 0.500000 0.000000 0.000000
O O16 0.981636 0.698895 0.776041
O O17 0.853541 0.785957 0.552401
#
# Coordination Sequence:
#
# PCOD9248095 Si02
#       8
#     4   4   4   4   4   4   4   4
#     4  10  23  41  67  98 138 176 233 289 345 422
#     4  11  22  41  70  95 135 185 226 295 354 409
#     4  10  24  42  68  97 135 187 230 276 349 421
#     4  11  20  41  64  95 137 177 228 283 352 419
#     4  11  24  47  68  98 136 185 228 283 347 423
#     4  10  23  38  63 100 134 177 230 290 349 416
#     4  10  22  41  64  98 137 174 229 291 345 413
#     4  11  22  40  67 102 134 180 234 291 355 418
#
# _framework density 23.874281
#
# number of rings (size 3 to 8) (size 9 to 14) (size 15 to 20)
#    0.000    1.500    3.750    0.750    3.500    4.000 
#    2.250    3.750    0.000    0.000    0.000    0.000 
#    0.000    0.000    0.000    0.000    0.000    0.000 
#
# Total GULP energy -178211.644437 kJ/mol
# GULP energy per Si atom -5569.113889 kJ/mol
# Density = 2.381994 g / cm^3
# Si number density = 23.874281 Si / 1000 Ang^3
#
#
#
# Elastic Constant Matrix: (Units=GPa)
#
#
# Indices 1 2 3 4 5 6 
#
# 1 36.2774 -2.8420 4.1740 0.0000 1.1874 0.0000
# 2 -2.8420 45.5896 5.1751 0.0000 -4.2788 0.0000
# 3 4.1740 5.1751 105.0846 0.0000 9.6865 0.0000
# 4 0.0000 0.0000 0.0000 4.2935 0.0000 14.9089
# 5 1.1874 -4.2788 9.6865 0.0000 29.8381 0.0000
# 6 0.0000 0.0000 0.0000 14.9089 0.0000 36.2830
#
#
#
# Elastic Compliance Matrix: (Units=1/GPa)
#
#
# Indices 1 2 3 4 5 6 
#
# 1 0.027856 0.001823 -0.001153 0.000000 -0.000473 0.000000
# 2 0.001823 0.022564 -0.001521 0.000000 0.003657 0.000000
# 3 -0.001153 -0.001521 0.009950 0.000000 -0.003402 0.000000
# 4 0.000000 0.000000 0.000000 -0.545667 0.000000 0.224217
# 5 -0.000473 0.003657 -0.003402 0.000000 0.035162 0.000000
# 6 0.000000 0.000000 0.000000 0.224217 0.000000 -0.064571
#
#
# Mechanical properties :
#
#
# Convention : Reuss Voigt Hill
#
# Bulk Modulus (GPa) = 17.04438 22.21841 19.63140
# Shear Modulus (GPa) = -10.13280 26.11255 7.98987
#
# Velocity S-wave (km/s) = -2.06239 3.31078 1.83137
# Velocity P-wave (km/s) = 1.21797 4.89302 3.56547
#
# Compressibility (1/GPa) = 0.05867037
#
# Stress axis : x y z
#
# Youngs Moduli (GPa) = 35.89849 44.31776 100.49799
#
# Poissons Ratio (x) = -0.08079 0.11584
# Poissons Ratio (y) = -0.06544 0.15283
# Poissons Ratio (z) = 0.04138 0.06739
#
# Static dielectric constant tensor:
#      x y z
#    x 2.169780 0.000000 -0.043360 
#    y 0.000000 2.028610 0.000000 
#    z -0.043360 0.000000 1.842920 
# 
# From -- ./inp_files/26800.got.cif
#   From: 2010.05.17/outbox.cif.g08.bks.cpg/sg14_14_cif.got.tgz:26800.got - 2010.06.03 17:49:19.
