data_PCOD9248174
_publ_section_title
;
Structure prediction by ZEFSAII (Michael W. Deem and Ramdas Pophale) SiO2 
 PCOD9248174
Probable space group: P 21/C
;
_chemical_formula_sum "Si O2"
_cell_formula_units_Z 26
_cell_length_a 16.182641
_cell_length_b 11.927385
_cell_length_c 11.917345
_cell_angle_alpha 90.000000
_cell_angle_beta 153.973105
_cell_angle_gamma 90.000000
_cell_volume 1009.331526
_symmetry_space_group_name_H-M "P 21/C"
_symmetry_group_IT_number 14
_symmetry_cell_setting 'monoclinic'
loop_
_space_group_symop_operation_xyz
x,y,z
-x,1/2+y,1/2-z
-x,-y,-z
x,1/2-y,1/2+z
loop_
_atom_site_type_symbol
_atom_site_label
_atom_site_fract_x
_atom_site_fract_y
_atom_site_fract_z
Si Si1 0.866968 0.182669 0.191562
Si Si2 0.049863 0.103631 0.914238
Si Si3 0.377384 0.083775 0.460420
Si Si4 0.303765 0.050472 0.023667
Si Si5 0.200698 0.090854 0.461891
Si Si6 0.549979 0.298386 0.659952
Si Si7 0.500000 0.000000 0.000000
O O1 0.987828 0.280451 0.398067
O O2 0.011039 0.148553 0.268820
O O3 0.690389 0.246685 0.922276
O O4 0.798500 0.061294 0.149298
O O5 0.200594 0.039945 0.175853
O O6 0.157788 0.114941 0.925793
O O7 0.868102 0.028957 0.669761
O O8 0.303756 0.145546 0.482744
O O9 0.464554 0.187953 0.498740
O O10 0.530435 0.996450 0.692003
O O11 0.403750 0.113160 0.041670
O O12 0.348167 0.074037 0.740362
O O13 0.637056 0.385964 0.680453
#
# Coordination Sequence:
#
# PCOD9248174 Si02
#       7
#     4   4   4   4   4   4   2
#     4  10  22  42  63 101 134 169 228 272 334 403
#     4  11  21  41  65  97 133 167 223 283 330 395
#     4  11  22  41  65  98 126 176 223 268 346 401
#     4  10  22  41  67  95 135 175 222 277 334 409
#     4  11  23  41  68  94 137 175 222 284 330 398
#     4  11  23  42  67  94 134 174 221 273 337 406
#     4  12  22  44  68  90 134 182 216 274 338 396
#
# _framework density 25.759623000000001
#
# number of rings (size 3 to 8) (size 9 to 14) (size 15 to 20)
#    0.000    1.231    3.077    2.769    0.000    0.000 
#    2.769    3.846    0.000    0.000    0.000    0.000 
#    0.000    0.000    0.000    0.000    0.000    0.000 
#
# Total GULP energy -144781.209729 kJ/mol
# GULP energy per Si atom -5568.508067 kJ/mol
# Density = 2.570099 g / cm^3
# Si number density = 25.759623 Si / 1000 Ang^3
#
#
#
# Elastic Constant Matrix: (Units=GPa)
#
#
# Indices 1 2 3 4 5 6 
#
# 1 75.6928 10.4094 19.2707 0.0000 6.3733 0.0000
# 2 10.4094 87.3441 5.9473 0.0000 -0.4467 0.0000
# 3 19.2707 5.9473 68.8570 0.0000 -7.1070 0.0000
# 4 0.0000 0.0000 0.0000 30.7537 0.0000 15.7435
# 5 6.3733 -0.4467 -7.1070 0.0000 31.7148 0.0000
# 6 0.0000 0.0000 0.0000 15.7435 0.0000 32.8055
#
#
#
# Elastic Compliance Matrix: (Units=1/GPa)
#
#
# Indices 1 2 3 4 5 6 
#
# 1 0.014887 -0.001492 -0.004452 0.000000 -0.004010 0.000000
# 2 -0.001492 0.011666 -0.000555 0.000000 0.000340 0.000000
# 3 -0.004452 -0.000555 0.016285 0.000000 0.004536 0.000000
# 4 0.000000 0.000000 0.000000 0.043107 0.000000 -0.020687
# 5 -0.004010 0.000340 0.004536 0.000000 0.033358 0.000000
# 6 0.000000 0.000000 0.000000 -0.020687 0.000000 0.040411
#
#
# Mechanical properties :
#
#
# Convention : Reuss Voigt Hill
#
# Bulk Modulus (GPa) = 33.50992 33.68316 33.59654
# Shear Modulus (GPa) = 27.37359 32.13923 29.75641
#
# Velocity S-wave (km/s) = 3.26338 3.53605 3.40245
# Velocity P-wave (km/s) = 5.21885 5.45673 5.33912
#
# Compressibility (1/GPa) = 0.02984191
#
# Stress axis : x y z
#
# Youngs Moduli (GPa) = 67.17077 85.71720 61.40684
#
# Poissons Ratio (x) = 0.12786 0.27336
# Poissons Ratio (y) = 0.10019 0.03409
# Poissons Ratio (z) = 0.29901 0.04758
#
# Static dielectric constant tensor:
#      x y z
#    x 1.631870 0.000000 0.096910 
#    y 0.000000 2.317680 0.000000 
#    z 0.096910 0.000000 1.931910 
# 
# From -- ./inp_files/50524.got.cif
#   From: 2010.05.17/outbox.cif.g08.bks.cpg/sg14_26_cif.got.tgz:50524.got - 2010.06.03 17:49:19.
