data_PCOD9248177
_publ_section_title
;
Structure prediction by ZEFSAII (Michael W. Deem and Ramdas Pophale) SiO2 
 PCOD9248177
Probable space group: P 21/C
;
_chemical_formula_sum "Si O2"
_cell_formula_units_Z 20
_cell_length_a 17.458236
_cell_length_b 6.992912
_cell_length_c 9.533808
_cell_angle_alpha 90.000000
_cell_angle_beta 39.473231
_cell_angle_gamma 90.000000
_cell_volume 739.927364
_symmetry_space_group_name_H-M "P 21/C"
_symmetry_group_IT_number 14
_symmetry_cell_setting 'monoclinic'
loop_
_space_group_symop_operation_xyz
x,y,z
-x,1/2+y,1/2-z
-x,-y,-z
x,1/2-y,1/2+z
loop_
_atom_site_type_symbol
_atom_site_label
_atom_site_fract_x
_atom_site_fract_y
_atom_site_fract_z
Si Si1 0.346355 0.401282 0.405868
Si Si2 0.967101 0.225764 0.538942
Si Si3 0.183963 0.829622 0.497484
Si Si4 0.202331 0.266313 0.359898
Si Si5 0.566859 0.328377 0.487207
O O1 0.316457 0.734545 0.763416
O O2 0.382586 0.588806 0.438872
O O3 0.466006 0.325242 0.162685
O O4 0.301209 0.261030 0.596660
O O5 0.924843 0.258785 0.440901
O O6 0.082373 0.324584 0.445882
O O7 0.852643 0.281748 0.794154
O O8 0.000000 0.000000 0.500000
O O9 0.242963 0.393762 0.433593
O O10 0.186384 0.055467 0.453047
O O11 0.500000 0.500000 0.500000
#
# Coordination Sequence:
#
# PCOD9248177 Si02
#       5
#     4   4   4   4   4
#     4  11  22  43  70  97 143 183 232 295 345 415
#     4  10  22  43  70 100 136 180 235 284 346 417
#     4  10  22  41  67  96 140 180 225 288 344 412
#     4  10  22  42  65  99 138 179 228 288 352 410
#     4  11  24  44  68 102 145 178 240 287 349 411
#
# _framework density 27.029677
#
# number of rings (size 3 to 8) (size 9 to 14) (size 15 to 20)
#    0.000    1.600    4.000    1.200    2.800    2.400 
#    0.000   19.000    0.000    0.000    0.000    0.000 
#    0.000    0.000    0.000    0.000    0.000    0.000 
#
# Total GULP energy -112215.078641 kJ/mol
# GULP energy per Si atom -5610.753932 kJ/mol
# Density = 2.696816 g / cm^3
# Si number density = 27.029677 Si / 1000 Ang^3
#
#
#
# Elastic Constant Matrix: (Units=GPa)
#
#
# Indices 1 2 3 4 5 6 
#
# 1 198.0432 27.7437 14.1603 0.0000 -2.0847 0.0000
# 2 27.7437 91.1013 30.7255 0.0000 3.4740 0.0000
# 3 14.1603 30.7255 148.0597 0.0000 -13.5593 0.0000
# 4 0.0000 0.0000 0.0000 47.3735 0.0000 7.7452
# 5 -2.0847 3.4740 -13.5593 0.0000 44.6544 0.0000
# 6 0.0000 0.0000 0.0000 7.7452 0.0000 36.1593
#
#
#
# Elastic Compliance Matrix: (Units=1/GPa)
#
#
# Indices 1 2 3 4 5 6 
#
# 1 0.005284 -0.001571 -0.000150 0.000000 0.000323 0.000000
# 2 -0.001571 0.012398 -0.002590 0.000000 -0.001824 0.000000
# 3 -0.000150 -0.002590 0.007533 0.000000 0.002482 0.000000
# 4 0.000000 0.000000 0.000000 0.021875 0.000000 -0.004686
# 5 0.000323 -0.001824 0.002482 0.000000 0.023305 0.000000
# 6 0.000000 0.000000 0.000000 -0.004686 0.000000 0.028659
#
#
# Mechanical properties :
#
#
# Convention : Reuss Voigt Hill
#
# Bulk Modulus (GPa) = 60.26200 64.71815 62.49008
# Shear Modulus (GPa) = 44.16744 49.94242 47.05493
#
# Velocity S-wave (km/s) = 4.04671 4.30314 4.17689
# Velocity P-wave (km/s) = 6.64662 6.97744 6.81404
#
# Compressibility (1/GPa) = 0.01659420
#
# Stress axis : x y z
#
# Youngs Moduli (GPa) = 189.26570 80.65709 132.74814
#
# Poissons Ratio (x) = 0.12670 0.01987
# Poissons Ratio (y) = 0.29731 0.34378
# Poissons Ratio (z) = 0.02833 0.20888
#
# Static dielectric constant tensor:
#      x y z
#    x 2.053150 0.000000 -0.035420 
#    y 0.000000 2.226240 0.000000 
#    z -0.035420 0.000000 2.057300 
# 
# From -- ./inp_files/34531.got.cif
#   From: 2010.05.17/outbox.cif.g08.bks.cpg/sg14_18_cif.got.tgz:34531.got - 2010.06.03 17:49:19.
