data_PCOD9248740
_publ_section_title
;
Structure prediction by ZEFSAII (Michael W. Deem and Ramdas Pophale) SiO2 
 PCOD9248740
Probable space group: P 21/C
;
_chemical_formula_sum "Si O2"
_cell_formula_units_Z 24
_cell_length_a 10.312514
_cell_length_b 10.393795
_cell_length_c 15.984358
_cell_angle_alpha 90.000000
_cell_angle_beta 32.361960
_cell_angle_gamma 90.000000
_cell_volume 917.072438
_symmetry_space_group_name_H-M "P 21/C"
_symmetry_group_IT_number 14
_symmetry_cell_setting 'monoclinic'
loop_
_space_group_symop_operation_xyz
x,y,z
-x,1/2+y,1/2-z
-x,-y,-z
x,1/2-y,1/2+z
loop_
_atom_site_type_symbol
_atom_site_label
_atom_site_fract_x
_atom_site_fract_y
_atom_site_fract_z
Si Si1 0.934259 0.843418 0.808275
Si Si2 0.226989 0.965018 0.970738
Si Si3 0.848211 0.192567 0.566298
Si Si4 0.284236 0.351477 0.744207
Si Si5 0.440434 0.431813 0.188987
Si Si6 0.582819 0.294064 0.876808
O O1 0.880531 0.890230 0.744144
O O2 0.199360 0.778674 0.673590
O O3 0.685605 0.764743 0.964627
O O4 0.934446 0.957159 0.876729
O O5 0.146563 0.822211 0.991986
O O6 0.488784 0.943999 0.870619
O O7 0.260342 0.037545 0.864646
O O8 0.688839 0.093686 0.601619
O O9 0.710281 0.229756 0.725797
O O10 0.125216 0.148388 0.415695
O O11 0.370497 0.203788 0.685858
O O12 0.453883 0.554897 0.122796
#
# Coordination Sequence:
#
# PCOD9248740 Si02
#       6
#     4   4   4   4   4   4
#     4  12  26  46  66 106 142 184 223 287 357 408
#     4  10  22  44  71  97 137 182 232 280 345 408
#     4  10  22  43  72  99 132 183 239 281 330 416
#     4  11  25  41  71 100 140 180 230 285 349 411
#     4  10  22  45  68 100 131 182 238 281 338 401
#     4  11  26  45  73  98 143 183 231 284 346 412
#
# _framework density 26.170233
#
# number of rings (size 3 to 8) (size 9 to 14) (size 15 to 20)
#    0.000    1.333    1.667    2.500    9.333    5.333 
#    6.000    0.000    0.000    0.000    0.000    0.000 
#    0.000    0.000    0.000    0.000    0.000    0.000 
#
# Total GULP energy -134476.243955 kJ/mol
# GULP energy per Si atom -5603.176831 kJ/mol
# Density = 2.611067 g / cm^3
# Si number density = 26.170233 Si / 1000 Ang^3
#
#
#
# Elastic Constant Matrix: (Units=GPa)
#
#
# Indices 1 2 3 4 5 6 
#
# 1 114.9251 35.6681 16.6953 0.0000 -15.0628 0.0000
# 2 35.6681 94.7570 36.5289 0.0000 -5.0734 0.0000
# 3 16.6953 36.5289 113.6534 0.0000 -15.6997 0.0000
# 4 0.0000 0.0000 0.0000 7.7065 0.0000 -18.4712
# 5 -15.0628 -5.0734 -15.6997 0.0000 49.8959 0.0000
# 6 0.0000 0.0000 0.0000 -18.4712 0.0000 28.4260
#
#
#
# Elastic Compliance Matrix: (Units=1/GPa)
#
#
# Indices 1 2 3 4 5 6 
#
# 1 0.010203 -0.003723 0.000074 0.000000 0.002725 0.000000
# 2 -0.003723 0.013405 -0.003898 0.000000 -0.000988 0.000000
# 3 0.000074 -0.003898 0.010443 0.000000 0.002912 0.000000
# 4 0.000000 0.000000 0.000000 -0.232773 0.000000 -0.151256
# 5 0.002725 -0.000988 0.002912 0.000000 0.021680 0.000000
# 6 0.000000 0.000000 0.000000 -0.151256 0.000000 -0.063107
#
#
# Mechanical properties :
#
#
# Convention : Reuss Voigt Hill
#
# Bulk Modulus (GPa) = 52.75127 55.68002 54.21564
# Shear Modulus (GPa) = -22.85853 32.83523 4.98835
#
# Velocity S-wave (km/s) = -2.95863 3.54599 1.38212
# Velocity P-wave (km/s) = 2.92051 6.17152 4.82789
#
# Compressibility (1/GPa) = 0.01895689
#
# Stress axis : x y z
#
# Youngs Moduli (GPa) = 98.00770 74.60133 95.76005
#
# Poissons Ratio (x) = 0.27777 -0.00712
# Poissons Ratio (y) = 0.36493 0.37325
# Poissons Ratio (z) = -0.00728 0.29078
#
# Static dielectric constant tensor:
#      x y z
#    x 2.027430 0.000000 -0.015810 
#    y 0.000000 2.009260 0.000000 
#    z -0.015810 0.000000 2.122880 
# 
# From -- ./inp_files/28968.got.cif
#   From: 2010.05.17/outbox.cif.g08.bks.cpg/sg14_15_cif.got.tgz:28968.got - 2010.06.03 17:49:19.
