data_PCOD9248745
_publ_section_title
;
Structure prediction by ZEFSAII (Michael W. Deem and Ramdas Pophale) SiO2 
 PCOD9248745
Probable space group: P 21/C
;
_chemical_formula_sum "Si O2"
_cell_formula_units_Z 26
_cell_length_a 12.171934
_cell_length_b 17.049171
_cell_length_c 11.454457
_cell_angle_alpha 90.000000
_cell_angle_beta 23.956853
_cell_angle_gamma 90.000000
_cell_volume 965.195644
_symmetry_space_group_name_H-M "P 21/C"
_symmetry_group_IT_number 14
_symmetry_cell_setting 'monoclinic'
loop_
_space_group_symop_operation_xyz
x,y,z
-x,1/2+y,1/2-z
-x,-y,-z
x,1/2-y,1/2+z
loop_
_atom_site_type_symbol
_atom_site_label
_atom_site_fract_x
_atom_site_fract_y
_atom_site_fract_z
Si Si1 0.622192 0.321637 0.528226
Si Si2 0.833869 0.647633 0.213602
Si Si3 0.671833 0.689513 0.956466
Si Si4 0.000000 0.500000 0.500000
Si Si5 0.693627 0.346251 0.896813
Si Si6 0.354655 0.920873 0.303536
Si Si7 0.984741 0.051211 0.765943
O O1 0.338137 0.333603 0.735827
O O2 0.563034 0.300197 0.720551
O O3 0.780549 0.245781 0.321716
O O4 0.771366 0.404302 0.394273
O O5 0.813759 0.727681 0.306184
O O6 0.143483 0.622436 0.922456
O O7 0.648640 0.582420 0.459806
O O8 0.565628 0.661302 0.934757
O O9 0.849114 0.620211 0.833433
O O10 0.134994 0.584998 0.330206
O O11 0.868377 0.493298 0.492564
O O12 0.632076 0.375248 0.086526
O O13 0.202406 0.000826 0.483284
#
# Coordination Sequence:
#
# PCOD9248745 Si02
#       7
#     4   4   4   2   4   4   4
#     4  11  24  46  68 108 145 203 244 320 367 478
#     4  11  27  47  73 103 152 193 258 300 388 449
#     4  11  24  45  70 107 142 198 253 316 378 461
#     4  10  22  44  70 108 142 192 246 324 368 450
#     4  10  22  43  73 104 149 189 258 319 382 445
#     4  11  26  48  71 110 144 202 242 320 374 466
#     4  11  26  43  76 105 153 192 254 310 392 450
#
# _framework density 26.937543999999999
#
# number of rings (size 3 to 8) (size 9 to 14) (size 15 to 20)
#    0.000    1.231    3.077    0.923    4.308    6.154 
#    2.769    0.000    0.000    0.000    0.000    0.000 
#    0.000    0.000    0.000    0.000    0.000    0.000 
#
# Total GULP energy -145192.221054 kJ/mol
# GULP energy per Si atom -5584.316194 kJ/mol
# Density = 2.687623 g / cm^3
# Si number density = 26.937544 Si / 1000 Ang^3
#
#
#
# Elastic Constant Matrix: (Units=GPa)
#
#
# Indices 1 2 3 4 5 6 
#
# 1 130.4943 30.5818 30.5384 0.0000 1.2136 0.0000
# 2 30.5818 91.1975 6.2189 0.0000 -22.6449 0.0000
# 3 30.5384 6.2189 58.5205 0.0000 1.5034 0.0000
# 4 0.0000 0.0000 0.0000 15.4409 0.0000 -13.2982
# 5 1.2136 -22.6449 1.5034 0.0000 32.5330 0.0000
# 6 0.0000 0.0000 0.0000 -13.2982 0.0000 47.5748
#
#
#
# Elastic Compliance Matrix: (Units=1/GPa)
#
#
# Indices 1 2 3 4 5 6 
#
# 1 0.009587 -0.003555 -0.004558 0.000000 -0.002622 0.000000
# 2 -0.003555 0.014735 0.000022 0.000000 0.010388 0.000000
# 3 -0.004558 0.000022 0.019483 0.000000 -0.000715 0.000000
# 4 0.000000 0.000000 0.000000 0.085297 0.000000 0.023842
# 5 -0.002622 0.010388 -0.000715 0.000000 0.038100 0.000000
# 6 0.000000 0.000000 0.000000 0.023842 0.000000 0.027684
#
#
# Mechanical properties :
#
#
# Convention : Reuss Voigt Hill
#
# Bulk Modulus (GPa) = 36.20050 46.09896 41.14973
# Shear Modulus (GPa) = 22.69891 33.30129 28.00010
#
# Velocity S-wave (km/s) = 2.90599 3.51984 3.22754
# Velocity P-wave (km/s) = 4.97268 5.80254 5.40356
#
# Compressibility (1/GPa) = 0.02762393
#
# Stress axis : x y z
#
# Youngs Moduli (GPa) = 104.30391 67.86416 51.32808
#
# Poissons Ratio (x) = 0.24127 0.23395
# Poissons Ratio (y) = 0.37082 -0.00115
# Poissons Ratio (z) = 0.47541 -0.00152
#
# Static dielectric constant tensor:
#      x y z
#    x 2.074690 0.000000 0.077510 
#    y 0.000000 2.110030 0.000000 
#    z 0.077510 0.000000 2.149290 
# 
# From -- ./inp_files/30406.got.cif
#   From: 2010.05.17/outbox.cif.g08.bks.cpg/sg14_16_cif.got.tgz:30406.got - 2010.06.03 17:49:19.
