data_PCOD9248058
_publ_section_title
;
Structure prediction by ZEFSAII (Michael W. Deem and Ramdas Pophale) SiO2 
 PCOD9248058
Probable space group: P 21/C
;
_chemical_formula_sum "Si O2"
_cell_formula_units_Z 28
_cell_length_a 9.279704
_cell_length_b 10.462049
_cell_length_c 15.838164
_cell_angle_alpha 90.000000
_cell_angle_beta 53.005603
_cell_angle_gamma 90.000000
_cell_volume 1228.107336
_symmetry_space_group_name_H-M "P 21/C"
_symmetry_group_IT_number 14
_symmetry_cell_setting 'monoclinic'
loop_
_space_group_symop_operation_xyz
x,y,z
-x,1/2+y,1/2-z
-x,-y,-z
x,1/2-y,1/2+z
loop_
_atom_site_type_symbol
_atom_site_label
_atom_site_fract_x
_atom_site_fract_y
_atom_site_fract_z
Si Si1 0.615928 0.653575 0.009320
Si Si2 0.740140 0.479340 0.503884
Si Si3 0.141722 0.019842 0.859261
Si Si4 0.892420 0.803373 0.549582
Si Si5 0.544045 0.913359 0.362194
Si Si6 0.240497 0.575645 0.846425
Si Si7 0.632121 0.141768 0.874996
O O1 0.608301 0.682352 0.912589
O O2 0.784723 0.707059 0.999562
O O3 0.598114 0.504416 0.038150
O O4 0.438081 0.715879 0.110999
O O5 0.765936 0.447778 0.593890
O O6 0.556044 0.561048 0.563494
O O7 0.715087 0.376762 0.438341
O O8 0.941896 0.532945 0.413542
O O9 0.119465 0.169734 0.896500
O O10 0.274458 0.021327 0.734435
O O11 0.089906 0.851572 0.454111
O O12 0.794533 0.923132 0.630734
O O13 0.432557 0.879295 0.317772
O O14 0.241180 0.604398 0.746939
#
# Coordination Sequence:
#
# PCOD9248058 Si02
#       7
#     4   4   4   4   4   4   4
#     4  10  22  41  63  93 128 162 208 255 306 375
#     4  10  24  38  62  90 126 152 210 258 300 366
#     4  11  22  44  62  95 125 165 206 262 310 359
#     4  10  22  41  63  93 128 162 208 255 306 375
#     4  10  22  41  64  91 128 168 206 249 310 377
#     4  10  22  41  64  91 128 168 206 249 310 377
#     4  11  22  44  62  95 125 165 206 262 310 359
#
# _framework density 22.799309000000001
#
# number of rings (size 3 to 8) (size 9 to 14) (size 15 to 20)
#    0.000    1.714    2.857    0.000    4.000    4.571 
#    0.000    0.000    0.000    0.000    0.000    0.000 
#    0.000    0.000    0.000    0.000    0.000    0.000 
#
# Total GULP energy -156094.776245 kJ/mol
# GULP energy per Si atom -5574.813437 kJ/mol
# Density = 2.274742 g / cm^3
# Si number density = 22.799309 Si / 1000 Ang^3
#
#
#
# Elastic Constant Matrix: (Units=GPa)
#
#
# Indices 1 2 3 4 5 6 
#
# 1 78.4899 11.5992 11.0345 0.0000 -3.9518 0.0000
# 2 11.5992 67.2112 11.2804 0.0000 8.1468 0.0000
# 3 11.0345 11.2804 80.9147 0.0000 -6.1075 0.0000
# 4 0.0000 0.0000 0.0000 30.7853 0.0000 -7.8050
# 5 -3.9518 8.1468 -6.1075 0.0000 27.7870 0.0000
# 6 0.0000 0.0000 0.0000 -7.8050 0.0000 15.2363
#
#
#
# Elastic Compliance Matrix: (Units=1/GPa)
#
#
# Indices 1 2 3 4 5 6 
#
# 1 0.013393 -0.002369 -0.001322 0.000000 0.002309 0.000000
# 2 -0.002369 0.016374 -0.002387 0.000000 -0.005662 0.000000
# 3 -0.001322 -0.002387 0.013128 0.000000 0.003397 0.000000
# 4 0.000000 0.000000 0.000000 0.037331 0.000000 0.019123
# 5 0.002309 -0.005662 0.003397 0.000000 0.038723 0.000000
# 6 0.000000 0.000000 0.000000 0.019123 0.000000 0.075429
#
#
# Mechanical properties :
#
#
# Convention : Reuss Voigt Hill
#
# Bulk Modulus (GPa) = 32.53212 32.71602 32.62407
# Shear Modulus (GPa) = 23.06467 27.60848 25.33657
#
# Velocity S-wave (km/s) = 3.18408 3.48362 3.33721
# Velocity P-wave (km/s) = 5.27425 5.52825 5.40274
#
# Compressibility (1/GPa) = 0.03073885
#
# Stress axis : x y z
#
# Youngs Moduli (GPa) = 74.66760 61.07112 76.17207
#
# Poissons Ratio (x) = 0.14470 0.10068
# Poissons Ratio (y) = 0.17691 0.18183
# Poissons Ratio (z) = 0.09870 0.14578
#
# Static dielectric constant tensor:
#      x y z
#    x 1.882120 0.000000 0.026160 
#    y 0.000000 1.979640 0.000000 
#    z 0.026160 0.000000 1.818910 
# 
# From -- ./inp_files/39946.got.cif
#   From: 2010.05.17/outbox.cif.g08.bks.cpg/sg14_20_cif.got.tgz:39946.got - 2010.06.03 17:49:19.
