data_PCOD9248479
_publ_section_title
;
Structure prediction by ZEFSAII (Michael W. Deem and Ramdas Pophale) SiO2 
 PCOD9248479
Probable space group: P 21/C
;
_chemical_formula_sum "Si O2"
_cell_formula_units_Z 20
_cell_length_a 18.086024
_cell_length_b 4.860554
_cell_length_c 11.193272
_cell_angle_alpha 90.000000
_cell_angle_beta 130.268163
_cell_angle_gamma 90.000000
_cell_volume 750.803320
_symmetry_space_group_name_H-M "P 21/C"
_symmetry_group_IT_number 14
_symmetry_cell_setting 'monoclinic'
loop_
_space_group_symop_operation_xyz
x,y,z
-x,1/2+y,1/2-z
-x,-y,-z
x,1/2-y,1/2+z
loop_
_atom_site_type_symbol
_atom_site_label
_atom_site_fract_x
_atom_site_fract_y
_atom_site_fract_z
Si Si1 0.061627 0.160142 0.468261
Si Si2 0.133343 0.786709 0.349779
Si Si3 0.440328 0.452788 0.167273
Si Si4 0.400767 0.172705 0.885527
Si Si5 0.789391 0.765758 0.194118
O O1 0.141070 0.323771 0.624509
O O2 0.978264 0.329611 0.313778
O O3 0.120290 0.919602 0.463938
O O4 0.000000 0.000000 0.500000
O O5 0.160189 0.474753 0.347118
O O6 0.217331 0.977219 0.380833
O O7 0.461161 0.769081 0.217215
O O8 0.383917 0.320619 0.223753
O O9 0.416204 0.418172 0.000979
O O10 0.300915 0.077276 0.842241
O O11 0.500000 0.000000 0.000000
#
# Coordination Sequence:
#
# PCOD9248479 Si02
#       5
#     4   4   4   4   4
#     4  10  22  44  67  97 133 178 223 284 353 418
#     4  11  24  43  69  98 138 175 233 282 358 414
#     4  10  22  42  70  95 133 181 235 284 347 410
#     4  10  24  47  69 105 142 190 236 290 355 412
#     4  11  26  42  67 103 135 183 230 291 343 425
#
# _framework density 26.638135999999999
#
# number of rings (size 3 to 8) (size 9 to 14) (size 15 to 20)
#    0.000    1.600    0.000    3.600    2.800   11.200 
#    7.200    0.000    0.000    0.000    0.000    0.000 
#    0.000    0.000    0.000    0.000    0.000    0.000 
#
# Total GULP energy -111362.861565 kJ/mol
# GULP energy per Si atom -5568.143078 kJ/mol
# Density = 2.657751 g / cm^3
# Si number density = 26.638136 Si / 1000 Ang^3
#
#
#
# Elastic Constant Matrix: (Units=GPa)
#
#
# Indices 1 2 3 4 5 6 
#
# 1 162.7622 32.2235 3.0375 0.0000 -7.6358 0.0000
# 2 32.2235 102.6964 6.9472 0.0000 -6.0474 0.0000
# 3 3.0375 6.9472 57.8609 0.0000 -7.0102 0.0000
# 4 0.0000 0.0000 0.0000 25.2935 0.0000 -4.7281
# 5 -7.6358 -6.0474 -7.0102 0.0000 44.7729 0.0000
# 6 0.0000 0.0000 0.0000 -4.7281 0.0000 40.5243
#
#
#
# Elastic Compliance Matrix: (Units=1/GPa)
#
#
# Indices 1 2 3 4 5 6 
#
# 1 0.006583 -0.002015 -0.000001 0.000000 0.000850 0.000000
# 2 -0.002015 0.010494 -0.001044 0.000000 0.000910 0.000000
# 3 -0.000001 -0.001044 0.017727 0.000000 0.002635 0.000000
# 4 0.000000 0.000000 0.000000 0.040417 0.000000 0.004716
# 5 0.000850 0.000910 0.002635 0.000000 0.023015 0.000000
# 6 0.000000 0.000000 0.000000 0.004716 0.000000 0.025227
#
#
# Mechanical properties :
#
#
# Convention : Reuss Voigt Hill
#
# Bulk Modulus (GPa) = 34.86203 45.30398 40.08300
# Shear Modulus (GPa) = 35.93375 40.85891 38.39633
#
# Velocity S-wave (km/s) = 3.67680 3.92069 3.80070
# Velocity P-wave (km/s) = 5.58040 6.12698 5.86006
#
# Compressibility (1/GPa) = 0.02868450
#
# Stress axis : x y z
#
# Youngs Moduli (GPa) = 151.90997 95.29212 56.40991
#
# Poissons Ratio (x) = 0.19205 0.00003
# Poissons Ratio (y) = 0.30616 0.05889
# Poissons Ratio (z) = 0.00009 0.09948
#
# Static dielectric constant tensor:
#      x y z
#    x 2.089670 0.000000 0.030620 
#    y 0.000000 2.077550 0.000000 
#    z 0.030620 0.000000 2.392000 
# 
# From -- ./inp_files/30967.got.cif
#   From: 2010.05.17/outbox.cif.g08.bks.cpg/sg14_16_cif.got.tgz:30967.got - 2010.06.03 17:49:19.
