data_PCOD9248496
_publ_section_title
;
Structure prediction by ZEFSAII (Michael W. Deem and Ramdas Pophale) SiO2 
 PCOD9248496
Probable space group: P 21/C
;
_chemical_formula_sum "Si O2"
_cell_formula_units_Z 24
_cell_length_a 5.082867
_cell_length_b 8.409677
_cell_length_c 25.271722
_cell_angle_alpha 90.000000
_cell_angle_beta 59.836969
_cell_angle_gamma 90.000000
_cell_volume 933.980307
_symmetry_space_group_name_H-M "P 21/C"
_symmetry_group_IT_number 14
_symmetry_cell_setting 'monoclinic'
loop_
_space_group_symop_operation_xyz
x,y,z
-x,1/2+y,1/2-z
-x,-y,-z
x,1/2-y,1/2+z
loop_
_atom_site_type_symbol
_atom_site_label
_atom_site_fract_x
_atom_site_fract_y
_atom_site_fract_z
Si Si1 0.885319 0.552090 0.674894
Si Si2 0.999581 0.382492 0.862397
Si Si3 0.388648 0.482597 0.405410
Si Si4 0.371872 0.339826 0.968861
Si Si5 0.395895 0.460008 0.181330
Si Si6 0.492074 0.806031 0.432277
O O1 0.795426 0.731869 0.669092
O O2 0.759482 0.467423 0.635465
O O3 0.744898 0.531739 0.746535
O O4 0.247975 0.535615 0.639049
O O5 0.243211 0.517987 0.848136
O O6 0.745917 0.343331 0.931665
O O7 0.788544 0.406491 0.832484
O O8 0.290327 0.312079 0.440969
O O9 0.338516 0.633838 0.448842
O O10 0.316166 0.522147 0.954707
O O11 0.290965 0.312179 0.038141
O O12 0.355631 0.320053 0.141534
#
# Coordination Sequence:
#
# PCOD9248496 Si02
#       6
#     4   4   4   4   4   4
#     4  11  24  41  65  93 141 172 220 286 325 401
#     4  10  22  43  62  93 130 182 211 275 345 377
#     4  11  24  45  68 100 133 180 224 274 343 391
#     4   9  21  45  70  97 143 170 226 284 329 394
#     4  11  24  38  66  95 133 174 226 272 334 400
#     4  10  22  42  71 104 129 183 227 272 336 406
#
# _framework density 25.696473999999998
#
# number of rings (size 3 to 8) (size 9 to 14) (size 15 to 20)
#    0.000    1.667    0.000    4.500    4.667    3.333 
#    0.000   15.833    0.000    0.000    0.000    0.000 
#    0.000    0.000    0.000    0.000    0.000    0.000 
#
# Total GULP energy -133820.656947 kJ/mol
# GULP energy per Si atom -5575.860706 kJ/mol
# Density = 2.563799 g / cm^3
# Si number density = 25.696474 Si / 1000 Ang^3
#
#
#
# Elastic Constant Matrix: (Units=GPa)
#
#
# Indices 1 2 3 4 5 6 
#
# 1 113.8110 -5.5023 61.7015 0.0000 3.2207 0.0000
# 2 -5.5023 141.8609 43.6319 0.0000 19.1191 0.0000
# 3 61.7015 43.6319 143.6309 0.0000 13.4696 0.0000
# 4 0.0000 0.0000 0.0000 23.8718 0.0000 15.9779
# 5 3.2207 19.1191 13.4696 0.0000 37.7952 0.0000
# 6 0.0000 0.0000 0.0000 15.9779 0.0000 5.3702
#
#
#
# Elastic Compliance Matrix: (Units=1/GPa)
#
#
# Indices 1 2 3 4 5 6 
#
# 1 0.012087 0.002290 -0.005879 0.000000 -0.000093 0.000000
# 2 0.002290 0.008602 -0.003280 0.000000 -0.003378 0.000000
# 3 -0.005879 -0.003280 0.010637 0.000000 -0.001631 0.000000
# 4 0.000000 0.000000 0.000000 -0.042252 0.000000 0.125714
# 5 -0.000093 -0.003378 -0.001631 0.000000 0.028756 0.000000
# 6 0.000000 0.000000 0.000000 0.125714 0.000000 -0.187823
#
#
# Mechanical properties :
#
#
# Convention : Reuss Voigt Hill
#
# Bulk Modulus (GPa) = 56.85936 66.55165 61.70551
# Shear Modulus (GPa) = -33.24660 33.37219 0.06280
#
# Velocity S-wave (km/s) = -3.60087 3.60767 0.15649
# Velocity P-wave (km/s) = 2.21065 6.58096 4.90897
#
# Compressibility (1/GPa) = 0.01758725
#
# Stress axis : x y z
#
# Youngs Moduli (GPa) = 82.73194 116.25230 94.00928
#
# Poissons Ratio (x) = -0.26617 0.55271
# Poissons Ratio (y) = -0.18943 0.30834
# Poissons Ratio (z) = 0.48641 0.38130
#
# Static dielectric constant tensor:
#      x y z
#    x 2.071570 0.000000 0.042120 
#    y 0.000000 2.157350 0.000000 
#    z 0.042120 0.000000 2.174180 
# 
# From -- ./inp_files/75570.got.cif
#   From: 2010.05.17/outbox.cif.g08.bks.cpg/sg14_38_cif.got.tgz:75570.got - 2010.06.03 17:49:19.
