data_PCOD9248614
_publ_section_title
;
Structure prediction by ZEFSAII (Michael W. Deem and Ramdas Pophale) SiO2 
 PCOD9248614
Probable space group: P 21/C
;
_chemical_formula_sum "Si O2"
_cell_formula_units_Z 28
_cell_length_a 18.886885
_cell_length_b 8.885477
_cell_length_c 9.432475
_cell_angle_alpha 90.000000
_cell_angle_beta 127.486130
_cell_angle_gamma 90.000000
_cell_volume 1256.070603
_symmetry_space_group_name_H-M "P 21/C"
_symmetry_group_IT_number 14
_symmetry_cell_setting 'monoclinic'
loop_
_space_group_symop_operation_xyz
x,y,z
-x,1/2+y,1/2-z
-x,-y,-z
x,1/2-y,1/2+z
loop_
_atom_site_type_symbol
_atom_site_label
_atom_site_fract_x
_atom_site_fract_y
_atom_site_fract_z
Si Si1 0.114639 0.331545 0.397307
Si Si2 0.876107 0.201442 0.724584
Si Si3 0.251872 0.556203 0.420783
Si Si4 0.206872 0.037481 0.555104
Si Si5 0.026886 0.877230 0.878813
Si Si6 0.567180 0.155177 0.934230
Si Si7 0.600761 0.050533 0.296433
O O1 0.193530 0.436618 0.434073
O O2 0.168450 0.201447 0.542836
O O3 0.046577 0.442227 0.399663
O O4 0.058113 0.235290 0.211845
O O5 0.780248 0.277153 0.578485
O O6 0.942141 0.324776 0.739468
O O7 0.868397 0.047934 0.627561
O O8 0.901834 0.174309 0.916735
O O9 0.357871 0.552076 0.552811
O O10 0.222239 0.541510 0.222352
O O11 0.300874 0.025337 0.587219
O O12 0.582327 0.324125 0.894733
O O13 0.471413 0.083723 0.784659
O O14 0.585212 0.134299 0.124847
#
# Coordination Sequence:
#
# PCOD9248614 Si02
#       7
#     4   4   4   4   4   4   4
#     4  11  27  42  66  96 130 173 220 279 325 399
#     4  11  22  43  68  93 124 175 217 269 319 396
#     4  10  23  43  66  95 131 171 219 271 324 386
#     4  11  23  42  65  96 131 173 215 274 320 388
#     4  11  26  42  67  94 128 171 223 268 336 381
#     4  10  22  43  67 100 133 173 211 268 323 393
#     4  10  23  42  70  97 137 170 215 263 329 389
#
# _framework density 22.291740999999998
#
# number of rings (size 3 to 8) (size 9 to 14) (size 15 to 20)
#    0.000    1.429    2.857    0.857    6.000    2.857 
#    0.000    0.000    0.000    0.000    0.000    0.000 
#    0.000    0.000    0.000    0.000    0.000    0.000 
#
# Total GULP energy -156091.746020 kJ/mol
# GULP energy per Si atom -5574.705215 kJ/mol
# Density = 2.224100 g / cm^3
# Si number density = 22.291741 Si / 1000 Ang^3
#
#
#
# Elastic Constant Matrix: (Units=GPa)
#
#
# Indices 1 2 3 4 5 6 
#
# 1 74.1850 16.0286 -1.7843 0.0000 18.0620 0.0000
# 2 16.0286 105.9197 4.9244 0.0000 4.4188 0.0000
# 3 -1.7843 4.9244 27.7243 0.0000 8.9492 0.0000
# 4 0.0000 0.0000 0.0000 11.7597 0.0000 6.5833
# 5 18.0620 4.4188 8.9492 0.0000 29.2014 0.0000
# 6 0.0000 0.0000 0.0000 6.5833 0.0000 39.1608
#
#
#
# Elastic Compliance Matrix: (Units=1/GPa)
#
#
# Indices 1 2 3 4 5 6 
#
# 1 0.016977 -0.002324 0.005306 0.000000 -0.011775 0.000000
# 2 -0.002324 0.009866 -0.002091 0.000000 0.000586 0.000000
# 3 0.005306 -0.002091 0.041883 0.000000 -0.015801 0.000000
# 4 0.000000 0.000000 0.000000 0.093870 0.000000 -0.015780
# 5 -0.011775 0.000586 -0.015801 0.000000 0.046282 0.000000
# 6 0.000000 0.000000 0.000000 -0.015780 0.000000 0.028189
#
#
# Mechanical properties :
#
#
# Convention : Reuss Voigt Hill
#
# Bulk Modulus (GPa) = 14.18304 27.35182 20.76743
# Shear Modulus (GPa) = 19.32096 28.60173 23.96135
#
# Velocity S-wave (km/s) = 2.94723 3.58587 3.28212
# Velocity P-wave (km/s) = 4.23766 5.42598 4.86821
#
# Compressibility (1/GPa) = 0.07050675
#
# Stress axis : x y z
#
# Youngs Moduli (GPa) = 58.90474 101.36171 23.87613
#
# Poissons Ratio (x) = 0.23561 -0.12670
# Poissons Ratio (y) = 0.13692 0.04993
# Poissons Ratio (z) = -0.31257 0.21195
#
# Static dielectric constant tensor:
#      x y z
#    x 1.885720 0.000000 0.025300 
#    y 0.000000 1.840930 0.000000 
#    z 0.025300 0.000000 1.773540 
# 
# From -- ./inp_files/18771.got.cif
#   From: 2010.05.17/outbox.cif.g08.bks.cpg/sg14_10_cif.got.tgz:18771.got - 2010.06.03 17:49:19.
