data_PCOD9248424
_publ_section_title
;
Structure prediction by ZEFSAII (Michael W. Deem and Ramdas Pophale) SiO2 
 PCOD9248424
Probable space group: P 21/C
;
_chemical_formula_sum "Si O2"
_cell_formula_units_Z 26
_cell_length_a 13.032499
_cell_length_b 6.888444
_cell_length_c 12.634236
_cell_angle_alpha 90.000000
_cell_angle_beta 100.573073
_cell_angle_gamma 90.000000
_cell_volume 1114.964188
_symmetry_space_group_name_H-M "P 21/C"
_symmetry_group_IT_number 14
_symmetry_cell_setting 'monoclinic'
loop_
_space_group_symop_operation_xyz
x,y,z
-x,1/2+y,1/2-z
-x,-y,-z
x,1/2-y,1/2+z
loop_
_atom_site_type_symbol
_atom_site_label
_atom_site_fract_x
_atom_site_fract_y
_atom_site_fract_z
Si Si1 0.951889 0.298945 0.585892
Si Si2 0.540441 0.295894 0.816233
Si Si3 0.860925 0.684115 0.528678
Si Si4 0.500000 0.000000 0.000000
Si Si5 0.119124 0.452142 0.779532
Si Si6 0.655479 0.024501 0.698460
Si Si7 0.353338 0.365843 0.036832
O O1 0.031634 0.249279 0.506675
O O2 0.025303 0.416584 0.682027
O O3 0.865057 0.450669 0.529898
O O4 0.907408 0.116905 0.639681
O O5 0.602499 0.223444 0.725308
O O6 0.420552 0.355463 0.774266
O O7 0.594864 0.489601 0.870312
O O8 0.542579 0.128414 0.904606
O O9 0.859747 0.757936 0.649295
O O10 0.760989 0.784196 0.457234
O O11 0.424996 0.185048 0.018690
O O12 0.225887 0.510057 0.742132
O O13 0.657131 0.995823 0.572514
#
# Coordination Sequence:
#
# PCOD9248424 Si02
#       7
#     4   4   4   2   4   4   4
#     4  11  23  42  70  95 135 175 222 282 342 395
#     4  11  25  43  69  99 139 178 229 279 337 411
#     4  10  24  44  67  98 131 176 226 276 337 409
#     4  10  22  42  68  94 136 176 218 282 326 404
#     4  11  23  45  66  99 135 173 225 279 337 405
#     4  10  25  44  66  99 135 176 226 273 342 399
#     4  10  24  46  69 101 137 178 233 279 344 407
#
# _framework density 23.319134999999999
#
# number of rings (size 3 to 8) (size 9 to 14) (size 15 to 20)
#    0.000    1.538    1.538    2.308    6.462    4.923 
#   11.077    0.000    0.000    0.000    0.000    0.000 
#    0.000    0.000    0.000    0.000    0.000    0.000 
#
# Total GULP energy -145017.960232 kJ/mol
# GULP energy per Si atom -5577.613855 kJ/mol
# Density = 2.326606 g / cm^3
# Si number density = 23.319135 Si / 1000 Ang^3
#
#
#
# Elastic Constant Matrix: (Units=GPa)
#
#
# Indices 1 2 3 4 5 6 
#
# 1 101.1236 41.2368 15.2455 0.0000 -9.1596 0.0000
# 2 41.2368 87.4680 15.9742 0.0000 5.9021 0.0000
# 3 15.2455 15.9742 38.6688 0.0000 -0.3111 0.0000
# 4 0.0000 0.0000 0.0000 45.6796 0.0000 -11.4301
# 5 -9.1596 5.9021 -0.3111 0.0000 23.9376 0.0000
# 6 0.0000 0.0000 0.0000 -11.4301 0.0000 33.6960
#
#
#
# Elastic Compliance Matrix: (Units=1/GPa)
#
#
# Indices 1 2 3 4 5 6 
#
# 1 0.013469 -0.006317 -0.002647 0.000000 0.006677 0.000000
# 2 -0.006317 0.015565 -0.003990 0.000000 -0.006307 0.000000
# 3 -0.002647 -0.003990 0.028555 0.000000 0.000342 0.000000
# 4 0.000000 0.000000 0.000000 0.023922 0.000000 0.008115
# 5 0.006677 -0.006307 0.000342 0.000000 0.045890 0.000000
# 6 0.000000 0.000000 0.000000 0.008115 0.000000 0.032430
#
#
# Mechanical properties :
#
#
# Convention : Reuss Voigt Hill
#
# Bulk Modulus (GPa) = 31.56459 41.35259 36.45859
# Shear Modulus (GPa) = 25.47131 30.98288 28.22709
#
# Velocity S-wave (km/s) = 3.30857 3.64901 3.48295
# Velocity P-wave (km/s) = 5.30668 5.96033 5.64298
#
# Compressibility (1/GPa) = 0.03168107
#
# Stress axis : x y z
#
# Youngs Moduli (GPa) = 74.24627 64.24595 35.01968
#
# Poissons Ratio (x) = 0.40584 0.09269
# Poissons Ratio (y) = 0.46901 0.13974
# Poissons Ratio (z) = 0.19652 0.25636
#
# Static dielectric constant tensor:
#      x y z
#    x 1.804880 0.000000 0.025600 
#    y 0.000000 1.821770 0.000000 
#    z 0.025600 0.000000 1.936320 
# 
# From -- ./inp_files/45956.got.cif
#   From: 2010.05.17/outbox.cif.g08.bks.cpg/sg14_23_cif.got.tgz:45956.got - 2010.06.03 17:49:19.
