data_PCOD9248841
_publ_section_title
;
Structure prediction by ZEFSAII (Michael W. Deem and Ramdas Pophale) SiO2 
 PCOD9248841
Probable space group: P 21/C
;
_chemical_formula_sum "Si O2"
_cell_formula_units_Z 16
_cell_length_a 9.075634
_cell_length_b 5.497394
_cell_length_c 21.545969
_cell_angle_alpha 90.000000
_cell_angle_beta 42.470080
_cell_angle_gamma 90.000000
_cell_volume 725.831124
_symmetry_space_group_name_H-M "P 21/C"
_symmetry_group_IT_number 14
_symmetry_cell_setting 'monoclinic'
loop_
_space_group_symop_operation_xyz
x,y,z
-x,1/2+y,1/2-z
-x,-y,-z
x,1/2-y,1/2+z
loop_
_atom_site_type_symbol
_atom_site_label
_atom_site_fract_x
_atom_site_fract_y
_atom_site_fract_z
Si Si1 0.553322 0.128475 0.047860
Si Si2 0.987142 0.586522 0.100133
Si Si3 0.173251 0.196634 0.968896
Si Si4 0.114946 0.264260 0.234453
O O1 0.353714 0.293756 0.130759
O O2 0.597595 0.920973 0.085639
O O3 0.782051 0.269417 0.973649
O O4 0.500000 0.000000 0.000000
O O5 0.831406 0.624262 0.088472
O O6 0.876288 0.676963 0.196909
O O7 0.073133 0.313370 0.062635
O O8 0.000000 0.000000 0.000000
O O9 0.993169 0.523520 0.264471
#
# Coordination Sequence:
#
# PCOD9248841 Si02
#       4
#     4   4   4   4
#     4  11  22  42  69  96 135 179 225 278 344 399
#     4  10  22  44  68  95 137 176 226 284 338 409
#     4   9  21  42  66  94 131 176 222 280 341 398
#     4  12  27  43  68 104 136 178 229 282 336 409
#
# _framework density 22.043696000000001
#
# number of rings (size 3 to 8) (size 9 to 14) (size 15 to 20)
#    0.000    1.500    2.500    1.500    7.000    2.000 
#   13.500    0.000    0.000    0.000    0.000    0.000 
#    0.000    0.000    0.000    0.000    0.000    0.000 
#
# Total GULP energy -89240.109395 kJ/mol
# GULP energy per Si atom -5577.506837 kJ/mol
# Density = 2.199352 g / cm^3
# Si number density = 22.043696 Si / 1000 Ang^3
#
#
#
# Elastic Constant Matrix: (Units=GPa)
#
#
# Indices 1 2 3 4 5 6 
#
# 1 102.6688 15.8697 13.8088 0.0000 2.3195 0.0000
# 2 15.8697 67.8805 -15.1014 0.0000 -3.3334 0.0000
# 3 13.8088 -15.1014 75.9027 0.0000 2.5671 0.0000
# 4 0.0000 0.0000 0.0000 23.1123 0.0000 6.0641
# 5 2.3195 -3.3334 2.5671 0.0000 30.8619 0.0000
# 6 0.0000 0.0000 0.0000 6.0641 0.0000 26.4261
#
#
#
# Elastic Compliance Matrix: (Units=1/GPa)
#
#
# Indices 1 2 3 4 5 6 
#
# 1 0.010573 -0.003074 -0.002504 0.000000 -0.000918 0.000000
# 2 -0.003074 0.016370 0.003759 0.000000 0.001686 0.000000
# 3 -0.002504 0.003759 0.014399 0.000000 -0.000603 0.000000
# 4 0.000000 0.000000 0.000000 0.046039 0.000000 -0.010565
# 5 -0.000918 0.001686 -0.000603 0.000000 0.032704 0.000000
# 6 0.000000 0.000000 0.000000 -0.010565 0.000000 0.040266
#
#
# Mechanical properties :
#
#
# Convention : Reuss Voigt Hill
#
# Bulk Modulus (GPa) = 26.52307 30.62291 28.57299
# Shear Modulus (GPa) = 28.31984 31.53839 29.92911
#
# Velocity S-wave (km/s) = 3.58818 3.78659 3.68872
# Velocity P-wave (km/s) = 5.40600 5.74802 5.57963
#
# Compressibility (1/GPa) = 0.03770302
#
# Stress axis : x y z
#
# Youngs Moduli (GPa) = 94.58287 61.08916 69.45118
#
# Poissons Ratio (x) = 0.18778 0.17391
# Poissons Ratio (y) = 0.29074 -0.26107
# Poissons Ratio (z) = 0.23683 -0.22964
#
# Static dielectric constant tensor:
#      x y z
#    x 1.821220 0.000000 0.035230 
#    y 0.000000 1.970410 0.000000 
#    z 0.035230 0.000000 1.797970 
# 
# From -- ./inp_files/30943.got.cif
#   From: 2010.05.17/outbox.cif.g08.bks.cpg/sg14_16_cif.got.tgz:30943.got - 2010.06.03 17:49:19.
