data_PCOD9248273
_publ_section_title
;
Structure prediction by ZEFSAII (Michael W. Deem and Ramdas Pophale) SiO2 
 PCOD9248273
Probable space group: P 21/C
;
_chemical_formula_sum "Si O2"
_cell_formula_units_Z 20
_cell_length_a 13.452668
_cell_length_b 12.662502
_cell_length_c 11.916648
_cell_angle_alpha 90.000000
_cell_angle_beta 31.027193
_cell_angle_gamma 90.000000
_cell_volume 1046.319344
_symmetry_space_group_name_H-M "P 21/C"
_symmetry_group_IT_number 14
_symmetry_cell_setting 'monoclinic'
loop_
_space_group_symop_operation_xyz
x,y,z
-x,1/2+y,1/2-z
-x,-y,-z
x,1/2-y,1/2+z
loop_
_atom_site_type_symbol
_atom_site_label
_atom_site_fract_x
_atom_site_fract_y
_atom_site_fract_z
Si Si1 0.918752 0.200397 0.989404
Si Si2 0.242164 0.396673 0.037576
Si Si3 0.648531 0.080976 0.416988
Si Si4 0.940401 0.100644 0.628695
Si Si5 0.372989 0.702930 0.432774
O O1 0.126867 0.162794 0.747046
O O2 0.808743 0.111836 0.169516
O O3 0.945904 0.299774 0.042137
O O4 0.784235 0.228015 0.012362
O O5 0.274401 0.514235 0.052247
O O6 0.098645 0.392791 0.072350
O O7 0.439667 0.341769 0.810042
O O8 0.581963 0.194164 0.533665
O O9 0.500000 0.000000 0.500000
O O10 0.731191 0.112395 0.890887
O O11 0.000000 0.000000 0.500000
#
# Coordination Sequence:
#
# PCOD9248273 Si02
#       5
#     4   4   4   4   4
#     4  10  22  42  62  90 126 159 206 256 305 370
#     4  11  23  39  63  91 118 163 207 250 309 366
#     4  11  22  40  65  87 125 166 204 255 311 366
#     4  10  23  40  61  88 126 160 197 257 312 362
#     4  10  23  40  60  93 123 155 214 254 298 380
#
# _framework density 19.114623000000002
#
# number of rings (size 3 to 8) (size 9 to 14) (size 15 to 20)
#    0.000    1.600    2.000    1.800    2.800    2.400 
#    3.600    0.000    0.000    0.000    0.000    0.000 
#    0.000    0.000    0.000    0.000    0.000    0.000 
#
# Total GULP energy -111561.078584 kJ/mol
# GULP energy per Si atom -5578.053929 kJ/mol
# Density = 1.907112 g / cm^3
# Si number density = 19.114623 Si / 1000 Ang^3
#
#
#
# Elastic Constant Matrix: (Units=GPa)
#
#
# Indices 1 2 3 4 5 6 
#
# 1 61.5840 42.3761 34.4475 0.0000 5.9023 0.0000
# 2 42.3761 104.0515 80.9741 0.0000 -1.7247 0.0000
# 3 34.4475 80.9741 174.5231 0.0000 1.4779 0.0000
# 4 0.0000 0.0000 0.0000 32.4470 0.0000 13.6099
# 5 5.9023 -1.7247 1.4779 0.0000 26.6222 0.0000
# 6 0.0000 0.0000 0.0000 13.6099 0.0000 30.1022
#
#
#
# Elastic Compliance Matrix: (Units=1/GPa)
#
#
# Indices 1 2 3 4 5 6 
#
# 1 0.023430 -0.009512 -0.000162 0.000000 -0.005802 0.000000
# 2 -0.009512 0.018953 -0.006948 0.000000 0.003722 0.000000
# 3 -0.000162 -0.006948 0.008993 0.000000 -0.000913 0.000000
# 4 0.000000 0.000000 0.000000 0.038032 0.000000 -0.017195
# 5 -0.005802 0.003722 -0.000913 0.000000 0.039141 0.000000
# 6 0.000000 0.000000 0.000000 -0.017195 0.000000 0.040994
#
#
# Mechanical properties :
#
#
# Convention : Reuss Voigt Hill
#
# Bulk Modulus (GPa) = 55.15015 72.86156 64.00586
# Shear Modulus (GPa) = 23.94274 29.99167 26.96720
#
# Velocity S-wave (km/s) = 3.54303 3.96541 3.76016
# Velocity P-wave (km/s) = 6.75666 7.69201 7.23945
#
# Compressibility (1/GPa) = 0.01813232
#
# Stress axis : x y z
#
# Youngs Moduli (GPa) = 42.68021 52.76193 111.19518
#
# Poissons Ratio (x) = 0.50188 0.01803
# Poissons Ratio (y) = 0.40598 0.77255
# Poissons Ratio (z) = 0.00692 0.36658
#
# Static dielectric constant tensor:
#      x y z
#    x 1.670810 0.000000 0.012330 
#    y 0.000000 1.668580 0.000000 
#    z 0.012330 0.000000 1.681030 
# 
# From -- ./inp_files/20484.got.cif
#   From: 2010.05.17/outbox.cif.g08.bks.cpg/sg14_11_cif.got.tgz:20484.got - 2010.06.03 17:49:19.
