data_PCOD9248604
_publ_section_title
;
Structure prediction by ZEFSAII (Michael W. Deem and Ramdas Pophale) SiO2 
 PCOD9248604
Probable space group: P 21/C
;
_chemical_formula_sum "Si O2"
_cell_formula_units_Z 20
_cell_length_a 9.520218
_cell_length_b 6.653078
_cell_length_c 21.444009
_cell_angle_alpha 90.000000
_cell_angle_beta 143.006163
_cell_angle_gamma 90.000000
_cell_volume 817.290620
_symmetry_space_group_name_H-M "P 21/C"
_symmetry_group_IT_number 14
_symmetry_cell_setting 'monoclinic'
loop_
_space_group_symop_operation_xyz
x,y,z
-x,1/2+y,1/2-z
-x,-y,-z
x,1/2-y,1/2+z
loop_
_atom_site_type_symbol
_atom_site_label
_atom_site_fract_x
_atom_site_fract_y
_atom_site_fract_z
Si Si1 0.568558 0.049377 0.345137
Si Si2 0.158034 0.853214 0.349426
Si Si3 0.892979 0.152384 0.810008
Si Si4 0.354360 0.299585 0.001916
Si Si5 0.269247 0.096107 0.723401
O O1 0.508257 0.287038 0.325952
O O2 0.310806 0.977700 0.232471
O O3 0.617968 0.947366 0.428865
O O4 0.736530 0.954726 0.352504
O O5 0.062218 0.896175 0.246644
O O6 0.390631 0.718319 0.425172
O O7 0.956086 0.795597 0.325724
O O8 0.263151 0.061893 0.412861
O O9 0.766626 0.371995 0.762732
O O10 0.134373 0.155500 0.932903
#
# Coordination Sequence:
#
# PCOD9248604 Si02
#       5
#     4   4   4   4   4
#     4  11  23  44  67  94 133 178 216 263 329 385
#     4   9  21  38  66  97 123 167 215 263 324 378
#     4  10  22  43  66  95 135 165 218 272 324 385
#     4   9  21  43  68  95 130 175 213 269 332 382
#     4  11  23  41  67  97 132 175 213 271 321 383
#
# _framework density 24.471098999999999
#
# number of rings (size 3 to 8) (size 9 to 14) (size 15 to 20)
#    0.000    2.000    2.000    0.000   14.000    3.200 
#    0.000   11.000    0.000    0.000    0.000    0.000 
#    0.000    0.000    0.000    0.000    0.000    0.000 
#
# Total GULP energy -111503.791119 kJ/mol
# GULP energy per Si atom -5575.189556 kJ/mol
# Density = 2.441540 g / cm^3
# Si number density = 24.471099 Si / 1000 Ang^3
#
#
#
# Elastic Constant Matrix: (Units=GPa)
#
#
# Indices 1 2 3 4 5 6 
#
# 1 162.7231 18.3173 30.2901 0.0000 -11.5502 0.0000
# 2 18.3173 28.5873 1.2165 0.0000 -1.9464 0.0000
# 3 30.2901 1.2165 50.6254 0.0000 -2.6525 0.0000
# 4 0.0000 0.0000 0.0000 28.1215 0.0000 -6.7944
# 5 -11.5502 -1.9464 -2.6525 0.0000 30.2137 0.0000
# 6 0.0000 0.0000 0.0000 -6.7944 0.0000 20.0113
#
#
#
# Elastic Compliance Matrix: (Units=1/GPa)
#
#
# Indices 1 2 3 4 5 6 
#
# 1 0.007623 -0.004548 -0.004334 0.000000 0.002241 0.000000
# 2 -0.004548 0.037874 0.001856 0.000000 0.000864 0.000000
# 3 -0.004334 0.001856 0.022324 0.000000 0.000422 0.000000
# 4 0.000000 0.000000 0.000000 0.038738 0.000000 0.013152
# 5 0.002241 0.000864 0.000422 0.000000 0.034047 0.000000
# 6 0.000000 0.000000 0.000000 0.013152 0.000000 0.054437
#
#
# Mechanical properties :
#
#
# Convention : Reuss Voigt Hill
#
# Bulk Modulus (GPa) = 18.59790 37.95371 28.27581
# Shear Modulus (GPa) = 22.02466 28.47675 25.25071
#
# Velocity S-wave (km/s) = 3.00330 3.41499 3.21574
# Velocity P-wave (km/s) = 4.43203 5.57609 5.03665
#
# Compressibility (1/GPa) = 0.05376952
#
# Stress axis : x y z
#
# Youngs Moduli (GPa) = 131.17863 26.40313 44.79523
#
# Poissons Ratio (x) = 0.12007 0.19416
# Poissons Ratio (y) = 0.59654 -0.08314
# Poissons Ratio (z) = 0.56858 -0.04901
#
# Static dielectric constant tensor:
#      x y z
#    x 1.997660 0.000000 0.086890 
#    y 0.000000 2.192500 0.000000 
#    z 0.086890 0.000000 1.945620 
# 
# From -- ./inp_files/54383.got.cif
#   From: 2010.05.17/outbox.cif.g08.bks.cpg/sg14_28_cif.got.tgz:54383.got - 2010.06.03 17:49:19.
