data_PCOD9248379
_publ_section_title
;
Structure prediction by ZEFSAII (Michael W. Deem and Ramdas Pophale) SiO2 
 PCOD9248379
Probable space group: P 21/C
;
_chemical_formula_sum "Si O2"
_cell_formula_units_Z 28
_cell_length_a 17.368282
_cell_length_b 8.711142
_cell_length_c 22.988031
_cell_angle_alpha 90.000000
_cell_angle_beta 158.185826
_cell_angle_gamma 90.000000
_cell_volume 1292.428515
_symmetry_space_group_name_H-M "P 21/C"
_symmetry_group_IT_number 14
_symmetry_cell_setting 'monoclinic'
loop_
_space_group_symop_operation_xyz
x,y,z
-x,1/2+y,1/2-z
-x,-y,-z
x,1/2-y,1/2+z
loop_
_atom_site_type_symbol
_atom_site_label
_atom_site_fract_x
_atom_site_fract_y
_atom_site_fract_z
Si Si1 0.551898 0.344850 0.572101
Si Si2 0.910824 0.497942 0.873083
Si Si3 0.804632 0.684595 0.587501
Si Si4 0.074383 0.852977 0.874483
Si Si5 0.483070 0.175900 0.308071
Si Si6 0.699148 0.906800 0.408231
Si Si7 0.304010 0.190259 0.305478
O O1 0.500000 0.500000 0.500000
O O2 0.784072 0.352071 0.759494
O O3 0.405301 0.346665 0.524792
O O4 0.480679 0.208563 0.479114
O O5 0.757605 0.639382 0.759183
O O6 0.000000 0.500000 0.000000
O O7 0.105765 0.514350 0.968145
O O8 0.958424 0.758476 0.742379
O O9 0.753447 0.804741 0.501492
O O10 0.887077 0.525932 0.619745
O O11 0.910137 0.862642 0.813462
O O12 0.297526 0.768161 0.036422
O O13 0.335983 0.293877 0.170593
O O14 0.400370 0.123891 0.313665
O O15 0.512168 0.021694 0.290623
#
# Coordination Sequence:
#
# PCOD9248379 Si02
#       7
#     4   4   4   4   4   4   4
#     4   9  21  39  68  96 132 176 227 272 334 407
#     4  11  21  41  67  98 132 185 229 269 334 424
#     4  11  25  44  68 104 132 179 227 282 344 411
#     4  11  23  44  70  98 141 174 225 282 341 409
#     4  12  25  45  69  98 142 179 226 286 336 412
#     4  12  27  44  68 100 135 184 229 279 350 402
#     4  10  22  42  67 103 134 177 226 283 342 400
#
# _framework density 21.664641
#
# number of rings (size 3 to 8) (size 9 to 14) (size 15 to 20)
#    0.000    1.143    2.857    3.429    8.000    0.000 
#    2.571    3.571    0.000    0.000    0.000    0.000 
#    0.000    0.000    0.000    0.000    0.000    0.000 
#
# Total GULP energy -156305.269452 kJ/mol
# GULP energy per Si atom -5582.331052 kJ/mol
# Density = 2.161533 g / cm^3
# Si number density = 21.664641 Si / 1000 Ang^3
#
#
#
# Elastic Constant Matrix: (Units=GPa)
#
#
# Indices 1 2 3 4 5 6 
#
# 1 132.1814 4.2424 11.9937 0.0000 -2.5356 0.0000
# 2 4.2424 -6.1390 -39.7413 0.0000 -16.0338 0.0000
# 3 11.9937 -39.7413 62.6765 0.0000 -15.9299 0.0000
# 4 0.0000 0.0000 0.0000 9.4087 0.0000 -9.2364
# 5 -2.5356 -16.0338 -15.9299 0.0000 14.4482 0.0000
# 6 0.0000 0.0000 0.0000 -9.2364 0.0000 19.1916
#
#
#
# Elastic Compliance Matrix: (Units=1/GPa)
#
#
# Indices 1 2 3 4 5 6 
#
# 1 0.007597 0.001029 -0.000240 0.000000 0.002210 0.000000
# 2 0.001029 -0.010168 -0.013152 0.000000 -0.025604 0.000000
# 3 -0.000240 -0.013152 0.005476 0.000000 -0.008600 0.000000
# 4 0.000000 0.000000 0.000000 0.201473 0.000000 0.096964
# 5 0.002210 -0.025604 -0.008600 0.000000 0.031704 0.000000
# 6 0.000000 0.000000 0.000000 0.096964 0.000000 0.098772
#
#
# Mechanical properties :
#
#
# Convention : Reuss Voigt Hill
#
# Bulk Modulus (GPa) = -45.82448 15.74536 -15.03956
# Shear Modulus (GPa) = 14.19225 22.75799 18.47512
#
# Velocity S-wave (km/s) = 2.56225 3.24461 2.92340
# Velocity P-wave (km/s) = 3.52763 4.61738 2.10666
#
# Compressibility (1/GPa) = -0.02182240
#
# Stress axis : x y z
#
# Youngs Moduli (GPa) = 131.63951 -98.34382 182.62314
#
# Poissons Ratio (x) = 0.10115 0.04378
# Poissons Ratio (y) = -0.13540 2.40185
# Poissons Ratio (z) = 0.03156 -1.29341
#
# Static dielectric constant tensor:
#      x y z
#    x 1.830010 0.000000 0.054230 
#    y 0.000000 1.818280 0.000000 
#    z 0.054230 0.000000 1.845820 
# 
# From -- ./inp_files/68367.got.cif
#   From: 2010.05.17/outbox.cif.g08.bks.cpg/sg14_35_cif.got.tgz:68367.got - 2010.06.03 17:49:19.
