data_PCOD9248617
_publ_section_title
;
Structure prediction by ZEFSAII (Michael W. Deem and Ramdas Pophale) SiO2 
 PCOD9248617
Probable space group: P 21/C
;
_chemical_formula_sum "Si O2"
_cell_formula_units_Z 20
_cell_length_a 10.273129
_cell_length_b 15.727105
_cell_length_c 9.790413
_cell_angle_alpha 90.000000
_cell_angle_beta 30.935400
_cell_angle_gamma 90.000000
_cell_volume 813.159807
_symmetry_space_group_name_H-M "P 21/C"
_symmetry_group_IT_number 14
_symmetry_cell_setting 'monoclinic'
loop_
_space_group_symop_operation_xyz
x,y,z
-x,1/2+y,1/2-z
-x,-y,-z
x,1/2-y,1/2+z
loop_
_atom_site_type_symbol
_atom_site_label
_atom_site_fract_x
_atom_site_fract_y
_atom_site_fract_z
Si Si1 0.451558 0.863265 0.067452
Si Si2 0.995324 0.341440 0.226524
Si Si3 0.278437 0.029152 0.799892
Si Si4 0.792518 0.779769 0.199162
Si Si5 0.653995 0.986273 0.684383
O O1 0.277951 0.847281 0.093100
O O2 0.293827 0.915049 0.323226
O O3 0.588792 0.774750 0.969854
O O4 0.648210 0.933544 0.831908
O O5 0.129146 0.278467 0.997546
O O6 0.149876 0.430637 0.080378
O O7 0.998170 0.304488 0.376231
O O8 0.291514 0.130979 0.787163
O O9 0.500000 0.000000 0.500000
O O10 0.386419 0.993476 0.845446
O O11 0.000000 0.000000 0.000000
#
# Coordination Sequence:
#
# PCOD9248617 Si02
#       5
#     4   4   4   4   4
#     4  10  23  43  68  95 140 180 242 295 363 430
#     4  11  23  42  68  98 140 183 238 298 360 429
#     4  12  26  45  72 102 145 187 239 294 356 427
#     4  11  25  42  65 103 133 185 236 297 358 429
#     4  10  22  43  67 101 133 187 241 291 366 428
#
# _framework density 24.595410000000001
#
# number of rings (size 3 to 8) (size 9 to 14) (size 15 to 20)
#    0.000    1.200    2.000    3.000    2.800    4.800 
#    0.000    0.000    0.000    0.000    0.000    0.000 
#    0.000    0.000    0.000    0.000    0.000    0.000 
#
# Total GULP energy -111666.823214 kJ/mol
# GULP energy per Si atom -5583.341161 kJ/mol
# Density = 2.453943 g / cm^3
# Si number density = 24.595410 Si / 1000 Ang^3
#
#
#
# Elastic Constant Matrix: (Units=GPa)
#
#
# Indices 1 2 3 4 5 6 
#
# 1 122.9808 -2.3466 8.0001 0.0000 -11.1436 0.0000
# 2 -2.3466 124.6738 21.9078 0.0000 2.3268 0.0000
# 3 8.0001 21.9078 56.0491 0.0000 -0.2591 0.0000
# 4 0.0000 0.0000 0.0000 8.2230 0.0000 -0.0354
# 5 -11.1436 2.3268 -0.2591 0.0000 39.1824 0.0000
# 6 0.0000 0.0000 0.0000 -0.0354 0.0000 36.3676
#
#
#
# Elastic Compliance Matrix: (Units=1/GPa)
#
#
# Indices 1 2 3 4 5 6 
#
# 1 0.008439 0.000348 -0.001330 0.000000 0.002371 0.000000
# 2 0.000348 0.008638 -0.003428 0.000000 -0.000437 0.000000
# 3 -0.001330 -0.003428 0.019371 0.000000 -0.000047 0.000000
# 4 0.000000 0.000000 0.000000 0.121611 0.000000 0.000118
# 5 0.002371 -0.000437 -0.000047 0.000000 0.026222 0.000000
# 6 0.000000 0.000000 0.000000 0.000118 0.000000 0.027497
#
#
# Mechanical properties :
#
#
# Convention : Reuss Voigt Hill
#
# Bulk Modulus (GPa) = 36.19349 39.86957 38.03153
# Shear Modulus (GPa) = 21.75741 35.16409 28.46075
#
# Velocity S-wave (km/s) = 2.97747 3.78524 3.40539
# Velocity P-wave (km/s) = 5.15441 5.94554 5.56405
#
# Compressibility (1/GPa) = 0.02762928
#
# Stress axis : x y z
#
# Youngs Moduli (GPa) = 118.49313 115.76730 51.62355
#
# Poissons Ratio (x) = -0.04032 0.06865
# Poissons Ratio (y) = -0.04127 0.17697
# Poissons Ratio (z) = 0.15756 0.39686
#
# Static dielectric constant tensor:
#      x y z
#    x 1.996800 0.000000 0.123720 
#    y 0.000000 1.992470 0.000000 
#    z 0.123720 0.000000 2.178190 
# 
# From -- ./inp_files/20767.got.cif
#   From: 2010.05.17/outbox.cif.g08.bks.cpg/sg14_11_cif.got.tgz:20767.got - 2010.06.03 17:49:19.
