data_PCOD9248023
_publ_section_title
;
Structure prediction by ZEFSAII (Michael W. Deem and Ramdas Pophale) SiO2 
 PCOD9248023
Probable space group: P 21/C
;
_chemical_formula_sum "Si O2"
_cell_formula_units_Z 20
_cell_length_a 11.842759
_cell_length_b 6.895258
_cell_length_c 18.117770
_cell_angle_alpha 90.000000
_cell_angle_beta 143.518483
_cell_angle_gamma 90.000000
_cell_volume 879.642806
_symmetry_space_group_name_H-M "P 21/C"
_symmetry_group_IT_number 14
_symmetry_cell_setting 'monoclinic'
loop_
_space_group_symop_operation_xyz
x,y,z
-x,1/2+y,1/2-z
-x,-y,-z
x,1/2-y,1/2+z
loop_
_atom_site_type_symbol
_atom_site_label
_atom_site_fract_x
_atom_site_fract_y
_atom_site_fract_z
Si Si1 0.096788 0.907211 0.692896
Si Si2 0.936324 0.246466 0.041296
Si Si3 0.139506 0.056510 0.878373
Si Si4 0.494041 0.288420 0.639490
Si Si5 0.305854 0.028056 0.185392
O O1 0.312160 0.897276 0.779139
O O2 0.017114 0.693479 0.665847
O O3 0.958973 0.025588 0.565787
O O4 0.095894 0.015906 0.770988
O O5 0.148474 0.167039 0.137309
O O6 0.859262 0.142127 0.074555
O O7 0.806692 0.157656 0.908684
O O8 0.337407 0.166874 0.995587
O O9 0.547283 0.063589 0.679875
O O10 0.408667 0.367061 0.671597
#
# Coordination Sequence:
#
# PCOD9248023 Si02
#       5
#     4   4   4   4   4
#     4  12  23  44  68  89 130 172 211 263 323 364
#     4  10  22  42  65  91 130 170 207 265 313 377
#     4  11  24  43  64  96 128 167 219 259 314 377
#     4  11  24  40  66  97 129 166 213 263 316 380
#     4  10  22  41  61  98 132 160 216 260 312 382
#
# _framework density 22.736501000000001
#
# number of rings (size 3 to 8) (size 9 to 14) (size 15 to 20)
#    0.000    1.200    4.000    1.800    2.800    0.800 
#    0.000    2.000    0.000    0.000    0.000    0.000 
#    0.000    0.000    0.000    0.000    0.000    0.000 
#
# Total GULP energy -111952.768116 kJ/mol
# GULP energy per Si atom -5597.638406 kJ/mol
# Density = 2.268475 g / cm^3
# Si number density = 22.736501 Si / 1000 Ang^3
#
#
#
# Elastic Constant Matrix: (Units=GPa)
#
#
# Indices 1 2 3 4 5 6 
#
# 1 60.5896 6.3100 -0.1972 0.0000 9.4306 0.0000
# 2 6.3100 31.9005 0.2243 0.0000 -3.3529 0.0000
# 3 -0.1972 0.2243 51.8827 0.0000 9.1976 0.0000
# 4 0.0000 0.0000 0.0000 37.6032 0.0000 -5.1028
# 5 9.4306 -3.3529 9.1976 0.0000 38.7575 0.0000
# 6 0.0000 0.0000 0.0000 -5.1028 0.0000 25.4619
#
#
#
# Elastic Compliance Matrix: (Units=1/GPa)
#
#
# Indices 1 2 3 4 5 6 
#
# 1 0.017685 -0.004017 0.000949 0.000000 -0.004876 0.000000
# 2 -0.004017 0.032569 -0.000865 0.000000 0.004000 0.000000
# 3 0.000949 -0.000865 0.020185 0.000000 -0.005096 0.000000
# 4 0.000000 0.000000 0.000000 0.027337 0.000000 0.005479
# 5 -0.004876 0.004000 -0.005096 0.000000 0.028543 0.000000
# 6 0.000000 0.000000 0.000000 0.005479 0.000000 0.040372
#
#
# Mechanical properties :
#
#
# Convention : Reuss Voigt Hill
#
# Bulk Modulus (GPa) = 15.98174 17.44967 16.71570
# Shear Modulus (GPa) = 25.58653 29.56689 27.57671
#
# Velocity S-wave (km/s) = 3.35826 3.61004 3.48643
# Velocity P-wave (km/s) = 4.69911 5.00679 4.85539
#
# Compressibility (1/GPa) = 0.06257141
#
# Stress axis : x y z
#
# Youngs Moduli (GPa) = 56.54550 30.70437 49.54177
#
# Poissons Ratio (x) = 0.12335 -0.04701
# Poissons Ratio (y) = 0.22716 0.04287
# Poissons Ratio (z) = -0.05366 0.02657
#
# Static dielectric constant tensor:
#      x y z
#    x 1.813460 0.000000 0.009770 
#    y 0.000000 1.859650 0.000000 
#    z 0.009770 0.000000 1.833040 
# 
# From -- ./inp_files/27741.got.cif
#   From: 2010.05.17/outbox.cif.g08.bks.cpg/sg14_14_cif.got.tgz:27741.got - 2010.06.03 17:49:19.
