data_PCOD9248325
_publ_section_title
;
Structure prediction by ZEFSAII (Michael W. Deem and Ramdas Pophale) SiO2 
 PCOD9248325
Probable space group: P 21/C
;
_chemical_formula_sum "Si O2"
_cell_formula_units_Z 24
_cell_length_a 8.546677
_cell_length_b 14.367793
_cell_length_c 9.973461
_cell_angle_alpha 90.000000
_cell_angle_beta 104.320844
_cell_angle_gamma 90.000000
_cell_volume 1186.653083
_symmetry_space_group_name_H-M "P 21/C"
_symmetry_group_IT_number 14
_symmetry_cell_setting 'monoclinic'
loop_
_space_group_symop_operation_xyz
x,y,z
-x,1/2+y,1/2-z
-x,-y,-z
x,1/2-y,1/2+z
loop_
_atom_site_type_symbol
_atom_site_label
_atom_site_fract_x
_atom_site_fract_y
_atom_site_fract_z
Si Si1 0.635624 0.927767 0.659760
Si Si2 0.575622 0.603208 0.854405
Si Si3 0.198638 0.683597 0.406335
Si Si4 0.324773 0.023631 0.900443
Si Si5 0.385866 0.771243 0.692729
Si Si6 0.899842 0.906389 0.939382
O O1 0.666351 0.894455 0.514734
O O2 0.486827 0.865356 0.685730
O O3 0.791435 0.921073 0.785106
O O4 0.575975 0.034464 0.649191
O O5 0.667402 0.557155 0.749716
O O6 0.511467 0.700773 0.787741
O O7 0.239438 0.575278 0.394873
O O8 0.318258 0.730475 0.539299
O O9 0.238812 0.723211 0.268058
O O10 0.020581 0.678353 0.433125
O O11 0.500000 0.000000 0.000000
O O12 0.230444 0.100057 0.968555
O O13 0.000000 0.000000 0.000000
#
# Coordination Sequence:
#
# PCOD9248325 Si02
#       6
#     4   4   4   4   4   4
#     4  11  23  41  67 100 130 170 228 276 323 402
#     4  11  22  38  70  98 128 165 230 280 321 376
#     4  11  23  40  61  93 132 173 211 275 340 392
#     4  11  18  39  70  95 120 173 228 264 322 399
#     4  12  22  42  65  95 131 177 226 274 329 404
#     4  10  22  42  65  93 134 171 216 272 337 399
#
# _framework density 20.224948999999999
#
# number of rings (size 3 to 8) (size 9 to 14) (size 15 to 20)
#    0.000    1.000    6.667    1.000    0.000    0.000 
#    6.000    3.333    0.000    0.000    0.000    0.000 
#    0.000    0.000    0.000    0.000    0.000    0.000 
#
# Total GULP energy -133879.255188 kJ/mol
# GULP energy per Si atom -5578.302299 kJ/mol
# Density = 2.017892 g / cm^3
# Si number density = 20.224949 Si / 1000 Ang^3
#
#
#
# Elastic Constant Matrix: (Units=GPa)
#
#
# Indices 1 2 3 4 5 6 
#
# 1 71.6253 2.3441 44.6390 0.0000 -10.0181 0.0000
# 2 2.3441 45.8118 11.6593 0.0000 -7.4927 0.0000
# 3 44.6390 11.6593 157.5434 0.0000 -8.3590 0.0000
# 4 0.0000 0.0000 0.0000 18.6097 0.0000 -12.9927
# 5 -10.0181 -7.4927 -8.3590 0.0000 35.6985 0.0000
# 6 0.0000 0.0000 0.0000 -12.9927 0.0000 28.1010
#
#
#
# Elastic Compliance Matrix: (Units=1/GPa)
#
#
# Indices 1 2 3 4 5 6 
#
# 1 0.017489 0.000983 -0.004817 0.000000 0.003986 0.000000
# 2 0.000983 0.022987 -0.001731 0.000000 0.004695 0.000000
# 3 -0.004817 -0.001731 0.007847 0.000000 0.000122 0.000000
# 4 0.000000 0.000000 0.000000 0.079350 0.000000 0.036688
# 5 0.003986 0.004695 0.000122 0.000000 0.030145 0.000000
# 6 0.000000 0.000000 0.000000 0.036688 0.000000 0.052549
#
#
# Mechanical properties :
#
#
# Convention : Reuss Voigt Hill
#
# Bulk Modulus (GPa) = 26.88627 43.58503 35.23565
# Shear Modulus (GPa) = 21.37736 30.90438 26.14087
#
# Velocity S-wave (km/s) = 3.25465 3.91325 3.59904
# Velocity P-wave (km/s) = 5.23891 6.48189 5.89326
#
# Compressibility (1/GPa) = 0.03719370
#
# Stress axis : x y z
#
# Youngs Moduli (GPa) = 57.17952 43.50378 127.44092
#
# Poissons Ratio (x) = -0.04276 0.61383
# Poissons Ratio (y) = -0.05620 0.22054
# Poissons Ratio (z) = 0.27541 0.07529
#
# Static dielectric constant tensor:
#      x y z
#    x 1.796230 0.000000 -0.059270 
#    y 0.000000 1.715950 0.000000 
#    z -0.059270 0.000000 1.722310 
# 
# From -- ./inp_files/8625.got.cif
#   From: 2010.05.17/outbox.cif.g08.bks.cpg/sg14_5_cif.got.tgz:8625.got - 2010.06.03 17:49:19.
