data_PCOD9248154
_publ_section_title
;
Structure prediction by ZEFSAII (Michael W. Deem and Ramdas Pophale) SiO2 
 PCOD9248154
Probable space group: P 21/C
;
_chemical_formula_sum "Si O2"
_cell_formula_units_Z 20
_cell_length_a 7.604168
_cell_length_b 4.958767
_cell_length_c 26.089815
_cell_angle_alpha 90.000000
_cell_angle_beta 121.806597
_cell_angle_gamma 90.000000
_cell_volume 836.044689
_symmetry_space_group_name_H-M "P 21/C"
_symmetry_group_IT_number 14
_symmetry_cell_setting 'monoclinic'
loop_
_space_group_symop_operation_xyz
x,y,z
-x,1/2+y,1/2-z
-x,-y,-z
x,1/2-y,1/2+z
loop_
_atom_site_type_symbol
_atom_site_label
_atom_site_fract_x
_atom_site_fract_y
_atom_site_fract_z
Si Si1 0.774967 0.007889 0.276080
Si Si2 0.093263 0.255232 0.484724
Si Si3 0.432171 0.708055 0.416223
Si Si4 0.829148 0.833596 0.611182
Si Si5 0.426803 0.000417 0.305470
O O1 0.725135 0.300962 0.247411
O O2 0.018519 0.022920 0.324470
O O3 0.676047 0.791933 0.221386
O O4 0.643851 0.974966 0.308386
O O5 0.035420 0.263987 0.415989
O O6 0.339309 0.304113 0.526481
O O7 0.000000 0.500000 0.500000
O O8 0.000000 0.000000 0.500000
O O9 0.314278 0.420161 0.394289
O O10 0.448301 0.878781 0.365431
O O11 0.699766 0.086244 0.569703
#
# Coordination Sequence:
#
# PCOD9248154 Si02
#       5
#     4   4   4   4   4
#     4  10  22  41  66  95 130 176 227 273 325 397
#     4  12  26  46  72 100 136 182 232 276 336 416
#     4  12  25  43  68 101 140 176 222 285 346 402
#     4  12  25  43  68 101 140 176 222 285 346 402
#     4  10  22  41  66  95 130 176 227 273 325 397
#
# _framework density 23.922165
#
# number of rings (size 3 to 8) (size 9 to 14) (size 15 to 20)
#    0.000    0.800    0.000    7.200    0.000    8.000 
#    0.000    0.000    0.000    0.000    0.000    0.000 
#    0.000    0.000    0.000    0.000    0.000    0.000 
#
# Total GULP energy -111793.286534 kJ/mol
# GULP energy per Si atom -5589.664327 kJ/mol
# Density = 2.386772 g / cm^3
# Si number density = 23.922165 Si / 1000 Ang^3
#
#
#
# Elastic Constant Matrix: (Units=GPa)
#
#
# Indices 1 2 3 4 5 6 
#
# 1 45.5858 30.0547 15.2835 0.0000 17.5625 0.0000
# 2 30.0547 144.4426 -6.5593 0.0000 7.5128 0.0000
# 3 15.2835 -6.5593 60.2856 0.0000 -2.0333 0.0000
# 4 0.0000 0.0000 0.0000 25.1847 0.0000 -4.6115
# 5 17.5625 7.5128 -2.0333 0.0000 51.8275 0.0000
# 6 0.0000 0.0000 0.0000 -4.6115 0.0000 54.1561
#
#
#
# Elastic Compliance Matrix: (Units=1/GPa)
#
#
# Indices 1 2 3 4 5 6 
#
# 1 0.033974 -0.006945 -0.009736 0.000000 -0.010888 0.000000
# 2 -0.006945 0.008427 0.002719 0.000000 0.001238 0.000000
# 3 -0.009736 0.002719 0.019476 0.000000 0.003669 0.000000
# 4 0.000000 0.000000 0.000000 0.040336 0.000000 0.003435
# 5 -0.010888 0.001238 0.003669 0.000000 0.022949 0.000000
# 6 0.000000 0.000000 0.000000 0.003435 0.000000 0.018758
#
#
# Mechanical properties :
#
#
# Convention : Reuss Voigt Hill
#
# Bulk Modulus (GPa) = 29.45154 36.43019 32.94087
# Shear Modulus (GPa) = 27.29848 40.33600 33.81724
#
# Velocity S-wave (km/s) = 3.38174 4.11071 3.76391
# Velocity P-wave (km/s) = 5.25227 6.14754 5.71746
#
# Compressibility (1/GPa) = 0.03395408
#
# Stress axis : x y z
#
# Youngs Moduli (GPa) = 29.43396 118.66194 51.34636
#
# Poissons Ratio (x) = 0.82410 0.49991
# Poissons Ratio (y) = 0.20442 -0.13963
# Poissons Ratio (z) = 0.28657 -0.32269
#
# Static dielectric constant tensor:
#      x y z
#    x 2.014340 0.000000 -0.036120 
#    y 0.000000 1.865560 0.000000 
#    z -0.036120 0.000000 1.976160 
# 
# From -- ./inp_files/75486.got.cif
#   From: 2010.05.17/outbox.cif.g08.bks.cpg/sg14_38_cif.got.tgz:75486.got - 2010.06.03 17:49:19.
