data_PCOD9248521
_publ_section_title
;
Structure prediction by ZEFSAII (Michael W. Deem and Ramdas Pophale) SiO2 
 PCOD9248521
Probable space group: P 21/C
;
_chemical_formula_sum "Si O2"
_cell_formula_units_Z 26
_cell_length_a 7.495571
_cell_length_b 21.050609
_cell_length_c 8.239961
_cell_angle_alpha 90.000000
_cell_angle_beta 124.968261
_cell_angle_gamma 90.000000
_cell_volume 1065.436123
_symmetry_space_group_name_H-M "P 21/C"
_symmetry_group_IT_number 14
_symmetry_cell_setting 'monoclinic'
loop_
_space_group_symop_operation_xyz
x,y,z
-x,1/2+y,1/2-z
-x,-y,-z
x,1/2-y,1/2+z
loop_
_atom_site_type_symbol
_atom_site_label
_atom_site_fract_x
_atom_site_fract_y
_atom_site_fract_z
Si Si1 0.542693 0.819991 0.132490
Si Si2 0.289454 0.752759 0.729443
Si Si3 0.034074 0.140754 0.846403
Si Si4 0.805261 0.383480 0.920489
Si Si5 0.464838 0.055951 0.679234
Si Si6 0.337401 0.425630 0.751907
Si Si7 0.000000 0.500000 0.000000
O O1 0.517246 0.771607 0.270304
O O2 0.766998 0.828087 0.152534
O O3 0.483155 0.888949 0.169046
O O4 0.355676 0.790514 0.924163
O O5 0.164240 0.808266 0.568317
O O6 0.136306 0.693117 0.682302
O O7 0.910381 0.094916 0.650360
O O8 0.134833 0.103518 0.051510
O O9 0.549338 0.394560 0.776318
O O10 0.940249 0.429981 0.877866
O O11 0.395468 0.086228 0.470575
O O12 0.647902 0.002033 0.755252
O O13 0.255659 0.017644 0.631843
#
# Coordination Sequence:
#
# PCOD9248521 Si02
#       7
#     4   4   4   4   4   4   2
#     4  12  27  47  77 107 150 205 250 316 387 451
#     4  12  28  48  71 113 151 198 261 309 373 466
#     4  12  26  48  76 108 151 203 247 315 387 446
#     4  11  23  46  69 109 147 190 255 306 367 460
#     4  10  23  47  77 111 151 197 252 323 385 456
#     4  10  24  48  79 109 151 195 254 320 382 455
#     4  10  22  42  72 106 148 190 244 304 382 436
#
# _framework density 24.403151000000001
#
# number of rings (size 3 to 8) (size 9 to 14) (size 15 to 20)
#    0.000    0.923    4.615    0.923    2.154    3.077 
#    0.000   10.769    0.000    0.000    0.000    0.000 
#    0.000    0.000    0.000    0.000    0.000    0.000 
#
# Total GULP energy -144777.843092 kJ/mol
# GULP energy per Si atom -5568.378580 kJ/mol
# Density = 2.434761 g / cm^3
# Si number density = 24.403151 Si / 1000 Ang^3
#
#
#
# Elastic Constant Matrix: (Units=GPa)
#
#
# Indices 1 2 3 4 5 6 
#
# 1 72.7381 26.4587 7.6649 0.0000 6.4351 0.0000
# 2 26.4587 43.3803 25.7787 0.0000 6.3092 0.0000
# 3 7.6649 25.7787 111.0953 0.0000 12.8615 0.0000
# 4 0.0000 0.0000 0.0000 44.4340 0.0000 15.0948
# 5 6.4351 6.3092 12.8615 0.0000 28.3073 0.0000
# 6 0.0000 0.0000 0.0000 15.0948 0.0000 24.4709
#
#
#
# Elastic Compliance Matrix: (Units=1/GPa)
#
#
# Indices 1 2 3 4 5 6 
#
# 1 0.018019 -0.011688 0.001733 0.000000 -0.002278 0.000000
# 2 -0.011688 0.034619 -0.007010 0.000000 -0.001874 0.000000
# 3 0.001733 -0.007010 0.010949 0.000000 -0.003806 0.000000
# 4 0.000000 0.000000 0.000000 0.028472 0.000000 -0.017563
# 5 -0.002278 -0.001874 -0.003806 0.000000 0.037992 0.000000
# 6 0.000000 0.000000 0.000000 -0.017563 0.000000 0.051698
#
#
# Mechanical properties :
#
#
# Convention : Reuss Voigt Hill
#
# Bulk Modulus (GPa) = 33.71995 38.55758 36.13877
# Shear Modulus (GPa) = 22.16670 30.59654 26.38162
#
# Velocity S-wave (km/s) = 3.01716 3.54474 3.29154
# Velocity P-wave (km/s) = 5.09760 5.70860 5.41173
#
# Compressibility (1/GPa) = 0.02965604
#
# Stress axis : x y z
#
# Youngs Moduli (GPa) = 55.49829 28.88598 91.33340
#
# Poissons Ratio (x) = 0.33763 -0.15826
# Poissons Ratio (y) = 0.64868 0.64021
# Poissons Ratio (z) = -0.09616 0.20248
#
# Static dielectric constant tensor:
#      x y z
#    x 1.941410 0.000000 -0.083610 
#    y 0.000000 2.125640 0.000000 
#    z -0.083610 0.000000 2.021330 
# 
# From -- ./inp_files/10730.got.cif
#   From: 2010.05.17/outbox.cif.g08.bks.cpg/sg14_6_cif.got.tgz:10730.got - 2010.06.03 17:49:19.
