data_PCOD9248890
_publ_section_title
;
Structure prediction by ZEFSAII (Michael W. Deem and Ramdas Pophale) SiO2 
 PCOD9248890
Probable space group: P 21/C
;
_chemical_formula_sum "Si O2"
_cell_formula_units_Z 32
_cell_length_a 10.992706
_cell_length_b 19.962634
_cell_length_c 8.201970
_cell_angle_alpha 90.000000
_cell_angle_beta 127.229770
_cell_angle_gamma 90.000000
_cell_volume 1433.083033
_symmetry_space_group_name_H-M "P 21/C"
_symmetry_group_IT_number 14
_symmetry_cell_setting 'monoclinic'
loop_
_space_group_symop_operation_xyz
x,y,z
-x,1/2+y,1/2-z
-x,-y,-z
x,1/2-y,1/2+z
loop_
_atom_site_type_symbol
_atom_site_label
_atom_site_fract_x
_atom_site_fract_y
_atom_site_fract_z
Si Si1 0.501240 0.435972 0.881760
Si Si2 0.749703 0.108380 0.308480
Si Si3 0.751862 0.784086 0.304416
Si Si4 0.453778 0.190635 0.579040
Si Si5 0.073552 0.405192 0.209506
Si Si6 0.228983 0.753206 0.050765
Si Si7 0.019292 0.816923 0.107461
Si Si8 0.660192 0.000593 0.035255
O O1 0.640628 0.418758 0.868559
O O2 0.481765 0.370719 0.978806
O O3 0.367171 0.459185 0.651026
O O4 0.500000 0.500000 0.000000
O O5 0.750416 0.188303 0.313751
O O6 0.919828 0.085081 0.486091
O O7 0.702347 0.078152 0.095242
O O8 0.620383 0.750265 0.088537
O O9 0.673702 0.823945 0.388531
O O10 0.977395 0.610629 0.645184
O O11 0.866408 0.727265 0.464428
O O12 0.604421 0.214004 0.798598
O O13 0.199328 0.460243 0.275423
O O14 0.147076 0.334742 0.216405
O O15 0.107309 0.808830 0.009346
O O16 0.145912 0.716034 0.832128
O O17 0.500000 0.000000 0.000000
#
# Coordination Sequence:
#
# PCOD9248890 Si02
#       8
#     4   4   4   4   4   4   4   4
#     4  11  26  46  64  97 136 178 225 280 332 396
#     4  10  22  44  70  95 129 176 227 277 335 405
#     4  12  23  38  67  98 134 172 219 274 343 403
#     4  12  25  40  65 100 136 174 224 279 345 402
#     4  11  22  41  68  97 132 170 228 269 339 405
#     4  11  23  40  68 100 136 171 226 279 345 402
#     4  11  20  41  61  96 134 171 207 282 331 404
#     4  10  24  42  71  91 132 178 227 274 327 399
#
# _framework density 22.329483
#
# number of rings (size 3 to 8) (size 9 to 14) (size 15 to 20)
#    0.000    1.000    3.750    4.125    7.000    1.000 
#    0.000    0.625    0.000    0.000    0.000    0.000 
#    0.000    0.000    0.000    0.000    0.000    0.000 
#
# Total GULP energy -178422.400997 kJ/mol
# GULP energy per Si atom -5575.700031 kJ/mol
# Density = 2.227866 g / cm^3
# Si number density = 22.329483 Si / 1000 Ang^3
#
#
#
# Elastic Constant Matrix: (Units=GPa)
#
#
# Indices 1 2 3 4 5 6 
#
# 1 82.4750 19.4034 24.2267 0.0000 19.3595 0.0000
# 2 19.4034 57.8919 10.7828 0.0000 9.1688 0.0000
# 3 24.2267 10.7828 58.5763 0.0000 24.6739 0.0000
# 4 0.0000 0.0000 0.0000 36.6837 0.0000 -1.7316
# 5 19.3595 9.1688 24.6739 0.0000 27.4819 0.0000
# 6 0.0000 0.0000 0.0000 -1.7316 0.0000 32.9996
#
#
#
# Elastic Compliance Matrix: (Units=1/GPa)
#
#
# Indices 1 2 3 4 5 6 
#
# 1 0.015454 -0.003525 -0.002658 0.000000 -0.007325 0.000000
# 2 -0.003525 0.019101 -0.000675 0.000000 -0.003283 0.000000
# 3 -0.002658 -0.000675 0.028002 0.000000 -0.023043 0.000000
# 4 0.000000 0.000000 0.000000 0.027328 0.000000 0.001434
# 5 -0.007325 -0.003283 -0.023043 0.000000 0.063332 0.000000
# 6 0.000000 0.000000 0.000000 0.001434 0.000000 0.030379
#
#
# Mechanical properties :
#
#
# Convention : Reuss Voigt Hill
#
# Bulk Modulus (GPa) = 20.47438 34.19656 27.33547
# Shear Modulus (GPa) = 23.40936 29.06838 26.23887
#
# Velocity S-wave (km/s) = 3.24135 3.61195 3.43166
# Velocity P-wave (km/s) = 4.81639 5.72212 5.28868
#
# Compressibility (1/GPa) = 0.04884153
#
# Stress axis : x y z
#
# Youngs Moduli (GPa) = 64.70786 52.35408 35.71222
#
# Poissons Ratio (x) = 0.18453 0.09491
# Poissons Ratio (y) = 0.22807 0.02412
# Poissons Ratio (z) = 0.17196 0.03535
#
# Static dielectric constant tensor:
#      x y z
#    x 1.893810 0.000000 -0.049640 
#    y 0.000000 1.827720 0.000000 
#    z -0.049640 0.000000 1.986500 
# 
# From -- ./inp_files/14339.got.cif
#   From: 2010.05.17/outbox.cif.g08.bks.cpg/sg14_8_cif.got.tgz:14339.got - 2010.06.03 17:49:19.
