data_PCOD9248674
_publ_section_title
;
Structure prediction by ZEFSAII (Michael W. Deem and Ramdas Pophale) SiO2 
 PCOD9248674
Probable space group: P 21/C
;
_chemical_formula_sum "Si O2"
_cell_formula_units_Z 28
_cell_length_a 22.712580
_cell_length_b 8.593891
_cell_length_c 8.632782
_cell_angle_alpha 90.000000
_cell_angle_beta 38.909845
_cell_angle_gamma 90.000000
_cell_volume 1058.360558
_symmetry_space_group_name_H-M "P 21/C"
_symmetry_group_IT_number 14
_symmetry_cell_setting 'monoclinic'
loop_
_space_group_symop_operation_xyz
x,y,z
-x,1/2+y,1/2-z
-x,-y,-z
x,1/2-y,1/2+z
loop_
_atom_site_type_symbol
_atom_site_label
_atom_site_fract_x
_atom_site_fract_y
_atom_site_fract_z
Si Si1 0.224458 0.699920 0.922348
Si Si2 0.331943 0.583698 0.410102
Si Si3 0.608102 0.609123 0.186157
Si Si4 0.524545 0.586767 0.701255
Si Si5 0.103042 0.584593 0.453625
Si Si6 0.776424 0.791644 0.937127
Si Si7 0.092169 0.272224 0.067974
O O1 0.309835 0.769810 0.848888
O O2 0.154742 0.616343 0.185233
O O3 0.166316 0.837729 0.958260
O O4 0.267066 0.601911 0.695148
O O5 0.433413 0.544948 0.270062
O O6 0.296081 0.430713 0.394133
O O7 0.579744 0.586326 0.423808
O O8 0.579198 0.461003 0.141610
O O9 0.547266 0.751948 0.239820
O O10 0.715647 0.662620 0.969543
O O11 0.084059 0.405583 0.529676
O O12 0.002592 0.668220 0.665402
O O13 0.869021 0.859165 0.662825
O O14 0.820058 0.717090 0.997674
#
# Coordination Sequence:
#
# PCOD9248674 Si02
#       7
#     4   4   4   4   4   4   4
#     4  10  23  44  66  97 137 170 231 278 346 395
#     4  10  22  43  68  99 134 177 221 283 331 408
#     4  10  23  45  69 103 136 180 222 274 336 399
#     4  10  23  44  70 103 140 176 223 275 331 403
#     4  11  26  43  68  97 131 178 227 283 343 399
#     4  11  24  44  69  95 138 177 230 272 341 405
#     4  12  27  43  68  97 133 181 226 286 336 404
#
# _framework density 26.456009999999999
#
# number of rings (size 3 to 8) (size 9 to 14) (size 15 to 20)
#    0.000    1.429    1.429    2.571    8.000    5.143 
#    2.571    0.000    0.000    0.000    0.000    0.000 
#    0.000    0.000    0.000    0.000    0.000    0.000 
#
# Total GULP energy -156991.691868 kJ/mol
# GULP energy per Si atom -5606.846138 kJ/mol
# Density = 2.639579 g / cm^3
# Si number density = 26.456010 Si / 1000 Ang^3
#
#
#
# Elastic Constant Matrix: (Units=GPa)
#
#
# Indices 1 2 3 4 5 6 
#
# 1 135.4549 37.9994 29.1264 0.0000 -3.0838 0.0000
# 2 37.9994 71.5736 22.6681 0.0000 3.8775 0.0000
# 3 29.1264 22.6681 132.3861 0.0000 7.7905 0.0000
# 4 0.0000 0.0000 0.0000 32.4421 0.0000 -8.2435
# 5 -3.0838 3.8775 7.7905 0.0000 26.8579 0.0000
# 6 0.0000 0.0000 0.0000 -8.2435 0.0000 56.2381
#
#
#
# Elastic Compliance Matrix: (Units=1/GPa)
#
#
# Indices 1 2 3 4 5 6 
#
# 1 0.008964 -0.004449 -0.001331 0.000000 0.002058 0.000000
# 2 -0.004449 0.017034 -0.001794 0.000000 -0.002450 0.000000
# 3 -0.001331 -0.001794 0.008289 0.000000 -0.002298 0.000000
# 4 0.000000 0.000000 0.000000 0.032017 0.000000 0.004693
# 5 0.002058 -0.002450 -0.002298 0.000000 0.038490 0.000000
# 6 0.000000 0.000000 0.000000 0.004693 0.000000 0.018469
#
#
# Mechanical properties :
#
#
# Convention : Reuss Voigt Hill
#
# Bulk Modulus (GPa) = 52.24924 57.66694 54.95809
# Shear Modulus (GPa) = 34.53268 39.74901 37.14084
#
# Velocity S-wave (km/s) = 3.61679 3.88036 3.75089
# Velocity P-wave (km/s) = 6.10196 6.47463 6.29106
#
# Compressibility (1/GPa) = 0.01913904
#
# Stress axis : x y z
#
# Youngs Moduli (GPa) = 111.56133 58.70488 120.64194
#
# Poissons Ratio (x) = 0.26116 0.16063
# Poissons Ratio (y) = 0.49631 0.21641
# Poissons Ratio (z) = 0.14854 0.10531
#
# Static dielectric constant tensor:
#      x y z
#    x 2.029100 0.000000 0.018950 
#    y 0.000000 2.053110 0.000000 
#    z 0.018950 0.000000 2.027120 
# 
# From -- ./inp_files/18691.got.cif
#   From: 2010.05.17/outbox.cif.g08.bks.cpg/sg14_10_cif.got.tgz:18691.got - 2010.06.03 17:49:19.
