data_PCOD9248524
_publ_section_title
;
Structure prediction by ZEFSAII (Michael W. Deem and Ramdas Pophale) SiO2 
 PCOD9248524
Probable space group: P 21/C
;
_chemical_formula_sum "Si O2"
_cell_formula_units_Z 22
_cell_length_a 4.853028
_cell_length_b 16.169192
_cell_length_c 12.034722
_cell_angle_alpha 90.000000
_cell_angle_beta 67.677544
_cell_angle_gamma 90.000000
_cell_volume 873.589720
_symmetry_space_group_name_H-M "P 21/C"
_symmetry_group_IT_number 14
_symmetry_cell_setting 'monoclinic'
loop_
_space_group_symop_operation_xyz
x,y,z
-x,1/2+y,1/2-z
-x,-y,-z
x,1/2-y,1/2+z
loop_
_atom_site_type_symbol
_atom_site_label
_atom_site_fract_x
_atom_site_fract_y
_atom_site_fract_z
Si Si1 0.868831 0.598214 0.333299
Si Si2 0.747665 0.896423 0.532276
Si Si3 0.636335 0.532550 0.811062
Si Si4 0.500000 0.000000 0.000000
Si Si5 0.156359 0.700456 0.118975
Si Si6 0.949551 0.879409 0.083649
O O1 0.552275 0.553407 0.371430
O O2 0.937309 0.681737 0.257048
O O3 0.128503 0.540992 0.246590
O O4 0.848681 0.609323 0.471059
O O5 0.740568 0.917505 0.404256
O O6 0.046439 0.859811 0.537236
O O7 0.494695 0.825511 0.592777
O O8 0.656664 0.980930 0.610023
O O9 0.669735 0.596709 0.704215
O O10 0.800677 0.052408 0.931358
O O11 0.097442 0.792571 0.087450
#
# Coordination Sequence:
#
# PCOD9248524 Si02
#       6
#     4   4   4   2   4   4
#     4  10  24  43  67 103 135 184 232 294 344 424
#     4  10  24  48  68 104 136 188 232 290 349 424
#     4   9  21  45  72  97 136 183 238 281 346 424
#     4  10  22  42  72  96 136 180 236 278 352 420
#     4  11  27  44  71 101 149 178 235 293 360 410
#     4  11  25  44  68 106 137 189 232 296 348 427
#
# _framework density 25.183450000000001
#
# number of rings (size 3 to 8) (size 9 to 14) (size 15 to 20)
#    0.000    1.818    0.000    2.182   12.727    6.545 
#    6.545    0.000    0.000    0.000    0.000    0.000 
#    0.000    0.000    0.000    0.000    0.000    0.000 
#
# Total GULP energy -122652.480286 kJ/mol
# GULP energy per Si atom -5575.112740 kJ/mol
# Density = 2.512613 g / cm^3
# Si number density = 25.183450 Si / 1000 Ang^3
#
#
#
# Elastic Constant Matrix: (Units=GPa)
#
#
# Indices 1 2 3 4 5 6 
#
# 1 64.2027 1.2883 7.9645 0.0000 8.5755 0.0000
# 2 1.2883 102.9593 41.8122 0.0000 8.6958 0.0000
# 3 7.9645 41.8122 148.8963 0.0000 17.3305 0.0000
# 4 0.0000 0.0000 0.0000 63.4654 0.0000 39.9494
# 5 8.5755 8.6958 17.3305 0.0000 33.5904 0.0000
# 6 0.0000 0.0000 0.0000 39.9494 0.0000 74.4478
#
#
#
# Elastic Compliance Matrix: (Units=1/GPa)
#
#
# Indices 1 2 3 4 5 6 
#
# 1 0.016159 0.000334 -0.000498 0.000000 -0.003955 0.000000
# 2 0.000334 0.011026 -0.002949 0.000000 -0.001418 0.000000
# 3 -0.000498 -0.002949 0.007944 0.000000 -0.003208 0.000000
# 4 0.000000 0.000000 0.000000 0.023794 0.000000 -0.012768
# 5 -0.003955 -0.001418 -0.003208 0.000000 0.032802 0.000000
# 6 0.000000 0.000000 0.000000 -0.012768 0.000000 0.020284
#
#
# Mechanical properties :
#
#
# Convention : Reuss Voigt Hill
#
# Bulk Modulus (GPa) = 34.59804 46.46538 40.53171
# Shear Modulus (GPa) = 39.10260 51.96693 45.53477
#
# Velocity S-wave (km/s) = 3.94472 4.54754 4.25682
# Velocity P-wave (km/s) = 5.87503 6.78707 6.34745
#
# Compressibility (1/GPa) = 0.02890337
#
# Stress axis : x y z
#
# Youngs Moduli (GPa) = 61.88513 90.69665 125.87725
#
# Poissons Ratio (x) = -0.03029 0.06266
# Poissons Ratio (y) = -0.02067 0.37121
# Poissons Ratio (z) = 0.03081 0.26746
#
# Static dielectric constant tensor:
#      x y z
#    x 1.447980 0.000000 -0.061560 
#    y 0.000000 1.886490 0.000000 
#    z -0.061560 0.000000 2.089360 
# 
# From -- ./inp_files/21156.got.cif
#   From: 2010.05.17/outbox.cif.g08.bks.cpg/sg14_11_cif.got.tgz:21156.got - 2010.06.03 17:49:19.
