data_PCOD9248228
_publ_section_title
;
Structure prediction by ZEFSAII (Michael W. Deem and Ramdas Pophale) SiO2 
 PCOD9248228
Probable space group: P 21/C
;
_chemical_formula_sum "Si O2"
_cell_formula_units_Z 20
_cell_length_a 6.618281
_cell_length_b 15.003890
_cell_length_c 9.535085
_cell_angle_alpha 90.000000
_cell_angle_beta 104.762885
_cell_angle_gamma 90.000000
_cell_volume 915.577314
_symmetry_space_group_name_H-M "P 21/C"
_symmetry_group_IT_number 14
_symmetry_cell_setting 'monoclinic'
loop_
_space_group_symop_operation_xyz
x,y,z
-x,1/2+y,1/2-z
-x,-y,-z
x,1/2-y,1/2+z
loop_
_atom_site_type_symbol
_atom_site_label
_atom_site_fract_x
_atom_site_fract_y
_atom_site_fract_z
Si Si1 0.804717 0.403004 0.605739
Si Si2 0.390890 0.899676 0.640851
Si Si3 0.467516 0.299992 0.362055
Si Si4 0.894532 0.899719 0.071102
Si Si5 0.671600 0.070169 0.690861
O O1 0.782655 0.398592 0.768056
O O2 0.631121 0.340031 0.504998
O O3 0.771536 0.506570 0.556018
O O4 0.023552 0.378521 0.570365
O O5 0.495334 0.803234 0.654392
O O6 0.304781 0.920289 0.471224
O O7 0.559106 0.976663 0.702986
O O8 0.242073 0.324416 0.381959
O O9 0.520931 0.354164 0.229731
O O10 0.105630 0.917382 0.196402
#
# Coordination Sequence:
#
# PCOD9248228 Si02
#       5
#     4   4   4   4   4
#     4  10  22  41  70  94 128 176 215 272 324 387
#     4  11  23  44  67  94 143 175 208 280 334 382
#     4  11  22  45  66  98 132 175 227 266 323 394
#     4  10  22  42  72  94 127 174 228 268 320 399
#     4  10  24  45  63  99 138 172 216 271 336 386
#
# _framework density 21.844142000000002
#
# number of rings (size 3 to 8) (size 9 to 14) (size 15 to 20)
#    0.000    1.600    2.000    1.800    5.600    0.800 
#   10.800    0.000    0.000    0.000    0.000    0.000 
#    0.000    0.000    0.000    0.000    0.000    0.000 
#
# Total GULP energy -111888.022533 kJ/mol
# GULP energy per Si atom -5594.401127 kJ/mol
# Density = 2.179442 g / cm^3
# Si number density = 21.844142 Si / 1000 Ang^3
#
#
#
# Elastic Constant Matrix: (Units=GPa)
#
#
# Indices 1 2 3 4 5 6 
#
# 1 94.8693 47.6078 53.5797 0.0000 -25.5628 0.0000
# 2 47.6078 141.9131 21.8305 0.0000 -13.4714 0.0000
# 3 53.5797 21.8305 135.4096 0.0000 -41.2309 0.0000
# 4 0.0000 0.0000 0.0000 21.3231 0.0000 -8.0378
# 5 -25.5628 -13.4714 -41.2309 0.0000 36.7063 0.0000
# 6 0.0000 0.0000 0.0000 -8.0378 0.0000 20.6283
#
#
#
# Elastic Compliance Matrix: (Units=1/GPa)
#
#
# Indices 1 2 3 4 5 6 
#
# 1 0.016545 -0.004408 -0.004286 0.000000 0.005090 0.000000
# 2 -0.004408 0.008502 0.000591 0.000000 0.000714 0.000000
# 3 -0.004286 0.000591 0.012376 0.000000 0.011133 0.000000
# 4 0.000000 0.000000 0.000000 0.054972 0.000000 0.021420
# 5 0.005090 0.000714 0.011133 0.000000 0.043555 0.000000
# 6 0.000000 0.000000 0.000000 0.021420 0.000000 0.056823
#
#
# Mechanical properties :
#
#
# Convention : Reuss Voigt Hill
#
# Bulk Modulus (GPa) = 47.13272 68.69201 57.91237
# Shear Modulus (GPa) = 23.14259 32.34313 27.74286
#
# Velocity S-wave (km/s) = 3.25844 3.85207 3.56762
# Velocity P-wave (km/s) = 5.98166 7.16235 6.59847
#
# Compressibility (1/GPa) = 0.02121668
#
# Stress axis : x y z
#
# Youngs Moduli (GPa) = 60.44110 117.61675 80.80425
#
# Poissons Ratio (x) = 0.51844 0.34634
# Poissons Ratio (y) = 0.26642 -0.04775
# Poissons Ratio (z) = 0.25906 -0.06951
#
# Static dielectric constant tensor:
#      x y z
#    x 1.789020 0.000000 -0.006200 
#    y 0.000000 1.780560 0.000000 
#    z -0.006200 0.000000 1.830230 
# 
# From -- ./inp_files/5498.got.cif
#   From: 2010.05.17/outbox.cif.g08.bks.cpg/sg14_3_cif.got.tgz:5498.got - 2010.06.03 17:49:19.
