data_PCOD9248182
_publ_section_title
;
Structure prediction by ZEFSAII (Michael W. Deem and Ramdas Pophale) SiO2 
 PCOD9248182
Probable space group: P 21/C
;
_chemical_formula_sum "Si O2"
_cell_formula_units_Z 20
_cell_length_a 11.128971
_cell_length_b 4.935658
_cell_length_c 18.494826
_cell_angle_alpha 90.000000
_cell_angle_beta 129.414520
_cell_angle_gamma 90.000000
_cell_volume 784.855442
_symmetry_space_group_name_H-M "P 21/C"
_symmetry_group_IT_number 14
_symmetry_cell_setting 'monoclinic'
loop_
_space_group_symop_operation_xyz
x,y,z
-x,1/2+y,1/2-z
-x,-y,-z
x,1/2-y,1/2+z
loop_
_atom_site_type_symbol
_atom_site_label
_atom_site_fract_x
_atom_site_fract_y
_atom_site_fract_z
Si Si1 0.416891 0.608172 0.250686
Si Si2 0.093750 0.195781 0.256306
Si Si3 0.742974 0.851374 0.547440
Si Si4 0.558024 0.121493 0.946272
Si Si5 0.068323 0.014717 0.606725
O O1 0.507521 0.888689 0.274923
O O2 0.447625 0.473827 0.340130
O O3 0.233206 0.638738 0.167999
O O4 0.110865 0.229862 0.176569
O O5 0.035192 0.473507 0.272086
O O6 0.249521 0.130814 0.361706
O O7 0.618722 0.073901 0.474254
O O8 0.711022 0.566500 0.497196
O O9 0.917406 0.919137 0.592260
O O10 0.500000 0.000000 0.000000
O O11 0.000000 0.000000 0.500000
#
# Coordination Sequence:
#
# PCOD9248182 Si02
#       5
#     4   4   4   4   4
#     4  12  28  47  68 101 145 186 230 290 358 416
#     4  10  22  41  68 104 139 173 225 290 343 400
#     4  11  24  45  72 104 137 183 237 287 344 416
#     4  12  25  46  72 104 141 184 231 289 352 417
#     4  11  24  45  72 101 136 184 235 286 341 413
#
# _framework density 25.482398
#
# number of rings (size 3 to 8) (size 9 to 14) (size 15 to 20)
#    0.000    0.800    0.000    7.800    0.000    9.600 
#    0.000   12.000    0.000    0.000    0.000    0.000 
#    0.000    0.000    0.000    0.000    0.000    0.000 
#
# Total GULP energy -111751.491435 kJ/mol
# GULP energy per Si atom -5587.574572 kJ/mol
# Density = 2.542440 g / cm^3
# Si number density = 25.482398 Si / 1000 Ang^3
#
#
#
# Elastic Constant Matrix: (Units=GPa)
#
#
# Indices 1 2 3 4 5 6 
#
# 1 93.3546 10.2449 34.3154 0.0000 2.7372 0.0000
# 2 10.2449 88.8298 13.6069 0.0000 -9.8370 0.0000
# 3 34.3154 13.6069 228.8488 0.0000 -21.8966 0.0000
# 4 0.0000 0.0000 0.0000 37.0975 0.0000 -5.4117
# 5 2.7372 -9.8370 -21.8966 0.0000 51.1962 0.0000
# 6 0.0000 0.0000 0.0000 -5.4117 0.0000 20.2640
#
#
#
# Elastic Compliance Matrix: (Units=1/GPa)
#
#
# Indices 1 2 3 4 5 6 
#
# 1 0.011563 -0.001236 -0.001817 0.000000 -0.001633 0.000000
# 2 -0.001236 0.011688 -0.000301 0.000000 0.002183 0.000000
# 3 -0.001817 -0.000301 0.004863 0.000000 0.002119 0.000000
# 4 0.000000 0.000000 0.000000 0.028049 0.000000 0.007491
# 5 -0.001633 0.002183 0.002119 0.000000 0.020946 0.000000
# 6 0.000000 0.000000 0.000000 0.007491 0.000000 0.051349
#
#
# Mechanical properties :
#
#
# Convention : Reuss Voigt Hill
#
# Bulk Modulus (GPa) = 46.71389 58.59640 52.65514
# Shear Modulus (GPa) = 35.13708 45.23594 40.18651
#
# Velocity S-wave (km/s) = 3.71735 4.21786 3.97549
# Velocity P-wave (km/s) = 6.06602 6.83851 6.46382
#
# Compressibility (1/GPa) = 0.02140691
#
# Stress axis : x y z
#
# Youngs Moduli (GPa) = 86.48188 85.55871 205.64581
#
# Poissons Ratio (x) = 0.10576 0.37357
# Poissons Ratio (y) = 0.10690 0.06183
# Poissons Ratio (z) = 0.15710 0.02573
#
# Static dielectric constant tensor:
#      x y z
#    x 2.110520 0.000000 -0.057720 
#    y 0.000000 2.169160 0.000000 
#    z -0.057720 0.000000 2.141400 
# 
# From -- ./inp_files/56657.got.cif
#   From: 2010.05.17/outbox.cif.g08.bks.cpg/sg14_29_cif.got.tgz:56657.got - 2010.06.03 17:49:19.
