data_PCOD9248772
_publ_section_title
;
Structure prediction by ZEFSAII (Michael W. Deem and Ramdas Pophale) SiO2 
 PCOD9248772
Probable space group: P 21/C
;
_chemical_formula_sum "Si O2"
_cell_formula_units_Z 24
_cell_length_a 5.351285
_cell_length_b 20.871355
_cell_length_c 11.552316
_cell_angle_alpha 90.000000
_cell_angle_beta 57.655237
_cell_angle_gamma 90.000000
_cell_volume 1090.069944
_symmetry_space_group_name_H-M "P 21/C"
_symmetry_group_IT_number 14
_symmetry_cell_setting 'monoclinic'
loop_
_space_group_symop_operation_xyz
x,y,z
-x,1/2+y,1/2-z
-x,-y,-z
x,1/2-y,1/2+z
loop_
_atom_site_type_symbol
_atom_site_label
_atom_site_fract_x
_atom_site_fract_y
_atom_site_fract_z
Si Si1 0.344645 0.310750 0.020113
Si Si2 0.136196 0.613009 0.199026
Si Si3 0.239374 0.878628 0.418558
Si Si4 0.558280 0.945293 0.139940
Si Si5 0.557910 0.666109 0.449436
Si Si6 0.209621 0.571800 0.423971
O O1 0.472971 0.338234 0.110214
O O2 0.415955 0.235855 0.003850
O O3 0.013721 0.333096 0.072929
O O4 0.563538 0.345589 0.875959
O O5 0.157123 0.564263 0.299671
O O6 0.854615 0.655105 0.302352
O O7 0.118868 0.591422 0.069458
O O8 0.352219 0.929688 0.298699
O O9 0.535486 0.020073 0.110935
O O10 0.514153 0.888057 0.059086
O O11 0.296965 0.854748 0.927458
O O12 0.913869 0.559205 0.569765
#
# Coordination Sequence:
#
# PCOD9248772 Si02
#       6
#     4   4   4   4   4   4
#     4  10  25  41  69  97 137 166 234 267 350 393
#     4   9  23  41  64  95 133 172 222 274 338 398
#     4  10  24  43  65 102 127 178 217 282 330 400
#     4  10  24  40  68  98 135 178 232 279 331 406
#     4  11  23  39  69  93 135 178 218 287 330 408
#     4  10  22  44  65 100 134 182 227 277 341 395
#
# _framework density 22.016936999999999
#
# number of rings (size 3 to 8) (size 9 to 14) (size 15 to 20)
#    1.000    1.000    0.000    1.500    9.333    2.000 
#    0.000    1.667    0.000    0.000    0.000    0.000 
#    0.000    0.000    0.000    0.000    0.000    0.000 
#
# Total GULP energy -133631.288524 kJ/mol
# GULP energy per Si atom -5567.970355 kJ/mol
# Density = 2.196683 g / cm^3
# Si number density = 22.016937 Si / 1000 Ang^3
#
#
#
# Elastic Constant Matrix: (Units=GPa)
#
#
# Indices 1 2 3 4 5 6 
#
# 1 94.4870 28.9682 25.7131 0.0000 0.1403 0.0000
# 2 28.9682 78.7413 30.8644 0.0000 2.2501 0.0000
# 3 25.7131 30.8644 111.4501 0.0000 12.1297 0.0000
# 4 0.0000 0.0000 0.0000 17.6826 0.0000 3.0293
# 5 0.1403 2.2501 12.1297 0.0000 13.1819 0.0000
# 6 0.0000 0.0000 0.0000 3.0293 0.0000 22.6515
#
#
#
# Elastic Compliance Matrix: (Units=1/GPa)
#
#
# Indices 1 2 3 4 5 6 
#
# 1 0.012300 -0.003790 -0.002049 0.000000 0.002402 0.000000
# 2 -0.003790 0.015435 -0.003465 0.000000 0.000594 0.000000
# 3 -0.002049 -0.003465 0.011489 0.000000 -0.009958 0.000000
# 4 0.000000 0.000000 0.000000 0.057879 0.000000 -0.007740
# 5 0.002402 0.000594 -0.009958 0.000000 0.084898 0.000000
# 6 0.000000 0.000000 0.000000 -0.007740 0.000000 0.045182
#
#
# Mechanical properties :
#
#
# Convention : Reuss Voigt Hill
#
# Bulk Modulus (GPa) = 48.50860 50.64109 49.57485
# Shear Modulus (GPa) = 19.78915 23.97872 21.88394
#
# Velocity S-wave (km/s) = 3.00128 3.30374 3.15613
# Velocity P-wave (km/s) = 5.83870 6.13219 5.98725
#
# Compressibility (1/GPa) = 0.02061490
#
# Stress axis : x y z
#
# Youngs Moduli (GPa) = 81.30316 64.78651 87.04129
#
# Poissons Ratio (x) = 0.24556 0.17839
# Poissons Ratio (y) = 0.30816 0.30157
# Poissons Ratio (z) = 0.16663 0.22447
#
# Static dielectric constant tensor:
#      x y z
#    x 1.917950 0.000000 -0.000130 
#    y 0.000000 1.838820 0.000000 
#    z -0.000130 0.000000 1.759370 
# 
# From -- ./inp_files/38043.got.cif
#   From: 2010.05.17/outbox.cif.g08.bks.cpg/sg14_20_cif.got.tgz:38043.got - 2010.06.03 17:49:19.
