data_PCOD9248062
_publ_section_title
;
Structure prediction by ZEFSAII (Michael W. Deem and Ramdas Pophale) SiO2 
 PCOD9248062
Probable space group: P 21/C
;
_chemical_formula_sum "Si O2"
_cell_formula_units_Z 32
_cell_length_a 9.990810
_cell_length_b 9.528878
_cell_length_c 15.442782
_cell_angle_alpha 90.000000
_cell_angle_beta 90.000027
_cell_angle_gamma 90.000000
_cell_volume 1470.171526
_symmetry_space_group_name_H-M "P 21/C"
_symmetry_group_IT_number 14
_symmetry_cell_setting 'monoclinic'
loop_
_space_group_symop_operation_xyz
x,y,z
-x,1/2+y,1/2-z
-x,-y,-z
x,1/2-y,1/2+z
loop_
_atom_site_type_symbol
_atom_site_label
_atom_site_fract_x
_atom_site_fract_y
_atom_site_fract_z
Si Si1 0.345630 0.462266 0.992970
Si Si2 0.893947 0.145691 0.931072
Si Si3 0.985960 0.118716 0.343645
Si Si4 0.273458 0.266349 0.350925
Si Si5 0.345630 0.462266 0.507030
Si Si6 0.726542 0.766349 0.350925
Si Si7 0.014040 0.881284 0.843645
Si Si8 0.106053 0.645691 0.931072
O O1 0.337601 0.354980 0.911473
O O2 0.243761 0.586299 0.968033
O O3 0.500000 0.500000 0.000000
O O4 0.294846 0.398301 0.084955
O O5 0.872867 0.263867 0.858155
O O6 0.756239 0.086299 0.968034
O O7 0.983416 0.013354 0.904791
O O8 0.963837 0.250000 0.000000
O O9 0.120424 0.213445 0.344473
O O10 0.967011 0.052461 0.250000
O O11 0.016584 0.986646 0.404791
O O12 0.294846 0.398301 0.415045
O O13 0.319691 0.281255 0.250000
O O14 0.500000 0.500000 0.500000
O O15 0.337601 0.354980 0.588527
O O16 0.879576 0.713445 0.344473
O O17 0.127133 0.763867 0.858155
#
# Coordination Sequence:
#
# PCOD9248062 Si02
#       8
#     4   4   4   4   4   4   4   4
#     4  10  23  41  66  93 130 176 229 275 331 405
#     4  11  24  38  65  96 130 173 216 271 339 397
#     4  10  22  41  63  94 131 167 215 273 336 401
#     4   9  21  41  64  90 127 171 216 279 342 394
#     4  10  23  41  66  93 130 176 229 275 331 405
#     4   9  21  41  64  90 127 171 216 279 342 394
#     4  10  22  41  63  94 131 167 215 273 336 401
#     4  11  24  38  65  96 130 173 216 271 339 397
#
# _framework density 21.766168
#
# number of rings (size 3 to 8) (size 9 to 14) (size 15 to 20)
#    0.000    2.000    0.000    1.500   14.000    2.000 
#    0.000    1.250    0.000    0.000    0.000    0.000 
#    0.000    0.000    0.000    0.000    0.000    0.000 
#
# Total GULP energy -178318.670571 kJ/mol
# GULP energy per Si atom -5572.458455 kJ/mol
# Density = 2.171663 g / cm^3
# Si number density = 21.766168 Si / 1000 Ang^3
#
#
#
# Elastic Constant Matrix: (Units=GPa)
#
#
# Indices 1 2 3 4 5 6 
#
# 1 84.5450 61.7811 56.4460 0.0000 0.0000 0.0000
# 2 61.7811 168.7698 77.8223 0.0000 0.0000 0.0000
# 3 56.4460 77.8223 194.8410 0.0000 0.0000 0.0000
# 4 0.0000 0.0000 0.0000 38.2776 0.0000 0.0000
# 5 0.0000 0.0000 0.0000 0.0000 16.2673 0.0000
# 6 0.0000 0.0000 0.0000 0.0000 0.0000 20.0455
#
#
#
# Elastic Compliance Matrix: (Units=1/GPa)
#
#
# Indices 1 2 3 4 5 6 
#
# 1 0.017540 -0.004998 -0.003085 0.000000 0.000000 0.000000
# 2 -0.004998 0.008687 -0.002022 0.000000 0.000000 0.000000
# 3 -0.003085 -0.002022 0.006834 0.000000 0.000000 0.000000
# 4 0.000000 0.000000 0.000000 0.026125 0.000000 0.000000
# 5 0.000000 0.000000 0.000000 0.000000 0.061473 0.000000
# 6 0.000000 0.000000 0.000000 0.000000 0.000000 0.049887
#
#
# Mechanical properties :
#
#
# Convention : Reuss Voigt Hill
#
# Bulk Modulus (GPa) = 77.81605 93.36161 85.58883
# Shear Modulus (GPa) = 25.63581 31.72517 28.68049
#
# Velocity S-wave (km/s) = 3.43561 3.82192 3.63390
# Velocity P-wave (km/s) = 7.18097 7.90331 7.55078
#
# Compressibility (1/GPa) = 0.01285082
#
# Stress axis : x y z
#
# Youngs Moduli (GPa) = 57.01162 115.11145 146.33452
#
# Poissons Ratio (x) = 0.57537 0.45145
# Poissons Ratio (y) = 0.28496 0.29585
# Poissons Ratio (z) = 0.17588 0.23273
#
# Static dielectric constant tensor:
#      x y z
#    x 1.762310 0.000000 0.000000 
#    y 0.000000 1.856400 0.000000 
#    z 0.000000 0.000000 2.209710 
# 
# From -- ./inp_files/43447.got.cif
#   From: 2010.05.17/outbox.cif.g08.bks.cpg/sg14_22_cif.got.tgz:43447.got - 2010.06.03 17:49:19.
