data_PCOD9248315
_publ_section_title
;
Structure prediction by ZEFSAII (Michael W. Deem and Ramdas Pophale) SiO2 
 PCOD9248315
Probable space group: P 21/C
;
_chemical_formula_sum "Si O2"
_cell_formula_units_Z 32
_cell_length_a 8.158191
_cell_length_b 11.182696
_cell_length_c 26.238532
_cell_angle_alpha 90.000000
_cell_angle_beta 33.573942
_cell_angle_gamma 90.000000
_cell_volume 1323.777549
_symmetry_space_group_name_H-M "P 21/C"
_symmetry_group_IT_number 14
_symmetry_cell_setting 'monoclinic'
loop_
_space_group_symop_operation_xyz
x,y,z
-x,1/2+y,1/2-z
-x,-y,-z
x,1/2-y,1/2+z
loop_
_atom_site_type_symbol
_atom_site_label
_atom_site_fract_x
_atom_site_fract_y
_atom_site_fract_z
Si Si1 0.206747 0.121736 0.166581
Si Si2 0.905220 0.147816 0.987609
Si Si3 0.263579 0.788356 0.233923
Si Si4 0.674905 0.662880 0.533425
Si Si5 0.853547 0.411241 0.389728
Si Si6 0.822371 0.338966 0.126422
Si Si7 0.756682 0.688178 0.238853
Si Si8 0.229724 0.108921 0.378116
O O1 0.141203 0.100880 0.242806
O O2 0.070390 0.250726 0.190166
O O3 0.079086 0.027455 0.160341
O O4 0.558386 0.127049 0.074858
O O5 0.988765 0.086023 0.911744
O O6 0.063576 0.109653 0.998850
O O7 0.996722 0.289028 0.957476
O O8 0.420579 0.844802 0.143775
O O9 0.264799 0.843550 0.290386
O O10 0.460094 0.665770 0.184429
O O11 0.499778 0.611176 0.529839
O O12 0.852569 0.779500 0.466451
O O13 0.010705 0.295237 0.325966
O O14 0.563836 0.251966 0.171438
O O15 0.815040 0.468691 0.101558
O O16 0.761296 0.620526 0.184883
#
# Coordination Sequence:
#
# PCOD9248315 Si02
#       8
#     4   4   4   4   4   4   4   4
#     4  12  22  42  65  93 132 178 216 278 345 386
#     4  10  23  43  63 100 132 167 229 275 320 416
#     4  10  23  40  65  96 131 167 227 272 323 409
#     4  11  23  43  66  99 135 171 223 279 322 413
#     4  11  24  43  66  93 137 174 218 284 334 390
#     4  11  22  44  69  95 133 178 219 281 343 385
#     4  10  22  42  64  99 132 168 233 274 328 419
#     4   9  22  42  67  95 131 175 219 283 334 393
#
# _framework density 24.173245999999999
#
# number of rings (size 3 to 8) (size 9 to 14) (size 15 to 20)
#    0.000    1.500    2.500    2.625    1.750    2.500 
#    4.500    5.625    0.000    0.000    0.000    0.000 
#    0.000    0.000    0.000    0.000    0.000    0.000 
#
# Total GULP energy -178452.182469 kJ/mol
# GULP energy per Si atom -5576.630702 kJ/mol
# Density = 2.411823 g / cm^3
# Si number density = 24.173246 Si / 1000 Ang^3
#
#
#
# Elastic Constant Matrix: (Units=GPa)
#
#
# Indices 1 2 3 4 5 6 
#
# 1 125.4467 19.6347 18.8914 0.0000 13.6473 0.0000
# 2 19.6347 90.2463 28.8113 0.0000 4.3117 0.0000
# 3 18.8914 28.8113 57.6880 0.0000 3.6954 0.0000
# 4 0.0000 0.0000 0.0000 29.9282 0.0000 2.5617
# 5 13.6473 4.3117 3.6954 0.0000 47.1761 0.0000
# 6 0.0000 0.0000 0.0000 2.5617 0.0000 33.6344
#
#
#
# Elastic Compliance Matrix: (Units=1/GPa)
#
#
# Indices 1 2 3 4 5 6 
#
# 1 0.008714 -0.001098 -0.002161 0.000000 -0.002251 0.000000
# 2 -0.001098 0.013344 -0.006278 0.000000 -0.000410 0.000000
# 3 -0.002161 -0.006278 0.021207 0.000000 -0.000462 0.000000
# 4 0.000000 0.000000 0.000000 0.033633 0.000000 -0.002562
# 5 -0.002251 -0.000410 -0.000462 0.000000 0.021922 0.000000
# 6 0.000000 0.000000 0.000000 -0.002562 0.000000 0.029927
#
#
# Mechanical properties :
#
#
# Convention : Reuss Voigt Hill
#
# Bulk Modulus (GPa) = 41.33961 45.33954 43.33957
# Shear Modulus (GPa) = 32.07505 35.88398 33.97951
#
# Velocity S-wave (km/s) = 3.64659 3.85704 3.75329
# Velocity P-wave (km/s) = 5.90497 6.21550 6.06222
#
# Compressibility (1/GPa) = 0.02418988
#
# Stress axis : x y z
#
# Youngs Moduli (GPa) = 114.76147 74.94157 47.15325
#
# Poissons Ratio (x) = 0.08232 0.10189
# Poissons Ratio (y) = 0.12606 0.29604
# Poissons Ratio (z) = 0.24797 0.47051
#
# Static dielectric constant tensor:
#      x y z
#    x 1.967650 0.000000 0.056560 
#    y 0.000000 1.993120 0.000000 
#    z 0.056560 0.000000 2.023910 
# 
# From -- ./inp_files/79631.got.cif
#   From: 2010.05.17/outbox.cif.g08.bks.cpg/sg14_40_cif.got.tgz:79631.got - 2010.06.03 17:49:19.
