data_PCOD9248589
_publ_section_title
;
Structure prediction by ZEFSAII (Michael W. Deem and Ramdas Pophale) SiO2 
 PCOD9248589
Probable space group: P 21/C
;
_chemical_formula_sum "Si O2"
_cell_formula_units_Z 32
_cell_length_a 6.446895
_cell_length_b 17.373494
_cell_length_c 13.700675
_cell_angle_alpha 90.000000
_cell_angle_beta 90.326926
_cell_angle_gamma 90.000000
_cell_volume 1534.520378
_symmetry_space_group_name_H-M "P 21/C"
_symmetry_group_IT_number 14
_symmetry_cell_setting 'monoclinic'
loop_
_space_group_symop_operation_xyz
x,y,z
-x,1/2+y,1/2-z
-x,-y,-z
x,1/2-y,1/2+z
loop_
_atom_site_type_symbol
_atom_site_label
_atom_site_fract_x
_atom_site_fract_y
_atom_site_fract_z
Si Si1 0.660508 0.038082 0.425150
Si Si2 0.741730 0.776640 0.614772
Si Si3 0.071059 0.830798 0.465610
Si Si4 0.684315 0.924414 0.724283
Si Si5 0.645979 0.196745 0.969326
Si Si6 0.992788 0.946028 0.313400
Si Si7 0.363666 0.432211 0.547636
Si Si8 0.967627 0.615519 0.607369
O O1 0.801154 0.103602 0.475284
O O2 0.532001 0.071173 0.333665
O O3 0.500000 0.000000 0.500000
O O4 0.807622 0.973126 0.381502
O O5 0.766140 0.838988 0.700200
O O6 0.504867 0.751167 0.594846
O O7 0.852657 0.814801 0.519867
O O8 0.860739 0.697036 0.632073
O O9 0.199413 0.752119 0.472202
O O10 0.056817 0.863753 0.356935
O O11 0.670441 0.942682 0.838093
O O12 0.830779 0.989445 0.677796
O O13 0.793031 0.136904 0.911748
O O14 0.493621 0.146276 0.034348
O O15 0.937760 0.938542 0.200188
O O16 0.500000 0.500000 0.500000
O O17 0.151382 0.419741 0.486161
#
# Coordination Sequence:
#
# PCOD9248589 Si02
#       8
#     4   4   4   4   4   4   4   4
#     4  12  23  41  66 101 136 171 214 278 337 409
#     4  10  22  43  65  96 134 169 219 281 333 412
#     4  11  22  41  66  96 136 168 211 272 348 406
#     4  12  24  40  70  97 128 179 224 275 336 404
#     4  10  23  44  68  92 138 175 219 284 336 399
#     4  12  25  40  67 100 134 175 219 275 346 406
#     4  11  25  46  66  94 131 179 234 282 327 396
#     4  10  25  45  64  94 134 176 223 281 335 397
#
# _framework density 20.85342
#
# number of rings (size 3 to 8) (size 9 to 14) (size 15 to 20)
#    0.000    1.000    3.750    2.625    0.000    8.000 
#    0.000    0.000    0.000    0.000    0.000    0.000 
#    0.000    0.000    0.000    0.000    0.000    0.000 
#
# Total GULP energy -178842.814086 kJ/mol
# GULP energy per Si atom -5588.837940 kJ/mol
# Density = 2.080596 g / cm^3
# Si number density = 20.853420 Si / 1000 Ang^3
#
#
#
# Elastic Constant Matrix: (Units=GPa)
#
#
# Indices 1 2 3 4 5 6 
#
# 1 87.9134 14.5291 38.2683 0.0000 -9.9376 0.0000
# 2 14.5291 71.8026 18.0533 0.0000 -7.7249 0.0000
# 3 38.2683 18.0533 104.4944 0.0000 1.9602 0.0000
# 4 0.0000 0.0000 0.0000 24.6618 0.0000 1.5458
# 5 -9.9376 -7.7249 1.9602 0.0000 28.7044 0.0000
# 6 0.0000 0.0000 0.0000 1.5458 0.0000 37.8296
#
#
#
# Elastic Compliance Matrix: (Units=1/GPa)
#
#
# Indices 1 2 3 4 5 6 
#
# 1 0.014373 -0.001065 -0.005174 0.000000 0.005043 0.000000
# 2 -0.001065 0.015136 -0.002297 0.000000 0.003861 0.000000
# 3 -0.005174 -0.002297 0.011922 0.000000 -0.003224 0.000000
# 4 0.000000 0.000000 0.000000 0.040653 0.000000 -0.001661
# 5 0.005043 0.003861 -0.003224 0.000000 0.037843 0.000000
# 6 0.000000 0.000000 0.000000 -0.001661 0.000000 0.026502
#
#
# Mechanical properties :
#
#
# Convention : Reuss Voigt Hill
#
# Bulk Modulus (GPa) = 41.05473 45.10131 43.07802
# Shear Modulus (GPa) = 29.13384 31.12983 30.13184
#
# Velocity S-wave (km/s) = 3.74180 3.86786 3.80535
# Velocity P-wave (km/s) = 6.19663 6.45150 6.32535
#
# Compressibility (1/GPa) = 0.02435773
#
# Stress axis : x y z
#
# Youngs Moduli (GPa) = 69.57361 66.06934 83.87654
#
# Poissons Ratio (x) = 0.07035 0.43401
# Poissons Ratio (y) = 0.07409 0.19270
# Poissons Ratio (z) = 0.36001 0.15179
#
# Static dielectric constant tensor:
#      x y z
#    x 1.785670 0.000000 0.016790 
#    y 0.000000 1.794340 0.000000 
#    z 0.016790 0.000000 1.720260 
# 
# From -- ./inp_files/37862.got.cif
#   From: 2010.05.17/outbox.cif.g08.bks.cpg/sg14_19_cif.got.tgz:37862.got - 2010.06.03 17:49:19.
