data_PCOD9248864
_publ_section_title
;
Structure prediction by ZEFSAII (Michael W. Deem and Ramdas Pophale) SiO2 
 PCOD9248864
Probable space group: P 21/C
;
_chemical_formula_sum "Si O2"
_cell_formula_units_Z 28
_cell_length_a 10.901200
_cell_length_b 11.842523
_cell_length_c 18.908838
_cell_angle_alpha 90.000000
_cell_angle_beta 29.048769
_cell_angle_gamma 90.000000
_cell_volume 1185.279669
_symmetry_space_group_name_H-M "P 21/C"
_symmetry_group_IT_number 14
_symmetry_cell_setting 'monoclinic'
loop_
_space_group_symop_operation_xyz
x,y,z
-x,1/2+y,1/2-z
-x,-y,-z
x,1/2-y,1/2+z
loop_
_atom_site_type_symbol
_atom_site_label
_atom_site_fract_x
_atom_site_fract_y
_atom_site_fract_z
Si Si1 0.154889 0.783294 0.256975
Si Si2 0.011318 0.876294 0.065845
Si Si3 0.902490 0.538199 0.186924
Si Si4 0.676615 0.704004 0.407497
Si Si5 0.700509 0.417426 0.714224
Si Si6 0.346679 0.794653 0.453736
Si Si7 0.320016 0.311355 0.823670
O O1 0.175961 0.679995 0.300968
O O2 0.923021 0.752620 0.321905
O O3 0.100320 0.905158 0.317135
O O4 0.430704 0.797678 0.081403
O O5 0.902818 0.778375 0.069421
O O6 0.152287 0.811896 0.057963
O O7 0.797256 0.964488 0.196903
O O8 0.211315 0.935022 0.912522
O O9 0.761732 0.586080 0.328074
O O10 0.757590 0.594078 0.193891
O O11 0.181041 0.594535 0.046456
O O12 0.572364 0.778815 0.394661
O O13 0.416744 0.372372 0.844849
O O14 0.456518 0.768763 0.320611
#
# Coordination Sequence:
#
# PCOD9248864 Si02
#       7
#     4   4   4   4   4   4   4
#     4  12  27  40  67 103 138 170 227 282 335 399
#     4   9  20  41  64  86 125 176 219 268 331 404
#     4  10  22  44  69  95 131 177 226 277 338 400
#     4  11  24  46  64  97 135 180 217 276 339 400
#     4  10  23  38  61  96 129 172 217 273 330 399
#     4   9  19  43  66  91 120 175 229 263 332 406
#     4   9  20  38  66  89 125 173 215 272 340 400
#
# _framework density 23.623117000000001
#
# number of rings (size 3 to 8) (size 9 to 14) (size 15 to 20)
#    0.000    2.000    1.429    0.429    4.000    6.286 
#    0.000    2.143    0.000    0.000    0.000    0.000 
#    0.000    0.000    0.000    0.000    0.000    0.000 
#
# Total GULP energy -156230.902052 kJ/mol
# GULP energy per Si atom -5579.675073 kJ/mol
# Density = 2.356935 g / cm^3
# Si number density = 23.623117 Si / 1000 Ang^3
#
#
#
# Elastic Constant Matrix: (Units=GPa)
#
#
# Indices 1 2 3 4 5 6 
#
# 1 104.0312 51.6313 36.1687 0.0000 -33.7630 0.0000
# 2 51.6313 144.1400 9.5380 0.0000 -7.5737 0.0000
# 3 36.1687 9.5380 101.5258 0.0000 -13.8304 0.0000
# 4 0.0000 0.0000 0.0000 10.3834 0.0000 0.4046
# 5 -33.7630 -7.5737 -13.8304 0.0000 40.5077 0.0000
# 6 0.0000 0.0000 0.0000 0.4046 0.0000 19.1243
#
#
#
# Elastic Compliance Matrix: (Units=1/GPa)
#
#
# Indices 1 2 3 4 5 6 
#
# 1 0.017767 -0.005440 -0.004132 0.000000 0.012381 0.000000
# 2 -0.005440 0.008697 0.000760 0.000000 -0.002649 0.000000
# 3 -0.004132 0.000760 0.011327 0.000000 0.000566 0.000000
# 4 0.000000 0.000000 0.000000 0.096387 0.000000 -0.002039
# 5 0.012381 -0.002649 0.000566 0.000000 0.034704 0.000000
# 6 0.000000 0.000000 0.000000 -0.002039 0.000000 0.052333
#
#
# Mechanical properties :
#
#
# Convention : Reuss Voigt Hill
#
# Bulk Modulus (GPa) = 49.58450 60.48589 55.03519
# Shear Modulus (GPa) = 20.36144 30.82700 25.59422
#
# Velocity S-wave (km/s) = 2.93905 3.61633 3.29514
# Velocity P-wave (km/s) = 5.70550 6.56485 6.15020
#
# Compressibility (1/GPa) = 0.02016759
#
# Stress axis : x y z
#
# Youngs Moduli (GPa) = 56.28293 114.98270 88.28185
#
# Poissons Ratio (x) = 0.62555 0.36477
# Poissons Ratio (y) = 0.30620 -0.06711
# Poissons Ratio (z) = 0.23256 -0.08741
#
# Static dielectric constant tensor:
#      x y z
#    x 1.883640 0.000000 -0.002630 
#    y 0.000000 1.904060 0.000000 
#    z -0.002630 0.000000 2.065270 
# 
# From -- ./inp_files/73228.got.cif
#   From: 2010.05.17/outbox.cif.g08.bks.cpg/sg14_37_cif.got.tgz:73228.got - 2010.06.03 17:49:19.
