data_PCOD9248900
_publ_section_title
;
Structure prediction by ZEFSAII (Michael W. Deem and Ramdas Pophale) SiO2 
 PCOD9248900
Probable space group: P 21/C
;
_chemical_formula_sum "Si O2"
_cell_formula_units_Z 24
_cell_length_a 26.673996
_cell_length_b 5.271732
_cell_length_c 13.658687
_cell_angle_alpha 90.000000
_cell_angle_beta 31.782496
_cell_angle_gamma 90.000000
_cell_volume 1011.603872
_symmetry_space_group_name_H-M "P 21/C"
_symmetry_group_IT_number 14
_symmetry_cell_setting 'monoclinic'
loop_
_space_group_symop_operation_xyz
x,y,z
-x,1/2+y,1/2-z
-x,-y,-z
x,1/2-y,1/2+z
loop_
_atom_site_type_symbol
_atom_site_label
_atom_site_fract_x
_atom_site_fract_y
_atom_site_fract_z
Si Si1 0.422313 0.443820 0.978367
Si Si2 0.270051 0.734776 0.852236
Si Si3 0.275227 0.084189 0.164662
Si Si4 0.899139 0.653418 0.616833
Si Si5 0.378306 0.758706 0.352705
Si Si6 0.913266 0.346290 0.223542
O O1 0.530802 0.409646 0.829422
O O2 0.413348 0.575579 0.886517
O O3 0.349372 0.580405 0.172903
O O4 0.377476 0.168757 0.034984
O O5 0.233260 0.568806 0.823810
O O6 0.329273 0.601899 0.842667
O O7 0.174887 0.845045 0.057024
O O8 0.204444 0.309399 0.257135
O O9 0.297333 0.922376 0.032267
O O10 0.901815 0.374257 0.658795
O O11 0.985409 0.742918 0.402554
O O12 0.912680 0.873520 0.677197
#
# Coordination Sequence:
#
# PCOD9248900 Si02
#       6
#     4   4   4   4   4   4
#     4  11  24  41  65  94 128 177 232 279 353 403
#     4  11  25  40  65 101 130 175 231 285 346 411
#     4  11  24  41  65  96 133 180 222 288 341 414
#     4  10  22  44  72  97 133 183 224 276 348 409
#     4  11  22  44  64  91 137 175 227 285 344 420
#     4  10  22  44  71 100 133 179 228 278 343 409
#
# _framework density 23.724699999999999
#
# number of rings (size 3 to 8) (size 9 to 14) (size 15 to 20)
#    0.000    1.333    3.333    1.500    4.667    2.000 
#    3.000    0.000    0.000    0.000    0.000    0.000 
#    0.000    0.000    0.000    0.000    0.000    0.000 
#
# Total GULP energy -133982.731359 kJ/mol
# GULP energy per Si atom -5582.613807 kJ/mol
# Density = 2.367070 g / cm^3
# Si number density = 23.724700 Si / 1000 Ang^3
#
#
#
# Elastic Constant Matrix: (Units=GPa)
#
#
# Indices 1 2 3 4 5 6 
#
# 1 38.7275 3.3010 39.0216 0.0000 -13.2105 0.0000
# 2 3.3010 69.8222 19.2033 0.0000 8.1098 0.0000
# 3 39.0216 19.2033 134.1621 0.0000 5.6691 0.0000
# 4 0.0000 0.0000 0.0000 26.1968 0.0000 -14.5002
# 5 -13.2105 8.1098 5.6691 0.0000 28.6136 0.0000
# 6 0.0000 0.0000 0.0000 -14.5002 0.0000 31.1225
#
#
#
# Elastic Compliance Matrix: (Units=1/GPa)
#
#
# Indices 1 2 3 4 5 6 
#
# 1 0.051125 -0.001206 -0.015842 0.000000 0.027084 0.000000
# 2 -0.001206 0.015367 -0.001655 0.000000 -0.004584 0.000000
# 3 -0.015842 -0.001655 0.012694 0.000000 -0.009360 0.000000
# 4 0.000000 0.000000 0.000000 0.051438 0.000000 0.023965
# 5 0.027084 -0.004584 -0.009360 0.000000 0.050607 0.000000
# 6 0.000000 0.000000 0.000000 0.023965 0.000000 0.043297
#
#
# Mechanical properties :
#
#
# Convention : Reuss Voigt Hill
#
# Bulk Modulus (GPa) = 23.93478 40.64039 32.28759
# Shear Modulus (GPa) = 18.12517 29.26563 23.69540
#
# Velocity S-wave (km/s) = 2.76702 3.51600 3.16375
# Velocity P-wave (km/s) = 4.50765 5.80088 5.19467
#
# Compressibility (1/GPa) = 0.04178020
#
# Stress axis : x y z
#
# Youngs Moduli (GPa) = 19.55974 65.07558 78.77881
#
# Poissons Ratio (x) = 0.07847 1.24801
# Poissons Ratio (y) = 0.02359 0.13039
# Poissons Ratio (z) = 0.30986 0.10771
#
# Static dielectric constant tensor:
#      x y z
#    x 1.921240 0.000000 -0.009400 
#    y 0.000000 1.932610 0.000000 
#    z -0.009400 0.000000 1.962400 
# 
# From -- ./inp_files/52113.got.cif
#   From: 2010.05.17/outbox.cif.g08.bks.cpg/sg14_27_cif.got.tgz:52113.got - 2010.06.03 17:49:19.
