data_PCOD9248074
_publ_section_title
;
Structure prediction by ZEFSAII (Michael W. Deem and Ramdas Pophale) SiO2 
 PCOD9248074
Probable space group: P 21/C
;
_chemical_formula_sum "Si O2"
_cell_formula_units_Z 28
_cell_length_a 12.011935
_cell_length_b 20.887635
_cell_length_c 8.097393
_cell_angle_alpha 90.000000
_cell_angle_beta 145.174477
_cell_angle_gamma 90.000000
_cell_volume 1160.229437
_symmetry_space_group_name_H-M "P 21/C"
_symmetry_group_IT_number 14
_symmetry_cell_setting 'monoclinic'
loop_
_space_group_symop_operation_xyz
x,y,z
-x,1/2+y,1/2-z
-x,-y,-z
x,1/2-y,1/2+z
loop_
_atom_site_type_symbol
_atom_site_label
_atom_site_fract_x
_atom_site_fract_y
_atom_site_fract_z
Si Si1 0.778088 0.390645 0.906147
Si Si2 0.932151 0.991175 0.112402
Si Si3 0.609739 0.358673 0.012795
Si Si4 0.633487 0.636647 0.989466
Si Si5 0.276106 0.712728 0.390160
Si Si6 0.035149 0.626790 0.327599
Si Si7 0.584183 0.022131 0.921361
O O1 0.963055 0.425752 0.205649
O O2 0.611512 0.396270 0.843878
O O3 0.776939 0.316832 0.852717
O O4 0.729541 0.424739 0.676350
O O5 0.025155 0.055816 0.308079
O O6 0.717409 0.988226 0.941338
O O7 0.000000 0.000000 0.000000
O O8 0.413245 0.355444 0.875392
O O9 0.691339 0.287555 0.085260
O O10 0.772668 0.389742 0.330258
O O11 0.480360 0.682727 0.707170
O O12 0.579373 0.563765 0.872232
O O13 0.853194 0.650708 0.210938
O O14 0.105247 0.683604 0.295225
O O15 0.500000 0.000000 0.000000
#
# Coordination Sequence:
#
# PCOD9248074 Si02
#       7
#     4   4   4   4   4   4   4
#     4  11  21  38  66  91 125 176 216 267 337 390
#     4  12  22  41  65  95 138 175 216 274 337 405
#     4  11  22  44  63  94 130 174 220 271 334 391
#     4  10  22  41  64  90 130 166 215 272 325 394
#     4  10  23  42  66  88 129 171 222 276 321 391
#     4  11  22  42  65  94 130 170 216 277 333 389
#     4  11  23  39  63 100 130 173 215 274 331 394
#
# _framework density 24.133158000000002
#
# number of rings (size 3 to 8) (size 9 to 14) (size 15 to 20)
#    0.000    1.143    5.714    3.000    2.000    2.286 
#    0.000    2.857    0.000    0.000    0.000    0.000 
#    0.000    0.000    0.000    0.000    0.000    0.000 
#
# Total GULP energy -156005.940523 kJ/mol
# GULP energy per Si atom -5571.640733 kJ/mol
# Density = 2.407823 g / cm^3
# Si number density = 24.133158 Si / 1000 Ang^3
#
#
#
# Elastic Constant Matrix: (Units=GPa)
#
#
# Indices 1 2 3 4 5 6 
#
# 1 226.9877 33.2990 31.6827 0.0000 21.4340 0.0000
# 2 33.2990 69.6876 4.8773 0.0000 -3.8321 0.0000
# 3 31.6827 4.8773 32.0437 0.0000 5.5484 0.0000
# 4 0.0000 0.0000 0.0000 26.6543 0.0000 -11.2188
# 5 21.4340 -3.8321 5.5484 0.0000 48.7350 0.0000
# 6 0.0000 0.0000 0.0000 -11.2188 0.0000 32.7417
#
#
#
# Elastic Compliance Matrix: (Units=1/GPa)
#
#
# Indices 1 2 3 4 5 6 
#
# 1 0.005644 -0.002476 -0.004836 0.000000 -0.002127 0.000000
# 2 -0.002476 0.015687 -0.000349 0.000000 0.002362 0.000000
# 3 -0.004836 -0.000349 0.036396 0.000000 -0.002044 0.000000
# 4 0.000000 0.000000 0.000000 0.043840 0.000000 0.015022
# 5 -0.002127 0.002362 -0.002044 0.000000 0.021873 0.000000
# 6 0.000000 0.000000 0.000000 0.015022 0.000000 0.035689
#
#
# Mechanical properties :
#
#
# Convention : Reuss Voigt Hill
#
# Bulk Modulus (GPa) = 23.58134 52.04856 37.81495
# Shear Modulus (GPa) = 26.51316 38.88353 32.69834
#
# Velocity S-wave (km/s) = 3.31814 4.01834 3.68491
# Velocity P-wave (km/s) = 4.94698 6.56837 5.81447
#
# Compressibility (1/GPa) = 0.04240641
#
# Stress axis : x y z
#
# Youngs Moduli (GPa) = 177.16393 63.74715 27.47572
#
# Poissons Ratio (x) = 0.15781 0.13287
# Poissons Ratio (y) = 0.43859 0.00959
# Poissons Ratio (z) = 0.85674 0.02224
#
# Static dielectric constant tensor:
#      x y z
#    x 1.989190 0.000000 -0.022450 
#    y 0.000000 2.021180 0.000000 
#    z -0.022450 0.000000 1.941560 
# 
# From -- ./inp_files/14495.got.cif
#   From: 2010.05.17/outbox.cif.g08.bks.cpg/sg14_8_cif.got.tgz:14495.got - 2010.06.03 17:49:19.
