data_PCOD9248728
_publ_section_title
;
Structure prediction by ZEFSAII (Michael W. Deem and Ramdas Pophale) SiO2 
 PCOD9248728
Probable space group: P 21/C
;
_chemical_formula_sum "Si O2"
_cell_formula_units_Z 22
_cell_length_a 8.295186
_cell_length_b 15.705771
_cell_length_c 8.856763
_cell_angle_alpha 90.000000
_cell_angle_beta 129.911360
_cell_angle_gamma 90.000000
_cell_volume 885.069283
_symmetry_space_group_name_H-M "P 21/C"
_symmetry_group_IT_number 14
_symmetry_cell_setting 'monoclinic'
loop_
_space_group_symop_operation_xyz
x,y,z
-x,1/2+y,1/2-z
-x,-y,-z
x,1/2-y,1/2+z
loop_
_atom_site_type_symbol
_atom_site_label
_atom_site_fract_x
_atom_site_fract_y
_atom_site_fract_z
Si Si1 0.805650 0.432609 0.217832
Si Si2 0.500000 0.000000 0.000000
Si Si3 0.994744 0.698949 0.844777
Si Si4 0.269659 0.237454 0.562374
Si Si5 0.397124 0.419325 0.764868
Si Si6 0.680727 0.343492 0.437682
O O1 0.984305 0.394084 0.217441
O O2 0.784351 0.530448 0.252059
O O3 0.816076 0.382762 0.381846
O O4 0.593532 0.413851 0.996108
O O5 0.623253 0.091999 0.037207
O O6 0.534615 0.973981 0.840894
O O7 0.935017 0.696335 0.982552
O O8 0.796211 0.745043 0.647657
O O9 0.197776 0.757679 0.939733
O O10 0.321907 0.330027 0.658399
O O11 0.464587 0.179838 0.722306
#
# Coordination Sequence:
#
# PCOD9248728 Si02
#       6
#     4   2   4   4   4   4
#     4  10  22  44  70  95 140 184 225 283 355 399
#     4  10  24  42  76 102 134 188 224 284 366 386
#     4  12  25  41  67 104 131 186 228 282 345 410
#     4  12  25  41  72 100 137 182 235 277 350 409
#     4  10  22  43  72 100 136 186 229 287 348 414
#     4  11  24  47  66 100 141 179 231 293 333 422
#
# _framework density 24.856809999999999
#
# number of rings (size 3 to 8) (size 9 to 14) (size 15 to 20)
#    0.000    1.091    3.636    2.182    5.091    0.727 
#    3.273    0.909    0.000    0.000    0.000    0.000 
#    0.000    0.000    0.000    0.000    0.000    0.000 
#
# Total GULP energy -122589.442052 kJ/mol
# GULP energy per Si atom -5572.247366 kJ/mol
# Density = 2.480023 g / cm^3
# Si number density = 24.856810 Si / 1000 Ang^3
#
#
#
# Elastic Constant Matrix: (Units=GPa)
#
#
# Indices 1 2 3 4 5 6 
#
# 1 40.3736 7.0835 28.5611 0.0000 -7.0347 0.0000
# 2 7.0835 55.2328 10.5181 0.0000 -4.2892 0.0000
# 3 28.5611 10.5181 88.4805 0.0000 -1.2040 0.0000
# 4 0.0000 0.0000 0.0000 30.8579 0.0000 -3.0389
# 5 -7.0347 -4.2892 -1.2040 0.0000 39.1517 0.0000
# 6 0.0000 0.0000 0.0000 -3.0389 0.0000 28.5000
#
#
#
# Elastic Compliance Matrix: (Units=1/GPa)
#
#
# Indices 1 2 3 4 5 6 
#
# 1 0.033491 -0.001867 -0.010514 0.000000 0.005490 0.000000
# 2 -0.001867 0.018781 -0.001607 0.000000 0.001673 0.000000
# 3 -0.010514 -0.001607 0.014865 0.000000 -0.001608 0.000000
# 4 0.000000 0.000000 0.000000 0.032751 0.000000 0.003492
# 5 0.005490 0.001673 -0.001608 0.000000 0.026662 0.000000
# 6 0.000000 0.000000 0.000000 0.003492 0.000000 0.035460
#
#
# Mechanical properties :
#
#
# Convention : Reuss Voigt Hill
#
# Bulk Modulus (GPa) = 25.53603 30.71249 28.12426
# Shear Modulus (GPa) = 24.62597 28.89686 26.76141
#
# Velocity S-wave (km/s) = 3.15097 3.41329 3.28475
# Velocity P-wave (km/s) = 4.85116 5.28362 5.07200
#
# Compressibility (1/GPa) = 0.03916036
#
# Stress axis : x y z
#
# Youngs Moduli (GPa) = 29.85917 53.24656 67.27222
#
# Poissons Ratio (x) = 0.09939 0.70730
# Poissons Ratio (y) = 0.05574 0.10812
# Poissons Ratio (z) = 0.31394 0.08558
#
# Static dielectric constant tensor:
#      x y z
#    x 2.010430 0.000000 0.098410 
#    y 0.000000 1.997440 0.000000 
#    z 0.098410 0.000000 1.969970 
# 
# From -- ./inp_files/8917.got.cif
#   From: 2010.05.17/outbox.cif.g08.bks.cpg/sg14_5_cif.got.tgz:8917.got - 2010.06.03 17:49:19.
