data_PCOD9248926
_publ_section_title
;
Structure prediction by ZEFSAII (Michael W. Deem and Ramdas Pophale) SiO2 
 PCOD9248926
Probable space group: P 21/C
;
_chemical_formula_sum "Si O2"
_cell_formula_units_Z 22
_cell_length_a 9.442965
_cell_length_b 4.854528
_cell_length_c 27.867620
_cell_angle_alpha 90.000000
_cell_angle_beta 36.835040
_cell_angle_gamma 90.000000
_cell_volume 765.868150
_symmetry_space_group_name_H-M "P 21/C"
_symmetry_group_IT_number 14
_symmetry_cell_setting 'monoclinic'
loop_
_space_group_symop_operation_xyz
x,y,z
-x,1/2+y,1/2-z
-x,-y,-z
x,1/2-y,1/2+z
loop_
_atom_site_type_symbol
_atom_site_label
_atom_site_fract_x
_atom_site_fract_y
_atom_site_fract_z
Si Si1 0.500000 0.500000 0.000000
Si Si2 0.451059 0.371090 0.293574
Si Si3 0.957869 0.817273 0.935966
Si Si4 0.727106 0.322313 0.035933
Si Si5 0.293865 0.303455 0.702999
Si Si6 0.156197 0.985927 0.135765
O O1 0.417639 0.638067 0.973375
O O2 0.655796 0.251175 0.926610
O O3 0.431102 0.065631 0.279333
O O4 0.200349 0.519889 0.367827
O O5 0.620743 0.423034 0.292620
O O6 0.849851 0.809668 0.910142
O O7 0.944067 0.525375 0.965675
O O8 0.801550 0.006558 0.013299
O O9 0.536851 0.364483 0.128717
O O10 0.194141 0.373376 0.677298
O O11 0.098516 0.157977 0.788514
#
# Coordination Sequence:
#
# PCOD9248926 Si02
#       6
#     2   4   4   4   4   4
#     4  10  22  44  72 108 156 198 246 304 400 448
#     4  12  28  50  77 111 155 210 256 324 392 470
#     4  11  25  48  76 106 155 204 254 302 407 460
#     4  11  24  44  74 112 148 202 249 325 375 467
#     4  12  27  46  77 120 154 199 271 328 387 455
#     4  11  25  46  78 117 153 210 256 331 382 471
#
# _framework density 28.725570999999999
#
# number of rings (size 3 to 8) (size 9 to 14) (size 15 to 20)
#    0.000    0.727    1.818    4.364    5.091    7.273 
#    0.000    0.000    0.000    1.091    0.000    0.000 
#    0.000    0.000    0.000    0.000    0.000    0.000 
#
# Total GULP energy -123036.771036 kJ/mol
# GULP energy per Si atom -5592.580502 kJ/mol
# Density = 2.866019 g / cm^3
# Si number density = 28.725571 Si / 1000 Ang^3
#
#
#
# Elastic Constant Matrix: (Units=GPa)
#
#
# Indices 1 2 3 4 5 6 
#
# 1 139.4015 1.3445 18.2913 0.0000 36.3964 0.0000
# 2 1.3445 105.0923 31.6455 0.0000 20.4337 0.0000
# 3 18.2913 31.6455 171.7828 0.0000 4.1363 0.0000
# 4 0.0000 0.0000 0.0000 49.2617 0.0000 -8.0016
# 5 36.3964 20.4337 4.1363 0.0000 48.7379 0.0000
# 6 0.0000 0.0000 0.0000 -8.0016 0.0000 16.7557
#
#
#
# Elastic Compliance Matrix: (Units=1/GPa)
#
#
# Indices 1 2 3 4 5 6 
#
# 1 0.009271 0.001682 -0.001116 0.000000 -0.007534 0.000000
# 2 0.001682 0.011257 -0.002113 0.000000 -0.005797 0.000000
# 3 -0.001116 -0.002113 0.006301 0.000000 0.001184 0.000000
# 4 0.000000 0.000000 0.000000 0.022007 0.000000 0.010509
# 5 -0.007534 -0.005797 0.001184 0.000000 0.028474 0.000000
# 6 0.000000 0.000000 0.000000 0.010509 0.000000 0.064700
#
#
# Mechanical properties :
#
#
# Convention : Reuss Voigt Hill
#
# Bulk Modulus (GPa) = 42.13136 57.64880 49.89008
# Shear Modulus (GPa) = 32.67667 47.28409 39.98038
#
# Velocity S-wave (km/s) = 3.37641 4.06157 3.73474
# Velocity P-wave (km/s) = 5.46799 6.48903 6.00027
#
# Compressibility (1/GPa) = 0.02373529
#
# Stress axis : x y z
#
# Youngs Moduli (GPa) = 107.86715 88.83081 158.70761
#
# Poissons Ratio (x) = -0.14943 0.17706
# Poissons Ratio (y) = -0.18145 0.33541
# Poissons Ratio (z) = 0.12034 0.18773
#
# Static dielectric constant tensor:
#      x y z
#    x 2.197650 0.000000 0.033910 
#    y 0.000000 1.907670 0.000000 
#    z 0.033910 0.000000 2.131770 
# 
# From -- ./inp_files/79821.got.cif
#   From: 2010.05.17/outbox.cif.g08.bks.cpg/sg14_40_cif.got.tgz:79821.got - 2010.06.03 17:49:19.
