data_PCOD9248813
_publ_section_title
;
Structure prediction by ZEFSAII (Michael W. Deem and Ramdas Pophale) SiO2 
 PCOD9248813
Probable space group: P 21/C
;
_chemical_formula_sum "Si O2"
_cell_formula_units_Z 32
_cell_length_a 15.017445
_cell_length_b 17.684640
_cell_length_c 10.977136
_cell_angle_alpha 90.000000
_cell_angle_beta 151.465734
_cell_angle_gamma 90.000000
_cell_volume 1392.586708
_symmetry_space_group_name_H-M "P 21/C"
_symmetry_group_IT_number 14
_symmetry_cell_setting 'monoclinic'
loop_
_space_group_symop_operation_xyz
x,y,z
-x,1/2+y,1/2-z
-x,-y,-z
x,1/2-y,1/2+z
loop_
_atom_site_type_symbol
_atom_site_label
_atom_site_fract_x
_atom_site_fract_y
_atom_site_fract_z
Si Si1 0.555794 0.277618 0.305062
Si Si2 0.071201 0.785621 0.314089
Si Si3 0.539734 0.320268 0.019499
Si Si4 0.035523 0.647055 0.411491
Si Si5 0.735005 0.063843 0.357026
Si Si6 0.183498 0.398426 0.626494
Si Si7 0.906421 0.483813 0.685831
Si Si8 0.471662 0.944804 0.139018
O O1 0.780817 0.266580 0.579474
O O2 0.510452 0.268540 0.106298
O O3 0.492760 0.221394 0.336382
O O4 0.494512 0.362880 0.261956
O O5 0.989275 0.733695 0.322965
O O6 0.197362 0.856140 0.510306
O O7 0.908283 0.822537 0.041154
O O8 0.754262 0.347780 0.281835
O O9 0.403143 0.390394 0.875828
O O10 0.038623 0.599260 0.291583
O O11 0.897488 0.605193 0.336460
O O12 0.636386 0.006330 0.333049
O O13 0.590615 0.073311 0.074160
O O14 0.924266 0.023044 0.540518
O O15 0.114912 0.467884 0.463951
O O16 0.708995 0.481137 0.514350
#
# Coordination Sequence:
#
# PCOD9248813 Si02
#       8
#     4   4   4   4   4   4   4   4
#     4  11  23  46  69 100 135 182 225 279 347 398
#     4  10  22  44  67  93 136 177 221 285 338 400
#     4  11  25  43  70 100 136 179 233 277 341 406
#     4  11  23  44  66  94 135 178 221 284 340 405
#     4  10  25  41  67  98 138 181 229 281 337 409
#     4  11  26  40  65 101 128 179 224 280 345 400
#     4  11  24  42  65  98 134 177 228 278 343 412
#     4  11  22  44  67  98 135 183 227 281 342 403
#
# _framework density 22.978821
#
# number of rings (size 3 to 8) (size 9 to 14) (size 15 to 20)
#    0.000    1.250    3.750    2.250    5.250    0.500 
#    0.000    0.000    0.000    0.000    0.000    0.000 
#    0.000    0.000    0.000    0.000    0.000    0.000 
#
# Total GULP energy -178769.130322 kJ/mol
# GULP energy per Si atom -5586.535323 kJ/mol
# Density = 2.292652 g / cm^3
# Si number density = 22.978821 Si / 1000 Ang^3
#
#
#
# Elastic Constant Matrix: (Units=GPa)
#
#
# Indices 1 2 3 4 5 6 
#
# 1 85.9474 10.5762 -9.7883 0.0000 11.0129 0.0000
# 2 10.5762 67.5247 -5.2084 0.0000 5.5767 0.0000
# 3 -9.7883 -5.2084 37.0582 0.0000 -1.1335 0.0000
# 4 0.0000 0.0000 0.0000 17.6924 0.0000 7.2412
# 5 11.0129 5.5767 -1.1335 0.0000 23.8437 0.0000
# 6 0.0000 0.0000 0.0000 7.2412 0.0000 26.3541
#
#
#
# Elastic Compliance Matrix: (Units=1/GPa)
#
#
# Indices 1 2 3 4 5 6 
#
# 1 0.012846 -0.001325 0.003039 0.000000 -0.005479 0.000000
# 2 -0.001325 0.015390 0.001724 0.000000 -0.002905 0.000000
# 3 0.003039 0.001724 0.028015 0.000000 -0.000475 0.000000
# 4 0.000000 0.000000 0.000000 0.063683 0.000000 -0.017498
# 5 -0.005479 -0.002905 -0.000475 0.000000 0.045127 0.000000
# 6 0.000000 0.000000 0.000000 -0.017498 0.000000 0.042753
#
#
# Mechanical properties :
#
#
# Convention : Reuss Voigt Hill
#
# Bulk Modulus (GPa) = 15.84088 20.18770 18.01429
# Shear Modulus (GPa) = 22.52452 26.57475 24.54963
#
# Velocity S-wave (km/s) = 3.13426 3.40441 3.27212
# Velocity P-wave (km/s) = 4.47289 4.92522 4.70449
#
# Compressibility (1/GPa) = 0.06312782
#
# Stress axis : x y z
#
# Youngs Moduli (GPa) = 77.84349 64.97772 35.69494
#
# Poissons Ratio (x) = 0.08611 -0.10849
# Poissons Ratio (y) = 0.10316 -0.06154
# Poissons Ratio (z) = -0.23659 -0.11203
#
# Static dielectric constant tensor:
#      x y z
#    x 1.913780 0.000000 -0.008370 
#    y 0.000000 1.845430 0.000000 
#    z -0.008370 0.000000 1.872830 
# 
# From -- ./inp_files/33070.got.cif
#   From: 2010.05.17/outbox.cif.g08.bks.cpg/sg14_17_cif.got.tgz:33070.got - 2010.06.03 17:49:19.
