data_PCOD9248576
_publ_section_title
;
Structure prediction by ZEFSAII (Michael W. Deem and Ramdas Pophale) SiO2 
 PCOD9248576
Probable space group: P 21/C
;
_chemical_formula_sum "Si O2"
_cell_formula_units_Z 24
_cell_length_a 14.120992
_cell_length_b 5.832549
_cell_length_c 14.607899
_cell_angle_alpha 90.000000
_cell_angle_beta 71.232349
_cell_angle_gamma 90.000000
_cell_volume 1139.157716
_symmetry_space_group_name_H-M "P 21/C"
_symmetry_group_IT_number 14
_symmetry_cell_setting 'monoclinic'
loop_
_space_group_symop_operation_xyz
x,y,z
-x,1/2+y,1/2-z
-x,-y,-z
x,1/2-y,1/2+z
loop_
_atom_site_type_symbol
_atom_site_label
_atom_site_fract_x
_atom_site_fract_y
_atom_site_fract_z
Si Si1 0.602653 0.105280 0.004193
Si Si2 0.764747 0.723678 0.412554
Si Si3 0.950103 0.001019 0.415623
Si Si4 0.295428 0.601795 0.186450
Si Si5 0.902224 0.340030 0.285955
Si Si6 0.448899 0.760557 0.786676
O O1 0.577434 0.258160 0.098935
O O2 0.653136 0.248476 0.908284
O O3 0.500000 0.000000 0.000000
O O4 0.686831 0.913622 0.999744
O O5 0.838053 0.560946 0.331981
O O6 0.838400 0.892020 0.446192
O O7 0.697790 0.847416 0.355687
O O8 0.943918 0.250403 0.370027
O O9 0.000000 0.000000 0.500000
O O10 0.017771 0.873044 0.318375
O O11 0.178116 0.655929 0.224983
O O12 0.350475 0.672912 0.260446
O O13 0.488691 0.505870 0.743512
#
# Coordination Sequence:
#
# PCOD9248576 Si02
#       6
#     4   4   4   4   4   4
#     4  11  23  44  68  97 141 180 233 291 348 432
#     4  10  23  42  67  97 139 181 228 292 354 422
#     4  11  23  42  69  96 133 182 233 292 366 428
#     4  10  24  42  68  99 134 184 232 286 359 417
#     4  10  22  43  64  97 137 175 229 297 349 430
#     4  12  27  44  71 104 139 191 238 292 360 424
#
# _framework density 21.068199
#
# number of rings (size 3 to 8) (size 9 to 14) (size 15 to 20)
#    0.000    1.333    3.333    1.000    4.667    7.333 
#    0.000    0.000    0.000    0.000    0.000    0.000 
#    0.000    0.000    0.000    0.000    0.000    0.000 
#
# Total GULP energy -133827.630651 kJ/mol
# GULP energy per Si atom -5576.151277 kJ/mol
# Density = 2.102025 g / cm^3
# Si number density = 21.068199 Si / 1000 Ang^3
#
#
#
# Elastic Constant Matrix: (Units=GPa)
#
#
# Indices 1 2 3 4 5 6 
#
# 1 88.4743 10.3551 32.5281 0.0000 7.1205 0.0000
# 2 10.3551 59.2494 6.5416 0.0000 -9.6592 0.0000
# 3 32.5281 6.5416 68.2655 0.0000 1.5795 0.0000
# 4 0.0000 0.0000 0.0000 5.9482 0.0000 5.9341
# 5 7.1205 -9.6592 1.5795 0.0000 43.4934 0.0000
# 6 0.0000 0.0000 0.0000 5.9341 0.0000 25.4573
#
#
#
# Elastic Compliance Matrix: (Units=1/GPa)
#
#
# Indices 1 2 3 4 5 6 
#
# 1 0.014143 -0.002175 -0.006471 0.000000 -0.002563 0.000000
# 2 -0.002175 0.018063 -0.000796 0.000000 0.004396 0.000000
# 3 -0.006471 -0.000796 0.017803 0.000000 0.000236 0.000000
# 4 0.000000 0.000000 0.000000 0.219059 0.000000 -0.051063
# 5 -0.002563 0.004396 0.000236 0.000000 0.024379 0.000000
# 6 0.000000 0.000000 0.000000 -0.051063 0.000000 0.051184
#
#
# Mechanical properties :
#
#
# Convention : Reuss Voigt Hill
#
# Bulk Modulus (GPa) = 32.13018 34.98208 33.55613
# Shear Modulus (GPa) = 13.37289 26.08407 19.72848
#
# Velocity S-wave (km/s) = 2.52214 3.52245 3.06340
# Velocity P-wave (km/s) = 4.87496 5.76054 5.33615
#
# Compressibility (1/GPa) = 0.03112338
#
# Stress axis : x y z
#
# Youngs Moduli (GPa) = 70.70739 55.36297 56.17024
#
# Poissons Ratio (x) = 0.12043 0.36349
# Poissons Ratio (y) = 0.15380 0.04472
# Poissons Ratio (z) = 0.45756 0.04408
#
# Static dielectric constant tensor:
#      x y z
#    x 1.781060 0.000000 -0.030240 
#    y 0.000000 1.872060 0.000000 
#    z -0.030240 0.000000 1.707290 
# 
# From -- ./inp_files/45809.got.cif
#   From: 2010.05.17/outbox.cif.g08.bks.cpg/sg14_23_cif.got.tgz:45809.got - 2010.06.03 17:49:19.
