data_PCOD9248440
_publ_section_title
;
Structure prediction by ZEFSAII (Michael W. Deem and Ramdas Pophale) SiO2 
 PCOD9248440
Probable space group: P 21/C
;
_chemical_formula_sum "Si O2"
_cell_formula_units_Z 28
_cell_length_a 21.684573
_cell_length_b 7.968046
_cell_length_c 8.861871
_cell_angle_alpha 90.000000
_cell_angle_beta 50.409367
_cell_angle_gamma 90.000000
_cell_volume 1179.959131
_symmetry_space_group_name_H-M "P 21/C"
_symmetry_group_IT_number 14
_symmetry_cell_setting 'monoclinic'
loop_
_space_group_symop_operation_xyz
x,y,z
-x,1/2+y,1/2-z
-x,-y,-z
x,1/2-y,1/2+z
loop_
_atom_site_type_symbol
_atom_site_label
_atom_site_fract_x
_atom_site_fract_y
_atom_site_fract_z
Si Si1 0.226107 0.703569 0.560411
Si Si2 0.780089 0.494817 0.124925
Si Si3 0.079122 0.494909 0.672424
Si Si4 0.388813 0.330564 0.660762
Si Si5 0.392150 0.568500 0.186335
Si Si6 0.481991 0.977798 0.269812
Si Si7 0.928651 0.705505 0.012539
O O1 0.207255 0.895763 0.550839
O O2 0.221754 0.645477 0.739955
O O3 0.161893 0.588798 0.573235
O O4 0.314180 0.664571 0.360046
O O5 0.695431 0.587929 0.252141
O O6 0.850745 0.620307 0.058549
O O7 0.072960 0.401114 0.523540
O O8 0.007713 0.623321 0.816552
O O9 0.071831 0.350614 0.812798
O O10 0.376630 0.131282 0.693812
O O11 0.456037 0.385060 0.435864
O O12 0.422081 0.410670 0.763860
O O13 0.460777 0.578329 0.204563
O O14 0.428017 0.629401 0.971108
#
# Coordination Sequence:
#
# PCOD9248440 Si02
#       7
#     4   4   4   4   4   4   4
#     4  11  25  42  62  94 129 166 210 261 314 374
#     4  11  25  42  62  94 129 166 210 261 314 374
#     4  10  22  42  68  98 132 169 211 257 310 372
#     4  11  23  43  65  90 123 164 210 264 312 381
#     4  11  23  43  65  90 123 164 210 264 312 381
#     4  10  24  40  62  94 120 162 208 262 322 372
#     4  10  22  42  68  98 132 169 211 257 310 372
#
# _framework density 23.729634999999998
#
# number of rings (size 3 to 8) (size 9 to 14) (size 15 to 20)
#    0.000    1.429    1.429    2.571    2.000    8.571 
#    0.000    0.000    0.000    0.000    0.000    0.000 
#    0.000    0.000    0.000    0.000    0.000    0.000 
#
# Total GULP energy -156901.935094 kJ/mol
# GULP energy per Si atom -5603.640539 kJ/mol
# Density = 2.367562 g / cm^3
# Si number density = 23.729635 Si / 1000 Ang^3
#
#
#
# Elastic Constant Matrix: (Units=GPa)
#
#
# Indices 1 2 3 4 5 6 
#
# 1 107.0645 13.8204 28.0149 0.0000 -4.6531 0.0000
# 2 13.8204 33.2625 -6.3917 0.0000 17.3524 0.0000
# 3 28.0149 -6.3917 72.3817 0.0000 1.1333 0.0000
# 4 0.0000 0.0000 0.0000 20.4906 0.0000 21.1833
# 5 -4.6531 17.3524 1.1333 0.0000 30.1380 0.0000
# 6 0.0000 0.0000 0.0000 21.1833 0.0000 28.1336
#
#
#
# Elastic Compliance Matrix: (Units=1/GPa)
#
#
# Indices 1 2 3 4 5 6 
#
# 1 0.012664 -0.010791 -0.005986 0.000000 0.008393 0.000000
# 2 -0.010791 0.053470 0.009412 0.000000 -0.032806 0.000000
# 3 -0.005986 0.009412 0.017073 0.000000 -0.006985 0.000000
# 4 0.000000 0.000000 0.000000 0.220236 0.000000 -0.165828
# 5 0.008393 -0.032806 -0.006985 0.000000 0.053628 0.000000
# 6 0.000000 0.000000 0.000000 -0.165828 0.000000 0.160405
#
#
# Mechanical properties :
#
#
# Convention : Reuss Voigt Hill
#
# Bulk Modulus (GPa) = 14.60323 31.51067 23.05695
# Shear Modulus (GPa) = 9.00848 27.57012 18.28930
#
# Velocity S-wave (km/s) = 1.95052 3.41228 2.77923
# Velocity P-wave (km/s) = 3.35262 5.36961 4.47621
#
# Compressibility (1/GPa) = 0.06847802
#
# Stress axis : x y z
#
# Youngs Moduli (GPa) = 78.96287 18.70191 58.57220
#
# Poissons Ratio (x) = 0.20181 0.35061
# Poissons Ratio (y) = 0.85207 -0.55128
# Poissons Ratio (z) = 0.47266 -0.17602
#
# Static dielectric constant tensor:
#      x y z
#    x 1.852430 0.000000 0.037840 
#    y 0.000000 1.885320 0.000000 
#    z 0.037840 0.000000 1.879770 
# 
# From -- ./inp_files/18697.got.cif
#   From: 2010.05.17/outbox.cif.g08.bks.cpg/sg14_10_cif.got.tgz:18697.got - 2010.06.03 17:49:19.
