data_PCOD9248374
_publ_section_title
;
Structure prediction by ZEFSAII (Michael W. Deem and Ramdas Pophale) SiO2 
 PCOD9248374
Probable space group: P 21/C
;
_chemical_formula_sum "Si O2"
_cell_formula_units_Z 28
_cell_length_a 13.919149
_cell_length_b 5.698448
_cell_length_c 15.996598
_cell_angle_alpha 90.000000
_cell_angle_beta 65.609313
_cell_angle_gamma 90.000000
_cell_volume 1155.570546
_symmetry_space_group_name_H-M "P 21/C"
_symmetry_group_IT_number 14
_symmetry_cell_setting 'monoclinic'
loop_
_space_group_symop_operation_xyz
x,y,z
-x,1/2+y,1/2-z
-x,-y,-z
x,1/2-y,1/2+z
loop_
_atom_site_type_symbol
_atom_site_label
_atom_site_fract_x
_atom_site_fract_y
_atom_site_fract_z
Si Si1 0.606845 0.126961 0.991683
Si Si2 0.909834 0.820878 0.557545
Si Si3 0.670196 0.490353 0.828099
Si Si4 0.494988 0.765470 0.802554
Si Si5 0.788948 0.154636 0.686778
Si Si6 0.799349 0.862659 0.849180
Si Si7 0.996440 0.553600 0.379978
O O1 0.593347 0.204984 0.093049
O O2 0.618512 0.335825 0.919412
O O3 0.500000 0.000000 0.000000
O O4 0.710016 0.960937 0.944762
O O5 0.917070 0.617761 0.486008
O O6 0.953618 0.701497 0.625806
O O7 0.802456 0.964296 0.608484
O O8 0.000000 0.000000 0.500000
O O9 0.596580 0.699046 0.823102
O O10 0.699941 0.348708 0.732689
O O11 0.774078 0.595345 0.834753
O O12 0.485117 0.519951 0.750909
O O13 0.901737 0.282720 0.651425
O O14 0.778482 0.009346 0.774271
O O15 0.918757 0.906445 0.832405
#
# Coordination Sequence:
#
# PCOD9248374 Si02
#       7
#     4   4   4   4   4   4   4
#     4  11  24  50  75 100 147 195 246 311 377 456
#     4   9  20  42  63  91 144 182 226 288 363 414
#     4  11  25  47  73 106 143 197 247 303 382 447
#     4  12  28  50  79 115 149 193 251 322 390 459
#     4  10  23  39  67 100 142 185 236 301 349 441
#     4  11  25  41  71 103 134 190 255 286 362 436
#     4  10  22  42  66  99 141 193 233 293 356 433
#
# _framework density 24.230454999999999
#
# number of rings (size 3 to 8) (size 9 to 14) (size 15 to 20)
#    0.000    1.429    1.429    2.143    8.000    3.429 
#   12.857    0.000    0.000    0.000    0.000    0.000 
#    0.000    0.000    0.000    0.000    0.000    0.000 
#
# Total GULP energy -156248.954179 kJ/mol
# GULP energy per Si atom -5580.319792 kJ/mol
# Density = 2.417531 g / cm^3
# Si number density = 24.230455 Si / 1000 Ang^3
#
#
#
# Elastic Constant Matrix: (Units=GPa)
#
#
# Indices 1 2 3 4 5 6 
#
# 1 34.2452 26.6015 4.7124 0.0000 -0.5508 0.0000
# 2 26.6015 125.3255 59.0733 0.0000 -6.6528 0.0000
# 3 4.7124 59.0733 148.7501 0.0000 -12.7159 0.0000
# 4 0.0000 0.0000 0.0000 54.6451 0.0000 -9.1698
# 5 -0.5508 -6.6528 -12.7159 0.0000 25.7941 0.0000
# 6 0.0000 0.0000 0.0000 -9.1698 0.0000 32.2093
#
#
#
# Elastic Compliance Matrix: (Units=1/GPa)
#
#
# Indices 1 2 3 4 5 6 
#
# 1 0.035600 -0.008648 0.002277 0.000000 -0.000348 0.000000
# 2 -0.008648 0.011928 -0.004401 0.000000 0.000722 0.000000
# 3 0.002277 -0.004401 0.008671 0.000000 0.003188 0.000000
# 4 0.000000 0.000000 0.000000 0.019218 0.000000 0.005471
# 5 -0.000348 0.000722 0.003188 0.000000 0.040519 0.000000
# 6 0.000000 0.000000 0.000000 0.005471 0.000000 0.032605
#
#
# Mechanical properties :
#
#
# Convention : Reuss Voigt Hill
#
# Bulk Modulus (GPa) = 28.85680 54.34391 41.60035
# Shear Modulus (GPa) = 27.52751 37.05861 32.29306
#
# Velocity S-wave (km/s) = 3.37422 3.91503 3.65464
# Velocity P-wave (km/s) = 5.20727 6.55082 5.91730
#
# Compressibility (1/GPa) = 0.03465388
#
# Stress axis : x y z
#
# Youngs Moduli (GPa) = 28.08982 83.83824 115.32794
#
# Poissons Ratio (x) = 0.72505 -0.26259
# Poissons Ratio (y) = 0.24293 0.50758
# Poissons Ratio (z) = -0.06396 0.36899
#
# Static dielectric constant tensor:
#      x y z
#    x 1.969560 0.000000 0.023060 
#    y 0.000000 2.109980 0.000000 
#    z 0.023060 0.000000 2.010580 
# 
# From -- ./inp_files/58410.got.cif
#   From: 2010.05.17/outbox.cif.g08.bks.cpg/sg14_30_cif.got.tgz:58410.got - 2010.06.03 17:49:19.
