data_PCOD9248652
_publ_section_title
;
Structure prediction by ZEFSAII (Michael W. Deem and Ramdas Pophale) SiO2 
 PCOD9248652
Probable space group: P 21/C
;
_chemical_formula_sum "Si O2"
_cell_formula_units_Z 24
_cell_length_a 12.145576
_cell_length_b 7.467371
_cell_length_c 10.396814
_cell_angle_alpha 90.000000
_cell_angle_beta 76.884665
_cell_angle_gamma 90.000000
_cell_volume 918.348021
_symmetry_space_group_name_H-M "P 21/C"
_symmetry_group_IT_number 14
_symmetry_cell_setting 'monoclinic'
loop_
_space_group_symop_operation_xyz
x,y,z
-x,1/2+y,1/2-z
-x,-y,-z
x,1/2-y,1/2+z
loop_
_atom_site_type_symbol
_atom_site_label
_atom_site_fract_x
_atom_site_fract_y
_atom_site_fract_z
Si Si1 0.712084 0.259024 0.619368
Si Si2 0.574635 0.821203 0.005318
Si Si3 0.110057 0.320738 0.755693
Si Si4 0.732385 0.412265 0.358590
Si Si5 0.646654 0.640069 0.747768
Si Si6 0.018310 0.790179 0.964661
O O1 0.698475 0.255552 0.467584
O O2 0.677224 0.110089 0.732890
O O3 0.659329 0.436852 0.697049
O O4 0.847903 0.271723 0.591163
O O5 0.572784 0.673675 0.895256
O O6 0.696049 0.912895 0.947203
O O7 0.580113 0.761399 0.149471
O O8 0.500000 0.000000 0.000000
O O9 0.142042 0.525276 0.708252
O O10 0.225213 0.216131 0.768841
O O11 0.053847 0.242399 0.642596
O O12 0.027602 0.315564 0.899394
O O13 0.000000 0.000000 0.000000
#
# Coordination Sequence:
#
# PCOD9248652 Si02
#       6
#     4   4   4   4   4   4
#     4  11  22  39  58  92 129 171 218 268 320 378
#     4  10  23  44  69  97 123 166 219 267 339 413
#     4  11  22  41  61  90 132 179 222 273 325 374
#     4  10  23  39  58  90 128 167 213 272 330 385
#     4  10  22  43  68  91 136 173 211 278 338 392
#     4  12  22  38  61  91 128 174 234 263 307 389
#
# _framework density 26.133883000000001
#
# number of rings (size 3 to 8) (size 9 to 14) (size 15 to 20)
#    0.000    1.333    3.333    3.000    0.000    7.333 
#    0.000    1.667    0.000    0.000    0.000    0.000 
#    0.000    0.000    0.000    0.000    0.000    0.000 
#
# Total GULP energy -133885.378726 kJ/mol
# GULP energy per Si atom -5578.557447 kJ/mol
# Density = 2.607440 g / cm^3
# Si number density = 26.133883 Si / 1000 Ang^3
#
#
#
# Elastic Constant Matrix: (Units=GPa)
#
#
# Indices 1 2 3 4 5 6 
#
# 1 91.7610 11.6757 48.4381 0.0000 -0.6793 0.0000
# 2 11.6757 36.8211 43.2438 0.0000 -7.5097 0.0000
# 3 48.4381 43.2438 200.3424 0.0000 20.2836 0.0000
# 4 0.0000 0.0000 0.0000 49.0182 0.0000 -8.0400
# 5 -0.6793 -7.5097 20.2836 0.0000 41.2040 0.0000
# 6 0.0000 0.0000 0.0000 -8.0400 0.0000 38.8470
#
#
#
# Elastic Compliance Matrix: (Units=1/GPa)
#
#
# Indices 1 2 3 4 5 6 
#
# 1 0.012619 0.000251 -0.003295 0.000000 0.001876 0.000000
# 2 0.000251 0.041886 -0.010393 0.000000 0.012754 0.000000
# 3 -0.003295 -0.010393 0.008660 0.000000 -0.006212 0.000000
# 4 0.000000 0.000000 0.000000 0.021117 0.000000 0.004371
# 5 0.001876 0.012754 -0.006212 0.000000 0.029683 0.000000
# 6 0.000000 0.000000 0.000000 0.004371 0.000000 0.026647
#
#
# Mechanical properties :
#
#
# Convention : Reuss Voigt Hill
#
# Bulk Modulus (GPa) = 27.55488 59.51551 43.53520
# Shear Modulus (GPa) = 27.84216 40.85162 34.34689
#
# Velocity S-wave (km/s) = 3.26754 3.95798 3.62921
# Velocity P-wave (km/s) = 4.98020 6.61137 5.85289
#
# Compressibility (1/GPa) = 0.03629121
#
# Stress axis : x y z
#
# Youngs Moduli (GPa) = 79.24409 23.87439 115.46832
#
# Poissons Ratio (x) = -0.00599 0.38048
# Poissons Ratio (y) = -0.01989 1.20007
# Poissons Ratio (z) = 0.26112 0.24813
#
# Static dielectric constant tensor:
#      x y z
#    x 2.154160 0.000000 0.015760 
#    y 0.000000 2.204690 0.000000 
#    z 0.015760 0.000000 2.172890 
# 
# From -- ./inp_files/15049.got.cif
#   From: 2010.05.17/outbox.cif.g08.bks.cpg/sg14_8_cif.got.tgz:15049.got - 2010.06.03 17:49:19.
