data_PCOD9248913
_publ_section_title
;
Structure prediction by ZEFSAII (Michael W. Deem and Ramdas Pophale) SiO2 
 PCOD9248913
Probable space group: P 21/C
;
_chemical_formula_sum "Si O2"
_cell_formula_units_Z 28
_cell_length_a 9.006025
_cell_length_b 5.775856
_cell_length_c 27.260338
_cell_angle_alpha 90.000000
_cell_angle_beta 115.551302
_cell_angle_gamma 90.000000
_cell_volume 1279.332105
_symmetry_space_group_name_H-M "P 21/C"
_symmetry_group_IT_number 14
_symmetry_cell_setting 'monoclinic'
loop_
_space_group_symop_operation_xyz
x,y,z
-x,1/2+y,1/2-z
-x,-y,-z
x,1/2-y,1/2+z
loop_
_atom_site_type_symbol
_atom_site_label
_atom_site_fract_x
_atom_site_fract_y
_atom_site_fract_z
Si Si1 0.117439 0.779978 0.628369
Si Si2 0.154927 0.388069 0.701575
Si Si3 0.409852 0.747592 0.495577
Si Si4 0.667880 0.626851 0.179138
Si Si5 0.147261 0.593886 0.885610
Si Si6 0.389123 0.320694 0.160142
Si Si7 0.636856 0.419366 0.403801
O O1 0.115647 0.652289 0.680752
O O2 0.185564 0.607154 0.597252
O O3 0.258085 0.973542 0.644185
O O4 0.942807 0.895842 0.595462
O O5 0.191945 0.311613 0.762041
O O6 0.322284 0.339045 0.694208
O O7 0.000379 0.241405 0.659452
O O8 0.500000 0.500000 0.500000
O O9 0.259687 0.752965 0.436262
O O10 0.357602 0.715210 0.544599
O O11 0.500000 0.000000 0.500000
O O12 0.745539 0.531064 0.140558
O O13 0.569585 0.419710 0.192077
O O14 0.526091 0.814649 0.146924
O O15 0.388900 0.193776 0.107199
#
# Coordination Sequence:
#
# PCOD9248913 Si02
#       7
#     4   4   4   4   4   4   4
#     4   9  22  43  65  98 139 175 232 283 352 417
#     4  10  24  40  63  97 140 185 223 293 350 426
#     4  12  27  48  76 107 142 185 242 304 358 425
#     4  11  23  38  67  98 137 184 233 283 353 427
#     4  11  25  44  64 104 141 180 233 289 359 423
#     4   9  21  40  64  98 131 176 236 282 343 418
#     4  10  22  44  72 100 136 184 239 292 350 426
#
# _framework density 21.886420999999999
#
# number of rings (size 3 to 8) (size 9 to 14) (size 15 to 20)
#    0.000    1.714    1.429    0.857   12.000    2.857 
#    0.000    6.429    0.000    0.000    0.000    0.000 
#    0.000    0.000    0.000    0.000    0.000    0.000 
#
# Total GULP energy -156014.485172 kJ/mol
# GULP energy per Si atom -5571.945899 kJ/mol
# Density = 2.183661 g / cm^3
# Si number density = 21.886421 Si / 1000 Ang^3
#
#
#
# Elastic Constant Matrix: (Units=GPa)
#
#
# Indices 1 2 3 4 5 6 
#
# 1 78.3046 20.3986 14.2953 0.0000 12.7371 0.0000
# 2 20.3986 61.3652 -9.3136 0.0000 7.6538 0.0000
# 3 14.2953 -9.3136 70.4094 0.0000 12.4064 0.0000
# 4 0.0000 0.0000 0.0000 28.6404 0.0000 4.9242
# 5 12.7371 7.6538 12.4064 0.0000 29.5553 0.0000
# 6 0.0000 0.0000 0.0000 4.9242 0.0000 29.5949
#
#
#
# Elastic Compliance Matrix: (Units=1/GPa)
#
#
# Indices 1 2 3 4 5 6 
#
# 1 0.015297 -0.005053 -0.003070 0.000000 -0.003995 0.000000
# 2 -0.005053 0.019220 0.004386 0.000000 -0.004641 0.000000
# 3 -0.003070 0.004386 0.016601 0.000000 -0.006781 0.000000
# 4 0.000000 0.000000 0.000000 0.035944 0.000000 -0.005981
# 5 -0.003995 -0.004641 -0.006781 0.000000 0.039605 0.000000
# 6 0.000000 0.000000 0.000000 -0.005981 0.000000 0.034785
#
#
# Mechanical properties :
#
#
# Convention : Reuss Voigt Hill
#
# Bulk Modulus (GPa) = 22.91243 28.98222 25.94732
# Shear Modulus (GPa) = 27.25183 29.87138 28.56161
#
# Velocity S-wave (km/s) = 3.53249 3.69838 3.61639
# Velocity P-wave (km/s) = 5.20860 5.61321 5.41469
#
# Compressibility (1/GPa) = 0.04364443
#
# Stress axis : x y z
#
# Youngs Moduli (GPa) = 65.37129 52.02921 60.23718
#
# Poissons Ratio (x) = 0.26289 0.18494
# Poissons Ratio (y) = 0.33030 -0.26420
# Poissons Ratio (z) = 0.20070 -0.22820
#
# Static dielectric constant tensor:
#      x y z
#    x 1.829760 0.000000 -0.046070 
#    y 0.000000 1.978680 0.000000 
#    z -0.046070 0.000000 1.841590 
# 
# From -- ./inp_files/79295.got.cif
#   From: 2010.05.17/outbox.cif.g08.bks.cpg/sg14_40_cif.got.tgz:79295.got - 2010.06.03 17:49:19.
