data_PCOD9248544
_publ_section_title
;
Structure prediction by ZEFSAII (Michael W. Deem and Ramdas Pophale) SiO2 
 PCOD9248544
Probable space group: P 21/C
;
_chemical_formula_sum "Si O2"
_cell_formula_units_Z 20
_cell_length_a 7.400949
_cell_length_b 9.247239
_cell_length_c 11.039655
_cell_angle_alpha 90.000000
_cell_angle_beta 107.142405
_cell_angle_gamma 90.000000
_cell_volume 721.971135
_symmetry_space_group_name_H-M "P 21/C"
_symmetry_group_IT_number 14
_symmetry_cell_setting 'monoclinic'
loop_
_space_group_symop_operation_xyz
x,y,z
-x,1/2+y,1/2-z
-x,-y,-z
x,1/2-y,1/2+z
loop_
_atom_site_type_symbol
_atom_site_label
_atom_site_fract_x
_atom_site_fract_y
_atom_site_fract_z
Si Si1 0.177440 0.587972 0.094333
Si Si2 0.560175 0.654950 0.848060
Si Si3 0.936559 0.573100 0.697268
Si Si4 0.465303 0.342671 0.437295
Si Si5 0.977422 0.711051 0.399384
O O1 0.376335 0.509000 0.105131
O O2 0.159307 0.544291 0.230133
O O3 0.116745 0.753922 0.537069
O O4 0.000000 0.500000 0.000000
O O5 0.476764 0.665136 0.694537
O O6 0.762507 0.735887 0.872457
O O7 0.466631 0.732742 0.944590
O O8 0.764103 0.666403 0.611785
O O9 0.033387 0.458163 0.630030
O O10 0.049017 0.684089 0.803398
O O11 0.500000 0.500000 0.500000
#
# Coordination Sequence:
#
# PCOD9248544 Si02
#       5
#     4   4   4   4   4
#     4   7  15  30  51  76 114 144 179 224 300 351
#     4   9  20  37  64  78 118 157 191 251 303 345
#     4   9  19  33  55  83 119 148 186 252 287 358
#     4  10  22  43  58  83 119 158 206 242 291 355
#     4   9  18  31  57  86 117 147 194 235 314 349
#
# _framework density 27.701938999999999
#
# number of rings (size 3 to 8) (size 9 to 14) (size 15 to 20)
#    0.000    4.000    0.000    0.000   16.800    0.800 
#    7.200    1.000    0.000    0.000    0.000    0.000 
#    0.000    0.000    0.000    0.000    0.000    0.000 
#
# Total GULP energy -111554.768463 kJ/mol
# GULP energy per Si atom -5577.738423 kJ/mol
# Density = 2.763889 g / cm^3
# Si number density = 27.701939 Si / 1000 Ang^3
#
#
#
# Elastic Constant Matrix: (Units=GPa)
#
#
# Indices 1 2 3 4 5 6 
#
# 1 58.9604 19.6880 44.6348 0.0000 16.8259 0.0000
# 2 19.6880 140.4671 67.4428 0.0000 -27.0059 0.0000
# 3 44.6348 67.4428 210.0929 0.0000 -3.4154 0.0000
# 4 0.0000 0.0000 0.0000 64.2528 0.0000 -1.5000
# 5 16.8259 -27.0059 -3.4154 0.0000 48.7927 0.0000
# 6 0.0000 0.0000 0.0000 -1.5000 0.0000 36.5456
#
#
#
# Elastic Compliance Matrix: (Units=1/GPa)
#
#
# Indices 1 2 3 4 5 6 
#
# 1 0.024329 -0.003402 -0.004248 0.000000 -0.010570 0.000000
# 2 -0.003402 0.009996 -0.002380 0.000000 0.006539 0.000000
# 3 -0.004248 -0.002380 0.006436 0.000000 0.000598 0.000000
# 4 0.000000 0.000000 0.000000 0.015578 0.000000 0.000639
# 5 -0.010570 0.006539 0.000598 0.000000 0.027801 0.000000
# 6 0.000000 0.000000 0.000000 0.000639 0.000000 0.027389
#
#
# Mechanical properties :
#
#
# Convention : Reuss Voigt Hill
#
# Bulk Modulus (GPa) = 48.30886 74.78352 61.54619
# Shear Modulus (GPa) = 36.10334 48.43521 42.26927
#
# Velocity S-wave (km/s) = 3.61401 4.18597 3.91046
# Velocity P-wave (km/s) = 5.90690 7.10053 6.53104
#
# Compressibility (1/GPa) = 0.02070014
#
# Stress axis : x y z
#
# Youngs Moduli (GPa) = 41.10244 100.04257 155.37581
#
# Poissons Ratio (x) = 0.34039 0.66011
# Poissons Ratio (y) = 0.13985 0.36973
# Poissons Ratio (z) = 0.17462 0.23806
#
# Static dielectric constant tensor:
#      x y z
#    x 2.314200 0.000000 -0.146200 
#    y 0.000000 2.290130 0.000000 
#    z -0.146200 0.000000 2.339700 
# 
# From -- ./inp_files/23890.got.cif
#   From: 2010.05.17/outbox.cif.g08.bks.cpg/sg14_12_cif.got.tgz:23890.got - 2010.06.03 17:49:19.
