data_PCOD9248392
_publ_section_title
;
Structure prediction by ZEFSAII (Michael W. Deem and Ramdas Pophale) SiO2 
 PCOD9248392
Probable space group: P 21/C
;
_chemical_formula_sum "Si O2"
_cell_formula_units_Z 32
_cell_length_a 5.585914
_cell_length_b 18.443669
_cell_length_c 13.052343
_cell_angle_alpha 90.000000
_cell_angle_beta 85.284472
_cell_angle_gamma 90.000000
_cell_volume 1340.162695
_symmetry_space_group_name_H-M "P 21/C"
_symmetry_group_IT_number 14
_symmetry_cell_setting 'monoclinic'
loop_
_space_group_symop_operation_xyz
x,y,z
-x,1/2+y,1/2-z
-x,-y,-z
x,1/2-y,1/2+z
loop_
_atom_site_type_symbol
_atom_site_label
_atom_site_fract_x
_atom_site_fract_y
_atom_site_fract_z
Si Si1 0.836497 0.218025 0.672445
Si Si2 0.525885 0.101755 0.590527
Si Si3 0.314054 0.536857 0.110926
Si Si4 0.984659 0.175620 0.324243
Si Si5 0.236597 0.523823 0.555476
Si Si6 0.357574 0.082326 0.220957
Si Si7 0.381742 0.839562 0.960153
Si Si8 0.246199 0.275452 0.016445
O O1 0.676077 0.146144 0.668778
O O2 0.819090 0.264442 0.776139
O O3 0.760408 0.273614 0.584623
O O4 0.109854 0.205791 0.627676
O O5 0.680555 0.048736 0.511977
O O6 0.448684 0.162565 0.511050
O O7 0.308045 0.049409 0.631769
O O8 0.124055 0.596154 0.153645
O O9 0.543853 0.558367 0.173113
O O10 0.199241 0.154258 0.240075
O O11 0.084888 0.208460 0.424667
O O12 0.500000 0.500000 0.500000
O O13 0.228505 0.482858 0.664598
O O14 0.252790 0.611080 0.548988
O O15 0.000000 0.500000 0.500000
O O16 0.571541 0.107925 0.138650
O O17 0.629958 0.803142 0.989187
#
# Coordination Sequence:
#
# PCOD9248392 Si02
#       8
#     4   4   4   4   4   4   4   4
#     4  11  22  42  68  97 133 181 225 295 359 440
#     4  10  24  44  64  92 138 174 231 289 367 427
#     4  11  23  43  67  96 130 183 231 296 356 441
#     4  12  23  40  72  98 134 180 245 288 371 436
#     4  10  23  41  67  98 140 185 233 291 362 431
#     4  11  22  41  67  96 128 179 237 286 354 438
#     4  10  22  42  67  93 140 176 231 289 366 432
#     4  11  23  41  66 101 132 181 227 298 356 433
#
# _framework density 23.877697999999999
#
# number of rings (size 3 to 8) (size 9 to 14) (size 15 to 20)
#    0.000    1.250    5.000    0.750    3.500    1.500 
#    4.500    0.000    0.000    0.000    0.000    0.000 
#    0.000    0.000    0.000    0.000    0.000    0.000 
#
# Total GULP energy -178448.126948 kJ/mol
# GULP energy per Si atom -5576.503967 kJ/mol
# Density = 2.382335 g / cm^3
# Si number density = 23.877698 Si / 1000 Ang^3
#
#
#
# Elastic Constant Matrix: (Units=GPa)
#
#
# Indices 1 2 3 4 5 6 
#
# 1 55.1942 24.9077 20.3525 0.0000 18.6662 0.0000
# 2 24.9077 137.8185 41.9292 0.0000 17.2374 0.0000
# 3 20.3525 41.9292 73.7448 0.0000 16.1614 0.0000
# 4 0.0000 0.0000 0.0000 46.8274 0.0000 -3.3115
# 5 18.6662 17.2374 16.1614 0.0000 29.6581 0.0000
# 6 0.0000 0.0000 0.0000 -3.3115 0.0000 36.6390
#
#
#
# Elastic Compliance Matrix: (Units=1/GPa)
#
#
# Indices 1 2 3 4 5 6 
#
# 1 0.024313 -0.001953 -0.002833 0.000000 -0.012623 0.000000
# 2 -0.001953 0.009126 -0.004266 0.000000 -0.001750 0.000000
# 3 -0.002833 -0.004266 0.017981 0.000000 -0.005536 0.000000
# 4 0.000000 0.000000 0.000000 0.021492 0.000000 0.001943
# 5 -0.012623 -0.001750 -0.005536 0.000000 0.045696 0.000000
# 6 0.000000 0.000000 0.000000 0.001943 0.000000 0.027469
#
#
# Mechanical properties :
#
#
# Convention : Reuss Voigt Hill
#
# Bulk Modulus (GPa) = 30.01674 49.01514 39.51594
# Shear Modulus (GPa) = 28.52474 34.59611 31.56042
#
# Velocity S-wave (km/s) = 3.46007 3.81056 3.63954
# Velocity P-wave (km/s) = 5.34426 6.31922 5.85208
#
# Compressibility (1/GPa) = 0.03331474
#
# Stress axis : x y z
#
# Youngs Moduli (GPa) = 41.13017 109.58101 55.61466
#
# Poissons Ratio (x) = 0.21405 0.15756
# Poissons Ratio (y) = 0.08034 0.23725
# Poissons Ratio (z) = 0.11653 0.46747
#
# Static dielectric constant tensor:
#      x y z
#    x 2.058310 0.000000 -0.055810 
#    y 0.000000 1.980440 0.000000 
#    z -0.055810 0.000000 1.909070 
# 
# From -- ./inp_files/37867.got.cif
#   From: 2010.05.17/outbox.cif.g08.bks.cpg/sg14_19_cif.got.tgz:37867.got - 2010.06.03 17:49:19.
