data_PCOD9248258
_publ_section_title
;
Structure prediction by ZEFSAII (Michael W. Deem and Ramdas Pophale) SiO2 
 PCOD9248258
Probable space group: P 21/C
;
_chemical_formula_sum "Si O2"
_cell_formula_units_Z 28
_cell_length_a 21.797856
_cell_length_b 9.191643
_cell_length_c 9.384895
_cell_angle_alpha 90.000000
_cell_angle_beta 136.042424
_cell_angle_gamma 90.000000
_cell_volume 1305.191924
_symmetry_space_group_name_H-M "P 21/C"
_symmetry_group_IT_number 14
_symmetry_cell_setting 'monoclinic'
loop_
_space_group_symop_operation_xyz
x,y,z
-x,1/2+y,1/2-z
-x,-y,-z
x,1/2-y,1/2+z
loop_
_atom_site_type_symbol
_atom_site_label
_atom_site_fract_x
_atom_site_fract_y
_atom_site_fract_z
Si Si1 0.912788 0.663291 0.239995
Si Si2 0.286062 0.090213 0.558758
Si Si3 0.245667 0.924700 0.198529
Si Si4 0.058161 0.055266 0.890018
Si Si5 0.376139 0.119779 0.248357
Si Si6 0.626180 0.171144 0.158270
Si Si7 0.526084 0.356795 0.217752
O O1 0.928863 0.637711 0.435871
O O2 0.939810 0.821767 0.227793
O O3 0.970362 0.540579 0.256466
O O4 0.809115 0.637041 0.040244
O O5 0.340024 0.235452 0.618322
O O6 0.269819 0.993869 0.391497
O O7 0.340213 0.989896 0.757131
O O8 0.291489 0.767675 0.260404
O O9 0.293342 0.022408 0.158757
O O10 0.140782 0.944554 0.008913
O O11 0.431864 0.152699 0.484942
O O12 0.438554 0.019538 0.256009
O O13 0.589431 0.246368 0.238428
O O14 0.544636 0.172907 0.912519
#
# Coordination Sequence:
#
# PCOD9248258 Si02
#       7
#     4   4   4   4   4   4   4
#     4  10  23  41  64  95 124 162 202 254 308 372
#     4  11  23  39  66  91 121 167 208 252 313 367
#     4  10  22  42  61  89 128 160 207 262 300 372
#     4  10  22  43  64  93 128 158 204 253 311 370
#     4  10  23  40  63  90 123 163 207 262 300 377
#     4  11  23  42  59  92 123 170 202 259 306 371
#     4  10  24  41  61  90 127 160 211 252 318 356
#
# _framework density 21.452784000000001
#
# number of rings (size 3 to 8) (size 9 to 14) (size 15 to 20)
#    0.000    1.714    2.857    0.000    6.000    3.429 
#    0.000    0.000    0.000    0.000    0.000    0.000 
#    0.000    0.000    0.000    0.000    0.000    0.000 
#
# Total GULP energy -156578.251006 kJ/mol
# GULP energy per Si atom -5592.080393 kJ/mol
# Density = 2.140396 g / cm^3
# Si number density = 21.452784 Si / 1000 Ang^3
#
#
#
# Elastic Constant Matrix: (Units=GPa)
#
#
# Indices 1 2 3 4 5 6 
#
# 1 60.2598 4.0506 1.3046 0.0000 17.4621 0.0000
# 2 4.0506 56.1743 0.4769 0.0000 9.2696 0.0000
# 3 1.3046 0.4769 40.0850 0.0000 9.2087 0.0000
# 4 0.0000 0.0000 0.0000 25.9852 0.0000 8.4016
# 5 17.4621 9.2696 9.2087 0.0000 29.2980 0.0000
# 6 0.0000 0.0000 0.0000 8.4016 0.0000 18.0323
#
#
#
# Elastic Compliance Matrix: (Units=1/GPa)
#
#
# Indices 1 2 3 4 5 6 
#
# 1 0.020274 0.000668 0.002325 0.000000 -0.013026 0.000000
# 2 0.000668 0.018861 0.001311 0.000000 -0.006777 0.000000
# 3 0.002325 0.001311 0.027236 0.000000 -0.010361 0.000000
# 4 0.000000 0.000000 0.000000 0.045309 0.000000 -0.021110
# 5 -0.013026 -0.006777 -0.010361 0.000000 0.047296 0.000000
# 6 0.000000 0.000000 0.000000 -0.021110 0.000000 0.065292
#
#
# Mechanical properties :
#
#
# Convention : Reuss Voigt Hill
#
# Bulk Modulus (GPa) = 13.33740 18.68704 16.01222
# Shear Modulus (GPa) = 20.77672 24.70890 22.74281
#
# Velocity S-wave (km/s) = 3.11543 3.39747 3.25950
# Velocity P-wave (km/s) = 4.37856 4.91122 4.65252
#
# Compressibility (1/GPa) = 0.07497713
#
# Stress axis : x y z
#
# Youngs Moduli (GPa) = 49.32388 53.01994 36.71627
#
# Poissons Ratio (x) = -0.03541 -0.08535
# Poissons Ratio (y) = -0.03294 -0.04813
# Poissons Ratio (z) = -0.11466 -0.06950
#
# Static dielectric constant tensor:
#      x y z
#    x 1.778010 0.000000 -0.007400 
#    y 0.000000 1.754730 0.000000 
#    z -0.007400 0.000000 1.761810 
# 
# From -- ./inp_files/17569.got.cif
#   From: 2010.05.17/outbox.cif.g08.bks.cpg/sg14_9_cif.got.tgz:17569.got - 2010.06.03 17:49:19.
