data_PCOD9248609
_publ_section_title
;
Structure prediction by ZEFSAII (Michael W. Deem and Ramdas Pophale) SiO2 
 PCOD9248609
Probable space group: P 21/C
;
_chemical_formula_sum "Si O2"
_cell_formula_units_Z 32
_cell_length_a 11.821009
_cell_length_b 9.278053
_cell_length_c 14.052318
_cell_angle_alpha 90.000000
_cell_angle_beta 89.821091
_cell_angle_gamma 90.000000
_cell_volume 1541.193785
_symmetry_space_group_name_H-M "P 21/C"
_symmetry_group_IT_number 14
_symmetry_cell_setting 'monoclinic'
loop_
_space_group_symop_operation_xyz
x,y,z
-x,1/2+y,1/2-z
-x,-y,-z
x,1/2-y,1/2+z
loop_
_atom_site_type_symbol
_atom_site_label
_atom_site_fract_x
_atom_site_fract_y
_atom_site_fract_z
Si Si1 0.363800 0.269099 0.689011
Si Si2 0.882272 0.654713 0.236354
Si Si3 0.638964 0.035573 0.956763
Si Si4 0.017583 0.074693 0.856060
Si Si5 0.874698 0.466341 0.046900
Si Si6 0.629207 0.559787 0.981841
Si Si7 0.434930 0.314110 0.392519
Si Si8 0.132245 0.860427 0.969926
O O1 0.236788 0.289531 0.725733
O O2 0.384333 0.413256 0.624270
O O3 0.374681 0.133785 0.620256
O O4 0.435807 0.227349 0.782084
O O5 0.957730 0.794875 0.214253
O O6 0.868776 0.568157 0.138380
O O7 0.935567 0.543634 0.310704
O O8 0.561249 0.172355 0.933047
O O9 0.763916 0.095369 0.963929
O O10 0.612472 0.962453 0.059785
O O11 0.124768 0.980368 0.888051
O O12 0.972218 0.135653 0.956216
O O13 0.869021 0.297942 0.073047
O O14 0.753762 0.485295 0.990719
O O15 0.000000 0.500000 0.000000
O O16 0.500000 0.500000 0.000000
O O17 0.635766 0.689302 0.057749
#
# Coordination Sequence:
#
# PCOD9248609 Si02
#       8
#     4   4   4   4   4   4   4   4
#     4  11  24  40  73  98 136 186 246 296 365 438
#     4  12  24  44  67 107 140 190 240 301 365 441
#     4  10  22  43  67  94 137 181 237 294 361 426
#     4  11  25  39  70  95 145 180 240 285 367 433
#     4  12  26  44  71 103 148 187 240 304 369 437
#     4  11  26  45  70 103 143 189 239 304 365 436
#     4  10  22  43  66  97 132 183 231 294 356 435
#     4  11  23  43  65  98 135 192 224 293 356 434
#
# _framework density 20.763124000000001
#
# number of rings (size 3 to 8) (size 9 to 14) (size 15 to 20)
#    0.000    1.000    3.750    2.250    7.000    0.000 
#    0.000    0.000    0.000    0.000    0.000    0.000 
#    0.000    0.000    0.000    0.000    0.000    0.000 
#
# Total GULP energy -178221.510531 kJ/mol
# GULP energy per Si atom -5569.422204 kJ/mol
# Density = 2.071587 g / cm^3
# Si number density = 20.763124 Si / 1000 Ang^3
#
#
#
# Elastic Constant Matrix: (Units=GPa)
#
#
# Indices 1 2 3 4 5 6 
#
# 1 100.9709 33.4179 21.0840 0.0000 2.6951 0.0000
# 2 33.4179 94.5778 23.6053 0.0000 3.0748 0.0000
# 3 21.0840 23.6053 72.7784 0.0000 -4.0041 0.0000
# 4 0.0000 0.0000 0.0000 35.1923 0.0000 -0.4846
# 5 2.6951 3.0748 -4.0041 0.0000 31.6932 0.0000
# 6 0.0000 0.0000 0.0000 -0.4846 0.0000 28.9894
#
#
#
# Elastic Compliance Matrix: (Units=1/GPa)
#
#
# Indices 1 2 3 4 5 6 
#
# 1 0.011556 -0.003487 -0.002268 0.000000 -0.000931 0.000000
# 2 -0.003487 0.012638 -0.003162 0.000000 -0.001329 0.000000
# 3 -0.002268 -0.003162 0.015559 0.000000 0.002465 0.000000
# 4 0.000000 0.000000 0.000000 0.028422 0.000000 0.000475
# 5 -0.000931 -0.001329 0.002465 0.000000 0.032072 0.000000
# 6 0.000000 0.000000 0.000000 0.000475 0.000000 0.034503
#
#
# Mechanical properties :
#
#
# Convention : Reuss Voigt Hill
#
# Bulk Modulus (GPa) = 45.62314 47.17127 46.39720
# Shear Modulus (GPa) = 31.27142 31.85628 31.56385
#
# Velocity S-wave (km/s) = 3.88507 3.92123 3.90319
# Velocity P-wave (km/s) = 6.49198 6.57795 6.53511
#
# Compressibility (1/GPa) = 0.02191870
#
# Stress axis : x y z
#
# Youngs Moduli (GPa) = 86.53233 79.12795 64.27301
#
# Poissons Ratio (x) = 0.27591 0.14578
# Poissons Ratio (y) = 0.30173 0.20323
# Poissons Ratio (z) = 0.19627 0.25020
#
# Static dielectric constant tensor:
#      x y z
#    x 1.828670 0.000000 0.005460 
#    y 0.000000 1.755650 0.000000 
#    z 0.005460 0.000000 1.765620 
# 
# From -- ./inp_files/43756.got.cif
#   From: 2010.05.17/outbox.cif.g08.bks.cpg/sg14_22_cif.got.tgz:43756.got - 2010.06.03 17:49:19.
