data_PCOD9248999
_publ_section_title
;
Structure prediction by ZEFSAII (Michael W. Deem and Ramdas Pophale) SiO2 
 PCOD9248999
Probable space group: P 21/C
;
_chemical_formula_sum "Si O2"
_cell_formula_units_Z 26
_cell_length_a 20.996219
_cell_length_b 4.871300
_cell_length_c 29.801482
_cell_angle_alpha 90.000000
_cell_angle_beta 19.154601
_cell_angle_gamma 90.000000
_cell_volume 1000.124868
_symmetry_space_group_name_H-M "P 21/C"
_symmetry_group_IT_number 14
_symmetry_cell_setting 'monoclinic'
loop_
_space_group_symop_operation_xyz
x,y,z
-x,1/2+y,1/2-z
-x,-y,-z
x,1/2-y,1/2+z
loop_
_atom_site_type_symbol
_atom_site_label
_atom_site_fract_x
_atom_site_fract_y
_atom_site_fract_z
Si Si1 0.214445 0.537658 0.141592
Si Si2 0.028885 0.249143 0.080477
Si Si3 0.000000 0.000000 0.500000
Si Si4 0.393282 0.887022 0.843229
Si Si5 0.983930 0.459429 0.821343
Si Si6 0.583264 0.726261 0.307908
Si Si7 0.587506 0.222755 0.364509
O O1 0.168229 0.847849 0.185596
O O2 0.159554 0.506923 0.125175
O O3 0.058943 0.350031 0.271237
O O4 0.424587 0.402954 0.004806
O O5 0.092511 0.432902 0.080509
O O6 0.803497 0.175481 0.238796
O O7 0.020246 0.406988 0.039382
O O8 0.179728 0.000996 0.975415
O O9 0.794544 0.842944 0.648381
O O10 0.543794 0.119208 0.725871
O O11 0.429326 0.841632 0.871898
O O12 0.552868 0.535072 0.371987
O O13 0.580915 0.042716 0.323274
#
# Coordination Sequence:
#
# PCOD9248999 Si02
#       7
#     4   4   2   4   4   4   4
#     4  10  22  45  69 103 143 179 241 302 360 415
#     4  11  26  45  73 107 147 191 242 289 369 430
#     4  10  24  46  66 100 148 182 232 292 348 418
#     4  12  26  44  69 101 139 194 247 303 344 427
#     4  10  23  42  73 103 137 190 236 296 355 437
#     4  11  24  43  67  98 140 192 234 293 351 425
#     4  11  25  42  71 102 142 186 232 296 364 430
#
# _framework density 25.996756000000001
#
# number of rings (size 3 to 8) (size 9 to 14) (size 15 to 20)
#    0.000    1.231    1.538    2.769    2.154    8.615 
#    0.000    0.000    0.000    0.000    0.000    0.000 
#    0.000    0.000    0.000    0.000    0.000    0.000 
#
# Total GULP energy -145377.703051 kJ/mol
# GULP energy per Si atom -5591.450117 kJ/mol
# Density = 2.593759 g / cm^3
# Si number density = 25.996756 Si / 1000 Ang^3
#
#
#
# Elastic Constant Matrix: (Units=GPa)
#
#
# Indices 1 2 3 4 5 6 
#
# 1 109.2802 16.4891 10.1441 0.0000 6.2531 0.0000
# 2 16.4891 83.7053 -6.1977 0.0000 -0.9417 0.0000
# 3 10.1441 -6.1977 97.5113 0.0000 -6.6485 0.0000
# 4 0.0000 0.0000 0.0000 26.7356 0.0000 10.6182
# 5 6.2531 -0.9417 -6.6485 0.0000 37.8582 0.0000
# 6 0.0000 0.0000 0.0000 10.6182 0.0000 32.9636
#
#
#
# Elastic Compliance Matrix: (Units=1/GPa)
#
#
# Indices 1 2 3 4 5 6 
#
# 1 0.009680 -0.002021 -0.001263 0.000000 -0.001871 0.000000
# 2 -0.002021 0.012432 0.001057 0.000000 0.000829 0.000000
# 3 -0.001263 0.001057 0.010597 0.000000 0.002096 0.000000
# 4 0.000000 0.000000 0.000000 0.042890 0.000000 -0.013816
# 5 -0.001871 0.000829 0.002096 0.000000 0.027112 0.000000
# 6 0.000000 0.000000 0.000000 -0.013816 0.000000 0.034787
#
#
# Mechanical properties :
#
#
# Convention : Reuss Voigt Hill
#
# Bulk Modulus (GPa) = 35.39295 36.81864 36.10580
# Shear Modulus (GPa) = 33.03132 37.51558 35.27345
#
# Velocity S-wave (km/s) = 3.56841 3.80292 3.68753
# Velocity P-wave (km/s) = 5.53371 5.78588 5.66120
#
# Compressibility (1/GPa) = 0.02825421
#
# Stress axis : x y z
#
# Youngs Moduli (GPa) = 103.30464 80.43460 94.36903
#
# Poissons Ratio (x) = 0.16259 0.11919
# Poissons Ratio (y) = 0.20882 -0.09975
# Poissons Ratio (z) = 0.13048 -0.08502
#
# Static dielectric constant tensor:
#      x y z
#    x 1.996800 0.000000 -0.016030 
#    y 0.000000 1.975550 0.000000 
#    z -0.016030 0.000000 2.081500 
# 
# From -- ./inp_files/80460.got.cif
#   From: 2010.05.17/outbox.cif.g08.bks.cpg/sg14_41_cif.got.tgz:80460.got - 2010.06.03 17:49:19.
