data_PCOD9248829
_publ_section_title
;
Structure prediction by ZEFSAII (Michael W. Deem and Ramdas Pophale) SiO2 
 PCOD9248829
Probable space group: P 21/C
;
_chemical_formula_sum "Si O2"
_cell_formula_units_Z 22
_cell_length_a 17.393185
_cell_length_b 7.768909
_cell_length_c 9.177986
_cell_angle_alpha 90.000000
_cell_angle_beta 47.675830
_cell_angle_gamma 90.000000
_cell_volume 916.927352
_symmetry_space_group_name_H-M "P 21/C"
_symmetry_group_IT_number 14
_symmetry_cell_setting 'monoclinic'
loop_
_space_group_symop_operation_xyz
x,y,z
-x,1/2+y,1/2-z
-x,-y,-z
x,1/2-y,1/2+z
loop_
_atom_site_type_symbol
_atom_site_label
_atom_site_fract_x
_atom_site_fract_y
_atom_site_fract_z
Si Si1 0.500000 0.000000 0.500000
Si Si2 0.048705 0.781981 0.397129
Si Si3 0.496347 0.676672 0.296222
Si Si4 0.293517 0.512978 0.955966
Si Si5 0.073841 0.084338 0.704013
Si Si6 0.721673 0.288248 0.304853
O O1 0.502659 0.164029 0.380649
O O2 0.488231 0.133178 0.654758
O O3 0.062347 0.603846 0.288719
O O4 0.165148 0.844780 0.283099
O O5 0.985916 0.717493 0.617063
O O6 0.979771 0.903064 0.383814
O O7 0.597825 0.572830 0.215814
O O8 0.380736 0.624330 0.498368
O O9 0.277944 0.674685 0.867097
O O10 0.197481 0.386793 0.047466
O O11 0.289221 0.588958 0.126861
#
# Coordination Sequence:
#
# PCOD9248829 Si02
#       6
#     2   4   4   4   4   4
#     4  12  30  48  82 106 166 190 266 300 392 444
#     4  10  22  44  68 100 139 186 241 301 375 434
#     4  12  27  51  74 117 147 209 243 327 369 481
#     4  11  25  44  73 108 150 193 256 306 386 447
#     4  10  23  43  67 101 137 183 240 302 364 447
#     4  11  23  45  74 104 150 198 245 318 381 452
#
# _framework density 23.993175999999998
#
# number of rings (size 3 to 8) (size 9 to 14) (size 15 to 20)
#    0.000    1.091    1.818    3.818    2.545    4.364 
#    6.545    0.000    0.000    0.000    0.000    0.000 
#    0.000    0.000    0.000    0.000    0.000    0.000 
#
# Total GULP energy -122499.914164 kJ/mol
# GULP energy per Si atom -5568.177917 kJ/mol
# Density = 2.393857 g / cm^3
# Si number density = 23.993176 Si / 1000 Ang^3
#
#
#
# Elastic Constant Matrix: (Units=GPa)
#
#
# Indices 1 2 3 4 5 6 
#
# 1 137.2093 51.6240 86.5671 0.0000 -40.2228 0.0000
# 2 51.6240 78.1929 41.7703 0.0000 -4.9073 0.0000
# 3 86.5671 41.7703 133.5746 0.0000 -18.0753 0.0000
# 4 0.0000 0.0000 0.0000 36.9974 0.0000 7.1142
# 5 -40.2228 -4.9073 -18.0753 0.0000 58.6938 0.0000
# 6 0.0000 0.0000 0.0000 7.1142 0.0000 45.9543
#
#
#
# Elastic Compliance Matrix: (Units=1/GPa)
#
#
# Indices 1 2 3 4 5 6 
#
# 1 0.017509 -0.006703 -0.008038 0.000000 0.008963 0.000000
# 2 -0.006703 0.017922 -0.001752 0.000000 -0.003635 0.000000
# 3 -0.008038 -0.001752 0.013021 0.000000 -0.001645 0.000000
# 4 0.000000 0.000000 0.000000 0.027858 0.000000 -0.004313
# 5 0.008963 -0.003635 -0.001645 0.000000 0.022369 0.000000
# 6 0.000000 0.000000 0.000000 -0.004313 0.000000 0.022428
#
#
# Mechanical properties :
#
#
# Convention : Reuss Voigt Hill
#
# Bulk Modulus (GPa) = 64.66070 78.76664 71.71367
# Shear Modulus (GPa) = 31.39694 39.59680 35.49687
#
# Velocity S-wave (km/s) = 3.62135 4.06684 3.85054
# Velocity P-wave (km/s) = 6.67036 7.41298 7.05145
#
# Compressibility (1/GPa) = 0.01546534
#
# Stress axis : x y z
#
# Youngs Moduli (GPa) = 57.11300 55.79635 76.79790
#
# Poissons Ratio (x) = 0.37402 0.61732
# Poissons Ratio (y) = 0.38284 0.13456
# Poissons Ratio (z) = 0.45909 0.09776
#
# Static dielectric constant tensor:
#      x y z
#    x 1.995510 0.000000 -0.018650 
#    y 0.000000 1.934160 0.000000 
#    z -0.018650 0.000000 1.902530 
# 
# From -- ./inp_files/17530.got.cif
#   From: 2010.05.17/outbox.cif.g08.bks.cpg/sg14_9_cif.got.tgz:17530.got - 2010.06.03 17:49:19.
