data_PCOD9248398
_publ_section_title
;
Structure prediction by ZEFSAII (Michael W. Deem and Ramdas Pophale) SiO2 
 PCOD9248398
Probable space group: P 21/C
;
_chemical_formula_sum "Si O2"
_cell_formula_units_Z 32
_cell_length_a 8.951542
_cell_length_b 11.090025
_cell_length_c 32.401711
_cell_angle_alpha 90.000000
_cell_angle_beta 149.472638
_cell_angle_gamma 90.000000
_cell_volume 1633.876030
_symmetry_space_group_name_H-M "P 21/C"
_symmetry_group_IT_number 14
_symmetry_cell_setting 'monoclinic'
loop_
_space_group_symop_operation_xyz
x,y,z
-x,1/2+y,1/2-z
-x,-y,-z
x,1/2-y,1/2+z
loop_
_atom_site_type_symbol
_atom_site_label
_atom_site_fract_x
_atom_site_fract_y
_atom_site_fract_z
Si Si1 0.636257 0.293357 0.723929
Si Si2 0.852077 0.874432 0.416877
Si Si3 0.770585 0.799155 0.165576
Si Si4 0.743793 0.207995 0.837951
Si Si5 0.271299 0.889107 0.437992
Si Si6 0.603335 0.636934 0.535116
Si Si7 0.341450 0.875614 0.603125
Si Si8 0.213553 0.436668 0.244780
O O1 0.332935 0.245989 0.633883
O O2 0.641650 0.285732 0.774536
O O3 0.736090 0.424333 0.735647
O O4 0.895656 0.209369 0.769307
O O5 0.041446 0.897490 0.420987
O O6 0.072458 0.866008 0.507405
O O7 0.642783 0.988441 0.376567
O O8 0.604724 0.847715 0.085385
O O9 0.622069 0.673338 0.144773
O O10 0.766422 0.875262 0.206089
O O11 0.733803 0.290069 0.876208
O O12 0.493100 0.108328 0.784684
O O13 0.066312 0.156405 0.904280
O O14 0.420553 0.755211 0.475263
O O15 0.083813 0.908331 0.351458
O O16 0.500000 0.000000 0.500000
O O17 0.500000 0.500000 0.500000
#
# Coordination Sequence:
#
# PCOD9248398 Si02
#       8
#     4   4   4   4   4   4   4   4
#     4  11  24  42  64  97 134 170 227 275 340 405
#     4  11  23  39  69  97 129 175 223 285 336 404
#     4  10  24  44  63  97 134 170 221 286 331 401
#     4  10  23  43  63  94 132 174 214 274 339 400
#     4  12  24  45  70 100 136 184 236 276 347 416
#     4  11  25  44  69  97 138 180 225 283 343 411
#     4  10  22  42  67  95 129 171 225 276 336 402
#     4  11  25  41  71  96 133 179 224 281 340 416
#
# _framework density 19.585329000000002
#
# number of rings (size 3 to 8) (size 9 to 14) (size 15 to 20)
#    0.000    1.250    2.500    3.000    3.500    4.000 
#    4.500    2.500    0.000    0.000    0.000    0.000 
#    0.000    0.000    0.000    0.000    0.000    0.000 
#
# Total GULP energy -178611.185900 kJ/mol
# GULP energy per Si atom -5581.599559 kJ/mol
# Density = 1.954075 g / cm^3
# Si number density = 19.585329 Si / 1000 Ang^3
#
#
#
# Elastic Constant Matrix: (Units=GPa)
#
#
# Indices 1 2 3 4 5 6 
#
# 1 84.9686 15.8119 32.4497 0.0000 -11.4178 0.0000
# 2 15.8119 101.7941 55.4346 0.0000 -7.0335 0.0000
# 3 32.4497 55.4346 95.6574 0.0000 -4.8978 0.0000
# 4 0.0000 0.0000 0.0000 36.1262 0.0000 3.1721
# 5 -11.4178 -7.0335 -4.8978 0.0000 18.4311 0.0000
# 6 0.0000 0.0000 0.0000 3.1721 0.0000 21.3252
#
#
#
# Elastic Compliance Matrix: (Units=1/GPa)
#
#
# Indices 1 2 3 4 5 6 
#
# 1 0.014636 0.001117 -0.005197 0.000000 0.008112 0.000000
# 2 0.001117 0.014641 -0.008660 0.000000 0.003978 0.000000
# 3 -0.005197 -0.008660 0.017135 0.000000 -0.001971 0.000000
# 4 0.000000 0.000000 0.000000 0.028047 0.000000 -0.004172
# 5 0.008112 0.003978 -0.001971 0.000000 0.060276 0.000000
# 6 0.000000 0.000000 0.000000 -0.004172 0.000000 0.047514
#
#
# Mechanical properties :
#
#
# Convention : Reuss Voigt Hill
#
# Bulk Modulus (GPa) = 47.77352 54.42361 51.09857
# Shear Modulus (GPa) = 23.28776 27.09143 25.18960
#
# Velocity S-wave (km/s) = 3.45199 3.72324 3.59018
# Velocity P-wave (km/s) = 6.35089 6.80674 6.58276
#
# Compressibility (1/GPa) = 0.02093210
#
# Stress axis : x y z
#
# Youngs Moduli (GPa) = 68.32473 68.30081 58.36127
#
# Poissons Ratio (x) = -0.07631 0.30331
# Poissons Ratio (y) = -0.07634 0.50541
# Poissons Ratio (z) = 0.35509 0.59149
#
# Static dielectric constant tensor:
#      x y z
#    x 1.654620 0.000000 0.000470 
#    y 0.000000 1.653290 0.000000 
#    z 0.000470 0.000000 1.685370 
# 
# From -- ./inp_files/79647.got.cif
#   From: 2010.05.17/outbox.cif.g08.bks.cpg/sg14_40_cif.got.tgz:79647.got - 2010.06.03 17:49:19.
