data_PCOD9248993
_publ_section_title
;
Structure prediction by ZEFSAII (Michael W. Deem and Ramdas Pophale) SiO2 
 PCOD9248993
Probable space group: P 21/C
;
_chemical_formula_sum "Si O2"
_cell_formula_units_Z 20
_cell_length_a 14.577235
_cell_length_b 11.681089
_cell_length_c 11.686056
_cell_angle_alpha 90.000000
_cell_angle_beta 154.346293
_cell_angle_gamma 90.000000
_cell_volume 861.479683
_symmetry_space_group_name_H-M "P 21/C"
_symmetry_group_IT_number 14
_symmetry_cell_setting 'monoclinic'
loop_
_space_group_symop_operation_xyz
x,y,z
-x,1/2+y,1/2-z
-x,-y,-z
x,1/2-y,1/2+z
loop_
_atom_site_type_symbol
_atom_site_label
_atom_site_fract_x
_atom_site_fract_y
_atom_site_fract_z
Si Si1 0.745449 0.507014 0.584942
Si Si2 0.602422 0.913506 0.446924
Si Si3 0.307995 0.291130 0.611636
Si Si4 0.958655 0.816899 0.491325
Si Si5 0.714607 0.370335 0.199132
O O1 0.504059 0.474483 0.284304
O O2 0.803361 0.589063 0.544700
O O3 0.873808 0.392879 0.749353
O O4 0.810170 0.590670 0.760457
O O5 0.693330 0.797037 0.495946
O O6 0.413340 0.885933 0.325280
O O7 0.749294 0.003750 0.680757
O O8 0.189549 0.244370 0.586488
O O9 0.546425 0.315891 0.920159
O O10 0.095146 0.720427 0.578018
#
# Coordination Sequence:
#
# PCOD9248993 Si02
#       5
#     4   4   4   4   4
#     4  10  24  43  61 100 129 168 224 261 339 386
#     4  10  22  45  68  95 134 176 219 271 330 389
#     4  11  23  42  67  98 128 176 215 271 328 395
#     4  11  24  42  66  98 133 169 218 276 322 399
#     4  10  23  44  67  97 133 173 221 268 327 396
#
# _framework density 23.215869999999999
#
# number of rings (size 3 to 8) (size 9 to 14) (size 15 to 20)
#    0.000    1.600    2.000    1.200    5.600    0.800 
#   10.800    4.000    0.000    0.000    0.000    0.000 
#    0.000    0.000    0.000    0.000    0.000    0.000 
#
# Total GULP energy -111607.241170 kJ/mol
# GULP energy per Si atom -5580.362059 kJ/mol
# Density = 2.316303 g / cm^3
# Si number density = 23.215870 Si / 1000 Ang^3
#
#
#
# Elastic Constant Matrix: (Units=GPa)
#
#
# Indices 1 2 3 4 5 6 
#
# 1 85.1977 44.4513 -8.9557 0.0000 -1.2087 0.0000
# 2 44.4513 131.6332 29.1362 0.0000 9.4314 0.0000
# 3 -8.9557 29.1362 107.2681 0.0000 -14.2182 0.0000
# 4 0.0000 0.0000 0.0000 33.0583 0.0000 -21.7721
# 5 -1.2087 9.4314 -14.2182 0.0000 16.6172 0.0000
# 6 0.0000 0.0000 0.0000 -21.7721 0.0000 20.3757
#
#
#
# Elastic Compliance Matrix: (Units=1/GPa)
#
#
# Indices 1 2 3 4 5 6 
#
# 1 0.015992 -0.007020 0.004426 0.000000 0.008935 0.000000
# 2 -0.007020 0.012032 -0.005445 0.000000 -0.011999 0.000000
# 3 0.004426 -0.005445 0.013110 0.000000 0.014630 0.000000
# 4 0.000000 0.000000 0.000000 0.102102 0.000000 0.109099
# 5 0.008935 -0.011999 0.014630 0.000000 0.080156 0.000000
# 6 0.000000 0.000000 0.000000 0.109099 0.000000 0.165653
#
#
# Mechanical properties :
#
#
# Convention : Reuss Voigt Hill
#
# Bulk Modulus (GPa) = 39.90862 50.37362 45.14112
# Shear Modulus (GPa) = 12.09262 31.30807 21.70034
#
# Velocity S-wave (km/s) = 2.28475 3.67626 3.06064
# Velocity P-wave (km/s) = 4.91809 6.30594 5.65476
#
# Compressibility (1/GPa) = 0.02505725
#
# Stress axis : x y z
#
# Youngs Moduli (GPa) = 62.53005 83.10869 76.27754
#
# Poissons Ratio (x) = 0.58346 -0.33764
# Poissons Ratio (y) = 0.43899 0.41531
# Poissons Ratio (z) = -0.27678 0.45251
#
# Static dielectric constant tensor:
#      x y z
#    x 1.816210 0.000000 -0.050550 
#    y 0.000000 1.907970 0.000000 
#    z -0.050550 0.000000 1.940780 
# 
# From -- ./inp_files/28800.got.cif
#   From: 2010.05.17/outbox.cif.g08.bks.cpg/sg14_15_cif.got.tgz:28800.got - 2010.06.03 17:49:19.
