data_PCOD9248877
_publ_section_title
;
Structure prediction by ZEFSAII (Michael W. Deem and Ramdas Pophale) SiO2 
 PCOD9248877
Probable space group: P 21/C
;
_chemical_formula_sum "Si O2"
_cell_formula_units_Z 24
_cell_length_a 23.507558
_cell_length_b 5.480544
_cell_length_c 10.972231
_cell_angle_alpha 90.000000
_cell_angle_beta 134.653528
_cell_angle_gamma 90.000000
_cell_volume 1005.591340
_symmetry_space_group_name_H-M "P 21/C"
_symmetry_group_IT_number 14
_symmetry_cell_setting 'monoclinic'
loop_
_space_group_symop_operation_xyz
x,y,z
-x,1/2+y,1/2-z
-x,-y,-z
x,1/2-y,1/2+z
loop_
_atom_site_type_symbol
_atom_site_label
_atom_site_fract_x
_atom_site_fract_y
_atom_site_fract_z
Si Si1 0.160207 0.790720 0.646542
Si Si2 0.064625 0.562680 0.699855
Si Si3 0.657628 0.301732 0.121333
Si Si4 0.422769 0.598004 0.250679
Si Si5 0.430349 0.198202 0.415540
Si Si6 0.092414 0.288605 0.428878
O O1 0.130548 0.731866 0.738311
O O2 0.254832 0.792216 0.773897
O O3 0.131759 0.544782 0.528301
O O4 0.123958 0.051486 0.551777
O O5 0.103512 0.316338 0.809752
O O6 0.000000 0.500000 0.500000
O O7 0.004116 0.690024 0.702778
O O8 0.625208 0.187721 0.199756
O O9 0.647381 0.588686 0.139220
O O10 0.607237 0.290923 0.919691
O O11 0.411177 0.310294 0.255398
O O12 0.517633 0.633196 0.415531
O O13 0.500000 0.000000 0.500000
#
# Coordination Sequence:
#
# PCOD9248877 Si02
#       6
#     4   4   4   4   4   4
#     4  11  27  43  68 105 143 187 232 296 374 428
#     4  10  22  44  70 102 130 183 234 293 351 433
#     4  11  26  43  70 106 142 196 234 307 371 438
#     4  10  24  45  71 103 143 187 249 299 363 445
#     4   9  22  42  69 101 137 186 241 295 361 428
#     4  11  24  45  70 100 140 181 238 293 356 439
#
# _framework density 23.866555000000002
#
# number of rings (size 3 to 8) (size 9 to 14) (size 15 to 20)
#    0.000    1.667    0.000    2.500   11.667    5.333 
#    0.000    0.000    0.000    0.000    0.000    0.000 
#    0.000    0.000    0.000    0.000    0.000    0.000 
#
# Total GULP energy -133688.343112 kJ/mol
# GULP energy per Si atom -5570.347630 kJ/mol
# Density = 2.381223 g / cm^3
# Si number density = 23.866555 Si / 1000 Ang^3
#
#
#
# Elastic Constant Matrix: (Units=GPa)
#
#
# Indices 1 2 3 4 5 6 
#
# 1 64.0880 11.3584 12.8344 0.0000 -1.6867 0.0000
# 2 11.3584 102.8480 37.6230 0.0000 -8.3030 0.0000
# 3 12.8344 37.6230 57.8850 0.0000 -21.8271 0.0000
# 4 0.0000 0.0000 0.0000 39.8794 0.0000 -10.0979
# 5 -1.6867 -8.3030 -21.8271 0.0000 38.9161 0.0000
# 6 0.0000 0.0000 0.0000 -10.0979 0.0000 38.1089
#
#
#
# Elastic Compliance Matrix: (Units=1/GPa)
#
#
# Indices 1 2 3 4 5 6 
#
# 1 0.016436 -0.000513 -0.003910 0.000000 -0.001590 0.000000
# 2 -0.000513 0.012958 -0.009226 0.000000 -0.002432 0.000000
# 3 -0.003910 -0.009226 0.029591 0.000000 0.014459 0.000000
# 4 0.000000 0.000000 0.000000 0.026879 0.000000 0.007122
# 5 -0.001590 -0.002432 0.014459 0.000000 0.033218 0.000000
# 6 0.000000 0.000000 0.000000 0.007122 0.000000 0.028128
#
#
# Mechanical properties :
#
#
# Convention : Reuss Voigt Hill
#
# Bulk Modulus (GPa) = 31.55870 38.71696 35.13783
# Shear Modulus (GPa) = 27.01667 34.24789 30.63228
#
# Velocity S-wave (km/s) = 3.36815 3.79222 3.58646
# Velocity P-wave (km/s) = 5.32707 5.95248 5.64844
#
# Compressibility (1/GPa) = 0.03168699
#
# Stress axis : x y z
#
# Youngs Moduli (GPa) = 60.84306 77.17073 33.79379
#
# Poissons Ratio (x) = 0.03959 0.13215
# Poissons Ratio (y) = 0.03122 0.31177
# Poissons Ratio (z) = 0.23792 0.71195
#
# Static dielectric constant tensor:
#      x y z
#    x 1.990820 0.000000 -0.094970 
#    y 0.000000 2.330700 0.000000 
#    z -0.094970 0.000000 1.927830 
# 
# From -- ./inp_files/35545.got.cif
#   From: 2010.05.17/outbox.cif.g08.bks.cpg/sg14_18_cif.got.tgz:35545.got - 2010.06.03 17:49:19.
