data_PCOD9248089
_publ_section_title
;
Structure prediction by ZEFSAII (Michael W. Deem and Ramdas Pophale) SiO2 
 PCOD9248089
Probable space group: P 21/C
;
_chemical_formula_sum "Si O2"
_cell_formula_units_Z 28
_cell_length_a 23.055768
_cell_length_b 7.488067
_cell_length_c 17.245194
_cell_angle_alpha 90.000000
_cell_angle_beta 155.246758
_cell_angle_gamma 90.000000
_cell_volume 1246.613705
_symmetry_space_group_name_H-M "P 21/C"
_symmetry_group_IT_number 14
_symmetry_cell_setting 'monoclinic'
loop_
_space_group_symop_operation_xyz
x,y,z
-x,1/2+y,1/2-z
-x,-y,-z
x,1/2-y,1/2+z
loop_
_atom_site_type_symbol
_atom_site_label
_atom_site_fract_x
_atom_site_fract_y
_atom_site_fract_z
Si Si1 0.197601 0.080151 0.260572
Si Si2 0.103496 0.988448 0.874510
Si Si3 0.066167 0.692029 0.485019
Si Si4 0.195590 0.035747 0.682586
Si Si5 0.403219 0.151821 0.626798
Si Si6 0.208757 0.104473 0.528285
Si Si7 0.700298 0.446698 0.525053
O O1 0.174979 0.259378 0.182657
O O2 0.348064 0.059943 0.480957
O O3 0.149795 0.914642 0.152131
O O4 0.088698 0.113810 0.198103
O O5 0.164616 0.184762 0.968630
O O6 0.173347 0.914237 0.880586
O O7 0.937827 0.993914 0.663389
O O8 0.129759 0.860987 0.980006
O O9 0.069219 0.900281 0.510591
O O10 0.264115 0.053319 0.680953
O O11 0.267827 0.945327 0.844816
O O12 0.325562 0.068137 0.606365
O O13 0.345302 0.350370 0.546796
O O14 0.565666 0.162356 0.837252
#
# Coordination Sequence:
#
# PCOD9248089 Si02
#       7
#     4   4   4   4   4   4   4
#     4  10  22  41  64  95 132 164 215 278 314 396
#     4  11  23  42  64 103 128 175 215 274 330 387
#     4  11  22  39  67  98 127 171 211 264 347 376
#     4  11  24  40  65  99 132 168 217 275 326 383
#     4  10  23  45  63  93 129 178 215 268 328 388
#     4  11  23  40  67  95 138 161 225 280 318 390
#     4  10  26  42  67  91 134 174 221 264 330 390
#
# _framework density 22.460847000000001
#
# number of rings (size 3 to 8) (size 9 to 14) (size 15 to 20)
#    0.000    1.429    2.857    1.286    8.000    2.857 
#    0.000    2.143    0.000    0.000    0.000    0.000 
#    0.000    0.000    0.000    0.000    0.000    0.000 
#
# Total GULP energy -156378.168862 kJ/mol
# GULP energy per Si atom -5584.934602 kJ/mol
# Density = 2.240972 g / cm^3
# Si number density = 22.460847 Si / 1000 Ang^3
#
#
#
# Elastic Constant Matrix: (Units=GPa)
#
#
# Indices 1 2 3 4 5 6 
#
# 1 88.9967 29.9923 37.2793 0.0000 -24.9401 0.0000
# 2 29.9923 75.5614 33.0832 0.0000 -9.2598 0.0000
# 3 37.2793 33.0832 64.4078 0.0000 -13.7842 0.0000
# 4 0.0000 0.0000 0.0000 20.3031 0.0000 -2.2034
# 5 -24.9401 -9.2598 -13.7842 0.0000 30.8644 0.0000
# 6 0.0000 0.0000 0.0000 -2.2034 0.0000 23.6188
#
#
#
# Elastic Compliance Matrix: (Units=1/GPa)
#
#
# Indices 1 2 3 4 5 6 
#
# 1 0.017998 -0.002934 -0.006619 0.000000 0.010707 0.000000
# 2 -0.002934 0.017602 -0.007431 0.000000 -0.000408 0.000000
# 3 -0.006619 -0.007431 0.023830 0.000000 0.003065 0.000000
# 4 0.000000 0.000000 0.000000 0.049757 0.000000 0.004642
# 5 0.010707 -0.000408 0.003065 0.000000 0.042298 0.000000
# 6 0.000000 0.000000 0.000000 0.004642 0.000000 0.042772
#
#
# Mechanical properties :
#
#
# Convention : Reuss Voigt Hill
#
# Bulk Modulus (GPa) = 39.27219 47.74173 43.50696
# Shear Modulus (GPa) = 21.12269 23.53134 22.32702
#
# Velocity S-wave (km/s) = 3.06996 3.24027 3.15626
# Velocity P-wave (km/s) = 5.48533 5.94145 5.71794
#
# Compressibility (1/GPa) = 0.02546331
#
# Stress axis : x y z
#
# Youngs Moduli (GPa) = 55.56104 56.81136 41.96435
#
# Poissons Ratio (x) = 0.16668 0.27776
# Poissons Ratio (y) = 0.16301 0.31182
# Poissons Ratio (z) = 0.36775 0.42214
#
# Static dielectric constant tensor:
#      x y z
#    x 1.846830 0.000000 -0.020220 
#    y 0.000000 1.892790 0.000000 
#    z -0.020220 0.000000 1.889630 
# 
# From -- ./inp_files/50273.got.cif
#   From: 2010.05.17/outbox.cif.g08.bks.cpg/sg14_26_cif.got.tgz:50273.got - 2010.06.03 17:49:19.
