data_PCOD9248620
_publ_section_title
;
Structure prediction by ZEFSAII (Michael W. Deem and Ramdas Pophale) SiO2 
 PCOD9248620
Probable space group: P 21/C
;
_chemical_formula_sum "Si O2"
_cell_formula_units_Z 32
_cell_length_a 5.535233
_cell_length_b 11.029399
_cell_length_c 24.610795
_cell_angle_alpha 90.000000
_cell_angle_beta 119.171376
_cell_angle_gamma 90.000000
_cell_volume 1311.928185
_symmetry_space_group_name_H-M "P 21/C"
_symmetry_group_IT_number 14
_symmetry_cell_setting 'monoclinic'
loop_
_space_group_symop_operation_xyz
x,y,z
-x,1/2+y,1/2-z
-x,-y,-z
x,1/2-y,1/2+z
loop_
_atom_site_type_symbol
_atom_site_label
_atom_site_fract_x
_atom_site_fract_y
_atom_site_fract_z
Si Si1 0.059855 0.619300 0.970602
Si Si2 0.084307 0.119174 0.042696
Si Si3 0.459571 0.443335 0.149060
Si Si4 0.799795 0.326813 0.839282
Si Si5 0.416506 0.166545 0.847123
Si Si6 0.089725 0.751722 0.267956
Si Si7 0.737881 0.412996 0.616619
Si Si8 0.375376 0.111847 0.427386
O O1 0.012367 0.751593 0.991132
O O2 0.840877 0.614739 0.897172
O O3 0.392918 0.617291 0.000887
O O4 0.000000 0.500000 0.000000
O O5 0.417954 0.131529 0.078856
O O6 0.918615 0.101150 0.081726
O O7 0.000000 0.000000 0.000000
O O8 0.424057 0.566527 0.179378
O O9 0.667538 0.349095 0.197835
O O10 0.579664 0.494047 0.105301
O O11 0.708175 0.193858 0.849886
O O12 0.870656 0.319174 0.784117
O O13 0.053628 0.373577 0.903806
O O14 0.417635 0.273310 0.891961
O O15 0.201908 0.184122 0.774166
O O16 0.320167 0.048549 0.868240
O O17 0.104676 0.662746 0.320122
#
# Coordination Sequence:
#
# PCOD9248620 Si02
#       8
#     4   4   4   4   4   4   4   4
#     4  10  22  49  77 111 153 199 257 330 399 476
#     4  12  28  54  82 117 159 211 267 335 408 491
#     4  10  22  43  67 109 144 197 260 318 392 473
#     4  10  24  42  71 105 150 207 260 321 391 481
#     4  10  25  44  70 107 150 205 258 322 394 477
#     4  11  26  43  71 107 155 200 260 321 400 469
#     4  12  29  50  79 115 159 206 268 331 403 485
#     4   9  21  43  68 102 142 192 255 319 388 466
#
# _framework density 24.391577999999999
#
# number of rings (size 3 to 8) (size 9 to 14) (size 15 to 20)
#    0.000    1.500    1.250    1.125   12.250    1.500 
#    6.750    0.000    0.000    0.000    0.000    0.000 
#    0.000    0.000    0.000    0.000    0.000    0.000 
#
# Total GULP energy -178801.410802 kJ/mol
# GULP energy per Si atom -5587.544088 kJ/mol
# Density = 2.433606 g / cm^3
# Si number density = 24.391578 Si / 1000 Ang^3
#
#
#
# Elastic Constant Matrix: (Units=GPa)
#
#
# Indices 1 2 3 4 5 6 
#
# 1 118.9990 36.2460 73.5211 0.0000 9.0680 0.0000
# 2 36.2460 128.3801 44.2899 0.0000 -4.3606 0.0000
# 3 73.5211 44.2899 116.0144 0.0000 8.9852 0.0000
# 4 0.0000 0.0000 0.0000 37.2550 0.0000 2.0207
# 5 9.0680 -4.3606 8.9852 0.0000 56.3252 0.0000
# 6 0.0000 0.0000 0.0000 2.0207 0.0000 32.7957
#
#
#
# Elastic Compliance Matrix: (Units=1/GPa)
#
#
# Indices 1 2 3 4 5 6 
#
# 1 0.013981 -0.001096 -0.008364 0.000000 -0.001001 0.000000
# 2 -0.001096 0.009145 -0.002901 0.000000 0.001347 0.000000
# 3 -0.008364 -0.002901 0.015128 0.000000 -0.001291 0.000000
# 4 0.000000 0.000000 0.000000 0.026932 0.000000 -0.001659
# 5 -0.001001 0.001347 -0.001291 0.000000 0.018226 0.000000
# 6 0.000000 0.000000 0.000000 -0.001659 0.000000 0.030594
#
#
# Mechanical properties :
#
#
# Convention : Reuss Voigt Hill
#
# Bulk Modulus (GPa) = 73.90040 74.61194 74.25617
# Shear Modulus (GPa) = 34.90652 39.23096 37.06874
#
# Velocity S-wave (km/s) = 3.78708 4.01481 3.90261
# Velocity P-wave (km/s) = 7.03462 7.22131 7.12857
#
# Compressibility (1/GPa) = 0.01353173
#
# Stress axis : x y z
#
# Youngs Moduli (GPa) = 71.52435 109.34430 66.10280
#
# Poissons Ratio (x) = 0.11981 0.55291
# Poissons Ratio (y) = 0.07837 0.19179
# Poissons Ratio (z) = 0.59826 0.31724
#
# Static dielectric constant tensor:
#      x y z
#    x 2.076580 0.000000 -0.008770 
#    y 0.000000 1.946200 0.000000 
#    z -0.008770 0.000000 1.923210 
# 
# From -- ./inp_files/71324.got.cif
#   From: 2010.05.17/outbox.cif.g08.bks.cpg/sg14_36_cif.got.tgz:71324.got - 2010.06.03 17:49:19.
