data_PCOD9248225
_publ_section_title
;
Structure prediction by ZEFSAII (Michael W. Deem and Ramdas Pophale) SiO2 
 PCOD9248225
Probable space group: P 21/C
;
_chemical_formula_sum "Si O2"
_cell_formula_units_Z 28
_cell_length_a 9.508086
_cell_length_b 14.522877
_cell_length_c 14.697000
_cell_angle_alpha 90.000000
_cell_angle_beta 142.497238
_cell_angle_gamma 90.000000
_cell_volume 1235.517397
_symmetry_space_group_name_H-M "P 21/C"
_symmetry_group_IT_number 14
_symmetry_cell_setting 'monoclinic'
loop_
_space_group_symop_operation_xyz
x,y,z
-x,1/2+y,1/2-z
-x,-y,-z
x,1/2-y,1/2+z
loop_
_atom_site_type_symbol
_atom_site_label
_atom_site_fract_x
_atom_site_fract_y
_atom_site_fract_z
Si Si1 0.255057 0.579454 0.700363
Si Si2 0.481463 0.528106 0.630631
Si Si3 0.112383 0.267321 0.551125
Si Si4 0.201305 0.185823 0.783725
Si Si5 0.026005 0.488138 0.285220
Si Si6 0.868588 0.378135 0.806724
Si Si7 0.529848 0.741937 0.910754
O O1 0.356946 0.534811 0.663015
O O2 0.451461 0.639123 0.850575
O O3 0.058240 0.651737 0.566908
O O4 0.141027 0.512787 0.714872
O O5 0.591896 0.624820 0.655194
O O6 0.288805 0.496136 0.458966
O O7 0.693146 0.457688 0.748132
O O8 0.119156 0.253130 0.662096
O O9 0.355947 0.280344 0.624252
O O10 0.016631 0.171105 0.459954
O O11 0.021310 0.109108 0.728724
O O12 0.290966 0.239986 0.917365
O O13 0.986825 0.571783 0.196962
O O14 0.699710 0.298939 0.682675
#
# Coordination Sequence:
#
# PCOD9248225 Si02
#       7
#     4   4   4   4   4   4   4
#     4  11  24  39  68  95 133 162 225 268 310 378
#     4  11  20  39  67  99 126 174 214 260 322 387
#     4  11  24  41  66  99 126 167 219 271 314 380
#     4  11  21  40  69  90 130 168 215 259 328 378
#     4  11  21  40  67  97 125 176 214 258 322 392
#     4  10  22  41  70  87 128 170 212 258 325 385
#     4  11  21  44  64  96 125 168 215 270 310 386
#
# _framework density 22.662569000000001
#
# number of rings (size 3 to 8) (size 9 to 14) (size 15 to 20)
#    0.000    1.143    5.714    1.286    0.000    4.571 
#    0.000    0.714    3.143    0.000    0.000    0.000 
#    0.000    0.000    0.000    0.000    0.000    0.000 
#
# Total GULP energy -156742.593591 kJ/mol
# GULP energy per Si atom -5597.949771 kJ/mol
# Density = 2.261099 g / cm^3
# Si number density = 22.662569 Si / 1000 Ang^3
#
#
#
# Elastic Constant Matrix: (Units=GPa)
#
#
# Indices 1 2 3 4 5 6 
#
# 1 112.0996 18.4603 -4.9229 0.0000 -11.9583 0.0000
# 2 18.4603 55.1466 16.6789 0.0000 -6.5933 0.0000
# 3 -4.9229 16.6789 30.9437 0.0000 -14.9718 0.0000
# 4 0.0000 0.0000 0.0000 28.0746 0.0000 -3.1780
# 5 -11.9583 -6.5933 -14.9718 0.0000 36.6090 0.0000
# 6 0.0000 0.0000 0.0000 -3.1780 0.0000 40.5535
#
#
#
# Elastic Compliance Matrix: (Units=1/GPa)
#
#
# Indices 1 2 3 4 5 6 
#
# 1 0.010642 -0.005042 0.007048 0.000000 0.005450 0.000000
# 2 -0.005042 0.024090 -0.015564 0.000000 -0.003674 0.000000
# 3 0.007048 -0.015564 0.051843 0.000000 0.020701 0.000000
# 4 0.000000 0.000000 0.000000 0.035938 0.000000 0.002816
# 5 0.005450 -0.003674 0.020701 0.000000 0.036901 0.000000
# 6 0.000000 0.000000 0.000000 0.002816 0.000000 0.024879
#
#
# Mechanical properties :
#
#
# Convention : Reuss Voigt Hill
#
# Bulk Modulus (GPa) = 16.81860 28.73584 22.77722
# Shear Modulus (GPa) = 21.62355 32.24567 26.93461
#
# Velocity S-wave (km/s) = 3.09229 3.77617 3.45121
# Velocity P-wave (km/s) = 4.49300 5.63206 5.09446
#
# Compressibility (1/GPa) = 0.05945797
#
# Stress axis : x y z
#
# Youngs Moduli (GPa) = 93.96754 41.51181 19.28885
#
# Poissons Ratio (x) = 0.20932 -0.13595
# Poissons Ratio (y) = 0.47382 0.30022
# Poissons Ratio (z) = -0.66230 0.64610
#
# Static dielectric constant tensor:
#      x y z
#    x 1.839710 0.000000 0.029040 
#    y 0.000000 1.846920 0.000000 
#    z 0.029040 0.000000 1.828860 
# 
# From -- ./inp_files/41413.got.cif
#   From: 2010.05.17/outbox.cif.g08.bks.cpg/sg14_21_cif.got.tgz:41413.got - 2010.06.03 17:49:19.
