data_PCOD9248090
_publ_section_title
;
Structure prediction by ZEFSAII (Michael W. Deem and Ramdas Pophale) SiO2 
 PCOD9248090
Probable space group: P 21/C
;
_chemical_formula_sum "Si O2"
_cell_formula_units_Z 24
_cell_length_a 12.413850
_cell_length_b 14.287929
_cell_length_c 9.334096
_cell_angle_alpha 90.000000
_cell_angle_beta 39.907707
_cell_angle_gamma 90.000000
_cell_volume 1062.136804
_symmetry_space_group_name_H-M "P 21/C"
_symmetry_group_IT_number 14
_symmetry_cell_setting 'monoclinic'
loop_
_space_group_symop_operation_xyz
x,y,z
-x,1/2+y,1/2-z
-x,-y,-z
x,1/2-y,1/2+z
loop_
_atom_site_type_symbol
_atom_site_label
_atom_site_fract_x
_atom_site_fract_y
_atom_site_fract_z
Si Si1 0.981889 0.203149 0.401342
Si Si2 0.778823 0.712422 0.598123
Si Si3 0.395035 0.097720 0.253625
Si Si4 0.761575 0.050735 0.776570
Si Si5 0.264822 0.459146 0.174156
Si Si6 0.111656 0.592408 0.546394
O O1 0.862998 0.120223 0.571238
O O2 0.880020 0.295329 0.453779
O O3 0.093148 0.240195 0.420066
O O4 0.107647 0.175374 0.146662
O O5 0.660591 0.795800 0.664564
O O6 0.688623 0.626908 0.769093
O O7 0.383105 0.041230 0.415337
O O8 0.268281 0.047059 0.272623
O O9 0.577426 0.091377 0.998900
O O10 0.851359 0.047905 0.837828
O O11 0.235621 0.550724 0.299445
O O12 0.078671 0.433477 0.303740
#
# Coordination Sequence:
#
# PCOD9248090 Si02
#       6
#     4   4   4   4   4   4
#     4  11  22  41  64  97 121 162 216 260 314 366
#     4  11  22  41  65  96 120 163 216 262 309 366
#     4  11  25  44  60  94 131 170 208 254 316 382
#     4  11  26  41  64  91 134 171 203 256 321 379
#     4  10  23  40  67  94 124 161 215 264 310 369
#     4  10  22  41  64  96 120 166 210 261 313 362
#
# _framework density 22.595958
#
# number of rings (size 3 to 8) (size 9 to 14) (size 15 to 20)
#    0.000    1.333    5.000    0.000    9.333    3.333 
#    0.000    0.000    0.000    0.000    0.000    0.000 
#    0.000    0.000    0.000    0.000    0.000    0.000 
#
# Total GULP energy -134377.329559 kJ/mol
# GULP energy per Si atom -5599.055398 kJ/mol
# Density = 2.254453 g / cm^3
# Si number density = 22.595958 Si / 1000 Ang^3
#
#
#
# Elastic Constant Matrix: (Units=GPa)
#
#
# Indices 1 2 3 4 5 6 
#
# 1 40.3953 17.9796 23.3786 0.0000 13.4625 0.0000
# 2 17.9796 73.2046 10.3048 0.0000 -1.0726 0.0000
# 3 23.3786 10.3048 104.6887 0.0000 18.3998 0.0000
# 4 0.0000 0.0000 0.0000 38.0372 0.0000 8.9174
# 5 13.4625 -1.0726 18.3998 0.0000 30.9153 0.0000
# 6 0.0000 0.0000 0.0000 8.9174 0.0000 21.8715
#
#
#
# Elastic Compliance Matrix: (Units=1/GPa)
#
#
# Indices 1 2 3 4 5 6 
#
# 1 0.035516 -0.008227 -0.004862 0.000000 -0.012858 0.000000
# 2 -0.008227 0.015816 -0.000498 0.000000 0.004428 0.000000
# 3 -0.004862 -0.000498 0.011523 0.000000 -0.004758 0.000000
# 4 0.000000 0.000000 0.000000 0.029069 0.000000 -0.011852
# 5 -0.012858 0.004428 -0.004758 0.000000 0.040931 0.000000
# 6 0.000000 0.000000 0.000000 -0.011852 0.000000 0.050554
#
#
# Mechanical properties :
#
#
# Convention : Reuss Voigt Hill
#
# Bulk Modulus (GPa) = 28.02516 35.73496 31.88006
# Shear Modulus (GPa) = 22.47442 29.27318 25.87380
#
# Velocity S-wave (km/s) = 3.15718 3.60322 3.38755
# Velocity P-wave (km/s) = 5.07150 5.75847 5.42587
#
# Compressibility (1/GPa) = 0.03568222
#
# Stress axis : x y z
#
# Youngs Moduli (GPa) = 28.15643 63.22755 86.78212
#
# Poissons Ratio (x) = 0.52017 0.42190
# Poissons Ratio (y) = 0.23164 0.04320
# Poissons Ratio (z) = 0.13688 0.03147
#
# Static dielectric constant tensor:
#      x y z
#    x 1.853010 0.000000 0.005490 
#    y 0.000000 1.835920 0.000000 
#    z 0.005490 0.000000 1.813230 
# 
# From -- ./inp_files/16139.got.cif
#   From: 2010.05.17/outbox.cif.g08.bks.cpg/sg14_9_cif.got.tgz:16139.got - 2010.06.03 17:49:19.
