data_PCOD9248846
_publ_section_title
;
Structure prediction by ZEFSAII (Michael W. Deem and Ramdas Pophale) SiO2 
 PCOD9248846
Probable space group: P 21/C
;
_chemical_formula_sum "Si O2"
_cell_formula_units_Z 20
_cell_length_a 16.053853
_cell_length_b 5.096679
_cell_length_c 10.432848
_cell_angle_alpha 90.000000
_cell_angle_beta 122.393415
_cell_angle_gamma 90.000000
_cell_volume 720.795836
_symmetry_space_group_name_H-M "P 21/C"
_symmetry_group_IT_number 14
_symmetry_cell_setting 'monoclinic'
loop_
_space_group_symop_operation_xyz
x,y,z
-x,1/2+y,1/2-z
-x,-y,-z
x,1/2-y,1/2+z
loop_
_atom_site_type_symbol
_atom_site_label
_atom_site_fract_x
_atom_site_fract_y
_atom_site_fract_z
Si Si1 0.371576 0.142241 0.615640
Si Si2 0.425199 0.932380 0.325030
Si Si3 0.116126 0.968710 0.257526
Si Si4 0.297407 0.635461 0.406094
Si Si5 0.926516 0.701134 0.011916
O O1 0.491324 0.146449 0.707752
O O2 0.358597 0.322155 0.730535
O O3 0.324446 0.348690 0.475592
O O4 0.333658 0.856691 0.540680
O O5 0.356748 0.707005 0.326662
O O6 0.500000 0.000000 0.500000
O O7 0.183418 0.711426 0.297075
O O8 0.000328 0.906085 0.143004
O O9 0.129842 0.074434 0.413813
O O10 0.135193 0.155920 0.150477
O O11 0.000000 0.500000 0.000000
#
# Coordination Sequence:
#
# PCOD9248846 Si02
#       5
#     4   4   4   4   4
#     4  11  24  43  68 100 140 188 235 301 366 439
#     4  10  22  44  68  97 137 187 235 293 364 434
#     4  11  26  45  75 109 145 203 245 318 369 459
#     4  11  27  42  70 105 141 181 248 301 365 427
#     4  11  24  47  75 104 151 196 250 301 391 447
#
# _framework density 27.747107
#
# number of rings (size 3 to 8) (size 9 to 14) (size 15 to 20)
#    0.000    1.200    2.000    3.000    5.600    6.400 
#    0.000    0.000    0.000    0.000    0.000    0.000 
#    0.000    0.000    0.000    0.000    0.000    0.000 
#
# Total GULP energy -111893.847196 kJ/mol
# GULP energy per Si atom -5594.692360 kJ/mol
# Density = 2.768395 g / cm^3
# Si number density = 27.747107 Si / 1000 Ang^3
#
#
#
# Elastic Constant Matrix: (Units=GPa)
#
#
# Indices 1 2 3 4 5 6 
#
# 1 82.5903 1.0894 -10.7995 0.0000 20.5884 0.0000
# 2 1.0894 115.4058 27.9284 0.0000 7.9799 0.0000
# 3 -10.7995 27.9284 95.3313 0.0000 0.6674 0.0000
# 4 0.0000 0.0000 0.0000 65.3667 0.0000 5.9060
# 5 20.5884 7.9799 0.6674 0.0000 30.9927 0.0000
# 6 0.0000 0.0000 0.0000 5.9060 0.0000 36.7413
#
#
#
# Elastic Compliance Matrix: (Units=1/GPa)
#
#
# Indices 1 2 3 4 5 6 
#
# 1 0.014798 0.000132 0.001707 0.000000 -0.009901 0.000000
# 2 0.000132 0.009501 -0.002751 0.000000 -0.002475 0.000000
# 3 0.001707 -0.002751 0.011494 0.000000 -0.000673 0.000000
# 4 0.000000 0.000000 0.000000 0.015524 0.000000 -0.002495
# 5 -0.009901 -0.002475 -0.000673 0.000000 0.039494 0.000000
# 6 0.000000 0.000000 0.000000 -0.002495 0.000000 0.027618
#
#
# Mechanical properties :
#
#
# Convention : Reuss Voigt Hill
#
# Bulk Modulus (GPa) = 29.43993 36.64043 33.04018
# Shear Modulus (GPa) = 38.00100 44.96074 41.48087
#
# Velocity S-wave (km/s) = 3.70476 4.02976 3.87067
# Velocity P-wave (km/s) = 5.37898 5.90641 5.64885
#
# Compressibility (1/GPa) = 0.03396747
#
# Stress axis : x y z
#
# Youngs Moduli (GPa) = 67.57896 105.25539 87.00358
#
# Poissons Ratio (x) = -0.01387 -0.14852
# Poissons Ratio (y) = -0.00891 0.23935
# Poissons Ratio (z) = -0.11536 0.28957
#
# Static dielectric constant tensor:
#      x y z
#    x 2.192550 0.000000 -0.106460 
#    y 0.000000 2.286280 0.000000 
#    z -0.106460 0.000000 2.295210 
# 
# From -- ./inp_files/17311.got.cif
#   From: 2010.05.17/outbox.cif.g08.bks.cpg/sg14_9_cif.got.tgz:17311.got - 2010.06.03 17:49:19.
