data_PCOD9248579
_publ_section_title
;
Structure prediction by ZEFSAII (Michael W. Deem and Ramdas Pophale) SiO2 
 PCOD9248579
Probable space group: P 21/C
;
_chemical_formula_sum "Si O2"
_cell_formula_units_Z 28
_cell_length_a 8.730710
_cell_length_b 13.853377
_cell_length_c 12.258148
_cell_angle_alpha 90.000000
_cell_angle_beta 53.974931
_cell_angle_gamma 90.000000
_cell_volume 1199.083978
_symmetry_space_group_name_H-M "P 21/C"
_symmetry_group_IT_number 14
_symmetry_cell_setting 'monoclinic'
loop_
_space_group_symop_operation_xyz
x,y,z
-x,1/2+y,1/2-z
-x,-y,-z
x,1/2-y,1/2+z
loop_
_atom_site_type_symbol
_atom_site_label
_atom_site_fract_x
_atom_site_fract_y
_atom_site_fract_z
Si Si1 0.013676 0.710418 0.979911
Si Si2 0.782258 0.873080 0.199268
Si Si3 0.235259 0.478603 0.886061
Si Si4 0.965806 0.503460 0.816965
Si Si5 0.393702 0.738858 0.937167
Si Si6 0.137646 0.680928 0.243120
Si Si7 0.656732 0.436783 0.652203
O O1 0.231955 0.699165 0.922790
O O2 0.014280 0.737122 0.852272
O O3 0.926536 0.797072 0.087303
O O4 0.880052 0.621582 0.062300
O O5 0.591837 0.815188 0.321471
O O6 0.886080 0.928375 0.255687
O O7 0.748997 0.955749 0.118668
O O8 0.450715 0.461805 0.780285
O O9 0.144202 0.531336 0.818472
O O10 0.198909 0.512644 0.024441
O O11 0.998575 0.397189 0.755117
O O12 0.381853 0.856309 0.925921
O O13 0.304167 0.715512 0.092990
O O14 0.233927 0.623255 0.301693
#
# Coordination Sequence:
#
# PCOD9248579 Si02
#       7
#     4   4   4   4   4   4   4
#     4  11  25  42  70  99 144 177 229 293 346 411
#     4  11  24  47  72 100 137 190 227 290 354 410
#     4  11  21  42  64 109 133 183 228 295 335 417
#     4  10  23  38  70  97 136 177 232 280 345 416
#     4  11  22  43  70 102 135 181 237 278 342 417
#     4  10  22  43  64  99 135 182 227 279 351 413
#     4  10  23  41  72  98 139 176 236 283 341 412
#
# _framework density 23.351157000000001
#
# number of rings (size 3 to 8) (size 9 to 14) (size 15 to 20)
#    0.000    1.429    2.857    1.714    4.000    7.429 
#    2.571    0.000    0.000    7.714    0.000    0.000 
#    0.000    0.000    0.000    0.000    0.000    0.000 
#
# Total GULP energy -156174.859157 kJ/mol
# GULP energy per Si atom -5577.673541 kJ/mol
# Density = 2.329801 g / cm^3
# Si number density = 23.351157 Si / 1000 Ang^3
#
#
#
# Elastic Constant Matrix: (Units=GPa)
#
#
# Indices 1 2 3 4 5 6 
#
# 1 34.7735 11.2112 5.8937 0.0000 -2.9605 0.0000
# 2 11.2112 116.2021 28.6134 0.0000 17.7740 0.0000
# 3 5.8937 28.6134 82.8025 0.0000 11.4962 0.0000
# 4 0.0000 0.0000 0.0000 46.0091 0.0000 -3.4635
# 5 -2.9605 17.7740 11.4962 0.0000 22.5119 0.0000
# 6 0.0000 0.0000 0.0000 -3.4635 0.0000 47.0776
#
#
#
# Elastic Compliance Matrix: (Units=1/GPa)
#
#
# Indices 1 2 3 4 5 6 
#
# 1 0.030988 -0.003720 -0.002038 0.000000 0.008053 0.000000
# 2 -0.003720 0.010734 -0.002368 0.000000 -0.007755 0.000000
# 3 -0.002038 -0.002368 0.013796 0.000000 -0.005444 0.000000
# 4 0.000000 0.000000 0.000000 0.021856 0.000000 0.001608
# 5 0.008053 -0.007755 -0.005444 0.000000 0.054383 0.000000
# 6 0.000000 0.000000 0.000000 0.001608 0.000000 0.021360
#
#
# Mechanical properties :
#
#
# Convention : Reuss Voigt Hill
#
# Bulk Modulus (GPa) = 25.46712 36.13497 30.80105
# Shear Modulus (GPa) = 27.40385 35.65702 31.53044
#
# Velocity S-wave (km/s) = 3.42943 3.91191 3.67859
# Velocity P-wave (km/s) = 5.15860 5.99269 5.59122
#
# Compressibility (1/GPa) = 0.03926631
#
# Stress axis : x y z
#
# Youngs Moduli (GPa) = 32.27074 93.16416 72.48455
#
# Poissons Ratio (x) = 0.34653 0.14775
# Poissons Ratio (y) = 0.12003 0.17163
# Poissons Ratio (z) = 0.06578 0.22059
#
# Static dielectric constant tensor:
#      x y z
#    x 1.864710 0.000000 0.049330 
#    y 0.000000 2.076270 0.000000 
#    z 0.049330 0.000000 1.865800 
# 
# From -- ./inp_files/25130.got.cif
#   From: 2010.05.17/outbox.cif.g08.bks.cpg/sg14_13_cif.got.tgz:25130.got - 2010.06.03 17:49:19.
