data_PCOD9248355
_publ_section_title
;
Structure prediction by ZEFSAII (Michael W. Deem and Ramdas Pophale) SiO2 
 PCOD9248355
Probable space group: P 21/C
;
_chemical_formula_sum "Si O2"
_cell_formula_units_Z 24
_cell_length_a 8.364947
_cell_length_b 8.154651
_cell_length_c 17.597589
_cell_angle_alpha 90.000000
_cell_angle_beta 68.314709
_cell_angle_gamma 90.000000
_cell_volume 1115.433746
_symmetry_space_group_name_H-M "P 21/C"
_symmetry_group_IT_number 14
_symmetry_cell_setting 'monoclinic'
loop_
_space_group_symop_operation_xyz
x,y,z
-x,1/2+y,1/2-z
-x,-y,-z
x,1/2-y,1/2+z
loop_
_atom_site_type_symbol
_atom_site_label
_atom_site_fract_x
_atom_site_fract_y
_atom_site_fract_z
Si Si1 0.816469 0.200869 0.095626
Si Si2 0.474159 0.858179 0.066101
Si Si3 0.998124 0.130537 0.345976
Si Si4 0.212822 0.658518 0.738270
Si Si5 0.314981 0.924019 0.509884
Si Si6 0.171110 0.329219 0.452165
O O1 0.766997 0.226139 0.191540
O O2 0.770063 0.017103 0.074978
O O3 0.734388 0.358265 0.065534
O O4 0.020538 0.189222 0.040485
O O5 0.386706 0.888730 0.162790
O O6 0.333424 0.750996 0.048313
O O7 0.650786 0.757000 0.048588
O O8 0.500000 0.000000 0.000000
O O9 0.913274 0.245002 0.296819
O O10 0.856869 0.018465 0.416214
O O11 0.095653 0.241988 0.391169
O O12 0.126316 0.006621 0.282943
O O13 0.500000 0.000000 0.500000
#
# Coordination Sequence:
#
# PCOD9248355 Si02
#       6
#     4   4   4   4   4   4
#     4  10  22  42  66  93 129 172 215 270 326 402
#     4  11  24  43  64  94 129 175 220 262 336 403
#     4  10  24  42  64  95 129 178 212 277 334 394
#     4  11  25  42  63  97 131 165 230 269 327 399
#     4  10  23  41  63  95 131 168 218 268 331 400
#     4  10  22  42  69  92 129 173 214 264 344 400
#
# _framework density 21.516293999999998
#
# number of rings (size 3 to 8) (size 9 to 14) (size 15 to 20)
#    0.000    1.667    1.667    1.000    9.333    2.667 
#    6.000    0.000    0.000    0.000    0.000    0.000 
#    0.000    0.000    0.000    0.000    0.000    0.000 
#
# Total GULP energy -133671.278128 kJ/mol
# GULP energy per Si atom -5569.636589 kJ/mol
# Density = 2.146732 g / cm^3
# Si number density = 21.516294 Si / 1000 Ang^3
#
#
#
# Elastic Constant Matrix: (Units=GPa)
#
#
# Indices 1 2 3 4 5 6 
#
# 1 104.8914 7.7887 47.3265 0.0000 3.5209 0.0000
# 2 7.7887 48.2886 21.2463 0.0000 -2.0554 0.0000
# 3 47.3265 21.2463 133.9757 0.0000 -3.5317 0.0000
# 4 0.0000 0.0000 0.0000 25.3399 0.0000 5.1655
# 5 3.5209 -2.0554 -3.5317 0.0000 35.3313 0.0000
# 6 0.0000 0.0000 0.0000 5.1655 0.0000 44.3989
#
#
#
# Elastic Compliance Matrix: (Units=1/GPa)
#
#
# Indices 1 2 3 4 5 6 
#
# 1 0.011426 -0.000124 -0.004057 0.000000 -0.001551 0.000000
# 2 -0.000124 0.022295 -0.003467 0.000000 0.000963 0.000000
# 3 -0.004057 -0.003467 0.009477 0.000000 0.001150 0.000000
# 4 0.000000 0.000000 0.000000 0.040422 0.000000 -0.004703
# 5 -0.001551 0.000963 0.001150 0.000000 0.028629 0.000000
# 6 0.000000 0.000000 0.000000 -0.004703 0.000000 0.023070
#
#
# Mechanical properties :
#
#
# Convention : Reuss Voigt Hill
#
# Bulk Modulus (GPa) = 35.83885 48.87543 42.35714
# Shear Modulus (GPa) = 31.26655 35.06698 33.16677
#
# Velocity S-wave (km/s) = 3.81617 4.04144 3.93042
# Velocity P-wave (km/s) = 6.00918 6.67402 6.35031
#
# Compressibility (1/GPa) = 0.02790268
#
# Stress axis : x y z
#
# Youngs Moduli (GPa) = 87.52293 44.85319 105.51511
#
# Poissons Ratio (x) = 0.00555 0.42811
# Poissons Ratio (y) = 0.01083 0.36577
# Poissons Ratio (z) = 0.35511 0.15548
#
# Static dielectric constant tensor:
#      x y z
#    x 1.789870 0.000000 -0.031780 
#    y 0.000000 1.940180 0.000000 
#    z -0.031780 0.000000 1.855870 
# 
# From -- ./inp_files/54482.got.cif
#   From: 2010.05.17/outbox.cif.g08.bks.cpg/sg14_28_cif.got.tgz:54482.got - 2010.06.03 17:49:19.
