data_PCOD9248724
_publ_section_title
;
Structure prediction by ZEFSAII (Michael W. Deem and Ramdas Pophale) SiO2 
 PCOD9248724
Probable space group: P 21/C
;
_chemical_formula_sum "Si O2"
_cell_formula_units_Z 24
_cell_length_a 9.155612
_cell_length_b 10.070562
_cell_length_c 10.617268
_cell_angle_alpha 90.000000
_cell_angle_beta 109.401873
_cell_angle_gamma 90.000000
_cell_volume 923.343066
_symmetry_space_group_name_H-M "P 21/C"
_symmetry_group_IT_number 14
_symmetry_cell_setting 'monoclinic'
loop_
_space_group_symop_operation_xyz
x,y,z
-x,1/2+y,1/2-z
-x,-y,-z
x,1/2-y,1/2+z
loop_
_atom_site_type_symbol
_atom_site_label
_atom_site_fract_x
_atom_site_fract_y
_atom_site_fract_z
Si Si1 0.829083 0.139197 0.739369
Si Si2 0.680286 0.521432 0.595717
Si Si3 0.323527 0.495787 0.996920
Si Si4 0.061540 0.843214 0.946614
Si Si5 0.729523 0.737221 0.811434
Si Si6 0.394165 0.816939 0.719471
O O1 0.801405 0.005492 0.651031
O O2 0.656830 0.176422 0.740952
O O3 0.893649 0.237104 0.650690
O O4 0.918364 0.163919 0.895346
O O5 0.500000 0.500000 0.500000
O O6 0.820453 0.465193 0.551543
O O7 0.714401 0.663347 0.670703
O O8 0.683885 0.421812 0.713164
O O9 0.500000 0.500000 0.000000
O O10 0.284932 0.376894 0.082894
O O11 0.324090 0.640261 0.067216
O O12 0.877607 0.826678 0.877271
O O13 0.576468 0.825685 0.776454
#
# Coordination Sequence:
#
# PCOD9248724 Si02
#       6
#     4   4   4   4   4   4
#     4  11  22  46  70 101 146 197 250 304 382 463
#     4  10  24  46  79 109 146 206 270 309 378 481
#     4  11  23  41  76 107 138 200 266 310 377 475
#     4  11  26  46  74 108 159 200 246 325 392 450
#     4  11  25  47  73 110 154 196 252 331 391 452
#     4  10  22  43  71 106 142 194 257 318 378 459
#
# _framework density 25.992505999999999
#
# number of rings (size 3 to 8) (size 9 to 14) (size 15 to 20)
#    0.000    1.333    3.333    1.000    4.667    3.333 
#    3.000    1.667    0.000    0.000    0.000    0.000 
#    0.000    0.000    0.000    0.000    0.000    0.000 
#
# Total GULP energy -133789.783793 kJ/mol
# GULP energy per Si atom -5574.574325 kJ/mol
# Density = 2.593335 g / cm^3
# Si number density = 25.992506 Si / 1000 Ang^3
#
#
#
# Elastic Constant Matrix: (Units=GPa)
#
#
# Indices 1 2 3 4 5 6 
#
# 1 140.7664 36.4149 75.1170 0.0000 24.0856 0.0000
# 2 36.4149 63.0991 61.5769 0.0000 -9.6820 0.0000
# 3 75.1170 61.5769 208.4840 0.0000 1.1851 0.0000
# 4 0.0000 0.0000 0.0000 50.2286 0.0000 -8.3887
# 5 24.0856 -9.6820 1.1851 0.0000 40.4442 0.0000
# 6 0.0000 0.0000 0.0000 -8.3887 0.0000 31.0489
#
#
#
# Elastic Compliance Matrix: (Units=1/GPa)
#
#
# Indices 1 2 3 4 5 6 
#
# 1 0.011070 -0.005244 -0.002395 0.000000 -0.007777 0.000000
# 2 -0.005244 0.026056 -0.005861 0.000000 0.009532 0.000000
# 3 -0.002395 -0.005861 0.007392 0.000000 -0.000193 0.000000
# 4 0.000000 0.000000 0.000000 0.020850 0.000000 0.005633
# 5 -0.007777 0.009532 -0.000193 0.000000 0.031645 0.000000
# 6 0.000000 0.000000 0.000000 0.005633 0.000000 0.033729
#
#
# Mechanical properties :
#
#
# Convention : Reuss Voigt Hill
#
# Bulk Modulus (GPa) = 57.08593 84.28525 70.68559
# Shear Modulus (GPa) = 30.56599 40.29372 35.42986
#
# Velocity S-wave (km/s) = 3.43294 3.94154 3.69600
# Velocity P-wave (km/s) = 6.14195 7.29462 6.74296
#
# Compressibility (1/GPa) = 0.01751745
#
# Stress axis : x y z
#
# Youngs Moduli (GPa) = 90.33832 38.37819 135.28863
#
# Poissons Ratio (x) = 0.20126 0.32405
# Poissons Ratio (y) = 0.47375 0.79287
# Poissons Ratio (z) = 0.21638 0.22492
#
# Static dielectric constant tensor:
#      x y z
#    x 2.069990 0.000000 -0.041840 
#    y 0.000000 2.208870 0.000000 
#    z -0.041840 0.000000 2.107040 
# 
# From -- ./inp_files/24246.got.cif
#   From: 2010.05.17/outbox.cif.g08.bks.cpg/sg14_13_cif.got.tgz:24246.got - 2010.06.03 17:49:19.
