data_PCOD9248568
_publ_section_title
;
Structure prediction by ZEFSAII (Michael W. Deem and Ramdas Pophale) SiO2 
 PCOD9248568
Probable space group: P 21/C
;
_chemical_formula_sum "Si O2"
_cell_formula_units_Z 32
_cell_length_a 21.065874
_cell_length_b 12.756939
_cell_length_c 12.359316
_cell_angle_alpha 90.000000
_cell_angle_beta 150.298615
_cell_angle_gamma 90.000000
_cell_volume 1645.683191
_symmetry_space_group_name_H-M "P 21/C"
_symmetry_group_IT_number 14
_symmetry_cell_setting 'monoclinic'
loop_
_space_group_symop_operation_xyz
x,y,z
-x,1/2+y,1/2-z
-x,-y,-z
x,1/2-y,1/2+z
loop_
_atom_site_type_symbol
_atom_site_label
_atom_site_fract_x
_atom_site_fract_y
_atom_site_fract_z
Si Si1 0.443453 0.426940 0.327337
Si Si2 0.191308 0.131237 0.555680
Si Si3 0.943112 0.034214 0.800853
Si Si4 0.687708 0.390137 0.008442
Si Si5 0.621543 0.148982 0.921265
Si Si6 0.163328 0.365608 0.483541
Si Si7 0.152838 0.025705 0.734352
Si Si8 0.407285 0.462122 0.955801
O O1 0.500000 0.500000 0.500000
O O2 0.334697 0.357830 0.221394
O O3 0.558127 0.362190 0.445274
O O4 0.381221 0.514473 0.156782
O O5 0.130688 0.244506 0.452792
O O6 0.188010 0.084399 0.672834
O O7 0.122740 0.055106 0.368940
O O8 0.830535 0.111915 0.671728
O O9 0.052980 0.075507 0.885662
O O10 0.000000 0.000000 0.000000
O O11 0.663904 0.437907 0.093169
O O12 0.639521 0.271762 0.925078
O O13 0.506455 0.101746 0.678241
O O14 0.749721 0.074878 0.107665
O O15 0.170208 0.403549 0.368601
O O16 0.295900 0.391239 0.740543
O O17 0.000000 0.000000 0.500000
O O18 0.500000 0.500000 0.000000
#
# Coordination Sequence:
#
# PCOD9248568 Si02
#       8
#     4   4   4   4   4   4   4   4
#     4  10  22  43  63  98 137 170 230 283 336 419
#     4  11  27  44  72 102 139 186 228 291 356 408
#     4  11  24  49  67 103 145 179 239 285 338 428
#     4  10  25  41  69  98 135 184 225 285 351 408
#     4  11  25  42  74  98 141 184 227 291 352 415
#     4  12  27  44  77 100 141 189 228 291 352 416
#     4  12  26  48  66 106 146 175 240 287 338 421
#     4  11  24  45  64 103 142 174 236 288 341 421
#
# _framework density 19.444811999999999
#
# number of rings (size 3 to 8) (size 9 to 14) (size 15 to 20)
#    0.000    1.000    5.000    0.000    7.000    0.000 
#    0.000    0.000    0.000    0.000    0.000    0.000 
#    0.000    0.000    0.000    0.000    0.000    0.000 
#
# Total GULP energy -178285.930209 kJ/mol
# GULP energy per Si atom -5571.435319 kJ/mol
# Density = 1.940055 g / cm^3
# Si number density = 19.444812 Si / 1000 Ang^3
#
#
#
# Elastic Constant Matrix: (Units=GPa)
#
#
# Indices 1 2 3 4 5 6 
#
# 1 123.4539 43.0221 35.7928 0.0000 1.2811 0.0000
# 2 43.0221 97.5568 30.1356 0.0000 3.4672 0.0000
# 3 35.7928 30.1356 92.0720 0.0000 8.3050 0.0000
# 4 0.0000 0.0000 0.0000 15.8354 0.0000 7.8908
# 5 1.2811 3.4672 8.3050 0.0000 38.6784 0.0000
# 6 0.0000 0.0000 0.0000 7.8908 0.0000 19.7214
#
#
#
# Elastic Compliance Matrix: (Units=1/GPa)
#
#
# Indices 1 2 3 4 5 6 
#
# 1 0.010180 -0.003639 -0.002820 0.000000 0.000595 0.000000
# 2 -0.003639 0.012706 -0.002705 0.000000 -0.000438 0.000000
# 3 -0.002820 -0.002705 0.013065 0.000000 -0.002470 0.000000
# 4 0.000000 0.000000 0.000000 0.078876 0.000000 -0.031559
# 5 0.000595 -0.000438 -0.002470 0.000000 0.026404 0.000000
# 6 0.000000 0.000000 0.000000 -0.031559 0.000000 0.063334
#
#
# Mechanical properties :
#
#
# Convention : Reuss Voigt Hill
#
# Bulk Modulus (GPa) = 56.74104 58.99820 57.86962
# Shear Modulus (GPa) = 21.85629 28.45585 25.15607
#
# Velocity S-wave (km/s) = 3.35627 3.82961 3.60073
# Velocity P-wave (km/s) = 6.65307 7.06837 6.86386
#
# Compressibility (1/GPa) = 0.01762393
#
# Stress axis : x y z
#
# Youngs Moduli (GPa) = 98.23345 78.70063 76.53893
#
# Poissons Ratio (x) = 0.28642 0.21583
# Poissons Ratio (y) = 0.35750 0.20701
# Poissons Ratio (z) = 0.27700 0.21285
#
# Static dielectric constant tensor:
#      x y z
#    x 1.699020 0.000000 -0.021460 
#    y 0.000000 1.664880 0.000000 
#    z -0.021460 0.000000 1.645400 
# 
# From -- ./inp_files/35271.got.cif
#   From: 2010.05.17/outbox.cif.g08.bks.cpg/sg14_18_cif.got.tgz:35271.got - 2010.06.03 17:49:19.
