data_PCOD9248958
_publ_section_title
;
Structure prediction by ZEFSAII (Michael W. Deem and Ramdas Pophale) SiO2 
 PCOD9248958
Probable space group: P 21/C
;
_chemical_formula_sum "Si O2"
_cell_formula_units_Z 32
_cell_length_a 17.418692
_cell_length_b 12.978192
_cell_length_c 11.681836
_cell_angle_alpha 90.000000
_cell_angle_beta 141.523833
_cell_angle_gamma 90.000000
_cell_volume 1643.096991
_symmetry_space_group_name_H-M "P 21/C"
_symmetry_group_IT_number 14
_symmetry_cell_setting 'monoclinic'
loop_
_space_group_symop_operation_xyz
x,y,z
-x,1/2+y,1/2-z
-x,-y,-z
x,1/2-y,1/2+z
loop_
_atom_site_type_symbol
_atom_site_label
_atom_site_fract_x
_atom_site_fract_y
_atom_site_fract_z
Si Si1 0.803345 0.961440 0.806239
Si Si2 0.945599 0.138162 0.841122
Si Si3 0.124304 0.876304 0.721411
Si Si4 0.433998 0.358389 0.087934
Si Si5 0.445433 0.382118 0.571109
Si Si6 0.648013 0.546784 0.782924
Si Si7 0.678582 0.022643 0.893048
Si Si8 0.086999 0.972743 0.431577
O O1 0.684771 0.907940 0.611630
O O2 0.847936 0.063240 0.790653
O O3 0.766457 0.991997 0.891899
O O4 0.921330 0.885818 0.947506
O O5 0.908792 0.256726 0.807474
O O6 0.951595 0.101928 0.716232
O O7 0.126053 0.910330 0.590863
O O8 0.250185 0.903875 0.934250
O O9 0.020146 0.948101 0.658763
O O10 0.451275 0.239783 0.078874
O O11 0.410638 0.373692 0.196189
O O12 0.557732 0.420760 0.203709
O O13 0.578006 0.438943 0.726181
O O14 0.379972 0.420265 0.378799
O O15 0.368721 0.425104 0.589243
O O16 0.792893 0.535050 0.968837
#
# Coordination Sequence:
#
# PCOD9248958 Si02
#       8
#     4   4   4   4   4   4   4   4
#     4  11  25  46  61  99 134 167 216 269 317 390
#     4  11  26  43  70  93 134 173 213 269 324 385
#     4  11  26  41  70  99 126 176 214 267 331 377
#     4  11  25  40  69  94 128 178 211 262 332 380
#     4  10  24  42  66  95 128 172 214 271 318 383
#     4  10  22  45  64  93 131 165 221 272 314 384
#     4  11  24  45  62  98 135 162 218 270 312 393
#     4  11  23  46  65  97 131 166 224 270 313 393
#
# _framework density 19.475417
#
# number of rings (size 3 to 8) (size 9 to 14) (size 15 to 20)
#    0.000    1.250    3.750    0.375    7.000    0.000 
#    0.000    0.000    0.000    0.000    0.000    0.000 
#    0.000    0.000    0.000    0.000    0.000    0.000 
#
# Total GULP energy -178878.116470 kJ/mol
# GULP energy per Si atom -5589.941140 kJ/mol
# Density = 1.943109 g / cm^3
# Si number density = 19.475417 Si / 1000 Ang^3
#
#
#
# Elastic Constant Matrix: (Units=GPa)
#
#
# Indices 1 2 3 4 5 6 
#
# 1 69.7424 5.4136 0.1881 0.0000 -10.5468 0.0000
# 2 5.4136 66.7923 6.2597 0.0000 -6.4609 0.0000
# 3 0.1881 6.2597 75.7434 0.0000 8.1908 0.0000
# 4 0.0000 0.0000 0.0000 8.7161 0.0000 -6.5961
# 5 -10.5468 -6.4609 8.1908 0.0000 31.4460 0.0000
# 6 0.0000 0.0000 0.0000 -6.5961 0.0000 10.5702
#
#
#
# Elastic Compliance Matrix: (Units=1/GPa)
#
#
# Indices 1 2 3 4 5 6 
#
# 1 0.015162 -0.000688 -0.000530 0.000000 0.005082 0.000000
# 2 -0.000688 0.015509 -0.001646 0.000000 0.003385 0.000000
# 3 -0.000530 -0.001646 0.013784 0.000000 -0.004106 0.000000
# 4 0.000000 0.000000 0.000000 0.217396 0.000000 0.135662
# 5 0.005082 0.003385 -0.004106 0.000000 0.035270 0.000000
# 6 0.000000 0.000000 0.000000 0.135662 0.000000 0.179264
#
#
# Mechanical properties :
#
#
# Convention : Reuss Voigt Hill
#
# Bulk Modulus (GPa) = 25.82187 26.22231 26.02209
# Shear Modulus (GPa) = 10.10056 23.50756 16.80406
#
# Velocity S-wave (km/s) = 2.27982 3.47801 2.94059
# Velocity P-wave (km/s) = 4.49640 5.44264 4.99199
#
# Compressibility (1/GPa) = 0.03872686
#
# Stress axis : x y z
#
# Youngs Moduli (GPa) = 65.95513 64.47796 72.54844
#
# Poissons Ratio (x) = 0.04433 0.03848
# Poissons Ratio (y) = 0.04535 0.11942
# Poissons Ratio (z) = 0.03498 0.10613
#
# Static dielectric constant tensor:
#      x y z
#    x 1.669950 0.000000 -0.006630 
#    y 0.000000 1.623920 0.000000 
#    z -0.006630 0.000000 1.689080 
# 
# From -- ./inp_files/33941.got.cif
#   From: 2010.05.17/outbox.cif.g08.bks.cpg/sg14_17_cif.got.tgz:33941.got - 2010.06.03 17:49:19.
