data_PCOD9248830
_publ_section_title
;
Structure prediction by ZEFSAII (Michael W. Deem and Ramdas Pophale) SiO2 
 PCOD9248830
Probable space group: P 21/C
;
_chemical_formula_sum "Si O2"
_cell_formula_units_Z 30
_cell_length_a 14.890604
_cell_length_b 8.944999
_cell_length_c 10.662509
_cell_angle_alpha 90.000000
_cell_angle_beta 69.728860
_cell_angle_gamma 90.000000
_cell_volume 1332.245588
_symmetry_space_group_name_H-M "P 21/C"
_symmetry_group_IT_number 14
_symmetry_cell_setting 'monoclinic'
loop_
_space_group_symop_operation_xyz
x,y,z
-x,1/2+y,1/2-z
-x,-y,-z
x,1/2-y,1/2+z
loop_
_atom_site_type_symbol
_atom_site_label
_atom_site_fract_x
_atom_site_fract_y
_atom_site_fract_z
Si Si1 0.547885 0.048094 0.347899
Si Si2 0.000000 0.000000 0.500000
Si Si3 0.943260 0.510985 0.398450
Si Si4 0.384286 0.260619 0.338543
Si Si5 0.227044 0.029676 0.344329
Si Si6 0.273952 0.709861 0.321878
Si Si7 0.075991 0.753074 0.775011
Si Si8 0.260455 0.040706 0.037365
O O1 0.467505 0.140613 0.312295
O O2 0.638284 0.160759 0.308857
O O3 0.500000 0.000000 0.500000
O O4 0.582441 0.895937 0.265204
O O5 0.977853 0.153880 0.594460
O O6 0.116416 0.039745 0.433936
O O7 0.919576 0.350006 0.350459
O O8 0.843314 0.596376 0.460523
O O9 0.000000 0.500000 0.500000
O O10 0.012224 0.602638 0.271529
O O11 0.290005 0.173738 0.340467
O O12 0.347056 0.342963 0.482915
O O13 0.273282 0.877748 0.376395
O O14 0.239505 0.001385 0.189864
O O15 0.175373 0.695440 0.290042
O O16 0.280362 0.597727 0.436115
#
# Coordination Sequence:
#
# PCOD9248830 Si02
#       8
#     4   2   4   4   4   4   4   4
#     4  11  25  48  72 105 136 184 237 304 366 436
#     4  10  22  44  68 100 144 186 244 274 352 422
#     4  12  25  43  70 100 145 187 246 288 359 428
#     4  11  25  45  72 107 142 178 244 296 366 441
#     4  11  23  45  69 103 143 190 230 296 357 428
#     4  10  23  45  69  95 139 184 242 286 363 425
#     4  11  25  43  66 103 140 193 237 300 348 432
#     4  11  23  45  68 100 141 187 234 298 358 428
#
# _framework density 22.518367999999999
#
# number of rings (size 3 to 8) (size 9 to 14) (size 15 to 20)
#    0.000    1.067    4.000    2.400    1.867    4.267 
#    4.800    4.667    0.000    0.000    0.000    0.000 
#    0.000    0.000    0.000    0.000    0.000    0.000 
#
# Total GULP energy -167161.585778 kJ/mol
# GULP energy per Si atom -5572.052859 kJ/mol
# Density = 2.246712 g / cm^3
# Si number density = 22.518368 Si / 1000 Ang^3
#
#
#
# Elastic Constant Matrix: (Units=GPa)
#
#
# Indices 1 2 3 4 5 6 
#
# 1 99.1074 68.2550 46.9720 0.0000 -34.1869 0.0000
# 2 68.2550 102.2301 30.1311 0.0000 -15.9492 0.0000
# 3 46.9720 30.1311 83.6980 0.0000 -31.5526 0.0000
# 4 0.0000 0.0000 0.0000 35.6145 0.0000 -10.3165
# 5 -34.1869 -15.9492 -31.5526 0.0000 42.1951 0.0000
# 6 0.0000 0.0000 0.0000 -10.3165 0.0000 48.1433
#
#
#
# Elastic Compliance Matrix: (Units=1/GPa)
#
#
# Indices 1 2 3 4 5 6 
#
# 1 0.026687 -0.014375 -0.005151 0.000000 0.012336 0.000000
# 2 -0.014375 0.018770 -0.000565 0.000000 -0.004974 0.000000
# 3 -0.005151 -0.000565 0.018644 0.000000 0.009554 0.000000
# 4 0.000000 0.000000 0.000000 0.029937 0.000000 0.006415
# 5 0.012336 -0.004974 0.009554 0.000000 0.038959 0.000000
# 6 0.000000 0.000000 0.000000 0.006415 0.000000 0.022146
#
#
# Mechanical properties :
#
#
# Convention : Reuss Voigt Hill
#
# Bulk Modulus (GPa) = 41.80960 63.97243 52.89101
# Shear Modulus (GPa) = 24.59452 34.50242 29.54847
#
# Velocity S-wave (km/s) = 3.30843 3.91857 3.62635
# Velocity P-wave (km/s) = 5.76207 6.99601 6.40881
#
# Compressibility (1/GPa) = 0.02391795
#
# Stress axis : x y z
#
# Youngs Moduli (GPa) = 37.47158 53.27695 53.63671
#
# Poissons Ratio (x) = 0.76585 0.27631
# Poissons Ratio (y) = 0.53865 0.03031
# Poissons Ratio (z) = 0.19303 0.03011
#
# Static dielectric constant tensor:
#      x y z
#    x 1.850100 0.000000 0.003630 
#    y 0.000000 1.887560 0.000000 
#    z 0.003630 0.000000 1.881970 
# 
# From -- ./inp_files/31803.got.cif
#   From: 2010.05.17/outbox.cif.g08.bks.cpg/sg14_16_cif.got.tgz:31803.got - 2010.06.03 17:49:19.
