data_PCOD9248976
_publ_section_title
;
Structure prediction by ZEFSAII (Michael W. Deem and Ramdas Pophale) SiO2 
 PCOD9248976
Probable space group: P 21/C
;
_chemical_formula_sum "Si O2"
_cell_formula_units_Z 32
_cell_length_a 5.574158
_cell_length_b 24.923298
_cell_length_c 11.070052
_cell_angle_alpha 90.000000
_cell_angle_beta 118.005449
_cell_angle_gamma 90.000000
_cell_volume 1357.836282
_symmetry_space_group_name_H-M "P 21/C"
_symmetry_group_IT_number 14
_symmetry_cell_setting 'monoclinic'
loop_
_space_group_symop_operation_xyz
x,y,z
-x,1/2+y,1/2-z
-x,-y,-z
x,1/2-y,1/2+z
loop_
_atom_site_type_symbol
_atom_site_label
_atom_site_fract_x
_atom_site_fract_y
_atom_site_fract_z
Si Si1 0.677078 0.099401 0.000593
Si Si2 0.706417 0.434985 0.783852
Si Si3 0.893463 0.792511 0.638119
Si Si4 0.322196 0.964764 0.231109
Si Si5 0.065345 0.397145 0.262859
Si Si6 0.972092 0.820567 0.039915
Si Si7 0.494769 0.175552 0.244770
Si Si8 0.196155 0.101512 0.531607
O O1 0.784247 0.057661 0.923666
O O2 0.804906 0.157878 0.002338
O O3 0.366675 0.099936 0.886280
O O4 0.735710 0.079062 0.148565
O O5 0.490778 0.481840 0.752056
O O6 0.580657 0.381942 0.818278
O O7 0.002447 0.439644 0.913957
O O8 0.900397 0.740052 0.556264
O O9 0.219550 0.800207 0.732688
O O10 0.784044 0.845144 0.543287
O O11 0.695598 0.789958 0.708953
O O12 0.056935 0.956682 0.249828
O O13 0.530935 0.925840 0.354059
O O14 0.939693 0.350885 0.317022
O O15 0.053072 0.381242 0.122343
O O16 0.695197 0.839793 0.912185
#
# Coordination Sequence:
#
# PCOD9248976 Si02
#       8
#     4   4   4   4   4   4   4   4
#     4  10  22  45  67 105 137 184 247 300 353 448
#     4  11  22  45  70 101 148 191 247 308 366 429
#     4  11  28  44  75 102 143 187 242 301 368 430
#     4  10  23  42  71 101 143 200 238 305 376 429
#     4  10  23  43  63 103 140 177 243 291 360 439
#     4  11  24  44  75  94 143 189 231 301 373 422
#     4  11  26  47  67 112 136 183 249 299 350 444
#     4  10  24  44  64 104 143 186 249 301 354 452
#
# _framework density 23.566907
#
# number of rings (size 3 to 8) (size 9 to 14) (size 15 to 20)
#    0.000    1.500    1.250    2.250    7.000    3.000 
#   13.500    0.000    0.000    0.000    0.000    0.000 
#    0.000    0.000    0.000    0.000    0.000    0.000 
#
# Total GULP energy -178512.145353 kJ/mol
# GULP energy per Si atom -5578.504542 kJ/mol
# Density = 2.351327 g / cm^3
# Si number density = 23.566907 Si / 1000 Ang^3
#
#
#
# Elastic Constant Matrix: (Units=GPa)
#
#
# Indices 1 2 3 4 5 6 
#
# 1 85.8917 10.4765 37.4495 0.0000 6.2443 0.0000
# 2 10.4765 38.9771 -4.3016 0.0000 6.5330 0.0000
# 3 37.4495 -4.3016 133.0023 0.0000 1.1680 0.0000
# 4 0.0000 0.0000 0.0000 21.9786 0.0000 -9.3384
# 5 6.2443 6.5330 1.1680 0.0000 19.5338 0.0000
# 6 0.0000 0.0000 0.0000 -9.3384 0.0000 22.7060
#
#
#
# Elastic Compliance Matrix: (Units=1/GPa)
#
#
# Indices 1 2 3 4 5 6 
#
# 1 0.014087 -0.003730 -0.004061 0.000000 -0.003013 0.000000
# 2 -0.003730 0.028290 0.002039 0.000000 -0.008391 0.000000
# 3 -0.004061 0.002039 0.008727 0.000000 0.000094 0.000000
# 4 0.000000 0.000000 0.000000 0.055133 0.000000 0.022675
# 5 -0.003013 -0.008391 0.000094 0.000000 0.054957 0.000000
# 6 0.000000 0.000000 0.000000 0.022675 0.000000 0.053367
#
#
# Mechanical properties :
#
#
# Convention : Reuss Voigt Hill
#
# Bulk Modulus (GPa) = 25.25169 38.34667 31.79918
# Shear Modulus (GPa) = 20.89739 27.12678 24.01209
#
# Velocity S-wave (km/s) = 2.98103 3.39640 3.19547
# Velocity P-wave (km/s) = 4.75256 5.62916 5.20933
#
# Compressibility (1/GPa) = 0.03960132
#
# Stress axis : x y z
#
# Youngs Moduli (GPa) = 70.98749 35.34822 114.58513
#
# Poissons Ratio (x) = 0.13183 0.46529
# Poissons Ratio (y) = 0.26475 -0.23361
# Poissons Ratio (z) = 0.28825 -0.07207
#
# Static dielectric constant tensor:
#      x y z
#    x 2.068540 0.000000 -0.015660 
#    y 0.000000 1.984530 0.000000 
#    z -0.015660 0.000000 1.852500 
# 
# From -- ./inp_files/22298.got.cif
#   From: 2010.05.17/outbox.cif.g08.bks.cpg/sg14_12_cif.got.tgz:22298.got - 2010.06.03 17:49:19.
