data_PCOD9248117
_publ_section_title
;
Structure prediction by ZEFSAII (Michael W. Deem and Ramdas Pophale) SiO2 
 PCOD9248117
Probable space group: P 21/C
;
_chemical_formula_sum "Si O2"
_cell_formula_units_Z 16
_cell_length_a 4.773233
_cell_length_b 15.121555
_cell_length_c 8.756280
_cell_angle_alpha 90.000000
_cell_angle_beta 66.487995
_cell_angle_gamma 90.000000
_cell_volume 579.544698
_symmetry_space_group_name_H-M "P 21/C"
_symmetry_group_IT_number 14
_symmetry_cell_setting 'monoclinic'
loop_
_space_group_symop_operation_xyz
x,y,z
-x,1/2+y,1/2-z
-x,-y,-z
x,1/2-y,1/2+z
loop_
_atom_site_type_symbol
_atom_site_label
_atom_site_fract_x
_atom_site_fract_y
_atom_site_fract_z
Si Si1 0.725217 0.890433 0.475500
Si Si2 0.309356 0.781305 0.385200
Si Si3 0.450584 0.136562 0.953149
Si Si4 0.878747 0.525903 0.264350
O O1 0.403105 0.852246 0.495275
O O2 0.762617 0.926328 0.636847
O O3 0.974424 0.810459 0.402831
O O4 0.819947 0.970495 0.342417
O O5 0.372556 0.689317 0.452482
O O6 0.545206 0.799961 0.195337
O O7 0.645310 0.052746 0.856074
O O8 0.144482 0.095956 0.093495
#
# Coordination Sequence:
#
# PCOD9248117 Si02
#       4
#     4   4   4   4
#     4  10  23  44  66  92 126 165 208 258 312 370
#     4  11  24  42  65  92 127 166 208 257 311 371
#     4  10  22  41  65  94 127 166 209 257 311 371
#     4   9  21  41  66  94 126 164 209 258 312 370
#
# _framework density 27.607877999999999
#
# number of rings (size 3 to 8) (size 9 to 14) (size 15 to 20)
#    0.000    2.000    0.000    1.500    0.000   18.000 
#    0.000   10.000    0.000    0.000    0.000    0.000 
#    0.000    0.000    0.000    0.000    0.000    0.000 
#
# Total GULP energy -89709.364054 kJ/mol
# GULP energy per Si atom -5606.835253 kJ/mol
# Density = 2.754504 g / cm^3
# Si number density = 27.607878 Si / 1000 Ang^3
#
#
#
# Elastic Constant Matrix: (Units=GPa)
#
#
# Indices 1 2 3 4 5 6 
#
# 1 108.9181 32.3303 17.8091 0.0000 15.1249 0.0000
# 2 32.3303 94.9879 75.4062 0.0000 5.5223 0.0000
# 3 17.8091 75.4062 126.8740 0.0000 -2.0620 0.0000
# 4 0.0000 0.0000 0.0000 75.7879 0.0000 6.1777
# 5 15.1249 5.5223 -2.0620 0.0000 23.2069 0.0000
# 6 0.0000 0.0000 0.0000 6.1777 0.0000 34.5152
#
#
#
# Elastic Compliance Matrix: (Units=1/GPa)
#
#
# Indices 1 2 3 4 5 6 
#
# 1 0.011113 -0.003978 0.000703 0.000000 -0.006233 0.000000
# 2 -0.003978 0.022168 -0.012679 0.000000 -0.003809 0.000000
# 3 0.000703 -0.012679 0.015383 0.000000 0.003926 0.000000
# 4 0.000000 0.000000 0.000000 0.013390 0.000000 -0.002397
# 5 -0.006233 -0.003809 0.003926 0.000000 0.048408 0.000000
# 6 0.000000 0.000000 0.000000 -0.002397 0.000000 0.029402
#
#
# Mechanical properties :
#
#
# Convention : Reuss Voigt Hill
#
# Bulk Modulus (GPa) = 59.68148 64.65238 62.16693
# Shear Modulus (GPa) = 28.19170 40.38429 34.28799
#
# Velocity S-wave (km/s) = 3.19901 3.82878 3.52797
# Velocity P-wave (km/s) = 5.94217 6.55858 6.25797
#
# Compressibility (1/GPa) = 0.01675562
#
# Stress axis : x y z
#
# Youngs Moduli (GPa) = 89.98726 45.10921 65.00853
#
# Poissons Ratio (x) = 0.17945 -0.04572
# Poissons Ratio (y) = 0.35799 0.82425
# Poissons Ratio (z) = -0.06328 0.57194
#
# Static dielectric constant tensor:
#      x y z
#    x 2.065940 0.000000 -0.068560 
#    y 0.000000 2.184960 0.000000 
#    z -0.068560 0.000000 2.177530 
# 
# From -- ./inp_files/5103.got.cif
#   From: 2010.05.17/outbox.cif.g08.bks.cpg/sg14_3_cif.got.tgz:5103.got - 2010.06.03 17:49:19.
