data_PCOD9248380
_publ_section_title
;
Structure prediction by ZEFSAII (Michael W. Deem and Ramdas Pophale) SiO2 
 PCOD9248380
Probable space group: P 21/C
;
_chemical_formula_sum "Si O2"
_cell_formula_units_Z 30
_cell_length_a 21.362740
_cell_length_b 8.014628
_cell_length_c 9.071633
_cell_angle_alpha 90.000000
_cell_angle_beta 42.299472
_cell_angle_gamma 90.000000
_cell_volume 1045.308633
_symmetry_space_group_name_H-M "P 21/C"
_symmetry_group_IT_number 14
_symmetry_cell_setting 'monoclinic'
loop_
_space_group_symop_operation_xyz
x,y,z
-x,1/2+y,1/2-z
-x,-y,-z
x,1/2-y,1/2+z
loop_
_atom_site_type_symbol
_atom_site_label
_atom_site_fract_x
_atom_site_fract_y
_atom_site_fract_z
Si Si1 0.290879 0.246272 0.764110
Si Si2 0.936174 0.337141 0.768105
Si Si3 0.187097 0.761835 0.776573
Si Si4 0.000000 0.000000 0.500000
Si Si5 0.121664 0.077529 0.040189
Si Si6 0.393577 0.436585 0.810061
Si Si7 0.651504 0.454079 0.637208
Si Si8 0.465144 0.661291 0.901534
O O1 0.334267 0.410437 0.764573
O O2 0.349486 0.160279 0.530659
O O3 0.297440 0.119059 0.890886
O O4 0.185206 0.239137 0.897778
O O5 0.848801 0.349219 0.811211
O O6 0.973869 0.154664 0.660938
O O7 0.029970 0.441846 0.598574
O O8 0.896734 0.351277 0.005988
O O9 0.275391 0.647113 0.589427
O O10 0.186736 0.916829 0.890608
O O11 0.083412 0.104660 0.270347
O O12 0.486783 0.330101 0.632461
O O13 0.580244 0.380577 0.176923
O O14 0.550514 0.526184 0.760108
O O15 0.618502 0.361003 0.840519
#
# Coordination Sequence:
#
# PCOD9248380 Si02
#       8
#     4   4   4   2   4   4   4   4
#     4  10  23  41  65  97 143 179 234 288 355 418
#     4  11  23  42  67 102 139 192 237 287 353 420
#     4  11  23  42  68 102 138 182 244 289 351 424
#     4  10  22  42  68  92 132 192 220 288 350 404
#     4  11  24  42  70  98 144 187 237 293 349 417
#     4  10  22  42  67 103 134 189 233 286 361 428
#     4   9  19  41  67  98 135 188 226 291 358 424
#     4   9  20  40  71  99 141 180 230 292 364 430
#
# _framework density 28.699656000000001
#
# number of rings (size 3 to 8) (size 9 to 14) (size 15 to 20)
#    0.000    1.867    1.333    2.800    1.867    3.733 
#    0.000    4.000    0.000    0.000    0.000    0.000 
#    0.000    0.000    0.000    0.000    0.000    0.000 
#
# Total GULP energy -167277.151597 kJ/mol
# GULP energy per Si atom -5575.905053 kJ/mol
# Density = 2.863433 g / cm^3
# Si number density = 28.699656 Si / 1000 Ang^3
#
#
#
# Elastic Constant Matrix: (Units=GPa)
#
#
# Indices 1 2 3 4 5 6 
#
# 1 119.1517 21.6948 59.0855 0.0000 -1.5031 0.0000
# 2 21.6948 57.2096 55.0091 0.0000 -6.5809 0.0000
# 3 59.0855 55.0091 199.3222 0.0000 -9.7157 0.0000
# 4 0.0000 0.0000 0.0000 60.1188 0.0000 -3.2668
# 5 -1.5031 -6.5809 -9.7157 0.0000 43.4152 0.0000
# 6 0.0000 0.0000 0.0000 -3.2668 0.0000 34.0988
#
#
#
# Elastic Compliance Matrix: (Units=1/GPa)
#
#
# Indices 1 2 3 4 5 6 
#
# 1 0.009914 -0.001312 -0.002598 0.000000 -0.000437 0.000000
# 2 -0.001312 0.024169 -0.006172 0.000000 0.002237 0.000000
# 3 -0.002598 -0.006172 0.007523 0.000000 0.000658 0.000000
# 4 0.000000 0.000000 0.000000 0.016721 0.000000 0.001602
# 5 -0.000437 0.002237 0.000658 0.000000 0.023505 0.000000
# 6 0.000000 0.000000 0.000000 0.001602 0.000000 0.029480
#
#
# Mechanical properties :
#
#
# Convention : Reuss Voigt Hill
#
# Bulk Modulus (GPa) = 46.63787 71.91803 59.27795
# Shear Modulus (GPa) = 36.06886 43.51949 39.79417
#
# Velocity S-wave (km/s) = 3.54894 3.89829 3.72771
# Velocity P-wave (km/s) = 5.75143 6.73613 6.26316
#
# Compressibility (1/GPa) = 0.02144180
#
# Stress axis : x y z
#
# Youngs Moduli (GPa) = 100.86328 41.37482 132.93021
#
# Poissons Ratio (x) = 0.05427 0.34539
# Poissons Ratio (y) = 0.13230 0.82050
# Poissons Ratio (z) = 0.26207 0.25538
#
# Static dielectric constant tensor:
#      x y z
#    x 1.975800 0.000000 0.009610 
#    y 0.000000 2.300850 0.000000 
#    z 0.009610 0.000000 2.260930 
# 
# From -- ./inp_files/19479.got.cif
#   From: 2010.05.17/outbox.cif.g08.bks.cpg/sg14_10_cif.got.tgz:19479.got - 2010.06.03 17:49:19.
