data_PCOD9248794
_publ_section_title
;
Structure prediction by ZEFSAII (Michael W. Deem and Ramdas Pophale) SiO2 
 PCOD9248794
Probable space group: P 21/C
;
_chemical_formula_sum "Si O2"
_cell_formula_units_Z 32
_cell_length_a 9.650446
_cell_length_b 11.603668
_cell_length_c 13.480682
_cell_angle_alpha 90.000000
_cell_angle_beta 67.345552
_cell_angle_gamma 90.000000
_cell_volume 1393.102660
_symmetry_space_group_name_H-M "P 21/C"
_symmetry_group_IT_number 14
_symmetry_cell_setting 'monoclinic'
loop_
_space_group_symop_operation_xyz
x,y,z
-x,1/2+y,1/2-z
-x,-y,-z
x,1/2-y,1/2+z
loop_
_atom_site_type_symbol
_atom_site_label
_atom_site_fract_x
_atom_site_fract_y
_atom_site_fract_z
Si Si1 0.158626 0.254763 0.590416
Si Si2 0.300533 0.865270 0.252097
Si Si3 0.924910 0.375719 0.020187
Si Si4 0.633272 0.572571 0.921724
Si Si5 0.791328 0.103098 0.254216
Si Si6 0.120070 0.491771 0.640559
Si Si7 0.940924 0.709115 0.653618
Si Si8 0.363544 0.101367 0.799457
O O1 0.214502 0.386967 0.568867
O O2 0.020133 0.212582 0.562936
O O3 0.295709 0.168508 0.529044
O O4 0.110057 0.219069 0.717440
O O5 0.204100 0.955368 0.212385
O O6 0.478210 0.886944 0.189852
O O7 0.236973 0.879592 0.382381
O O8 0.261500 0.734205 0.230292
O O9 0.752576 0.474024 0.860572
O O10 0.000000 0.500000 0.000000
O O11 0.592020 0.628871 0.827717
O O12 0.500000 0.500000 0.000000
O O13 0.702179 0.029478 0.192936
O O14 0.966716 0.081474 0.193589
O O15 0.964477 0.180859 0.404341
O O16 0.055086 0.603255 0.603124
O O17 0.782874 0.681409 0.642184
#
# Coordination Sequence:
#
# PCOD9248794 Si02
#       8
#     4   4   4   4   4   4   4   4
#     4  11  22  42  64  98 132 174 224 280 342 405
#     4  12  22  41  69 102 127 176 237 282 330 411
#     4  12  26  38  70 105 129 171 244 285 326 407
#     4   9  20  40  64  90 131 174 215 279 342 396
#     4   9  20  40  62  91 131 176 215 273 349 399
#     4  11  20  41  65  91 135 182 213 275 341 406
#     4  10  22  44  66  94 140 187 211 288 355 398
#     4   8  22  40  60  97 130 178 218 271 349 399
#
# _framework density 22.970310999999999
#
# number of rings (size 3 to 8) (size 9 to 14) (size 15 to 20)
#    0.750    1.000    3.750    0.750    1.750    5.500 
#    0.000    0.000    0.000    3.000    0.000    0.000 
#    0.000    0.000    0.000    0.000    0.000    0.000 
#
# Total GULP energy -178345.357048 kJ/mol
# GULP energy per Si atom -5573.292408 kJ/mol
# Density = 2.291803 g / cm^3
# Si number density = 22.970311 Si / 1000 Ang^3
#
#
#
# Elastic Constant Matrix: (Units=GPa)
#
#
# Indices 1 2 3 4 5 6 
#
# 1 137.2303 47.6512 9.7408 0.0000 2.3724 0.0000
# 2 47.6512 156.3942 10.6773 0.0000 -3.7453 0.0000
# 3 9.7408 10.6773 35.4957 0.0000 -1.1384 0.0000
# 4 0.0000 0.0000 0.0000 36.0443 0.0000 4.9774
# 5 2.3724 -3.7453 -1.1384 0.0000 22.2314 0.0000
# 6 0.0000 0.0000 0.0000 4.9774 0.0000 32.7037
#
#
#
# Elastic Compliance Matrix: (Units=1/GPa)
#
#
# Indices 1 2 3 4 5 6 
#
# 1 0.008272 -0.002446 -0.001579 0.000000 -0.001376 0.000000
# 2 -0.002446 0.007273 -0.001472 0.000000 0.001411 0.000000
# 3 -0.001579 -0.001472 0.029094 0.000000 0.001410 0.000000
# 4 0.000000 0.000000 0.000000 0.028339 0.000000 -0.004313
# 5 -0.001376 0.001411 0.001410 0.000000 0.045438 0.000000
# 6 0.000000 0.000000 0.000000 -0.004313 0.000000 0.031234
#
#
# Mechanical properties :
#
#
# Convention : Reuss Voigt Hill
#
# Bulk Modulus (GPa) = 29.71960 51.69541 40.70750
# Shear Modulus (GPa) = 29.09386 35.59927 32.34657
#
# Velocity S-wave (km/s) = 3.56277 3.94101 3.75666
# Velocity P-wave (km/s) = 5.46725 6.57746 6.04788
#
# Compressibility (1/GPa) = 0.03364783
#
# Stress axis : x y z
#
# Youngs Moduli (GPa) = 120.88942 137.48575 34.37193
#
# Poissons Ratio (x) = 0.33623 0.05426
# Poissons Ratio (y) = 0.29564 0.05058
# Poissons Ratio (z) = 0.19082 0.20232
#
# Static dielectric constant tensor:
#      x y z
#    x 2.528250 0.000000 -0.453480 
#    y 0.000000 1.837450 0.000000 
#    z -0.453480 0.000000 2.350710 
# 
# From -- ./inp_files/55394.got.cif
#   From: 2010.05.17/outbox.cif.g08.bks.cpg/sg14_28_cif.got.tgz:55394.got - 2010.06.03 17:49:19.
