data_PCOD9248248
_publ_section_title
;
Structure prediction by ZEFSAII (Michael W. Deem and Ramdas Pophale) SiO2 
 PCOD9248248
Probable space group: P 21/C
;
_chemical_formula_sum "Si O2"
_cell_formula_units_Z 32
_cell_length_a 14.987423
_cell_length_b 14.036511
_cell_length_c 19.624158
_cell_angle_alpha 90.000000
_cell_angle_beta 21.671169
_cell_angle_gamma 90.000000
_cell_volume 1524.515990
_symmetry_space_group_name_H-M "P 21/C"
_symmetry_group_IT_number 14
_symmetry_cell_setting 'monoclinic'
loop_
_space_group_symop_operation_xyz
x,y,z
-x,1/2+y,1/2-z
-x,-y,-z
x,1/2-y,1/2+z
loop_
_atom_site_type_symbol
_atom_site_label
_atom_site_fract_x
_atom_site_fract_y
_atom_site_fract_z
Si Si1 0.537556 0.181148 0.653991
Si Si2 0.212345 0.498951 0.404136
Si Si3 0.461770 0.314954 0.575511
Si Si4 0.773605 0.572430 0.454267
Si Si5 0.046839 0.894222 0.252938
Si Si6 0.282345 0.479479 0.793320
Si Si7 0.057013 0.226835 0.259240
Si Si8 0.583749 0.646877 0.171027
O O1 0.412895 0.079072 0.739891
O O2 0.484655 0.240327 0.621919
O O3 0.438575 0.245181 0.786835
O O4 0.826481 0.175294 0.456052
O O5 0.148415 0.463576 0.526257
O O6 0.333672 0.603147 0.321370
O O7 0.000000 0.500000 0.500000
O O8 0.336036 0.412111 0.690946
O O9 0.293518 0.273695 0.636934
O O10 0.730775 0.347060 0.363791
O O11 0.481357 0.563840 0.654436
O O12 0.877189 0.673365 0.357738
O O13 0.880391 0.499019 0.322233
O O14 0.029989 0.832682 0.195707
O O15 0.797704 0.878780 0.467965
O O16 0.359347 0.415078 0.802505
O O17 0.000000 0.500000 0.000000
#
# Coordination Sequence:
#
# PCOD9248248 Si02
#       8
#     4   4   4   4   4   4   4   4
#     4  10  23  42  63  93 131 169 219 261 322 389
#     4  11  24  43  67  94 129 172 223 261 323 393
#     4   9  22  37  61  91 120 173 205 257 327 383
#     4  10  23  39  62  94 123 166 205 262 325 375
#     4  10  22  42  59  90 133 156 212 263 321 386
#     4   9  20  35  60  90 123 155 210 260 309 385
#     4  11  22  40  65  89 131 162 207 269 318 384
#     4  10  22  43  62  91 128 169 210 270 316 377
#
# _framework density 20.990268
#
# number of rings (size 3 to 8) (size 9 to 14) (size 15 to 20)
#    0.000    2.000    0.000    3.750   10.500    1.000 
#    6.750    1.250    0.000    0.000    0.000    0.000 
#    0.000    0.000    0.000    0.000    0.000    0.000 
#
# Total GULP energy -178714.861979 kJ/mol
# GULP energy per Si atom -5584.839437 kJ/mol
# Density = 2.094249 g / cm^3
# Si number density = 20.990268 Si / 1000 Ang^3
#
#
#
# Elastic Constant Matrix: (Units=GPa)
#
#
# Indices 1 2 3 4 5 6 
#
# 1 77.2182 -1.5479 31.0261 0.0000 -20.1659 0.0000
# 2 -1.5479 54.4252 4.4451 0.0000 -4.9652 0.0000
# 3 31.0261 4.4451 83.1669 0.0000 -7.1312 0.0000
# 4 0.0000 0.0000 0.0000 29.3064 0.0000 1.0246
# 5 -20.1659 -4.9652 -7.1312 0.0000 39.6157 0.0000
# 6 0.0000 0.0000 0.0000 1.0246 0.0000 16.2900
#
#
#
# Elastic Compliance Matrix: (Units=1/GPa)
#
#
# Indices 1 2 3 4 5 6 
#
# 1 0.017461 0.001713 -0.005916 0.000000 0.008038 0.000000
# 2 0.001713 0.018808 -0.001389 0.000000 0.002979 0.000000
# 3 -0.005916 -0.001389 0.014252 0.000000 -0.000620 0.000000
# 4 0.000000 0.000000 0.000000 0.034197 0.000000 -0.002151
# 5 0.008038 0.002979 -0.000620 0.000000 0.029596 0.000000
# 6 0.000000 0.000000 0.000000 -0.002151 0.000000 0.061523
#
#
# Mechanical properties :
#
#
# Convention : Reuss Voigt Hill
#
# Bulk Modulus (GPa) = 25.42143 31.40630 28.41386
# Shear Modulus (GPa) = 24.98332 29.10154 27.04243
#
# Velocity S-wave (km/s) = 3.45372 3.72752 3.59323
# Velocity P-wave (km/s) = 5.29543 5.78970 5.54807
#
# Compressibility (1/GPa) = 0.03933689
#
# Stress axis : x y z
#
# Youngs Moduli (GPa) = 57.27060 53.16940 70.16464
#
# Poissons Ratio (x) = -0.09109 0.41511
# Poissons Ratio (y) = -0.09811 0.09745
# Poissons Ratio (z) = 0.33883 0.07384
#
# Static dielectric constant tensor:
#      x y z
#    x 1.765960 0.000000 0.039110 
#    y 0.000000 1.762680 0.000000 
#    z 0.039110 0.000000 1.779360 
# 
# From -- ./inp_files/68640.got.cif
#   From: 2010.05.17/outbox.cif.g08.bks.cpg/sg14_35_cif.got.tgz:68640.got - 2010.06.03 17:49:19.
