data_PCOD9248681
_publ_section_title
;
Structure prediction by ZEFSAII (Michael W. Deem and Ramdas Pophale) SiO2 
 PCOD9248681
Probable space group: P 21/C
;
_chemical_formula_sum "Si O2"
_cell_formula_units_Z 20
_cell_length_a 10.920723
_cell_length_b 5.002136
_cell_length_c 24.796327
_cell_angle_alpha 90.000000
_cell_angle_beta 34.094463
_cell_angle_gamma 90.000000
_cell_volume 759.303755
_symmetry_space_group_name_H-M "P 21/C"
_symmetry_group_IT_number 14
_symmetry_cell_setting 'monoclinic'
loop_
_space_group_symop_operation_xyz
x,y,z
-x,1/2+y,1/2-z
-x,-y,-z
x,1/2-y,1/2+z
loop_
_atom_site_type_symbol
_atom_site_label
_atom_site_fract_x
_atom_site_fract_y
_atom_site_fract_z
Si Si1 0.616479 0.042019 0.528326
Si Si2 0.795551 0.928300 0.146445
Si Si3 0.316930 0.946354 0.135918
Si Si4 0.310962 0.571474 0.874681
Si Si5 0.986902 0.740537 0.338853
O O1 0.433672 0.827504 0.576785
O O2 0.675547 0.985668 0.568866
O O3 0.827838 0.972511 0.416954
O O4 0.506697 0.332292 0.568389
O O5 0.777713 0.133144 0.103232
O O6 0.558615 0.932153 0.261863
O O7 0.957180 0.048130 0.131688
O O8 0.825500 0.634177 0.112122
O O9 0.132638 0.064728 0.163557
O O10 0.199836 0.878605 0.235165
#
# Coordination Sequence:
#
# PCOD9248681 Si02
#       5
#     4   4   4   4   4
#     4  12  27  49  77 110 149 190 244 310 361 434
#     4  10  23  41  72 103 144 192 237 291 365 428
#     4  12  28  49  73 110 152 189 244 308 359 437
#     4  10  22  43  69 107 143 188 235 303 357 423
#     4  12  28  48  79 108 146 200 246 295 374 438
#
# _framework density 26.339922000000001
#
# number of rings (size 3 to 8) (size 9 to 14) (size 15 to 20)
#    0.000    0.800    2.000    3.600    5.600    8.000 
#    0.000    0.000    0.000    0.000    0.000    0.000 
#    0.000    0.000    0.000    0.000    0.000    0.000 
#
# Total GULP energy -112408.913941 kJ/mol
# GULP energy per Si atom -5620.445697 kJ/mol
# Density = 2.627997 g / cm^3
# Si number density = 26.339922 Si / 1000 Ang^3
#
#
#
# Elastic Constant Matrix: (Units=GPa)
#
#
# Indices 1 2 3 4 5 6 
#
# 1 117.2784 26.7263 -11.4144 0.0000 -2.5356 0.0000
# 2 26.7263 136.9218 22.0487 0.0000 -5.5250 0.0000
# 3 -11.4144 22.0487 101.3425 0.0000 -8.7306 0.0000
# 4 0.0000 0.0000 0.0000 29.1868 0.0000 -7.2649
# 5 -2.5356 -5.5250 -8.7306 0.0000 31.0991 0.0000
# 6 0.0000 0.0000 0.0000 -7.2649 0.0000 35.2026
#
#
#
# Elastic Compliance Matrix: (Units=1/GPa)
#
#
# Indices 1 2 3 4 5 6 
#
# 1 0.009150 -0.002000 0.001537 0.000000 0.000822 0.000000
# 2 -0.002000 0.008031 -0.001910 0.000000 0.000727 0.000000
# 3 0.001537 -0.001910 0.010696 0.000000 0.002789 0.000000
# 4 0.000000 0.000000 0.000000 0.036117 0.000000 0.007454
# 5 0.000822 0.000727 0.002789 0.000000 0.033134 0.000000
# 6 0.000000 0.000000 0.000000 0.007454 0.000000 0.029945
#
#
# Mechanical properties :
#
#
# Convention : Reuss Voigt Hill
#
# Bulk Modulus (GPa) = 43.23399 47.80710 45.52055
# Shear Modulus (GPa) = 35.83431 40.30984 38.07207
#
# Velocity S-wave (km/s) = 3.69244 3.91624 3.80598
# Velocity P-wave (km/s) = 5.88458 6.21600 6.05256
#
# Compressibility (1/GPa) = 0.02312995
#
# Stress axis : x y z
#
# Youngs Moduli (GPa) = 109.29104 124.52089 93.48969
#
# Poissons Ratio (x) = 0.24907 -0.14365
# Poissons Ratio (y) = 0.21861 0.17855
# Poissons Ratio (z) = -0.16793 0.23782
#
# Static dielectric constant tensor:
#      x y z
#    x 2.023630 0.000000 -0.008920 
#    y 0.000000 1.981770 0.000000 
#    z -0.008920 0.000000 2.033680 
# 
# From -- ./inp_files/76891.got.cif
#   From: 2010.05.17/outbox.cif.g08.bks.cpg/sg14_39_cif.got.tgz:76891.got - 2010.06.03 17:49:19.
