data_PCOD9248806
_publ_section_title
;
Structure prediction by ZEFSAII (Michael W. Deem and Ramdas Pophale) SiO2 
 PCOD9248806
Probable space group: P 21/C
;
_chemical_formula_sum "Si O2"
_cell_formula_units_Z 28
_cell_length_a 5.371265
_cell_length_b 18.527580
_cell_length_c 11.678146
_cell_angle_alpha 90.000000
_cell_angle_beta 67.729587
_cell_angle_gamma 90.000000
_cell_volume 1075.477363
_symmetry_space_group_name_H-M "P 21/C"
_symmetry_group_IT_number 14
_symmetry_cell_setting 'monoclinic'
loop_
_space_group_symop_operation_xyz
x,y,z
-x,1/2+y,1/2-z
-x,-y,-z
x,1/2-y,1/2+z
loop_
_atom_site_type_symbol
_atom_site_label
_atom_site_fract_x
_atom_site_fract_y
_atom_site_fract_z
Si Si1 0.870944 0.448296 0.400936
Si Si2 0.703603 0.963845 0.554469
Si Si3 0.798142 0.820933 0.042582
Si Si4 0.974918 0.332847 0.977441
Si Si5 0.272910 0.665351 0.758024
Si Si6 0.020603 0.814365 0.783685
Si Si7 0.321617 0.560827 0.326036
O O1 0.083575 0.392576 0.422527
O O2 0.045652 0.518130 0.341041
O O3 0.770850 0.406163 0.308040
O O4 0.659476 0.455321 0.542312
O O5 0.774999 0.879568 0.518005
O O6 0.557793 0.965366 0.702971
O O7 0.500000 0.000000 0.500000
O O8 0.000000 0.000000 0.500000
O O9 0.538861 0.800831 0.159255
O O10 0.992109 0.752743 0.020816
O O11 0.766881 0.829435 0.910990
O O12 0.732745 0.350913 0.106238
O O13 0.965303 0.348014 0.844572
O O14 0.054812 0.728094 0.772411
O O15 0.259865 0.855432 0.810171
#
# Coordination Sequence:
#
# PCOD9248806 Si02
#       7
#     4   4   4   4   4   4   4
#     4  10  22  46  69 102 139 186 249 303 366 442
#     4  12  27  46  71 107 150 196 246 302 380 449
#     4  10  23  41  69 100 133 188 240 303 372 433
#     4  11  24  43  68 104 139 187 236 310 369 444
#     4  11  23  41  70  99 140 179 246 299 367 443
#     4  10  22  44  67 104 140 187 244 300 375 443
#     4  10  23  45  72 100 144 194 241 303 372 449
#
# _framework density 26.034949000000001
#
# number of rings (size 3 to 8) (size 9 to 14) (size 15 to 20)
#    0.000    1.429    1.429    2.571    4.000    1.143 
#    2.571    2.143    0.000    0.000    0.000    0.000 
#    0.000    0.000    0.000    0.000    0.000    0.000 
#
# Total GULP energy -156673.613685 kJ/mol
# GULP energy per Si atom -5595.486203 kJ/mol
# Density = 2.597569 g / cm^3
# Si number density = 26.034949 Si / 1000 Ang^3
#
#
#
# Elastic Constant Matrix: (Units=GPa)
#
#
# Indices 1 2 3 4 5 6 
#
# 1 60.2844 19.6438 45.7422 0.0000 4.9400 0.0000
# 2 19.6438 117.9164 26.3491 0.0000 8.1394 0.0000
# 3 45.7422 26.3491 257.1804 0.0000 -12.5571 0.0000
# 4 0.0000 0.0000 0.0000 38.0292 0.0000 0.5949
# 5 4.9400 8.1394 -12.5571 0.0000 38.2694 0.0000
# 6 0.0000 0.0000 0.0000 0.5949 0.0000 30.0645
#
#
#
# Elastic Compliance Matrix: (Units=1/GPa)
#
#
# Indices 1 2 3 4 5 6 
#
# 1 0.020306 -0.002368 -0.003529 0.000000 -0.003275 0.000000
# 2 -0.002368 0.009137 -0.000605 0.000000 -0.001836 0.000000
# 3 -0.003529 -0.000605 0.004681 0.000000 0.002120 0.000000
# 4 0.000000 0.000000 0.000000 0.026304 0.000000 -0.000520
# 5 -0.003275 -0.001836 0.002120 0.000000 0.027639 0.000000
# 6 0.000000 0.000000 0.000000 -0.000520 0.000000 0.033272
#
#
# Mechanical properties :
#
#
# Convention : Reuss Voigt Hill
#
# Bulk Modulus (GPa) = 47.34631 68.76127 58.05379
# Shear Modulus (GPa) = 35.36495 44.18235 39.77365
#
# Velocity S-wave (km/s) = 3.68960 4.12398 3.91282
# Velocity P-wave (km/s) = 6.03125 7.01034 6.53914
#
# Compressibility (1/GPa) = 0.02112097
#
# Stress axis : x y z
#
# Youngs Moduli (GPa) = 49.24716 109.44612 213.60983
#
# Poissons Ratio (x) = 0.25918 0.75381
# Poissons Ratio (y) = 0.11662 0.12914
# Poissons Ratio (z) = 0.17379 0.06617
#
# Static dielectric constant tensor:
#      x y z
#    x 2.052930 0.000000 0.004110 
#    y 0.000000 2.018510 0.000000 
#    z 0.004110 0.000000 2.113460 
# 
# From -- ./inp_files/21686.got.cif
#   From: 2010.05.17/outbox.cif.g08.bks.cpg/sg14_11_cif.got.tgz:21686.got - 2010.06.03 17:49:19.
