data_PCOD9248221
_publ_section_title
;
Structure prediction by ZEFSAII (Michael W. Deem and Ramdas Pophale) SiO2 
 PCOD9248221
Probable space group: P 21/C
;
_chemical_formula_sum "Si O2"
_cell_formula_units_Z 32
_cell_length_a 9.043330
_cell_length_b 14.836845
_cell_length_c 23.516742
_cell_angle_alpha 90.000000
_cell_angle_beta 149.955787
_cell_angle_gamma 90.000000
_cell_volume 1579.781562
_symmetry_space_group_name_H-M "P 21/C"
_symmetry_group_IT_number 14
_symmetry_cell_setting 'monoclinic'
loop_
_space_group_symop_operation_xyz
x,y,z
-x,1/2+y,1/2-z
-x,-y,-z
x,1/2-y,1/2+z
loop_
_atom_site_type_symbol
_atom_site_label
_atom_site_fract_x
_atom_site_fract_y
_atom_site_fract_z
Si Si1 0.866073 0.184010 0.822512
Si Si2 0.529931 0.769580 0.518899
Si Si3 0.480027 0.891965 0.397738
Si Si4 0.924338 0.385220 0.599006
Si Si5 0.477138 0.138881 0.201967
Si Si6 0.887975 0.088634 0.430795
Si Si7 0.155712 0.448775 0.500041
Si Si8 0.396220 0.099570 0.353548
O O1 0.730867 0.130095 0.724795
O O2 0.646911 0.266772 0.761000
O O3 0.185745 0.220341 0.911754
O O4 0.922098 0.119007 0.894197
O O5 0.401630 0.835358 0.427389
O O6 0.298965 0.695013 0.462580
O O7 0.635079 0.831368 0.605926
O O8 0.813006 0.863746 0.489593
O O9 0.471194 0.999928 0.402385
O O10 0.771594 0.475332 0.522747
O O11 0.168581 0.356055 0.633152
O O12 0.111581 0.406228 0.718145
O O13 0.686457 0.071739 0.308148
O O14 0.418578 0.105629 0.118358
O O15 0.666066 0.132448 0.402466
O O16 0.000000 0.000000 0.500000
O O17 0.000000 0.500000 0.500000
#
# Coordination Sequence:
#
# PCOD9248221 Si02
#       8
#     4   4   4   4   4   4   4   4
#     4  12  24  42  68  97 135 179 220 281 336 394
#     4  12  25  41  65 104 134 181 226 277 343 402
#     4  11  22  43  66  95 139 179 223 280 339 402
#     4  10  23  45  66  94 141 175 223 281 341 401
#     4  10  22  41  70 102 131 174 230 277 324 414
#     4   9  20  39  68  96 128 173 217 278 335 385
#     4  10  23  44  69 102 136 178 229 277 338 407
#     4  10  22  43  67  94 138 176 223 283 338 399
#
# _framework density 20.255965
#
# number of rings (size 3 to 8) (size 9 to 14) (size 15 to 20)
#    0.000    1.500    2.500    1.875    3.500    3.500 
#    2.250    2.500    0.000    0.000    0.000    0.000 
#    0.000    0.000    0.000    0.000    0.000    0.000 
#
# Total GULP energy -178684.408541 kJ/mol
# GULP energy per Si atom -5583.887767 kJ/mol
# Density = 2.020986 g / cm^3
# Si number density = 20.255965 Si / 1000 Ang^3
#
#
#
# Elastic Constant Matrix: (Units=GPa)
#
#
# Indices 1 2 3 4 5 6 
#
# 1 63.7732 50.9462 53.0022 0.0000 -17.5529 0.0000
# 2 50.9462 114.6284 59.5376 0.0000 -8.3815 0.0000
# 3 53.0022 59.5376 105.6239 0.0000 -26.8596 0.0000
# 4 0.0000 0.0000 0.0000 40.5333 0.0000 -5.3666
# 5 -17.5529 -8.3815 -26.8596 0.0000 37.1139 0.0000
# 6 0.0000 0.0000 0.0000 -5.3666 0.0000 35.2104
#
#
#
# Elastic Compliance Matrix: (Units=1/GPa)
#
#
# Indices 1 2 3 4 5 6 
#
# 1 0.032727 -0.009041 -0.009693 0.000000 0.006421 0.000000
# 2 -0.009041 0.015067 -0.005120 0.000000 -0.004579 0.000000
# 3 -0.009693 -0.005120 0.019312 0.000000 0.008236 0.000000
# 4 0.000000 0.000000 0.000000 0.025179 0.000000 0.003838
# 5 0.006421 -0.004579 0.008236 0.000000 0.034907 0.000000
# 6 0.000000 0.000000 0.000000 0.003838 0.000000 0.028986
#
#
# Mechanical properties :
#
#
# Convention : Reuss Voigt Hill
#
# Bulk Modulus (GPa) = 51.55637 67.88862 59.72249
# Shear Modulus (GPa) = 23.76970 30.60749 27.18860
#
# Velocity S-wave (km/s) = 3.42931 3.89142 3.66765
# Velocity P-wave (km/s) = 6.41778 7.33342 6.89082
#
# Compressibility (1/GPa) = 0.01939625
#
# Stress axis : x y z
#
# Youngs Moduli (GPa) = 30.55625 66.37088 51.78113
#
# Poissons Ratio (x) = 0.60007 0.50192
# Poissons Ratio (y) = 0.27626 0.26514
# Poissons Ratio (z) = 0.29618 0.33985
#
# Static dielectric constant tensor:
#      x y z
#    x 1.727610 0.000000 -0.010110 
#    y 0.000000 1.739710 0.000000 
#    z -0.010110 0.000000 1.722630 
# 
# From -- ./inp_files/72498.got.cif
#   From: 2010.05.17/outbox.cif.g08.bks.cpg/sg14_37_cif.got.tgz:72498.got - 2010.06.03 17:49:19.
