data_PCOD9248624
_publ_section_title
;
Structure prediction by ZEFSAII (Michael W. Deem and Ramdas Pophale) SiO2 
 PCOD9248624
Probable space group: P 21/C
;
_chemical_formula_sum "Si O2"
_cell_formula_units_Z 32
_cell_length_a 18.667020
_cell_length_b 11.623965
_cell_length_c 15.044202
_cell_angle_alpha 90.000000
_cell_angle_beta 153.942172
_cell_angle_gamma 90.000000
_cell_volume 1433.963053
_symmetry_space_group_name_H-M "P 21/C"
_symmetry_group_IT_number 14
_symmetry_cell_setting 'monoclinic'
loop_
_space_group_symop_operation_xyz
x,y,z
-x,1/2+y,1/2-z
-x,-y,-z
x,1/2-y,1/2+z
loop_
_atom_site_type_symbol
_atom_site_label
_atom_site_fract_x
_atom_site_fract_y
_atom_site_fract_z
Si Si1 0.114116 0.184161 0.380611
Si Si2 0.739662 0.523724 0.822324
Si Si3 0.673048 0.231427 0.485947
Si Si4 0.842042 0.000144 0.712094
Si Si5 0.773916 0.462378 0.325752
Si Si6 0.626489 0.027582 0.007342
Si Si7 0.648770 0.894110 0.846551
Si Si8 0.225030 0.760883 0.584148
O O1 0.203106 0.305076 0.485491
O O2 0.934583 0.210244 0.143808
O O3 0.134281 0.114015 0.494691
O O4 0.199859 0.097355 0.405747
O O5 0.560516 0.543786 0.667142
O O6 0.717786 0.531305 0.692008
O O7 0.788717 0.392496 0.901214
O O8 0.804645 0.129019 0.637801
O O9 0.707330 0.350460 0.572539
O O10 0.511357 0.179827 0.347890
O O11 0.642013 0.249498 0.345901
O O12 0.745255 0.987555 0.696351
O O13 0.034487 0.987178 0.943288
O O14 0.676811 0.519258 0.297324
O O15 0.745874 0.325494 0.301878
O O16 0.630513 0.956509 0.920777
#
# Coordination Sequence:
#
# PCOD9248624 Si02
#       8
#     4   4   4   4   4   4   4   4
#     4  11  24  41  66  96 130 177 219 266 337 396
#     4  11  23  45  65  98 136 175 217 281 335 394
#     4  12  22  41  67  96 129 175 218 273 336 394
#     4  10  22  43  67  92 131 168 217 279 329 391
#     4  10  23  42  66  98 126 170 223 270 335 401
#     4  11  24  42  68  99 134 173 224 275 338 399
#     4  12  24  40  64  96 132 170 222 269 329 401
#     4  11  22  40  71  91 132 175 219 271 336 392
#
# _framework density 22.315778000000002
#
# number of rings (size 3 to 8) (size 9 to 14) (size 15 to 20)
#    0.000    1.000    5.000    1.500    1.750    1.500 
#    0.000    3.750    0.000    0.000    0.000    0.000 
#    0.000    0.000    0.000    0.000    0.000    0.000 
#
# Total GULP energy -178931.905387 kJ/mol
# GULP energy per Si atom -5591.622043 kJ/mol
# Density = 2.226499 g / cm^3
# Si number density = 22.315778 Si / 1000 Ang^3
#
#
#
# Elastic Constant Matrix: (Units=GPa)
#
#
# Indices 1 2 3 4 5 6 
#
# 1 98.1444 14.5257 5.2861 0.0000 -16.1836 0.0000
# 2 14.5257 85.6183 -4.8186 0.0000 1.7290 0.0000
# 3 5.2861 -4.8186 36.4215 0.0000 -6.1873 0.0000
# 4 0.0000 0.0000 0.0000 24.3951 0.0000 15.4754
# 5 -16.1836 1.7290 -6.1873 0.0000 30.3469 0.0000
# 6 0.0000 0.0000 0.0000 15.4754 0.0000 8.7844
#
#
#
# Elastic Compliance Matrix: (Units=1/GPa)
#
#
# Indices 1 2 3 4 5 6 
#
# 1 0.011561 -0.002137 -0.000925 0.000000 0.006098 0.000000
# 2 -0.002137 0.012166 0.001666 0.000000 -0.001493 0.000000
# 3 -0.000925 0.001666 0.028705 0.000000 0.005265 0.000000
# 4 0.000000 0.000000 0.000000 -0.348690 0.000000 0.614285
# 5 0.006098 -0.001493 0.005265 0.000000 0.037363 0.000000
# 6 0.000000 0.000000 0.000000 0.614285 0.000000 -0.968344
#
#
# Mechanical properties :
#
#
# Convention : Reuss Voigt Hill
#
# Bulk Modulus (GPa) = 20.14419 27.79673 23.97046
# Shear Modulus (GPa) = -4.13941 26.38466 11.12263
#
# Velocity S-wave (km/s) = -1.36343 3.44224 2.23495
# Velocity P-wave (km/s) = 2.56279 5.31806 4.17431
#
# Compressibility (1/GPa) = 0.04964210
#
# Stress axis : x y z
#
# Youngs Moduli (GPa) = 86.50011 82.19532 34.83677
#
# Poissons Ratio (x) = 0.17561 0.03221
# Poissons Ratio (y) = 0.18481 -0.05804
# Poissons Ratio (z) = 0.07997 -0.13694
#
# Static dielectric constant tensor:
#      x y z
#    x 1.840810 0.000000 -0.006630 
#    y 0.000000 1.808220 0.000000 
#    z -0.006630 0.000000 1.839640 
# 
# From -- ./inp_files/49053.got.cif
#   From: 2010.05.17/outbox.cif.g08.bks.cpg/sg14_25_cif.got.tgz:49053.got - 2010.06.03 17:49:19.
