data_PCOD9248323
_publ_section_title
;
Structure prediction by ZEFSAII (Michael W. Deem and Ramdas Pophale) SiO2 
 PCOD9248323
Probable space group: P 21/C
;
_chemical_formula_sum "Si O2"
_cell_formula_units_Z 28
_cell_length_a 13.538981
_cell_length_b 5.029746
_cell_length_c 21.895971
_cell_angle_alpha 90.000000
_cell_angle_beta 52.897922
_cell_angle_gamma 90.000000
_cell_volume 1189.215945
_symmetry_space_group_name_H-M "P 21/C"
_symmetry_group_IT_number 14
_symmetry_cell_setting 'monoclinic'
loop_
_space_group_symop_operation_xyz
x,y,z
-x,1/2+y,1/2-z
-x,-y,-z
x,1/2-y,1/2+z
loop_
_atom_site_type_symbol
_atom_site_label
_atom_site_fract_x
_atom_site_fract_y
_atom_site_fract_z
Si Si1 0.130021 0.198260 0.388660
Si Si2 0.199935 0.672721 0.291144
Si Si3 0.990587 0.376933 0.290872
Si Si4 0.223824 0.329621 0.585433
Si Si5 0.392432 0.707094 0.481217
Si Si6 0.638471 0.003951 0.376835
Si Si7 0.850353 0.059695 0.486986
O O1 0.203723 0.468763 0.346957
O O2 0.156116 0.091217 0.446424
O O3 0.171966 0.965532 0.326245
O O4 0.979482 0.222952 0.440230
O O5 0.313242 0.656266 0.200871
O O6 0.088353 0.527879 0.296454
O O7 0.854938 0.409527 0.370401
O O8 0.014627 0.074019 0.265565
O O9 0.356087 0.399005 0.505392
O O10 0.252339 0.184182 0.637864
O O11 0.144620 0.157834 0.568600
O O12 0.521236 0.814130 0.407975
O O13 0.386697 0.818328 0.553364
O O14 0.279328 0.797704 0.479945
#
# Coordination Sequence:
#
# PCOD9248323 Si02
#       7
#     4   4   4   4   4   4   4
#     4  11  26  43  67  95 134 171 223 269 325 379
#     4  12  24  42  64  98 133 171 210 273 326 390
#     4  12  23  36  60  97 137 165 206 264 339 399
#     4  11  21  36  65  93 129 169 218 270 326 390
#     4  10  22  42  65  92 128 173 219 267 324 392
#     4  10  23  40  63  97 130 168 216 267 332 396
#     4  10  24  42  64  95 124 176 221 271 316 386
#
# _framework density 23.544926
#
# number of rings (size 3 to 8) (size 9 to 14) (size 15 to 20)
#    0.000    1.143    2.857    3.000    6.000    1.143 
#    0.000    1.429    0.000    0.000    0.000    0.000 
#    0.000    0.000    0.000    0.000    0.000    0.000 
#
# Total GULP energy -156550.992640 kJ/mol
# GULP energy per Si atom -5591.106880 kJ/mol
# Density = 2.349134 g / cm^3
# Si number density = 23.544926 Si / 1000 Ang^3
#
#
#
# Elastic Constant Matrix: (Units=GPa)
#
#
# Indices 1 2 3 4 5 6 
#
# 1 100.4674 6.2174 31.9156 0.0000 1.8482 0.0000
# 2 6.2174 50.9945 -3.4641 0.0000 8.6196 0.0000
# 3 31.9156 -3.4641 72.8191 0.0000 -4.0538 0.0000
# 4 0.0000 0.0000 0.0000 32.5776 0.0000 -8.1373
# 5 1.8482 8.6196 -4.0538 0.0000 25.3334 0.0000
# 6 0.0000 0.0000 0.0000 -8.1373 0.0000 28.6609
#
#
#
# Elastic Compliance Matrix: (Units=1/GPa)
#
#
# Indices 1 2 3 4 5 6 
#
# 1 0.011755 -0.001596 -0.005293 0.000000 -0.001161 0.000000
# 2 -0.001596 0.021049 0.001321 0.000000 -0.006834 0.000000
# 3 -0.005293 0.001321 0.016256 0.000000 0.002538 0.000000
# 4 0.000000 0.000000 0.000000 0.033039 0.000000 0.009380
# 5 -0.001161 -0.006834 0.002538 0.000000 0.042290 0.000000
# 6 0.000000 0.000000 0.000000 0.009380 0.000000 0.037554
#
#
# Mechanical properties :
#
#
# Convention : Reuss Voigt Hill
#
# Bulk Modulus (GPa) = 26.36854 32.62429 29.49642
# Shear Modulus (GPa) = 26.92197 29.95518 28.43858
#
# Velocity S-wave (km/s) = 3.38513 3.57074 3.47917
# Velocity P-wave (km/s) = 5.14805 5.55756 5.35672
#
# Compressibility (1/GPa) = 0.03792398
#
# Stress axis : x y z
#
# Youngs Moduli (GPa) = 85.07059 47.50710 61.51401
#
# Poissons Ratio (x) = 0.07584 0.32557
# Poissons Ratio (y) = 0.13581 -0.08123
# Poissons Ratio (z) = 0.45025 -0.06274
#
# Static dielectric constant tensor:
#      x y z
#    x 1.898670 0.000000 0.016660 
#    y 0.000000 1.965380 0.000000 
#    z 0.016660 0.000000 1.965550 
# 
# From -- ./inp_files/67817.got.cif
#   From: 2010.05.17/outbox.cif.g08.bks.cpg/sg14_34_cif.got.tgz:67817.got - 2010.06.03 17:49:19.
