data_PCOD9248411
_publ_section_title
;
Structure prediction by ZEFSAII (Michael W. Deem and Ramdas Pophale) SiO2 
 PCOD9248411
Probable space group: P 21/C
;
_chemical_formula_sum "Si O2"
_cell_formula_units_Z 32
_cell_length_a 14.335716
_cell_length_b 12.214221
_cell_length_c 15.724678
_cell_angle_alpha 90.000000
_cell_angle_beta 149.482608
_cell_angle_gamma 90.000000
_cell_volume 1398.168527
_symmetry_space_group_name_H-M "P 21/C"
_symmetry_group_IT_number 14
_symmetry_cell_setting 'monoclinic'
loop_
_space_group_symop_operation_xyz
x,y,z
-x,1/2+y,1/2-z
-x,-y,-z
x,1/2-y,1/2+z
loop_
_atom_site_type_symbol
_atom_site_label
_atom_site_fract_x
_atom_site_fract_y
_atom_site_fract_z
Si Si1 0.968755 0.207987 0.833430
Si Si2 0.287715 0.328916 0.007182
Si Si3 0.439506 0.745033 0.518280
Si Si4 0.978931 0.370370 0.005480
Si Si5 0.459641 0.931933 0.178325
Si Si6 0.798397 0.800553 0.739889
Si Si7 0.556103 0.350900 0.669755
Si Si8 0.902317 0.024499 0.012832
O O1 0.753930 0.194679 0.645331
O O2 0.997208 0.282501 0.941171
O O3 0.053478 0.087308 0.903055
O O4 0.086801 0.278595 0.860330
O O5 0.345005 0.416968 0.121095
O O6 0.441444 0.234920 0.135318
O O7 0.302046 0.355181 0.919974
O O8 0.420701 0.668572 0.585211
O O9 0.633180 0.809625 0.678857
O O10 0.456819 0.679293 0.441021
O O11 0.767221 0.353809 0.863695
O O12 0.129787 0.325015 0.191116
O O13 0.000000 0.500000 0.000000
O O14 0.468067 0.033491 0.121582
O O15 0.308913 0.949608 0.133673
O O16 0.987682 0.865281 0.882787
O O17 0.000000 0.000000 0.000000
#
# Coordination Sequence:
#
# PCOD9248411 Si02
#       8
#     4   4   4   4   4   4   4   4
#     4  11  23  45  66 102 140 184 229 286 351 419
#     4  11  24  43  65 101 142 177 239 283 343 425
#     4  10  24  42  74  97 138 179 241 296 343 409
#     4  11  22  42  72  98 130 178 235 291 348 403
#     4  12  24  45  71 103 139 186 232 290 355 420
#     4  11  24  45  67 103 139 183 235 288 350 422
#     4  10  22  42  68 102 132 178 233 295 351 405
#     4  12  26  45  72  98 148 188 224 283 362 430
#
# _framework density 22.887084000000002
#
# number of rings (size 3 to 8) (size 9 to 14) (size 15 to 20)
#    0.000    1.000    2.500    4.125    3.500    3.500 
#    6.750    0.000    0.000    0.000    0.000    0.000 
#    0.000    0.000    0.000    0.000    0.000    0.000 
#
# Total GULP energy -178259.199770 kJ/mol
# GULP energy per Si atom -5570.599993 kJ/mol
# Density = 2.283499 g / cm^3
# Si number density = 22.887084 Si / 1000 Ang^3
#
#
#
# Elastic Constant Matrix: (Units=GPa)
#
#
# Indices 1 2 3 4 5 6 
#
# 1 73.6969 -1.0343 7.6349 0.0000 11.3883 0.0000
# 2 -1.0343 60.6290 -1.7230 0.0000 -3.6354 0.0000
# 3 7.6349 -1.7230 75.4840 0.0000 21.5075 0.0000
# 4 0.0000 0.0000 0.0000 14.3096 0.0000 15.1692
# 5 11.3883 -3.6354 21.5075 0.0000 44.8512 0.0000
# 6 0.0000 0.0000 0.0000 15.1692 0.0000 26.0108
#
#
#
# Elastic Compliance Matrix: (Units=1/GPa)
#
#
# Indices 1 2 3 4 5 6 
#
# 1 0.014138 0.000026 -0.000472 0.000000 -0.003361 0.000000
# 2 0.000026 0.016574 -0.000006 0.000000 0.001340 0.000000
# 3 -0.000472 -0.000006 0.015360 0.000000 -0.007246 0.000000
# 4 0.000000 0.000000 0.000000 0.183048 0.000000 -0.106752
# 5 -0.003361 0.001340 -0.007246 0.000000 0.026733 0.000000
# 6 0.000000 0.000000 0.000000 -0.106752 0.000000 0.100702
#
#
# Mechanical properties :
#
#
# Convention : Reuss Voigt Hill
#
# Bulk Modulus (GPa) = 22.13889 24.39614 23.26752
# Shear Modulus (GPa) = 13.42231 30.69649 22.05940
#
# Velocity S-wave (km/s) = 2.42432 3.66623 3.10794
# Velocity P-wave (km/s) = 4.18694 5.34829 4.80285
#
# Compressibility (1/GPa) = 0.04516937
#
# Stress axis : x y z
#
# Youngs Moduli (GPa) = 70.73257 60.33420 65.10380
#
# Poissons Ratio (x) = -0.00158 0.03070
# Poissons Ratio (y) = -0.00185 0.00039
# Poissons Ratio (z) = 0.03336 0.00036
#
# Static dielectric constant tensor:
#      x y z
#    x 1.993110 0.000000 -0.166790 
#    y 0.000000 1.806930 0.000000 
#    z -0.166790 0.000000 1.976470 
# 
# From -- ./inp_files/59498.got.cif
#   From: 2010.05.17/outbox.cif.g08.bks.cpg/sg14_30_cif.got.tgz:59498.got - 2010.06.03 17:49:19.
