data_PCOD9248578
_publ_section_title
;
Structure prediction by ZEFSAII (Michael W. Deem and Ramdas Pophale) SiO2 
 PCOD9248578
Probable space group: P 21/C
;
_chemical_formula_sum "Si O2"
_cell_formula_units_Z 28
_cell_length_a 17.297841
_cell_length_b 5.431694
_cell_length_c 14.057615
_cell_angle_alpha 90.000000
_cell_angle_beta 65.413458
_cell_angle_gamma 90.000000
_cell_volume 1201.053091
_symmetry_space_group_name_H-M "P 21/C"
_symmetry_group_IT_number 14
_symmetry_cell_setting 'monoclinic'
loop_
_space_group_symop_operation_xyz
x,y,z
-x,1/2+y,1/2-z
-x,-y,-z
x,1/2-y,1/2+z
loop_
_atom_site_type_symbol
_atom_site_label
_atom_site_fract_x
_atom_site_fract_y
_atom_site_fract_z
Si Si1 0.322172 0.838174 0.395641
Si Si2 0.835306 0.958237 0.459388
Si Si3 0.290539 0.440522 0.557689
Si Si4 0.491424 0.043582 0.393075
Si Si5 0.410625 0.449446 0.674396
Si Si6 0.982456 0.655269 0.415040
Si Si7 0.110813 0.662887 0.704173
O O1 0.332940 0.582417 0.447018
O O2 0.395145 0.999978 0.410917
O O3 0.341689 0.930146 0.280223
O O4 0.219706 0.846701 0.456143
O O5 0.759621 0.790247 0.458707
O O6 0.905528 0.830893 0.485254
O O7 0.884172 0.067419 0.344833
O O8 0.362628 0.405635 0.599451
O O9 0.210085 0.581195 0.650172
O O10 0.546778 0.814137 0.319612
O O11 0.500000 0.000000 0.500000
O O12 0.523373 0.322030 0.361205
O O13 0.940580 0.500495 0.347721
O O14 0.000000 0.500000 0.500000
O O15 0.061047 0.804374 0.328264
#
# Coordination Sequence:
#
# PCOD9248578 Si02
#       7
#     4   4   4   4   4   4   4
#     4  11  25  43  68 100 142 175 244 285 354 424
#     4  10  23  43  67  96 140 179 222 300 351 418
#     4  10  24  42  68  97 137 184 225 294 357 410
#     4  12  25  46  72 101 140 190 236 291 355 418
#     4  12  27  44  72 105 140 192 236 292 352 420
#     4  11  23  42  71  97 132 181 235 286 363 431
#     4  10  22  43  64  98 135 175 230 293 350 429
#
# _framework density 23.312874999999998
#
# number of rings (size 3 to 8) (size 9 to 14) (size 15 to 20)
#    0.000    1.143    2.857    2.143    6.000    5.143 
#    0.000    0.000    0.000    0.000    0.000    0.000 
#    0.000    0.000    0.000    0.000    0.000    0.000 
#
# Total GULP energy -156045.840468 kJ/mol
# GULP energy per Si atom -5573.065731 kJ/mol
# Density = 2.325981 g / cm^3
# Si number density = 23.312875 Si / 1000 Ang^3
#
#
#
# Elastic Constant Matrix: (Units=GPa)
#
#
# Indices 1 2 3 4 5 6 
#
# 1 69.4240 53.4261 19.0506 0.0000 -11.9304 0.0000
# 2 53.4261 -24.2606 -18.4972 0.0000 -24.0751 0.0000
# 3 19.0506 -18.4972 86.7440 0.0000 -11.7376 0.0000
# 4 0.0000 0.0000 0.0000 23.3673 0.0000 -11.3713
# 5 -11.9304 -24.0751 -11.7376 0.0000 35.6749 0.0000
# 6 0.0000 0.0000 0.0000 -11.3713 0.0000 41.1899
#
#
#
# Elastic Compliance Matrix: (Units=1/GPa)
#
#
# Indices 1 2 3 4 5 6 
#
# 1 0.008759 0.008986 0.001266 0.000000 0.009410 0.000000
# 2 0.008986 -0.011219 -0.005216 0.000000 -0.006283 0.000000
# 3 0.001266 -0.005216 0.010172 0.000000 0.000250 0.000000
# 4 0.000000 0.000000 0.000000 0.049436 0.000000 0.013648
# 5 0.009410 -0.006283 0.000250 0.000000 0.027020 0.000000
# 6 0.000000 0.000000 0.000000 0.013648 0.000000 0.028046
#
#
# Mechanical properties :
#
#
# Convention : Reuss Voigt Hill
#
# Bulk Modulus (GPa) = 56.23605 26.65182 41.44394
# Shear Modulus (GPa) = 46.26648 25.24160 35.75404
#
# Velocity S-wave (km/s) = 4.45971 3.29406 3.92045
# Velocity P-wave (km/s) = 7.11992 5.09164 6.18943
#
# Compressibility (1/GPa) = 0.01778219
#
# Stress axis : x y z
#
# Youngs Moduli (GPa) = 114.17062 -89.13069 98.31133
#
# Poissons Ratio (x) = 0.80091 -0.12444
# Poissons Ratio (y) = -1.02591 0.51279
# Poissons Ratio (z) = -0.14451 -0.46490
#
# Static dielectric constant tensor:
#      x y z
#    x 2.058540 0.000000 0.035100 
#    y 0.000000 2.255380 0.000000 
#    z 0.035100 0.000000 2.032540 
# 
# From -- ./inp_files/48090.got.cif
#   From: 2010.05.17/outbox.cif.g08.bks.cpg/sg14_25_cif.got.tgz:48090.got - 2010.06.03 17:49:19.
