data_PCOD9248585
_publ_section_title
;
Structure prediction by ZEFSAII (Michael W. Deem and Ramdas Pophale) SiO2 
 PCOD9248585
Probable space group: P 21/C
;
_chemical_formula_sum "Si O2"
_cell_formula_units_Z 20
_cell_length_a 12.758269
_cell_length_b 12.037580
_cell_length_c 14.885093
_cell_angle_alpha 90.000000
_cell_angle_beta 27.125841
_cell_angle_gamma 90.000000
_cell_volume 1042.308412
_symmetry_space_group_name_H-M "P 21/C"
_symmetry_group_IT_number 14
_symmetry_cell_setting 'monoclinic'
loop_
_space_group_symop_operation_xyz
x,y,z
-x,1/2+y,1/2-z
-x,-y,-z
x,1/2-y,1/2+z
loop_
_atom_site_type_symbol
_atom_site_label
_atom_site_fract_x
_atom_site_fract_y
_atom_site_fract_z
Si Si1 0.250098 0.996945 0.352841
Si Si2 0.431657 0.622390 0.022787
Si Si3 0.533805 0.734983 0.282500
Si Si4 0.584630 0.806882 0.043153
Si Si5 0.896929 0.148874 0.371850
O O1 0.416191 0.912074 0.174121
O O2 0.210525 0.945916 0.482469
O O3 0.365382 0.117101 0.268056
O O4 0.000000 0.000000 0.500000
O O5 0.469650 0.708815 0.073843
O O6 0.175385 0.622783 0.175487
O O7 0.500000 0.500000 0.000000
O O8 0.576767 0.673378 0.827625
O O9 0.620242 0.768870 0.118859
O O10 0.253841 0.740803 0.491060
O O11 0.836064 0.837066 0.814960
#
# Coordination Sequence:
#
# PCOD9248585 Si02
#       5
#     4   4   4   4   4
#     4  11  23  40  68  98 136 172 221 274 334 392
#     4  10  22  43  65  93 132 174 220 270 331 395
#     4   9  23  41  62  96 134 167 225 269 328 397
#     4  11  23  42  68  95 136 174 219 282 329 388
#     4   9  23  42  62 101 128 173 225 269 328 402
#
# _framework density 19.188177
#
# number of rings (size 3 to 8) (size 9 to 14) (size 15 to 20)
#    1.200    0.800    0.000    2.400    2.800    6.400 
#    0.000    1.000    0.000    0.000    0.000    0.000 
#    0.000    0.000    0.000    0.000    0.000    0.000 
#
# Total GULP energy -111426.629653 kJ/mol
# GULP energy per Si atom -5571.331483 kJ/mol
# Density = 1.914450 g / cm^3
# Si number density = 19.188177 Si / 1000 Ang^3
#
#
#
# Elastic Constant Matrix: (Units=GPa)
#
#
# Indices 1 2 3 4 5 6 
#
# 1 91.2827 62.6279 25.1787 0.0000 2.6165 0.0000
# 2 62.6279 142.9832 52.7567 0.0000 -13.6986 0.0000
# 3 25.1787 52.7567 97.8201 0.0000 -20.2955 0.0000
# 4 0.0000 0.0000 0.0000 14.8573 0.0000 -4.8485
# 5 2.6165 -13.6986 -20.2955 0.0000 38.1806 0.0000
# 6 0.0000 0.0000 0.0000 -4.8485 0.0000 36.6085
#
#
#
# Elastic Compliance Matrix: (Units=1/GPa)
#
#
# Indices 1 2 3 4 5 6 
#
# 1 0.016287 -0.007079 -0.001273 0.000000 -0.004333 0.000000
# 2 -0.007079 0.011825 -0.004018 0.000000 0.002592 0.000000
# 3 -0.001273 -0.004018 0.013978 0.000000 0.006076 0.000000
# 4 0.000000 0.000000 0.000000 0.070348 0.000000 0.009317
# 5 -0.004333 0.002592 0.006076 0.000000 0.030648 0.000000
# 6 0.000000 0.000000 0.000000 0.009317 0.000000 0.028550
#
#
# Mechanical properties :
#
#
# Convention : Reuss Voigt Hill
#
# Bulk Modulus (GPa) = 57.63595 68.13473 62.88534
# Shear Modulus (GPa) = 24.73280 30.69745 27.71512
#
# Velocity S-wave (km/s) = 3.59410 4.00410 3.80463
# Velocity P-wave (km/s) = 6.87938 7.54738 7.22111
#
# Compressibility (1/GPa) = 0.01735028
#
# Stress axis : x y z
#
# Youngs Moduli (GPa) = 61.39700 84.56366 71.54063
#
# Poissons Ratio (x) = 0.59866 0.09109
# Poissons Ratio (y) = 0.43465 0.28743
# Poissons Ratio (z) = 0.07818 0.33975
#
# Static dielectric constant tensor:
#      x y z
#    x 1.710130 0.000000 0.007870 
#    y 0.000000 1.642050 0.000000 
#    z 0.007870 0.000000 1.688320 
# 
# From -- ./inp_files/44528.got.cif
#   From: 2010.05.17/outbox.cif.g08.bks.cpg/sg14_23_cif.got.tgz:44528.got - 2010.06.03 17:49:19.
