data_PCOD9248798
_publ_section_title
;
Structure prediction by ZEFSAII (Michael W. Deem and Ramdas Pophale) SiO2 
 PCOD9248798
Probable space group: P 21/C
;
_chemical_formula_sum "Si O2"
_cell_formula_units_Z 16
_cell_length_a 12.042459
_cell_length_b 4.861824
_cell_length_c 21.277096
_cell_angle_alpha 90.000000
_cell_angle_beta 154.896686
_cell_angle_gamma 90.000000
_cell_volume 528.506650
_symmetry_space_group_name_H-M "P 21/C"
_symmetry_group_IT_number 14
_symmetry_cell_setting 'monoclinic'
loop_
_space_group_symop_operation_xyz
x,y,z
-x,1/2+y,1/2-z
-x,-y,-z
x,1/2-y,1/2+z
loop_
_atom_site_type_symbol
_atom_site_label
_atom_site_fract_x
_atom_site_fract_y
_atom_site_fract_z
Si Si1 0.364640 0.293601 0.980854
Si Si2 0.998419 0.330658 0.565589
Si Si3 0.459087 0.981728 0.768672
Si Si4 0.155321 0.442666 0.252397
O O1 0.206141 0.092918 0.852604
O O2 0.134556 0.431140 0.903247
O O3 0.500000 0.500000 0.000000
O O4 0.592386 0.131503 0.134389
O O5 0.161792 0.050335 0.634718
O O6 0.142798 0.347279 0.707631
O O7 0.000000 0.500000 0.500000
O O8 0.696115 0.372583 0.426047
O O9 0.485585 0.165371 0.717214
#
# Coordination Sequence:
#
# PCOD9248798 Si02
#       4
#     4   4   4   4
#     4  11  24  46  73 118 163 204 272 332 418 498
#     4  10  24  45  71 106 150 205 271 330 412 493
#     4  10  22  44  66  97 145 195 260 322 390 485
#     4  11  25  46  76 114 163 210 265 344 411 497
#
# _framework density 30.273980999999999
#
# number of rings (size 3 to 8) (size 9 to 14) (size 15 to 20)
#    0.000    1.500    2.500    0.750    3.500    2.000 
#   13.500    0.000    0.000    0.000    0.000    0.000 
#    0.000    0.000    0.000    0.000    0.000    0.000 
#
# Total GULP energy -89233.656384 kJ/mol
# GULP energy per Si atom -5577.103524 kJ/mol
# Density = 3.020508 g / cm^3
# Si number density = 30.273981 Si / 1000 Ang^3
#
#
#
# Elastic Constant Matrix: (Units=GPa)
#
#
# Indices 1 2 3 4 5 6 
#
# 1 134.7599 51.1487 90.6714 0.0000 43.5812 0.0000
# 2 51.1487 126.2082 85.0172 0.0000 3.8376 0.0000
# 3 90.6714 85.0172 263.1179 0.0000 -12.0331 0.0000
# 4 0.0000 0.0000 0.0000 66.9482 0.0000 -10.9266
# 5 43.5812 3.8376 -12.0331 0.0000 81.9446 0.0000
# 6 0.0000 0.0000 0.0000 -10.9266 0.0000 50.1481
#
#
#
# Elastic Compliance Matrix: (Units=1/GPa)
#
#
# Indices 1 2 3 4 5 6 
#
# 1 0.013800 -0.002439 -0.004327 0.000000 -0.007860 0.000000
# 2 -0.002439 0.010635 -0.002577 0.000000 0.000421 0.000000
# 3 -0.004327 -0.002577 0.006277 0.000000 0.003344 0.000000
# 4 0.000000 0.000000 0.000000 0.015488 0.000000 0.003375
# 5 -0.007860 0.000421 0.003344 0.000000 0.016855 0.000000
# 6 0.000000 0.000000 0.000000 0.003375 0.000000 0.020676
#
#
# Mechanical properties :
#
#
# Convention : Reuss Voigt Hill
#
# Bulk Modulus (GPa) = 83.14789 108.64006 95.89397
# Shear Modulus (GPa) = 46.98213 59.62475 53.30344
#
# Velocity S-wave (km/s) = 3.94369 4.44272 4.20062
# Velocity P-wave (km/s) = 6.94706 7.89181 7.43446
#
# Compressibility (1/GPa) = 0.01202676
#
# Stress axis : x y z
#
# Youngs Moduli (GPa) = 72.46632 94.03219 159.31126
#
# Poissons Ratio (x) = 0.22934 0.68930
# Poissons Ratio (y) = 0.17674 0.41047
# Poissons Ratio (z) = 0.31355 0.24227
#
# Static dielectric constant tensor:
#      x y z
#    x 2.702020 0.000000 -0.040600 
#    y 0.000000 2.442780 0.000000 
#    z -0.040600 0.000000 2.335460 
# 
# From -- ./inp_files/34510.got.cif
#   From: 2010.05.17/outbox.cif.g08.bks.cpg/sg14_18_cif.got.tgz:34510.got - 2010.06.03 17:49:19.
