data_PCOD9248742
_publ_section_title
;
Structure prediction by ZEFSAII (Michael W. Deem and Ramdas Pophale) SiO2 
 PCOD9248742
Probable space group: P 21/C
;
_chemical_formula_sum "Si O2"
_cell_formula_units_Z 24
_cell_length_a 11.616948
_cell_length_b 13.212524
_cell_length_c 9.495680
_cell_angle_alpha 90.000000
_cell_angle_beta 133.208711
_cell_angle_gamma 90.000000
_cell_volume 1062.308678
_symmetry_space_group_name_H-M "P 21/C"
_symmetry_group_IT_number 14
_symmetry_cell_setting 'monoclinic'
loop_
_space_group_symop_operation_xyz
x,y,z
-x,1/2+y,1/2-z
-x,-y,-z
x,1/2-y,1/2+z
loop_
_atom_site_type_symbol
_atom_site_label
_atom_site_fract_x
_atom_site_fract_y
_atom_site_fract_z
Si Si1 0.904819 0.495601 0.564034
Si Si2 0.590637 0.649150 0.614719
Si Si3 0.464869 0.478487 0.706168
Si Si4 0.616325 0.166919 0.529001
Si Si5 0.042221 0.103317 0.614652
Si Si6 0.819644 0.216699 0.967239
O O1 0.718492 0.521512 0.404859
O O2 0.975499 0.572637 0.736317
O O3 0.000000 0.500000 0.500000
O O4 0.910858 0.377553 0.613708
O O5 0.519161 0.600701 0.411256
O O6 0.540646 0.765272 0.582343
O O7 0.776901 0.631182 0.765049
O O8 0.481752 0.415443 0.316699
O O9 0.571699 0.439942 0.923417
O O10 0.712035 0.169585 0.753668
O O11 0.717355 0.227604 0.498493
O O12 0.932489 0.198966 0.494143
O O13 0.000000 0.000000 0.500000
#
# Coordination Sequence:
#
# PCOD9248742 Si02
#       6
#     4   4   4   4   4   4
#     4  11  25  45  65 105 147 176 229 298 353 410
#     4  10  22  44  71  99 134 183 240 277 346 430
#     4  10  22  43  72  99 139 185 233 290 350 419
#     4  12  23  44  70 103 135 181 237 288 348 413
#     4  11  25  46  72  99 139 191 232 279 355 426
#     4  12  25  44  71 103 140 184 231 292 352 418
#
# _framework density 22.592303999999999
#
# number of rings (size 3 to 8) (size 9 to 14) (size 15 to 20)
#    0.000    1.000    3.333    3.000    4.667    0.667 
#    6.000    0.000    0.000    0.000    0.000    0.000 
#    0.000    0.000    0.000    0.000    0.000    0.000 
#
# Total GULP energy -134343.994317 kJ/mol
# GULP energy per Si atom -5597.666430 kJ/mol
# Density = 2.254088 g / cm^3
# Si number density = 22.592304 Si / 1000 Ang^3
#
#
#
# Elastic Constant Matrix: (Units=GPa)
#
#
# Indices 1 2 3 4 5 6 
#
# 1 104.1165 2.4898 24.0365 0.0000 -11.6455 0.0000
# 2 2.4898 74.8695 23.0626 0.0000 6.4334 0.0000
# 3 24.0365 23.0626 86.5835 0.0000 -11.6805 0.0000
# 4 0.0000 0.0000 0.0000 36.5246 0.0000 0.1683
# 5 -11.6455 6.4334 -11.6805 0.0000 22.4649 0.0000
# 6 0.0000 0.0000 0.0000 0.1683 0.0000 40.0998
#
#
#
# Elastic Compliance Matrix: (Units=1/GPa)
#
#
# Indices 1 2 3 4 5 6 
#
# 1 0.010631 0.000012 -0.002378 0.000000 0.004271 0.000000
# 2 0.000012 0.015536 -0.005099 0.000000 -0.007094 0.000000
# 3 -0.002378 -0.005099 0.014624 0.000000 0.007831 0.000000
# 4 0.000000 0.000000 0.000000 0.027379 0.000000 -0.000115
# 5 0.004271 -0.007094 0.007831 0.000000 0.052831 0.000000
# 6 0.000000 0.000000 0.000000 -0.000115 0.000000 0.024938
#
#
# Mechanical properties :
#
#
# Convention : Reuss Voigt Hill
#
# Bulk Modulus (GPa) = 38.66688 40.52747 39.59717
# Shear Modulus (GPa) = 29.50006 34.21655 31.85831
#
# Velocity S-wave (km/s) = 3.61745 3.89591 3.75926
# Velocity P-wave (km/s) = 5.88219 6.18183 6.03387
#
# Compressibility (1/GPa) = 0.02586193
#
# Stress axis : x y z
#
# Youngs Moduli (GPa) = 94.06340 64.36531 68.37913
#
# Poissons Ratio (x) = -0.00078 0.16263
# Poissons Ratio (y) = -0.00114 0.34864
# Poissons Ratio (z) = 0.22372 0.32818
#
# Static dielectric constant tensor:
#      x y z
#    x 1.816160 0.000000 -0.011710 
#    y 0.000000 1.818680 0.000000 
#    z -0.011710 0.000000 1.841240 
# 
# From -- ./inp_files/13802.got.cif
#   From: 2010.05.17/outbox.cif.g08.bks.cpg/sg14_7_cif.got.tgz:13802.got - 2010.06.03 17:49:19.
