data_PCOD9248763
_publ_section_title
;
Structure prediction by ZEFSAII (Michael W. Deem and Ramdas Pophale) SiO2 
 PCOD9248763
Probable space group: P 21/C
;
_chemical_formula_sum "Si O2"
_cell_formula_units_Z 22
_cell_length_a 17.329402
_cell_length_b 9.711251
_cell_length_c 13.094091
_cell_angle_alpha 90.000000
_cell_angle_beta 20.540633
_cell_angle_gamma 90.000000
_cell_volume 773.182972
_symmetry_space_group_name_H-M "P 21/C"
_symmetry_group_IT_number 14
_symmetry_cell_setting 'monoclinic'
loop_
_space_group_symop_operation_xyz
x,y,z
-x,1/2+y,1/2-z
-x,-y,-z
x,1/2-y,1/2+z
loop_
_atom_site_type_symbol
_atom_site_label
_atom_site_fract_x
_atom_site_fract_y
_atom_site_fract_z
Si Si1 0.500000 0.500000 0.000000
Si Si2 0.081796 0.025269 0.530911
Si Si3 0.794993 0.671638 0.691453
Si Si4 0.612652 0.894510 0.136423
Si Si5 0.651816 0.309769 0.237439
Si Si6 0.911256 0.646670 0.779367
O O1 0.779371 0.529838 0.650310
O O2 0.488240 0.533776 0.883385
O O3 0.114986 0.179780 0.451474
O O4 0.123799 0.022908 0.600213
O O5 0.277801 0.918142 0.261123
O O6 0.834518 0.973183 0.822130
O O7 0.889782 0.646067 0.684821
O O8 0.522925 0.690547 0.008711
O O9 0.469805 0.860748 0.213386
O O10 0.703866 0.748429 0.062334
O O11 0.877261 0.229444 0.941912
#
# Coordination Sequence:
#
# PCOD9248763 Si02
#       6
#     2   4   4   4   4   4
#     4  12  22  46  70 104 140 188 234 288 350 414
#     4  11  22  43  66  98 138 175 230 291 345 410
#     4  11  24  41  70 100 139 181 233 279 354 419
#     4  10  23  42  68  97 138 177 230 284 347 414
#     4  10  23  43  68  97 133 181 230 287 346 420
#     4  10  22  44  63 103 139 177 228 287 345 416
#
# _framework density 28.453807000000001
#
# number of rings (size 3 to 8) (size 9 to 14) (size 15 to 20)
#    0.000    1.455    1.818    2.727    0.000    9.455 
#    6.545    5.455    0.000    0.000    0.000    0.000 
#    0.000    0.000    0.000    0.000    0.000    0.000 
#
# Total GULP energy -122735.507158 kJ/mol
# GULP energy per Si atom -5578.886689 kJ/mol
# Density = 2.838904 g / cm^3
# Si number density = 28.453807 Si / 1000 Ang^3
#
#
#
# Elastic Constant Matrix: (Units=GPa)
#
#
# Indices 1 2 3 4 5 6 
#
# 1 186.9838 91.3242 64.0963 0.0000 -36.3333 0.0000
# 2 91.3242 109.3737 32.4189 0.0000 -28.5653 0.0000
# 3 64.0963 32.4189 118.5011 0.0000 -42.8999 0.0000
# 4 0.0000 0.0000 0.0000 45.3470 0.0000 -9.1491
# 5 -36.3333 -28.5653 -42.8999 0.0000 48.5353 0.0000
# 6 0.0000 0.0000 0.0000 -9.1491 0.0000 54.1942
#
#
#
# Elastic Compliance Matrix: (Units=1/GPa)
#
#
# Indices 1 2 3 4 5 6 
#
# 1 0.010192 -0.007439 -0.003383 0.000000 0.000261 0.000000
# 2 -0.007439 0.016308 0.001501 0.000000 0.005356 0.000000
# 3 -0.003383 0.001501 0.013619 0.000000 0.010389 0.000000
# 4 0.000000 0.000000 0.000000 0.022830 0.000000 0.003854
# 5 0.000261 0.005356 0.010389 0.000000 0.033134 0.000000
# 6 0.000000 0.000000 0.000000 0.003854 0.000000 0.019103
#
#
# Mechanical properties :
#
#
# Convention : Reuss Voigt Hill
#
# Bulk Modulus (GPa) = 46.56058 87.83748 67.19903
# Shear Modulus (GPa) = 35.46473 44.74993 40.10733
#
# Velocity S-wave (km/s) = 3.53426 3.97006 3.75848
# Velocity P-wave (km/s) = 5.74924 7.20780 6.51944
#
# Compressibility (1/GPa) = 0.02147740
#
# Stress axis : x y z
#
# Youngs Moduli (GPa) = 98.11998 61.31911 73.42819
#
# Poissons Ratio (x) = 0.45614 0.24840
# Poissons Ratio (y) = 0.72989 -0.11023
# Poissons Ratio (z) = 0.33194 -0.09205
#
# Static dielectric constant tensor:
#      x y z
#    x 2.203530 0.000000 0.089900 
#    y 0.000000 2.510960 0.000000 
#    z 0.089900 0.000000 2.327160 
# 
# From -- ./inp_files/44701.got.cif
#   From: 2010.05.17/outbox.cif.g08.bks.cpg/sg14_23_cif.got.tgz:44701.got - 2010.06.03 17:49:19.
