data_PCOD9248022
_publ_section_title
;
Structure prediction by ZEFSAII (Michael W. Deem and Ramdas Pophale) SiO2 
 PCOD9248022
Probable space group: P 21/C
;
_chemical_formula_sum "Si O2"
_cell_formula_units_Z 28
_cell_length_a 9.154075
_cell_length_b 16.293739
_cell_length_c 13.325812
_cell_angle_alpha 90.000000
_cell_angle_beta 30.401270
_cell_angle_gamma 90.000000
_cell_volume 1005.830513
_symmetry_space_group_name_H-M "P 21/C"
_symmetry_group_IT_number 14
_symmetry_cell_setting 'monoclinic'
loop_
_space_group_symop_operation_xyz
x,y,z
-x,1/2+y,1/2-z
-x,-y,-z
x,1/2-y,1/2+z
loop_
_atom_site_type_symbol
_atom_site_label
_atom_site_fract_x
_atom_site_fract_y
_atom_site_fract_z
Si Si1 0.426518 0.134902 0.208658
Si Si2 0.222785 0.203802 0.602092
Si Si3 0.639469 0.095727 0.419086
Si Si4 0.981133 0.222267 0.953147
Si Si5 0.794052 0.871035 0.987801
Si Si6 0.257949 0.906767 0.190210
Si Si7 0.275310 0.004317 0.468238
O O1 0.129374 0.187005 0.368703
O O2 0.395121 0.058149 0.305103
O O3 0.572713 0.105027 0.016141
O O4 0.640272 0.201896 0.138727
O O5 0.562513 0.185753 0.419657
O O6 0.103961 0.181488 0.780265
O O7 0.185913 0.298496 0.604788
O O8 0.003067 0.159597 0.655998
O O9 0.395308 0.051085 0.497269
O O10 0.949628 0.067847 0.193250
O O11 0.634837 0.084888 0.541891
O O12 0.113550 0.169315 0.964096
O O13 0.474054 0.900876 0.155535
O O14 0.069000 0.988295 0.322065
#
# Coordination Sequence:
#
# PCOD9248022 Si02
#       7
#     4   4   4   4   4   4   4
#     4  11  23  43  63 101 127 174 216 277 321 397
#     4  10  22  41  61  97 126 168 212 273 327 387
#     4  10  22  42  67  91 129 176 217 264 323 393
#     4  11  24  37  66  95 132 165 219 268 337 384
#     4  12  22  39  65  98 128 166 216 277 326 382
#     4  10  23  40  64  91 135 164 213 277 321 377
#     4  10  22  46  64  90 133 181 219 253 326 404
#
# _framework density 27.837689999999998
#
# number of rings (size 3 to 8) (size 9 to 14) (size 15 to 20)
#    0.000    1.429    2.857    2.571    6.000    0.571 
#    2.571    3.571    0.000    0.000    0.000    0.000 
#    0.000    0.000    0.000    0.000    0.000    0.000 
#
# Total GULP energy -156243.119862 kJ/mol
# GULP energy per Si atom -5580.111424 kJ/mol
# Density = 2.777433 g / cm^3
# Si number density = 27.837690 Si / 1000 Ang^3
#
#
#
# Elastic Constant Matrix: (Units=GPa)
#
#
# Indices 1 2 3 4 5 6 
#
# 1 127.8145 23.8015 36.4636 0.0000 -12.7079 0.0000
# 2 23.8015 51.7004 31.4255 0.0000 -13.5912 0.0000
# 3 36.4636 31.4255 97.3084 0.0000 -28.8261 0.0000
# 4 0.0000 0.0000 0.0000 38.0980 0.0000 -5.6379
# 5 -12.7079 -13.5912 -28.8261 0.0000 68.9487 0.0000
# 6 0.0000 0.0000 0.0000 -5.6379 0.0000 57.3990
#
#
#
# Elastic Compliance Matrix: (Units=1/GPa)
#
#
# Indices 1 2 3 4 5 6 
#
# 1 0.009036 -0.002605 -0.002515 0.000000 0.000100 0.000000
# 2 -0.002605 0.024994 -0.006595 0.000000 0.001689 0.000000
# 3 -0.002515 -0.006595 0.014640 0.000000 0.004357 0.000000
# 4 0.000000 0.000000 0.000000 0.026635 0.000000 0.002616
# 5 0.000100 0.001689 0.004357 0.000000 0.016677 0.000000
# 6 0.000000 0.000000 0.000000 0.002616 0.000000 0.017679
#
#
# Mechanical properties :
#
#
# Convention : Reuss Voigt Hill
#
# Bulk Modulus (GPa) = 39.61983 51.13382 45.37683
# Shear Modulus (GPa) = 35.33432 45.23132 40.28282
#
# Velocity S-wave (km/s) = 3.56659 4.03528 3.80815
# Velocity P-wave (km/s) = 5.58785 6.33402 5.97260
#
# Compressibility (1/GPa) = 0.02523988
#
# Stress axis : x y z
#
# Youngs Moduli (GPa) = 110.66293 40.00880 68.30739
#
# Poissons Ratio (x) = 0.10422 0.17180
# Poissons Ratio (y) = 0.28827 0.45051
# Poissons Ratio (z) = 0.27833 0.26387
#
# Static dielectric constant tensor:
#      x y z
#    x 2.146710 0.000000 -0.035000 
#    y 0.000000 3.190530 0.000000 
#    z -0.035000 0.000000 2.219420 
# 
# From -- ./inp_files/16890.got.cif
#   From: 2010.05.17/outbox.cif.g08.bks.cpg/sg14_9_cif.got.tgz:16890.got - 2010.06.03 17:49:19.
