data_PCOD9248884
_publ_section_title
;
Structure prediction by ZEFSAII (Michael W. Deem and Ramdas Pophale) SiO2 
 PCOD9248884
Probable space group: P 21/C
;
_chemical_formula_sum "Si O2"
_cell_formula_units_Z 20
_cell_length_a 5.047854
_cell_length_b 21.968737
_cell_length_c 7.474760
_cell_angle_alpha 90.000000
_cell_angle_beta 108.414059
_cell_angle_gamma 90.000000
_cell_volume 786.471757
_symmetry_space_group_name_H-M "P 21/C"
_symmetry_group_IT_number 14
_symmetry_cell_setting 'monoclinic'
loop_
_space_group_symop_operation_xyz
x,y,z
-x,1/2+y,1/2-z
-x,-y,-z
x,1/2-y,1/2+z
loop_
_atom_site_type_symbol
_atom_site_label
_atom_site_fract_x
_atom_site_fract_y
_atom_site_fract_z
Si Si1 0.703048 0.435925 0.842760
Si Si2 0.658836 0.678422 0.199946
Si Si3 0.161509 0.508512 0.744506
Si Si4 0.334736 0.181607 0.720464
Si Si5 0.926048 0.130989 0.920399
O O1 0.588065 0.368076 0.802014
O O2 0.449887 0.480949 0.737429
O O3 0.966550 0.456114 0.784297
O O4 0.765352 0.451116 0.062645
O O5 0.589594 0.748166 0.227972
O O6 0.920800 0.660668 0.378765
O O7 0.712012 0.671654 0.999784
O O8 0.024239 0.558695 0.587673
O O9 0.595868 0.142091 0.844907
O O10 0.066307 0.163818 0.779087
#
# Coordination Sequence:
#
# PCOD9248884 Si02
#       5
#     4   4   4   4   4
#     4  10  23  41  74 104 145 190 234 301 365 424
#     4  12  28  49  78 108 147 199 245 302 368 434
#     4  10  22  44  70 107 147 185 237 301 362 433
#     4  12  29  48  72 111 150 187 250 303 364 427
#     4  12  28  48  77 109 149 192 244 303 363 440
#
# _framework density 25.430028
#
# number of rings (size 3 to 8) (size 9 to 14) (size 15 to 20)
#    0.000    0.800    4.000    1.200    8.400    6.400 
#    0.000    0.000    0.000    0.000    0.000    0.000 
#    0.000    0.000    0.000    0.000    0.000    0.000 
#
# Total GULP energy -112335.734082 kJ/mol
# GULP energy per Si atom -5616.786704 kJ/mol
# Density = 2.537215 g / cm^3
# Si number density = 25.430028 Si / 1000 Ang^3
#
#
#
# Elastic Constant Matrix: (Units=GPa)
#
#
# Indices 1 2 3 4 5 6 
#
# 1 51.7580 3.2321 14.8171 0.0000 0.0751 0.0000
# 2 3.2321 141.2851 -7.8899 0.0000 -17.6552 0.0000
# 3 14.8171 -7.8899 131.2091 0.0000 -8.5353 0.0000
# 4 0.0000 0.0000 0.0000 43.4292 0.0000 8.5506
# 5 0.0751 -17.6552 -8.5353 0.0000 22.2654 0.0000
# 6 0.0000 0.0000 0.0000 8.5506 0.0000 34.0324
#
#
#
# Elastic Compliance Matrix: (Units=1/GPa)
#
#
# Indices 1 2 3 4 5 6 
#
# 1 0.020066 -0.000798 -0.002420 0.000000 -0.001628 0.000000
# 2 -0.000798 0.007993 0.001008 0.000000 0.006727 0.000000
# 3 -0.002420 0.001008 0.008213 0.000000 0.003956 0.000000
# 4 0.000000 0.000000 0.000000 0.024224 0.000000 -0.006086
# 5 -0.001628 0.006727 0.003956 0.000000 0.051769 0.000000
# 6 0.000000 0.000000 0.000000 -0.006086 0.000000 0.030913
#
#
# Mechanical properties :
#
#
# Convention : Reuss Voigt Hill
#
# Bulk Modulus (GPa) = 31.39397 38.28567 34.83982
# Shear Modulus (GPa) = 31.60285 40.88492 36.24389
#
# Velocity S-wave (km/s) = 3.52907 4.01402 3.77933
# Velocity P-wave (km/s) = 5.38311 6.04740 5.72490
#
# Compressibility (1/GPa) = 0.03185325
#
# Stress axis : x y z
#
# Youngs Moduli (GPa) = 49.83660 125.10805 121.76322
#
# Poissons Ratio (x) = 0.09978 0.29464
# Poissons Ratio (y) = 0.03975 -0.12278
# Poissons Ratio (z) = 0.12059 -0.12615
#
# Static dielectric constant tensor:
#      x y z
#    x 1.907630 0.000000 -0.006580 
#    y 0.000000 1.965940 0.000000 
#    z -0.006580 0.000000 2.044190 
# 
# From -- ./inp_files/6062.got.cif
#   From: 2010.05.17/outbox.cif.g08.bks.cpg/sg14_4_cif.got.tgz:6062.got - 2010.06.03 17:49:19.
