data_PCOD9248038
_publ_section_title
;
Structure prediction by ZEFSAII (Michael W. Deem and Ramdas Pophale) SiO2 
 PCOD9248038
Probable space group: P 21/C
;
_chemical_formula_sum "Si O2"
_cell_formula_units_Z 20
_cell_length_a 15.864695
_cell_length_b 9.899403
_cell_length_c 12.179758
_cell_angle_alpha 90.000000
_cell_angle_beta 24.135949
_cell_angle_gamma 90.000000
_cell_volume 782.167584
_symmetry_space_group_name_H-M "P 21/C"
_symmetry_group_IT_number 14
_symmetry_cell_setting 'monoclinic'
loop_
_space_group_symop_operation_xyz
x,y,z
-x,1/2+y,1/2-z
-x,-y,-z
x,1/2-y,1/2+z
loop_
_atom_site_type_symbol
_atom_site_label
_atom_site_fract_x
_atom_site_fract_y
_atom_site_fract_z
Si Si1 0.763446 0.751126 0.453274
Si Si2 0.417286 0.769348 0.528921
Si Si3 0.822253 0.387657 0.494121
Si Si4 0.855635 0.469516 0.775208
Si Si5 0.767860 0.011114 0.819928
O O1 0.710381 0.902891 0.474596
O O2 0.706752 0.640789 0.428328
O O3 0.008813 0.771258 0.180127
O O4 0.643624 0.725231 0.708762
O O5 0.356083 0.611678 0.612666
O O6 0.275853 0.842542 0.603739
O O7 0.361691 0.855113 0.703354
O O8 0.761352 0.409501 0.442880
O O9 0.968632 0.519199 0.341355
O O10 0.000000 0.500000 0.500000
O O11 0.000000 0.000000 0.500000
#
# Coordination Sequence:
#
# PCOD9248038 Si02
#       5
#     4   4   4   4   4
#     4  10  22  41  62  98 125 170 215 263 318 374
#     4  11  21  41  66  94 129 168 212 267 319 379
#     4   9  23  40  61  91 130 164 211 257 323 368
#     4   8  17  37  60  86 129 170 207 259 319 365
#     4  12  23  42  68  93 130 168 217 260 317 383
#
# _framework density 25.569969
#
# number of rings (size 3 to 8) (size 9 to 14) (size 15 to 20)
#    1.200    0.800    2.000    1.200    2.800    0.800 
#    3.600    1.000    0.000    0.000    0.000    0.000 
#    0.000    0.000    0.000    0.000    0.000    0.000 
#
# Total GULP energy -111581.177964 kJ/mol
# GULP energy per Si atom -5579.058898 kJ/mol
# Density = 2.551177 g / cm^3
# Si number density = 25.569969 Si / 1000 Ang^3
#
#
#
# Elastic Constant Matrix: (Units=GPa)
#
#
# Indices 1 2 3 4 5 6 
#
# 1 33.8991 18.1895 16.2871 0.0000 0.2661 0.0000
# 2 18.1895 140.0599 31.0529 0.0000 -2.6822 0.0000
# 3 16.2871 31.0529 172.6194 0.0000 2.8213 0.0000
# 4 0.0000 0.0000 0.0000 38.7834 0.0000 1.8332
# 5 0.2661 -2.6822 2.8213 0.0000 26.9303 0.0000
# 6 0.0000 0.0000 0.0000 1.8332 0.0000 28.9527
#
#
#
# Elastic Compliance Matrix: (Units=1/GPa)
#
#
# Indices 1 2 3 4 5 6 
#
# 1 0.032652 -0.003716 -0.002405 0.000000 -0.000441 0.000000
# 2 -0.003716 0.007880 -0.001082 0.000000 0.000935 0.000000
# 3 -0.002405 -0.001082 0.006227 0.000000 -0.000736 0.000000
# 4 0.000000 0.000000 0.000000 0.025862 0.000000 -0.001637
# 5 -0.000441 0.000935 -0.000736 0.000000 0.037307 0.000000
# 6 0.000000 0.000000 0.000000 -0.001637 0.000000 0.034643
#
#
# Mechanical properties :
#
#
# Convention : Reuss Voigt Hill
#
# Bulk Modulus (GPa) = 30.90928 53.07082 41.99005
# Shear Modulus (GPa) = 29.45308 37.66987 33.56147
#
# Velocity S-wave (km/s) = 3.39759 3.84240 3.62682
# Velocity P-wave (km/s) = 5.24460 6.36283 5.83059
#
# Compressibility (1/GPa) = 0.03235275
#
# Stress axis : x y z
#
# Youngs Moduli (GPa) = 30.62590 126.90005 160.59721
#
# Poissons Ratio (x) = 0.47152 0.38627
# Poissons Ratio (y) = 0.11380 0.17381
# Poissons Ratio (z) = 0.07366 0.13734
#
# Static dielectric constant tensor:
#      x y z
#    x 2.160980 0.000000 0.003090 
#    y 0.000000 2.141940 0.000000 
#    z 0.003090 0.000000 1.904580 
# 
# From -- ./inp_files/51097.got.cif
#   From: 2010.05.17/outbox.cif.g08.bks.cpg/sg14_26_cif.got.tgz:51097.got - 2010.06.03 17:49:19.
