data_PCOD9248938
_publ_section_title
;
Structure prediction by ZEFSAII (Michael W. Deem and Ramdas Pophale) SiO2 
 PCOD9248938
Probable space group: P 21/C
;
_chemical_formula_sum "Si O2"
_cell_formula_units_Z 16
_cell_length_a 9.374295
_cell_length_b 5.206855
_cell_length_c 25.809021
_cell_angle_alpha 90.000000
_cell_angle_beta 28.937888
_cell_angle_gamma 90.000000
_cell_volume 609.545916
_symmetry_space_group_name_H-M "P 21/C"
_symmetry_group_IT_number 14
_symmetry_cell_setting 'monoclinic'
loop_
_space_group_symop_operation_xyz
x,y,z
-x,1/2+y,1/2-z
-x,-y,-z
x,1/2-y,1/2+z
loop_
_atom_site_type_symbol
_atom_site_label
_atom_site_fract_x
_atom_site_fract_y
_atom_site_fract_z
Si Si1 0.789717 0.161041 0.764476
Si Si2 0.552988 0.557140 0.922820
Si Si3 0.326751 0.544677 0.808014
Si Si4 0.240603 0.707549 0.439698
O O1 0.601515 0.336660 0.863885
O O2 0.843826 0.182890 0.685089
O O3 0.119481 0.179290 0.681512
O O4 0.571638 0.916033 0.830596
O O5 0.267957 0.702887 0.990402
O O6 0.500000 0.500000 0.000000
O O7 0.392428 0.242533 0.782327
O O8 0.220390 0.586002 0.900157
O O9 0.000000 0.500000 0.500000
#
# Coordination Sequence:
#
# PCOD9248938 Si02
#       4
#     4   4   4   4
#     4  11  25  48  73 107 152 200 266 329 402 484
#     4  12  27  47  78 111 155 210 263 332 414 489
#     4  10  22  44  74 103 149 201 253 327 395 467
#     4  11  26  45  73 112 151 204 267 335 402 485
#
# _framework density 26.249044999999999
#
# number of rings (size 3 to 8) (size 9 to 14) (size 15 to 20)
#    0.000    1.000    5.000    0.000    3.500   12.000 
#    0.000    0.000    0.000    0.000    0.000    0.000 
#    0.000    0.000    0.000    0.000    0.000    0.000 
#
# Total GULP energy -89082.605343 kJ/mol
# GULP energy per Si atom -5567.662834 kJ/mol
# Density = 2.618930 g / cm^3
# Si number density = 26.249045 Si / 1000 Ang^3
#
#
#
# Elastic Constant Matrix: (Units=GPa)
#
#
# Indices 1 2 3 4 5 6 
#
# 1 265.4174 27.2800 61.2720 0.0000 -1.1185 0.0000
# 2 27.2800 39.8675 23.0779 0.0000 13.5435 0.0000
# 3 61.2720 23.0779 116.6179 0.0000 7.0327 0.0000
# 4 0.0000 0.0000 0.0000 45.4881 0.0000 -5.4913
# 5 -1.1185 13.5435 7.0327 0.0000 62.8938 0.0000
# 6 0.0000 0.0000 0.0000 -5.4913 0.0000 46.6426
#
#
#
# Elastic Compliance Matrix: (Units=1/GPa)
#
#
# Indices 1 2 3 4 5 6 
#
# 1 0.004445 -0.002171 -0.001952 0.000000 0.000765 0.000000
# 2 -0.002171 0.031422 -0.004699 0.000000 -0.006280 0.000000
# 3 -0.001952 -0.004699 0.010542 0.000000 -0.000202 0.000000
# 4 0.000000 0.000000 0.000000 0.022301 0.000000 0.002625
# 5 0.000765 -0.006280 -0.000202 0.000000 0.017288 0.000000
# 6 0.000000 0.000000 0.000000 0.002625 0.000000 0.021749
#
#
# Mechanical properties :
#
#
# Convention : Reuss Voigt Hill
#
# Bulk Modulus (GPa) = 34.76363 71.68474 53.22419
# Shear Modulus (GPa) = 37.04290 51.68976 44.36633
#
# Velocity S-wave (km/s) = 3.76068 4.44239 4.11567
# Velocity P-wave (km/s) = 5.66829 7.32679 6.55024
#
# Compressibility (1/GPa) = 0.02876569
#
# Stress axis : x y z
#
# Youngs Moduli (GPa) = 224.99253 31.82481 94.85487
#
# Poissons Ratio (x) = 0.06910 0.18512
# Poissons Ratio (y) = 0.48854 0.44569
# Poissons Ratio (z) = 0.43911 0.14953
#
# Static dielectric constant tensor:
#      x y z
#    x 2.133190 0.000000 0.078990 
#    y 0.000000 2.183290 0.000000 
#    z 0.078990 0.000000 2.315140 
# 
# From -- ./inp_files/38353.got.cif
#   From: 2010.05.17/outbox.cif.g08.bks.cpg/sg14_20_cif.got.tgz:38353.got - 2010.06.03 17:49:19.
