data_PCOD9248197
_publ_section_title
;
Structure prediction by ZEFSAII (Michael W. Deem and Ramdas Pophale) SiO2 
 PCOD9248197
Probable space group: P 21/C
;
_chemical_formula_sum "Si O2"
_cell_formula_units_Z 32
_cell_length_a 7.870131
_cell_length_b 20.253343
_cell_length_c 8.578324
_cell_angle_alpha 90.000000
_cell_angle_beta 80.148205
_cell_angle_gamma 90.000000
_cell_volume 1347.190982
_symmetry_space_group_name_H-M "P 21/C"
_symmetry_group_IT_number 14
_symmetry_cell_setting 'monoclinic'
loop_
_space_group_symop_operation_xyz
x,y,z
-x,1/2+y,1/2-z
-x,-y,-z
x,1/2-y,1/2+z
loop_
_atom_site_type_symbol
_atom_site_label
_atom_site_fract_x
_atom_site_fract_y
_atom_site_fract_z
Si Si1 0.512921 0.459396 0.761160
Si Si2 0.573850 0.406130 0.089244
Si Si3 0.842473 0.190205 0.949111
Si Si4 0.446365 0.168565 0.099142
Si Si5 0.019558 0.304456 0.116080
Si Si6 0.086880 0.942459 0.890393
Si Si7 0.351344 0.291279 0.279409
Si Si8 0.029609 0.573814 0.054496
O O1 0.444134 0.533846 0.783530
O O2 0.434671 0.407630 0.650987
O O3 0.716771 0.461134 0.688192
O O4 0.488142 0.429536 0.939238
O O5 0.483179 0.341614 0.172841
O O6 0.774252 0.402607 0.010331
O O7 0.862238 0.188210 0.761585
O O8 0.642158 0.188426 0.024231
O O9 0.915224 0.122746 0.006904
O O10 0.949631 0.250465 0.006226
O O11 0.409461 0.215554 0.252290
O O12 0.338825 0.186337 0.960886
O O13 0.176517 0.290747 0.207763
O O14 0.074392 0.370957 0.019920
O O15 0.994919 0.926776 0.742346
O O16 0.000000 0.000000 0.000000
O O17 0.000000 0.500000 0.000000
#
# Coordination Sequence:
#
# PCOD9248197 Si02
#       8
#     4   4   4   4   4   4   4   4
#     4   9  22  41  71  98 134 174 234 276 349 403
#     4  10  22  43  70  98 134 182 222 290 339 421
#     4  11  23  43  71  96 135 181 232 281 342 423
#     4  11  23  45  68 100 133 186 227 285 346 417
#     4  12  26  44  67 105 137 181 231 289 348 412
#     4  10  22  41  69 101 137 176 224 286 345 411
#     4  12  26  42  70  98 143 175 233 289 351 412
#     4  11  24  43  69  99 135 185 231 280 347 418
#
# _framework density 23.753126999999999
#
# number of rings (size 3 to 8) (size 9 to 14) (size 15 to 20)
#    0.000    1.250    0.000    5.250    7.000    3.500 
#    4.500    0.000    0.000    0.000    0.000    0.000 
#    0.000    0.000    0.000    0.000    0.000    0.000 
#
# Total GULP energy -179183.068405 kJ/mol
# GULP energy per Si atom -5599.470888 kJ/mol
# Density = 2.369906 g / cm^3
# Si number density = 23.753127 Si / 1000 Ang^3
#
#
#
# Elastic Constant Matrix: (Units=GPa)
#
#
# Indices 1 2 3 4 5 6 
#
# 1 65.8843 15.6115 12.0745 0.0000 -0.1906 0.0000
# 2 15.6115 109.4304 49.7722 0.0000 -2.0618 0.0000
# 3 12.0745 49.7722 133.2538 0.0000 7.2308 0.0000
# 4 0.0000 0.0000 0.0000 51.2965 0.0000 -2.6454
# 5 -0.1906 -2.0618 7.2308 0.0000 30.5723 0.0000
# 6 0.0000 0.0000 0.0000 -2.6454 0.0000 24.8689
#
#
#
# Elastic Compliance Matrix: (Units=1/GPa)
#
#
# Indices 1 2 3 4 5 6 
#
# 1 0.015765 -0.001919 -0.000719 0.000000 0.000139 0.000000
# 2 -0.001919 0.011334 -0.004154 0.000000 0.001735 0.000000
# 3 -0.000719 -0.004154 0.009255 0.000000 -0.002474 0.000000
# 4 0.000000 0.000000 0.000000 0.019602 0.000000 0.002085
# 5 0.000139 0.001735 -0.002474 0.000000 0.033412 0.000000
# 6 0.000000 0.000000 0.000000 0.002085 0.000000 0.040433
#
#
# Mechanical properties :
#
#
# Convention : Reuss Voigt Hill
#
# Bulk Modulus (GPa) = 43.91722 51.49831 47.70776
# Shear Modulus (GPa) = 33.11796 36.75491 34.93644
#
# Velocity S-wave (km/s) = 3.73803 3.93793 3.83928
# Velocity P-wave (km/s) = 6.09587 6.51184 6.30729
#
# Compressibility (1/GPa) = 0.02277011
#
# Stress axis : x y z
#
# Youngs Moduli (GPa) = 63.43117 88.23081 108.04631
#
# Poissons Ratio (x) = 0.16935 0.07770
# Poissons Ratio (y) = 0.12175 0.44878
# Poissons Ratio (z) = 0.04562 0.36647
#
# Static dielectric constant tensor:
#      x y z
#    x 1.938370 0.000000 -0.013760 
#    y 0.000000 1.869520 0.000000 
#    z -0.013760 0.000000 1.844330 
# 
# From -- ./inp_files/10189.got.cif
#   From: 2010.05.17/outbox.cif.g08.bks.cpg/sg14_6_cif.got.tgz:10189.got - 2010.06.03 17:49:19.
