data_PCOD9248787
_publ_section_title
;
Structure prediction by ZEFSAII (Michael W. Deem and Ramdas Pophale) SiO2 
 PCOD9248787
Probable space group: P 21/C
;
_chemical_formula_sum "Si O2"
_cell_formula_units_Z 24
_cell_length_a 15.351472
_cell_length_b 4.990045
_cell_length_c 13.703215
_cell_angle_alpha 90.000000
_cell_angle_beta 115.665832
_cell_angle_gamma 90.000000
_cell_volume 946.157467
_symmetry_space_group_name_H-M "P 21/C"
_symmetry_group_IT_number 14
_symmetry_cell_setting 'monoclinic'
loop_
_space_group_symop_operation_xyz
x,y,z
-x,1/2+y,1/2-z
-x,-y,-z
x,1/2-y,1/2+z
loop_
_atom_site_type_symbol
_atom_site_label
_atom_site_fract_x
_atom_site_fract_y
_atom_site_fract_z
Si Si1 0.240312 0.143603 0.206223
Si Si2 0.700036 0.860842 0.973096
Si Si3 0.028064 0.146008 0.135170
Si Si4 0.913644 0.642924 0.107856
Si Si5 0.674033 0.328377 0.653908
Si Si6 0.491239 0.105531 0.678134
O O1 0.286785 0.028927 0.129914
O O2 0.129199 0.216105 0.134425
O O3 0.296130 0.406844 0.270146
O O4 0.248343 0.904028 0.287648
O O5 0.611627 0.654526 0.922402
O O6 0.802783 0.726268 0.045653
O O7 0.675336 0.074744 0.043662
O O8 0.057578 0.156021 0.264089
O O9 0.940788 0.352970 0.081224
O O10 0.986902 0.854147 0.094094
O O11 0.574269 0.200716 0.643679
O O12 0.498122 0.308168 0.774284
#
# Coordination Sequence:
#
# PCOD9248787 Si02
#       6
#     4   4   4   4   4   4
#     4  12  26  46  76 107 152 191 249 311 363 442
#     4  12  27  46  80 109 145 201 253 295 380 449
#     4  10  22  44  66 106 147 188 234 308 353 430
#     4  10  23  40  72 104 141 194 242 288 370 431
#     4  12  26  48  73 111 148 194 248 310 371 436
#     4  12  25  50  73 108 150 194 243 314 373 435
#
# _framework density 25.365755
#
# number of rings (size 3 to 8) (size 9 to 14) (size 15 to 20)
#    0.000    0.667    5.000    1.500    4.667    6.667 
#    0.000    3.333    0.000    0.000    0.000    0.000 
#    0.000    0.000    0.000    0.000    0.000    0.000 
#
# Total GULP energy -134651.598972 kJ/mol
# GULP energy per Si atom -5610.483291 kJ/mol
# Density = 2.530802 g / cm^3
# Si number density = 25.365755 Si / 1000 Ang^3
#
#
#
# Elastic Constant Matrix: (Units=GPa)
#
#
# Indices 1 2 3 4 5 6 
#
# 1 123.8256 6.6888 13.5399 0.0000 -0.0090 0.0000
# 2 6.6888 86.0568 18.8106 0.0000 -0.4223 0.0000
# 3 13.5399 18.8106 67.2333 0.0000 10.2397 0.0000
# 4 0.0000 0.0000 0.0000 29.1421 0.0000 2.3745
# 5 -0.0090 -0.4223 10.2397 0.0000 55.7582 0.0000
# 6 0.0000 0.0000 0.0000 2.3745 0.0000 36.2104
#
#
#
# Elastic Compliance Matrix: (Units=1/GPa)
#
#
# Indices 1 2 3 4 5 6 
#
# 1 0.008270 -0.000285 -0.001631 0.000000 0.000299 0.000000
# 2 -0.000285 0.012418 -0.003530 0.000000 0.000742 0.000000
# 3 -0.001631 -0.003530 0.016660 0.000000 -0.003086 0.000000
# 4 0.000000 0.000000 0.000000 0.034499 0.000000 -0.002262
# 5 0.000299 0.000742 -0.003086 0.000000 0.018507 0.000000
# 6 0.000000 0.000000 0.000000 -0.002262 0.000000 0.027765
#
#
# Mechanical properties :
#
#
# Convention : Reuss Voigt Hill
#
# Bulk Modulus (GPa) = 37.79968 39.46602 38.63285
# Shear Modulus (GPa) = 36.27713 40.09390 38.18552
#
# Velocity S-wave (km/s) = 3.78585 3.98003 3.88415
# Velocity P-wave (km/s) = 5.83476 6.05916 5.94802
#
# Compressibility (1/GPa) = 0.02645525
#
# Stress axis : x y z
#
# Youngs Moduli (GPa) = 120.92415 80.53096 60.02490
#
# Poissons Ratio (x) = 0.02293 0.09791
# Poissons Ratio (y) = 0.03443 0.21188
# Poissons Ratio (z) = 0.19726 0.28427
#
# Static dielectric constant tensor:
#      x y z
#    x 1.997000 0.000000 -0.054850 
#    y 0.000000 1.906510 0.000000 
#    z -0.054850 0.000000 2.035480 
# 
# From -- ./inp_files/46005.got.cif
#   From: 2010.05.17/outbox.cif.g08.bks.cpg/sg14_24_cif.got.tgz:46005.got - 2010.06.03 17:49:19.
