data_PCOD9248451
_publ_section_title
;
Structure prediction by ZEFSAII (Michael W. Deem and Ramdas Pophale) SiO2 
 PCOD9248451
Probable space group: P 21/C
;
_chemical_formula_sum "Si O2"
_cell_formula_units_Z 20
_cell_length_a 12.152019
_cell_length_b 8.103259
_cell_length_c 12.255328
_cell_angle_alpha 90.000000
_cell_angle_beta 124.541474
_cell_angle_gamma 90.000000
_cell_volume 994.055398
_symmetry_space_group_name_H-M "P 21/C"
_symmetry_group_IT_number 14
_symmetry_cell_setting 'monoclinic'
loop_
_space_group_symop_operation_xyz
x,y,z
-x,1/2+y,1/2-z
-x,-y,-z
x,1/2-y,1/2+z
loop_
_atom_site_type_symbol
_atom_site_label
_atom_site_fract_x
_atom_site_fract_y
_atom_site_fract_z
Si Si1 0.984273 0.623804 0.160779
Si Si2 0.519935 0.028778 0.137803
Si Si3 0.665456 0.336098 0.306055
Si Si4 0.088810 0.524180 0.658192
Si Si5 0.799467 0.500752 0.876935
O O1 0.945919 0.597826 0.263885
O O2 0.046470 0.801921 0.184431
O O3 0.095550 0.507083 0.164151
O O4 0.858328 0.601893 0.009833
O O5 0.400850 0.944957 0.137704
O O6 0.553379 0.221834 0.183313
O O7 0.657036 0.940699 0.253776
O O8 0.500000 0.000000 0.000000
O O9 0.755330 0.457257 0.283549
O O10 0.768701 0.188929 0.399408
O O11 0.000000 0.500000 0.500000
#
# Coordination Sequence:
#
# PCOD9248451 Si02
#       5
#     4   4   4   4   4
#     4  10  22  43  67  94 135 170 213 288 326 392
#     4  10  22  42  69  86 135 179 217 270 330 385
#     4   9  23  42  62  98 131 168 230 263 322 401
#     4  11  26  41  70 101 133 173 227 273 342 395
#     4   8  21  40  65  90 132 168 223 262 333 379
#
# _framework density 20.119603000000001
#
# number of rings (size 3 to 8) (size 9 to 14) (size 15 to 20)
#    1.200    1.200    0.000    0.000   14.000    1.600 
#    0.000    2.000    0.000    0.000    0.000    0.000 
#    0.000    0.000    0.000    0.000    0.000    0.000 
#
# Total GULP energy -111384.593205 kJ/mol
# GULP energy per Si atom -5569.229660 kJ/mol
# Density = 2.007381 g / cm^3
# Si number density = 20.119603 Si / 1000 Ang^3
#
#
#
# Elastic Constant Matrix: (Units=GPa)
#
#
# Indices 1 2 3 4 5 6 
#
# 1 166.0689 52.1055 78.6355 0.0000 -29.3708 0.0000
# 2 52.1055 36.3646 20.5344 0.0000 -21.3093 0.0000
# 3 78.6355 20.5344 83.5060 0.0000 -24.1553 0.0000
# 4 0.0000 0.0000 0.0000 26.6460 0.0000 -0.6403
# 5 -29.3708 -21.3093 -24.1553 0.0000 33.8132 0.0000
# 6 0.0000 0.0000 0.0000 -0.6403 0.0000 41.7119
#
#
#
# Elastic Compliance Matrix: (Units=1/GPa)
#
#
# Indices 1 2 3 4 5 6 
#
# 1 0.018836 -0.024245 -0.014448 0.000000 -0.009239 0.000000
# 2 -0.024245 0.075633 0.015035 0.000000 0.037346 0.000000
# 3 -0.014448 0.015035 0.026462 0.000000 0.015829 0.000000
# 4 0.000000 0.000000 0.000000 0.037543 0.000000 0.000576
# 5 -0.009239 0.037346 0.015829 0.000000 0.056392 0.000000
# 6 0.000000 0.000000 0.000000 0.000576 0.000000 0.023983
#
#
# Mechanical properties :
#
#
# Convention : Reuss Voigt Hill
#
# Bulk Modulus (GPa) = 13.58403 65.38781 39.48592
# Shear Modulus (GPa) = 16.09250 29.41181 22.75216
#
# Velocity S-wave (km/s) = 2.83122 3.82756 3.36645
# Velocity P-wave (km/s) = 4.17780 7.21829 5.89736
#
# Compressibility (1/GPa) = 0.07361585
#
# Stress axis : x y z
#
# Youngs Moduli (GPa) = 53.09017 13.22170 37.78972
#
# Poissons Ratio (x) = 0.32056 0.54599
# Poissons Ratio (y) = 1.28717 -0.56818
# Poissons Ratio (z) = 0.76705 -0.19879
#
# Static dielectric constant tensor:
#      x y z
#    x 1.780630 0.000000 0.012690 
#    y 0.000000 1.765930 0.000000 
#    z 0.012690 0.000000 1.680900 
# 
# From -- ./inp_files/27861.got.cif
#   From: 2010.05.17/outbox.cif.g08.bks.cpg/sg14_14_cif.got.tgz:27861.got - 2010.06.03 17:49:19.
