data_PCOD9248691
_publ_section_title
;
Structure prediction by ZEFSAII (Michael W. Deem and Ramdas Pophale) SiO2 
 PCOD9248691
Probable space group: P 21/C
;
_chemical_formula_sum "Si O2"
_cell_formula_units_Z 30
_cell_length_a 11.015622
_cell_length_b 15.730118
_cell_length_c 8.680061
_cell_angle_alpha 90.000000
_cell_angle_beta 116.378762
_cell_angle_gamma 90.000000
_cell_volume 1347.447750
_symmetry_space_group_name_H-M "P 21/C"
_symmetry_group_IT_number 14
_symmetry_cell_setting 'monoclinic'
loop_
_space_group_symop_operation_xyz
x,y,z
-x,1/2+y,1/2-z
-x,-y,-z
x,1/2-y,1/2+z
loop_
_atom_site_type_symbol
_atom_site_label
_atom_site_fract_x
_atom_site_fract_y
_atom_site_fract_z
Si Si1 0.000000 0.500000 0.000000
Si Si2 0.845934 0.965452 0.904553
Si Si3 0.059968 0.302060 0.411942
Si Si4 0.531926 0.148812 0.366800
Si Si5 0.832023 0.847773 0.358289
Si Si6 0.463186 0.178740 0.672860
Si Si7 0.581342 0.010334 0.886613
Si Si8 0.177453 0.596859 0.856585
O O1 0.928126 0.431700 0.074346
O O2 0.141938 0.446608 0.099206
O O3 0.744262 0.994893 0.982879
O O4 0.789082 0.012135 0.722648
O O5 0.865811 0.864617 0.923731
O O6 0.000000 0.000000 0.000000
O O7 0.141523 0.316484 0.299993
O O8 0.068350 0.206879 0.475126
O O9 0.908033 0.336852 0.297114
O O10 0.457171 0.166895 0.486198
O O11 0.519996 0.228824 0.247094
O O12 0.687923 0.135305 0.499442
O O13 0.472800 0.064609 0.254596
O O14 0.682457 0.826809 0.330353
O O15 0.551555 0.102247 0.795987
O O16 0.500000 0.000000 0.000000
#
# Coordination Sequence:
#
# PCOD9248691 Si02
#       8
#     2   4   4   4   4   4   4   4
#     4  10  24  40  68  96 142 178 230 296 350 432
#     4  10  22  43  69  97 138 179 237 295 362 427
#     4  10  23  41  67  98 137 182 240 290 354 436
#     4  12  26  45  72 108 145 191 246 296 369 445
#     4  11  23  43  66 103 136 187 240 294 364 430
#     4  12  25  43  72 102 147 189 240 307 363 438
#     4  12  25  45  73 106 142 193 245 300 366 443
#     4  10  23  45  66 105 136 187 234 290 369 426
#
# _framework density 22.264313999999999
#
# number of rings (size 3 to 8) (size 9 to 14) (size 15 to 20)
#    0.000    1.067    1.333    4.400    3.733    4.267 
#    0.000    1.333    0.000    0.000    0.000    0.000 
#    0.000    0.000    0.000    0.000    0.000    0.000 
#
# Total GULP energy -167304.640903 kJ/mol
# GULP energy per Si atom -5576.821363 kJ/mol
# Density = 2.221364 g / cm^3
# Si number density = 22.264314 Si / 1000 Ang^3
#
#
#
# Elastic Constant Matrix: (Units=GPa)
#
#
# Indices 1 2 3 4 5 6 
#
# 1 113.8131 8.0366 27.4577 0.0000 1.1903 0.0000
# 2 8.0366 56.7533 25.4708 0.0000 9.3839 0.0000
# 3 27.4577 25.4708 58.3144 0.0000 2.2074 0.0000
# 4 0.0000 0.0000 0.0000 54.0493 0.0000 4.4936
# 5 1.1903 9.3839 2.2074 0.0000 35.7622 0.0000
# 6 0.0000 0.0000 0.0000 4.4936 0.0000 28.8804
#
#
#
# Elastic Compliance Matrix: (Units=1/GPa)
#
#
# Indices 1 2 3 4 5 6 
#
# 1 0.009948 0.000910 -0.005072 0.000000 -0.000257 0.000000
# 2 0.000910 0.022997 -0.010268 0.000000 -0.005431 0.000000
# 3 -0.005072 -0.010268 0.023969 0.000000 0.001384 0.000000
# 4 0.000000 0.000000 0.000000 0.018744 0.000000 -0.002916
# 5 -0.000257 -0.005431 0.001384 0.000000 0.029311 0.000000
# 6 0.000000 0.000000 0.000000 -0.002916 0.000000 0.035079
#
#
# Mechanical properties :
#
#
# Convention : Reuss Voigt Hill
#
# Bulk Modulus (GPa) = 35.64396 38.97901 37.31149
# Shear Modulus (GPa) = 28.04884 34.93274 31.49079
#
# Velocity S-wave (km/s) = 3.55323 3.96536 3.76494
# Velocity P-wave (km/s) = 5.73395 6.20571 5.97449
#
# Compressibility (1/GPa) = 0.02805524
#
# Stress axis : x y z
#
# Youngs Moduli (GPa) = 100.51864 43.48316 41.72047
#
# Poissons Ratio (x) = -0.03957 0.21161
# Poissons Ratio (y) = -0.09147 0.42838
# Poissons Ratio (z) = 0.50983 0.44648
#
# Static dielectric constant tensor:
#      x y z
#    x 1.861300 0.000000 0.012910 
#    y 0.000000 1.831310 0.000000 
#    z 0.012910 0.000000 1.852240 
# 
# From -- ./inp_files/13434.got.cif
#   From: 2010.05.17/outbox.cif.g08.bks.cpg/sg14_7_cif.got.tgz:13434.got - 2010.06.03 17:49:19.
