data_PCOD9248046
_publ_section_title
;
Structure prediction by ZEFSAII (Michael W. Deem and Ramdas Pophale) SiO2 
 PCOD9248046
Probable space group: P 21/C
;
_chemical_formula_sum "Si O2"
_cell_formula_units_Z 28
_cell_length_a 12.570953
_cell_length_b 19.890722
_cell_length_c 4.931314
_cell_angle_alpha 90.000000
_cell_angle_beta 75.599963
_cell_angle_gamma 90.000000
_cell_volume 1194.313248
_symmetry_space_group_name_H-M "P 21/C"
_symmetry_group_IT_number 14
_symmetry_cell_setting 'monoclinic'
loop_
_space_group_symop_operation_xyz
x,y,z
-x,1/2+y,1/2-z
-x,-y,-z
x,1/2-y,1/2+z
loop_
_atom_site_type_symbol
_atom_site_label
_atom_site_fract_x
_atom_site_fract_y
_atom_site_fract_z
Si Si1 0.450344 0.631366 0.638483
Si Si2 0.460445 0.429616 0.914747
Si Si3 0.772085 0.530205 0.787999
Si Si4 0.226115 0.566676 0.707158
Si Si5 0.985673 0.922295 0.406147
Si Si6 0.114991 0.199503 0.215455
Si Si7 0.648548 0.712071 0.324558
O O1 0.471348 0.622199 0.943166
O O2 0.323890 0.620837 0.643208
O O3 0.526371 0.691157 0.484638
O O4 0.512378 0.575066 0.417494
O O5 0.332371 0.426412 0.059265
O O6 0.500000 0.500000 0.000000
O O7 0.755796 0.495665 0.508445
O O8 0.884861 0.570857 0.759644
O O9 0.774152 0.467063 0.995690
O O10 0.105797 0.595040 0.716027
O O11 0.955246 0.865089 0.645380
O O12 0.000000 0.000000 0.500000
O O13 0.099096 0.260501 0.444686
O O14 0.242182 0.173533 0.148463
O O15 0.660987 0.778665 0.498412
#
# Coordination Sequence:
#
# PCOD9248046 Si02
#       7
#     4   4   4   4   4   4   4
#     4  12  22  37  60  87 125 165 198 258 321 385
#     4  12  21  35  57  88 125 159 203 248 323 391
#     4  11  22  37  58  87 127 166 206 260 315 375
#     4  11  22  38  56  88 129 165 201 257 317 382
#     4  10  24  43  66  97 131 175 224 273 324 386
#     4  10  23  44  68  92 126 168 220 274 328 388
#     4  10  22  41  63  90 120 161 216 269 321 386
#
# _framework density 23.444437000000001
#
# number of rings (size 3 to 8) (size 9 to 14) (size 15 to 20)
#    0.000    1.143    2.857    3.429    0.000    8.000 
#    0.000    1.429    0.000    0.000    0.000    0.000 
#    0.000    0.000    0.000    0.000    0.000    0.000 
#
# Total GULP energy -156301.962375 kJ/mol
# GULP energy per Si atom -5582.212942 kJ/mol
# Density = 2.339108 g / cm^3
# Si number density = 23.444437 Si / 1000 Ang^3
#
#
#
# Elastic Constant Matrix: (Units=GPa)
#
#
# Indices 1 2 3 4 5 6 
#
# 1 147.8204 10.2640 12.8646 0.0000 -37.3846 0.0000
# 2 10.2640 58.0258 14.6670 0.0000 -5.8621 0.0000
# 3 12.8646 14.6670 80.3559 0.0000 -2.6561 0.0000
# 4 0.0000 0.0000 0.0000 32.8631 0.0000 -8.9379
# 5 -37.3846 -5.8621 -2.6561 0.0000 43.1433 0.0000
# 6 0.0000 0.0000 0.0000 -8.9379 0.0000 31.5867
#
#
#
# Elastic Compliance Matrix: (Units=1/GPa)
#
#
# Indices 1 2 3 4 5 6 
#
# 1 0.008785 -0.000530 -0.001063 0.000000 0.007475 0.000000
# 2 -0.000530 0.018321 -0.003199 0.000000 0.001833 0.000000
# 3 -0.001063 -0.003199 0.013181 0.000000 -0.000544 0.000000
# 4 0.000000 0.000000 0.000000 0.032966 0.000000 0.009328
# 5 0.007475 0.001833 -0.000544 0.000000 0.029871 0.000000
# 6 0.000000 0.000000 0.000000 0.009328 0.000000 0.034299
#
#
# Mechanical properties :
#
#
# Convention : Reuss Voigt Hill
#
# Bulk Modulus (GPa) = 32.56933 40.19926 36.38429
# Shear Modulus (GPa) = 31.79860 38.07903 34.93882
#
# Velocity S-wave (km/s) = 3.68685 4.03454 3.86460
# Velocity P-wave (km/s) = 5.66092 6.23596 5.95539
#
# Compressibility (1/GPa) = 0.03070373
#
# Stress axis : x y z
#
# Youngs Moduli (GPa) = 113.83525 54.58157 75.86905
#
# Poissons Ratio (x) = 0.02894 0.08061
# Poissons Ratio (y) = 0.06035 0.24268
# Poissons Ratio (z) = 0.12096 0.17459
#
# Static dielectric constant tensor:
#      x y z
#    x 1.940990 0.000000 -0.000800 
#    y 0.000000 2.059460 0.000000 
#    z -0.000800 0.000000 1.893880 
# 
# From -- ./inp_files/2941.got.cif
#   From: 2010.05.17/outbox.cif.g08.bks.cpg/sg14_2_cif.got.tgz:2941.got - 2010.06.03 17:49:19.
