data_PCOD9248402
_publ_section_title
;
Structure prediction by ZEFSAII (Michael W. Deem and Ramdas Pophale) SiO2 
 PCOD9248402
Probable space group: P 21/C
;
_chemical_formula_sum "Si O2"
_cell_formula_units_Z 32
_cell_length_a 5.507369
_cell_length_b 20.330586
_cell_length_c 13.885588
_cell_angle_alpha 90.000000
_cell_angle_beta 103.740778
_cell_angle_gamma 90.000000
_cell_volume 1510.245830
_symmetry_space_group_name_H-M "P 21/C"
_symmetry_group_IT_number 14
_symmetry_cell_setting 'monoclinic'
loop_
_space_group_symop_operation_xyz
x,y,z
-x,1/2+y,1/2-z
-x,-y,-z
x,1/2-y,1/2+z
loop_
_atom_site_type_symbol
_atom_site_label
_atom_site_fract_x
_atom_site_fract_y
_atom_site_fract_z
Si Si1 0.597653 0.686090 0.195448
Si Si2 0.054553 0.104304 0.959826
Si Si3 0.845693 0.674563 0.030035
Si Si4 0.456958 0.952127 0.737167
Si Si5 0.437398 0.300617 0.581821
Si Si6 0.249799 0.729039 0.545939
Si Si7 0.277214 0.029474 0.544857
Si Si8 0.038223 0.528127 0.355663
O O1 0.828883 0.673936 0.145012
O O2 0.448890 0.616746 0.178450
O O3 0.618874 0.696503 0.311297
O O4 0.474202 0.750885 0.137429
O O5 0.897555 0.169203 0.919015
O O6 0.313024 0.136103 0.020076
O O7 0.939912 0.066403 0.041040
O O8 0.076370 0.049385 0.880543
O O9 0.113435 0.701001 0.024953
O O10 0.677825 0.733583 0.971819
O O11 0.754501 0.606190 0.980255
O O12 0.750239 0.961343 0.793138
O O13 0.257624 0.948515 0.805168
O O14 0.362199 0.010467 0.659990
O O15 0.708795 0.295688 0.559651
O O16 0.500000 0.000000 0.500000
O O17 0.000000 0.000000 0.500000
#
# Coordination Sequence:
#
# PCOD9248402 Si02
#       8
#     4   4   4   4   4   4   4   4
#     4  11  22  41  71  92 134 176 239 275 346 416
#     4  10  23  43  67  98 142 176 232 291 359 407
#     4  10  24  43  63  96 134 179 224 286 346 408
#     4  12  25  43  70 104 136 184 238 279 351 425
#     4  10  22  42  67  97 128 181 228 285 344 419
#     4  10  23  41  67  96 135 180 231 287 351 413
#     4  12  25  44  71  98 141 181 228 290 348 410
#     4  11  26  43  72 102 140 183 231 293 349 426
#
# _framework density 21.188604999999999
#
# number of rings (size 3 to 8) (size 9 to 14) (size 15 to 20)
#    0.000    1.250    2.500    2.250    5.250    4.000 
#    6.750    0.000    0.000    0.000    0.000    0.000 
#    0.000    0.000    0.000    0.000    0.000    0.000 
#
# Total GULP energy -178365.642152 kJ/mol
# GULP energy per Si atom -5573.926317 kJ/mol
# Density = 2.114038 g / cm^3
# Si number density = 21.188605 Si / 1000 Ang^3
#
#
#
# Elastic Constant Matrix: (Units=GPa)
#
#
# Indices 1 2 3 4 5 6 
#
# 1 80.7222 23.3183 27.9445 0.0000 -13.5429 0.0000
# 2 23.3183 131.0360 28.9156 0.0000 -1.9412 0.0000
# 3 27.9445 28.9156 72.2034 0.0000 -16.1264 0.0000
# 4 0.0000 0.0000 0.0000 39.0585 0.0000 8.2880
# 5 -13.5429 -1.9412 -16.1264 0.0000 33.5169 0.0000
# 6 0.0000 0.0000 0.0000 8.2880 0.0000 27.2748
#
#
#
# Elastic Compliance Matrix: (Units=1/GPa)
#
#
# Indices 1 2 3 4 5 6 
#
# 1 0.015003 -0.001671 -0.004263 0.000000 0.003914 0.000000
# 2 -0.001671 0.008606 -0.003181 0.000000 -0.001707 0.000000
# 3 -0.004263 -0.003181 0.018316 0.000000 0.006906 0.000000
# 4 0.000000 0.000000 0.000000 0.027367 0.000000 -0.008316
# 5 0.003914 -0.001707 0.006906 0.000000 0.034641 0.000000
# 6 0.000000 0.000000 0.000000 -0.008316 0.000000 0.039191
#
#
# Mechanical properties :
#
#
# Convention : Reuss Voigt Hill
#
# Bulk Modulus (GPa) = 42.20383 49.36874 45.78629
# Shear Modulus (GPa) = 29.54163 33.55560 31.54861
#
# Velocity S-wave (km/s) = 3.73798 3.98384 3.86287
# Velocity P-wave (km/s) = 6.21220 6.67170 6.44604
#
# Compressibility (1/GPa) = 0.02369453
#
# Stress axis : x y z
#
# Youngs Moduli (GPa) = 66.65124 116.20472 54.59729
#
# Poissons Ratio (x) = 0.19420 0.23276
# Poissons Ratio (y) = 0.11139 0.17366
# Poissons Ratio (z) = 0.28415 0.36963
#
# Static dielectric constant tensor:
#      x y z
#    x 1.975950 0.000000 -0.033240 
#    y 0.000000 1.752550 0.000000 
#    z -0.033240 0.000000 1.794900 
# 
# From -- ./inp_files/37866.got.cif
#   From: 2010.05.17/outbox.cif.g08.bks.cpg/sg14_19_cif.got.tgz:37866.got - 2010.06.03 17:49:19.
