data_PCOD9248397
_publ_section_title
;
Structure prediction by ZEFSAII (Michael W. Deem and Ramdas Pophale) SiO2 
 PCOD9248397
Probable space group: P 21/C
;
_chemical_formula_sum "Si O2"
_cell_formula_units_Z 28
_cell_length_a 11.608672
_cell_length_b 9.236751
_cell_length_c 25.665139
_cell_angle_alpha 90.000000
_cell_angle_beta 28.821156
_cell_angle_gamma 90.000000
_cell_volume 1326.667221
_symmetry_space_group_name_H-M "P 21/C"
_symmetry_group_IT_number 14
_symmetry_cell_setting 'monoclinic'
loop_
_space_group_symop_operation_xyz
x,y,z
-x,1/2+y,1/2-z
-x,-y,-z
x,1/2-y,1/2+z
loop_
_atom_site_type_symbol
_atom_site_label
_atom_site_fract_x
_atom_site_fract_y
_atom_site_fract_z
Si Si1 0.052997 0.413653 0.693570
Si Si2 0.631784 0.776133 0.746241
Si Si3 0.897752 0.136719 0.907505
Si Si4 0.223465 0.946377 0.376259
Si Si5 0.735711 0.089851 0.417359
Si Si6 0.921586 0.154077 0.675973
Si Si7 0.561459 0.524439 0.373496
O O1 0.992852 0.560365 0.686773
O O2 0.294267 0.441454 0.630617
O O3 0.856786 0.375102 0.814290
O O4 0.050208 0.288063 0.652006
O O5 0.646867 0.909964 0.699295
O O6 0.420183 0.659523 0.823986
O O7 0.611004 0.851554 0.810994
O O8 0.887619 0.695942 0.643071
O O9 0.728602 0.266981 0.954772
O O10 0.719313 0.024773 0.005255
O O11 0.123336 0.851946 0.367350
O O12 0.000000 0.000000 0.500000
O O13 0.500000 0.000000 0.500000
O O14 0.917995 0.984507 0.374471
O O15 0.671779 0.120604 0.804682
#
# Coordination Sequence:
#
# PCOD9248397 Si02
#       7
#     4   4   4   4   4   4   4
#     4  11  23  40  65 100 140 172 223 275 344 422
#     4  11  25  46  71  99 135 178 241 291 341 415
#     4  12  23  40  67  99 133 185 219 277 348 408
#     4  11  25  50  73  96 139 185 238 295 352 406
#     4  11  22  38  67  96 138 180 221 274 353 417
#     4  10  23  44  60 100 136 170 230 289 326 424
#     4  10  22  42  67  94 140 171 220 280 344 411
#
# _framework density 21.105519000000001
#
# number of rings (size 3 to 8) (size 9 to 14) (size 15 to 20)
#    0.000    1.143    4.286    3.857    4.000    1.143 
#    5.143    3.571    0.000    0.000    0.000    0.000 
#    0.000    0.000    0.000    0.000    0.000    0.000 
#
# Total GULP energy -156363.935134 kJ/mol
# GULP energy per Si atom -5584.426255 kJ/mol
# Density = 2.105748 g / cm^3
# Si number density = 21.105519 Si / 1000 Ang^3
#
#
#
# Elastic Constant Matrix: (Units=GPa)
#
#
# Indices 1 2 3 4 5 6 
#
# 1 89.6741 30.8625 8.2113 0.0000 -3.8578 0.0000
# 2 30.8625 71.1337 -3.7218 0.0000 6.5948 0.0000
# 3 8.2113 -3.7218 58.2072 0.0000 -0.6294 0.0000
# 4 0.0000 0.0000 0.0000 18.6019 0.0000 -3.1274
# 5 -3.8578 6.5948 -0.6294 0.0000 8.7564 0.0000
# 6 0.0000 0.0000 0.0000 -3.1274 0.0000 36.4505
#
#
#
# Elastic Compliance Matrix: (Units=1/GPa)
#
#
# Indices 1 2 3 4 5 6 
#
# 1 0.014460 -0.007497 -0.002391 0.000000 0.011845 0.000000
# 2 -0.007497 0.019042 0.002086 0.000000 -0.017494 0.000000
# 3 -0.002391 0.002086 0.017636 0.000000 -0.001357 0.000000
# 4 0.000000 0.000000 0.000000 0.054545 0.000000 0.004680
# 5 0.011845 -0.017494 -0.001357 0.000000 0.132499 0.000000
# 6 0.000000 0.000000 0.000000 0.004680 0.000000 0.027836
#
#
# Mechanical properties :
#
#
# Convention : Reuss Voigt Hill
#
# Bulk Modulus (GPa) = 28.14245 32.19098 30.16672
# Shear Modulus (GPa) = 17.03769 25.00596 21.02183
#
# Velocity S-wave (km/s) = 2.84432 3.44584 3.15943
# Velocity P-wave (km/s) = 4.91426 5.57828 5.25677
#
# Compressibility (1/GPa) = 0.03553351
#
# Stress axis : x y z
#
# Youngs Moduli (GPa) = 69.15502 52.51609 56.70203
#
# Poissons Ratio (x) = 0.39372 0.13559
# Poissons Ratio (y) = 0.51846 -0.11828
# Poissons Ratio (z) = 0.16536 -0.10955
#
# Static dielectric constant tensor:
#      x y z
#    x 1.774450 0.000000 0.042470 
#    y 0.000000 1.810230 0.000000 
#    z 0.042470 0.000000 1.869740 
# 
# From -- ./inp_files/77112.got.cif
#   From: 2010.05.17/outbox.cif.g08.bks.cpg/sg14_39_cif.got.tgz:77112.got - 2010.06.03 17:49:19.
