data_PCOD9248910
_publ_section_title
;
Structure prediction by ZEFSAII (Michael W. Deem and Ramdas Pophale) SiO2 
 PCOD9248910
Probable space group: P 21/C
;
_chemical_formula_sum "Si O2"
_cell_formula_units_Z 20
_cell_length_a 9.211431
_cell_length_b 20.682708
_cell_length_c 6.071177
_cell_angle_alpha 90.000000
_cell_angle_beta 49.981929
_cell_angle_gamma 90.000000
_cell_volume 885.821857
_symmetry_space_group_name_H-M "P 21/C"
_symmetry_group_IT_number 14
_symmetry_cell_setting 'monoclinic'
loop_
_space_group_symop_operation_xyz
x,y,z
-x,1/2+y,1/2-z
-x,-y,-z
x,1/2-y,1/2+z
loop_
_atom_site_type_symbol
_atom_site_label
_atom_site_fract_x
_atom_site_fract_y
_atom_site_fract_z
Si Si1 0.813239 0.020851 0.311397
Si Si2 0.416842 0.064764 0.192120
Si Si3 0.014097 0.740683 0.147417
Si Si4 0.985345 0.600284 0.049987
Si Si5 0.250854 0.863779 0.928164
O O1 0.894582 0.042588 0.466724
O O2 0.722394 0.084597 0.292678
O O3 0.671625 0.962155 0.492460
O O4 0.000000 0.000000 0.000000
O O5 0.573611 0.119442 0.083147
O O6 0.238786 0.090503 0.226476
O O7 0.500000 0.000000 0.000000
O O8 0.924854 0.746942 0.981932
O O9 0.197393 0.788501 0.948011
O O10 0.046882 0.664342 0.120773
O O11 0.057618 0.612096 0.733910
#
# Coordination Sequence:
#
# PCOD9248910 Si02
#       5
#     4   4   4   4   4
#     4  12  22  41  68  99 139 184 228 286 360 427
#     4  12  24  41  68 105 141 181 232 297 356 433
#     4  10  22  44  71  96 136 192 237 292 355 425
#     4  11  23  44  66  98 139 184 233 288 363 420
#     4  11  23  43  67  99 138 185 236 294 355 422
#
# _framework density 22.577902000000002
#
# number of rings (size 3 to 8) (size 9 to 14) (size 15 to 20)
#    0.000    0.800    6.000    2.400    0.000    0.000 
#    0.000    8.000    0.000    0.000    0.000    0.000 
#    0.000    0.000    0.000    0.000    0.000    0.000 
#
# Total GULP energy -111337.719352 kJ/mol
# GULP energy per Si atom -5566.885968 kJ/mol
# Density = 2.252651 g / cm^3
# Si number density = 22.577902 Si / 1000 Ang^3
#
#
#
# Elastic Constant Matrix: (Units=GPa)
#
#
# Indices 1 2 3 4 5 6 
#
# 1 101.1610 46.6401 14.7947 0.0000 -16.0618 0.0000
# 2 46.6401 105.7088 10.9364 0.0000 -21.1356 0.0000
# 3 14.7947 10.9364 70.8887 0.0000 -3.5554 0.0000
# 4 0.0000 0.0000 0.0000 27.2899 0.0000 12.5599
# 5 -16.0618 -21.1356 -3.5554 0.0000 41.8797 0.0000
# 6 0.0000 0.0000 0.0000 12.5599 0.0000 38.6233
#
#
#
# Elastic Compliance Matrix: (Units=1/GPa)
#
#
# Indices 1 2 3 4 5 6 
#
# 1 0.012817 -0.005025 -0.001788 0.000000 0.002228 0.000000
# 2 -0.005025 0.012624 -0.000679 0.000000 0.004386 0.000000
# 3 -0.001788 -0.000679 0.014595 0.000000 0.000211 0.000000
# 4 0.000000 0.000000 0.000000 0.043093 0.000000 -0.014013
# 5 0.002228 0.004386 0.000211 0.000000 0.026964 0.000000
# 6 0.000000 0.000000 0.000000 -0.014013 0.000000 0.030448
#
#
# Mechanical properties :
#
#
# Convention : Reuss Voigt Hill
#
# Bulk Modulus (GPa) = 39.91517 46.94454 43.42986
# Shear Modulus (GPa) = 30.51090 35.25106 32.88098
#
# Velocity S-wave (km/s) = 3.68007 3.95563 3.82034
# Velocity P-wave (km/s) = 5.98118 6.45756 6.22393
#
# Compressibility (1/GPa) = 0.02505313
#
# Stress axis : x y z
#
# Youngs Moduli (GPa) = 78.02101 79.21340 68.51611
#
# Poissons Ratio (x) = 0.39801 0.12251
# Poissons Ratio (y) = 0.39202 0.04652
# Poissons Ratio (z) = 0.13951 0.05378
#
# Static dielectric constant tensor:
#      x y z
#    x 1.946730 0.000000 0.097860 
#    y 0.000000 1.945670 0.000000 
#    z 0.097860 0.000000 1.931030 
# 
# From -- ./inp_files/1373.got.cif
#   From: 2010.05.17/outbox.cif.g08.bks.cpg/sg14_1_cif.got.tgz:1373.got - 2010.06.03 17:49:19.
