data_PCOD9248264
_publ_section_title
;
Structure prediction by ZEFSAII (Michael W. Deem and Ramdas Pophale) SiO2 
 PCOD9248264
Probable space group: P 21/C
;
_chemical_formula_sum "Si O2"
_cell_formula_units_Z 24
_cell_length_a 24.478767
_cell_length_b 6.897554
_cell_length_c 13.977818
_cell_angle_alpha 90.000000
_cell_angle_beta 21.654503
_cell_angle_gamma 90.000000
_cell_volume 870.884983
_symmetry_space_group_name_H-M "P 21/C"
_symmetry_group_IT_number 14
_symmetry_cell_setting 'monoclinic'
loop_
_space_group_symop_operation_xyz
x,y,z
-x,1/2+y,1/2-z
-x,-y,-z
x,1/2-y,1/2+z
loop_
_atom_site_type_symbol
_atom_site_label
_atom_site_fract_x
_atom_site_fract_y
_atom_site_fract_z
Si Si1 0.061953 0.919211 0.278173
Si Si2 0.278721 0.070092 0.391561
Si Si3 0.139601 0.674323 0.986831
Si Si4 0.703173 0.301630 0.439586
Si Si5 0.494668 0.691943 0.075159
Si Si6 0.148280 0.395114 0.295873
O O1 0.177019 0.884827 0.177306
O O2 0.919704 0.778649 0.530841
O O3 0.138407 0.863189 0.053423
O O4 0.992659 0.129734 0.371245
O O5 0.246999 0.169478 0.544230
O O6 0.131967 0.985303 0.583084
O O7 0.379645 0.873465 0.239976
O O8 0.349926 0.216046 0.202538
O O9 0.283033 0.621481 0.690053
O O10 0.549579 0.341720 0.742704
O O11 0.753269 0.080178 0.332461
O O12 0.500000 0.500000 0.000000
O O13 0.000000 0.500000 0.500000
#
# Coordination Sequence:
#
# PCOD9248264 Si02
#       6
#     4   4   4   4   4   4
#     4  11  23  38  65  98 129 172 205 273 339 399
#     4  10  22  43  65  94 131 173 221 274 331 382
#     4  12  23  39  62 101 132 165 222 265 334 406
#     4  10  22  42  61  93 130 171 218 273 323 394
#     4  10  22  44  69  87 128 180 222 275 323 383
#     4   9  17  39  61  85 127 166 205 266 335 378
#
# _framework density 27.558176
#
# number of rings (size 3 to 8) (size 9 to 14) (size 15 to 20)
#    0.000    1.667    5.000    1.500    4.667    1.333 
#    6.000    0.000    0.000    0.000    0.000    0.000 
#    0.000    0.000    0.000    0.000    0.000    0.000 
#
# Total GULP energy -133909.760404 kJ/mol
# GULP energy per Si atom -5579.573350 kJ/mol
# Density = 2.749545 g / cm^3
# Si number density = 27.558176 Si / 1000 Ang^3
#
#
#
# Elastic Constant Matrix: (Units=GPa)
#
#
# Indices 1 2 3 4 5 6 
#
# 1 67.9383 12.9859 27.5612 0.0000 26.3538 0.0000
# 2 12.9859 109.8075 33.9082 0.0000 10.0554 0.0000
# 3 27.5612 33.9082 151.7880 0.0000 62.0445 0.0000
# 4 0.0000 0.0000 0.0000 48.4671 0.0000 -5.2396
# 5 26.3538 10.0554 62.0445 0.0000 59.8596 0.0000
# 6 0.0000 0.0000 0.0000 -5.2396 0.0000 32.5878
#
#
#
# Elastic Compliance Matrix: (Units=1/GPa)
#
#
# Indices 1 2 3 4 5 6 
#
# 1 0.017977 -0.001500 0.000352 0.000000 -0.008028 0.000000
# 2 -0.001500 0.009947 -0.002666 0.000000 0.001753 0.000000
# 3 0.000352 -0.002666 0.012146 0.000000 -0.012297 0.000000
# 4 0.000000 0.000000 0.000000 0.020998 0.000000 0.003376
# 5 -0.008028 0.001753 -0.012297 0.000000 0.032691 0.000000
# 6 0.000000 0.000000 0.000000 0.003376 0.000000 0.031229
#
#
# Mechanical properties :
#
#
# Convention : Reuss Voigt Hill
#
# Bulk Modulus (GPa) = 30.82357 53.16049 41.99203
# Shear Modulus (GPa) = 34.86030 45.18814 40.02422
#
# Velocity S-wave (km/s) = 3.56050 4.05376 3.81511
# Velocity P-wave (km/s) = 5.30208 6.42205 5.88875
#
# Compressibility (1/GPa) = 0.03244271
#
# Stress axis : x y z
#
# Youngs Moduli (GPa) = 55.62661 100.53264 82.33049
#
# Poissons Ratio (x) = 0.15076 -0.02899
# Poissons Ratio (y) = 0.08342 0.21952
# Poissons Ratio (z) = -0.01959 0.26805
#
# Static dielectric constant tensor:
#      x y z
#    x 2.206680 0.000000 0.018210 
#    y 0.000000 2.274280 0.000000 
#    z 0.018210 0.000000 2.206140 
# 
# From -- ./inp_files/52223.got.cif
#   From: 2010.05.17/outbox.cif.g08.bks.cpg/sg14_27_cif.got.tgz:52223.got - 2010.06.03 17:49:19.
