data_PCOD9248123
_publ_section_title
;
Structure prediction by ZEFSAII (Michael W. Deem and Ramdas Pophale) SiO2 
 PCOD9248123
Probable space group: P 21/C
;
_chemical_formula_sum "Si O2"
_cell_formula_units_Z 20
_cell_length_a 5.384706
_cell_length_b 7.004915
_cell_length_c 25.985913
_cell_angle_alpha 90.000000
_cell_angle_beta 120.877470
_cell_angle_gamma 90.000000
_cell_volume 841.250135
_symmetry_space_group_name_H-M "P 21/C"
_symmetry_group_IT_number 14
_symmetry_cell_setting 'monoclinic'
loop_
_space_group_symop_operation_xyz
x,y,z
-x,1/2+y,1/2-z
-x,-y,-z
x,1/2-y,1/2+z
loop_
_atom_site_type_symbol
_atom_site_label
_atom_site_fract_x
_atom_site_fract_y
_atom_site_fract_z
Si Si1 0.541755 0.728955 0.009016
Si Si2 0.613330 0.886379 0.208605
Si Si3 0.079427 0.190349 0.539668
Si Si4 0.040486 0.149536 0.855103
Si Si5 0.754639 0.741559 0.333037
O O1 0.758341 0.773323 0.078360
O O2 0.500000 0.500000 0.000000
O O3 0.679873 0.790718 0.969587
O O4 0.220612 0.803450 0.986246
O O5 0.816431 0.810363 0.184942
O O6 0.739806 0.855023 0.278641
O O7 0.294416 0.787637 0.174001
O O8 0.531720 0.108945 0.192152
O O9 0.194353 0.147999 0.608816
O O10 0.000000 0.000000 0.500000
O O11 0.002850 0.919965 0.854839
#
# Coordination Sequence:
#
# PCOD9248123 Si02
#       5
#     4   4   4   4   4
#     4  10  22  41  65  95 131 173 216 268 330 397
#     4  10  25  43  68  96 130 179 219 281 334 389
#     4  10  23  41  65  99 127 177 218 270 331 395
#     4  10  24  42  65  98 132 169 226 272 330 397
#     4  10  26  43  69  94 139 168 232 272 336 398
#
# _framework density 23.774142000000001
#
# number of rings (size 3 to 8) (size 9 to 14) (size 15 to 20)
#    1.200    0.800    0.000    1.200    5.600    8.000 
#    0.000    0.000    0.000    0.000    0.000    0.000 
#    0.000    0.000    0.000    0.000    0.000    0.000 
#
# Total GULP energy -111698.819223 kJ/mol
# GULP energy per Si atom -5584.940961 kJ/mol
# Density = 2.372003 g / cm^3
# Si number density = 23.774142 Si / 1000 Ang^3
#
#
#
# Elastic Constant Matrix: (Units=GPa)
#
#
# Indices 1 2 3 4 5 6 
#
# 1 179.5121 8.2180 56.9443 0.0000 -34.2844 0.0000
# 2 8.2180 68.4130 46.9202 0.0000 8.7070 0.0000
# 3 56.9443 46.9202 232.1594 0.0000 -14.7618 0.0000
# 4 0.0000 0.0000 0.0000 46.5167 0.0000 9.5546
# 5 -34.2844 8.7070 -14.7618 0.0000 37.9030 0.0000
# 6 0.0000 0.0000 0.0000 9.5546 0.0000 3.1502
#
#
#
# Elastic Compliance Matrix: (Units=1/GPa)
#
#
# Indices 1 2 3 4 5 6 
#
# 1 0.007175 -0.000832 -0.001197 0.000000 0.006216 0.000000
# 2 -0.000832 0.018202 -0.003884 0.000000 -0.006447 0.000000
# 3 -0.001197 -0.003884 0.005510 0.000000 0.001956 0.000000
# 4 0.000000 0.000000 0.000000 0.057022 0.000000 -0.172950
# 5 0.006216 -0.006447 0.001956 0.000000 0.034248 0.000000
# 6 0.000000 0.000000 0.000000 -0.172950 0.000000 0.842003
#
#
# Mechanical properties :
#
#
# Convention : Reuss Voigt Hill
#
# Bulk Modulus (GPa) = 52.46372 78.24994 65.35683
# Shear Modulus (GPa) = 5.08989 42.04744 23.56866
#
# Velocity S-wave (km/s) = 1.46478 4.21006 3.15200
# Velocity P-wave (km/s) = 4.99762 7.52450 6.38727
#
# Compressibility (1/GPa) = 0.01906079
#
# Stress axis : x y z
#
# Youngs Moduli (GPa) = 139.36469 54.94003 181.47834
#
# Poissons Ratio (x) = 0.04573 0.21715
# Poissons Ratio (y) = 0.11600 0.70493
# Poissons Ratio (z) = 0.16676 0.21341
#
# Static dielectric constant tensor:
#      x y z
#    x 1.969230 0.000000 0.003320 
#    y 0.000000 1.903070 0.000000 
#    z 0.003320 0.000000 1.832890 
# 
# From -- ./inp_files/63108.got.cif
#   From: 2010.05.17/outbox.cif.g08.bks.cpg/sg14_32_cif.got.tgz:63108.got - 2010.06.03 17:49:19.
