data_PCOD9248113
_publ_section_title
;
Structure prediction by ZEFSAII (Michael W. Deem and Ramdas Pophale) SiO2 
 PCOD9248113
Probable space group: P 21/C
;
_chemical_formula_sum "Si O2"
_cell_formula_units_Z 20
_cell_length_a 10.723636
_cell_length_b 13.679588
_cell_length_c 10.475820
_cell_angle_alpha 90.000000
_cell_angle_beta 141.024213
_cell_angle_gamma 90.000000
_cell_volume 966.603076
_symmetry_space_group_name_H-M "P 21/C"
_symmetry_group_IT_number 14
_symmetry_cell_setting 'monoclinic'
loop_
_space_group_symop_operation_xyz
x,y,z
-x,1/2+y,1/2-z
-x,-y,-z
x,1/2-y,1/2+z
loop_
_atom_site_type_symbol
_atom_site_label
_atom_site_fract_x
_atom_site_fract_y
_atom_site_fract_z
Si Si1 0.422426 0.283679 0.716631
Si Si2 0.228624 0.472368 0.682237
Si Si3 0.607424 0.923209 0.409750
Si Si4 0.771603 0.989938 0.285227
Si Si5 0.468502 0.837106 0.964776
O O1 0.284770 0.374667 0.646117
O O2 0.325451 0.183453 0.585775
O O3 0.556812 0.306740 0.701182
O O4 0.532940 0.249352 0.933871
O O5 0.373744 0.558779 0.748011
O O6 0.000000 0.500000 0.500000
O O7 0.289107 0.450501 0.876439
O O8 0.664588 0.992030 0.337678
O O9 0.693170 0.079513 0.137740
O O10 0.682786 0.891887 0.149533
O O11 0.000000 0.000000 0.500000
#
# Coordination Sequence:
#
# PCOD9248113 Si02
#       5
#     4   4   4   4   4
#     4  11  21  44  67  93 135 179 220 278 345 394
#     4  11  24  43  68  98 137 179 221 281 343 401
#     4  10  23  43  64  97 134 169 224 280 332 407
#     4  10  22  41  68  95 127 177 227 276 339 401
#     4  10  22  41  65  92 137 169 220 286 328 405
#
# _framework density 20.691015
#
# number of rings (size 3 to 8) (size 9 to 14) (size 15 to 20)
#    0.000    1.600    4.000    0.000    2.800    0.000 
#    7.200    8.000    0.000    0.000    0.000    0.000 
#    0.000    0.000    0.000    0.000    0.000    0.000 
#
# Total GULP energy -111451.376826 kJ/mol
# GULP energy per Si atom -5572.568841 kJ/mol
# Density = 2.064392 g / cm^3
# Si number density = 20.691015 Si / 1000 Ang^3
#
#
#
# Elastic Constant Matrix: (Units=GPa)
#
#
# Indices 1 2 3 4 5 6 
#
# 1 92.9519 25.5828 36.3069 0.0000 -21.1734 0.0000
# 2 25.5828 87.1131 32.6354 0.0000 -8.6721 0.0000
# 3 36.3069 32.6354 96.8479 0.0000 17.6457 0.0000
# 4 0.0000 0.0000 0.0000 16.2731 0.0000 -7.7443
# 5 -21.1734 -8.6721 17.6457 0.0000 38.9978 0.0000
# 6 0.0000 0.0000 0.0000 -7.7443 0.0000 21.4346
#
#
#
# Elastic Compliance Matrix: (Units=1/GPa)
#
#
# Indices 1 2 3 4 5 6 
#
# 1 0.017330 -0.000493 -0.008746 0.000000 0.013257 0.000000
# 2 -0.000493 0.014270 -0.005616 0.000000 0.005447 0.000000
# 3 -0.008746 -0.005616 0.018080 0.000000 -0.014178 0.000000
# 4 0.000000 0.000000 0.000000 0.074211 0.000000 0.026812
# 5 0.013257 0.005447 -0.014178 0.000000 0.040467 0.000000
# 6 0.000000 0.000000 0.000000 0.026812 0.000000 0.056341
#
#
# Mechanical properties :
#
#
# Convention : Reuss Voigt Hill
#
# Bulk Modulus (GPa) = 50.07623 51.77369 50.92496
# Shear Modulus (GPa) = 19.45023 27.50029 23.47526
#
# Velocity S-wave (km/s) = 3.06932 3.64963 3.37198
# Velocity P-wave (km/s) = 6.06757 6.54495 6.31078
#
# Compressibility (1/GPa) = 0.01996956
#
# Stress axis : x y z
#
# Youngs Moduli (GPa) = 57.70378 70.07483 55.30946
#
# Poissons Ratio (x) = 0.03455 0.48373
# Poissons Ratio (y) = 0.02845 0.31064
# Poissons Ratio (z) = 0.50468 0.39357
#
# Static dielectric constant tensor:
#      x y z
#    x 1.751790 0.000000 -0.030190 
#    y 0.000000 1.887140 0.000000 
#    z -0.030190 0.000000 1.723890 
# 
# From -- ./inp_files/29685.got.cif
#   From: 2010.05.17/outbox.cif.g08.bks.cpg/sg14_15_cif.got.tgz:29685.got - 2010.06.03 17:49:19.
