data_PCOD9248188
_publ_section_title
;
Structure prediction by ZEFSAII (Michael W. Deem and Ramdas Pophale) SiO2 
 PCOD9248188
Probable space group: P 21/C
;
_chemical_formula_sum "Si O2"
_cell_formula_units_Z 20
_cell_length_a 5.579688
_cell_length_b 10.742379
_cell_length_c 12.541473
_cell_angle_alpha 90.000000
_cell_angle_beta 98.852967
_cell_angle_gamma 90.000000
_cell_volume 742.769244
_symmetry_space_group_name_H-M "P 21/C"
_symmetry_group_IT_number 14
_symmetry_cell_setting 'monoclinic'
loop_
_space_group_symop_operation_xyz
x,y,z
-x,1/2+y,1/2-z
-x,-y,-z
x,1/2-y,1/2+z
loop_
_atom_site_type_symbol
_atom_site_label
_atom_site_fract_x
_atom_site_fract_y
_atom_site_fract_z
Si Si1 0.080125 0.521512 0.743846
Si Si2 0.395014 0.733474 0.879150
Si Si3 0.229452 0.039190 0.587491
Si Si4 0.570791 0.673036 0.177769
Si Si5 0.661941 0.098655 0.946391
O O1 0.254062 0.620327 0.815699
O O2 0.162904 0.383445 0.787074
O O3 0.140351 0.545414 0.623625
O O4 0.837556 0.548660 0.791749
O O5 0.646791 0.669626 0.935013
O O6 0.462903 0.826618 0.789501
O O7 0.520477 0.808849 0.128956
O O8 0.417253 0.925275 0.597944
O O9 0.000000 0.000000 0.500000
O O10 0.240819 0.692816 0.456008
O O11 0.500000 0.000000 0.000000
#
# Coordination Sequence:
#
# PCOD9248188 Si02
#       5
#     4   4   4   4   4
#     4  10  22  42  68  99 134 179 231 282 345 413
#     4  10  22  42  67  96 139 182 225 284 349 406
#     4  11  23  42  72 104 133 182 236 286 343 412
#     4  10  22  41  68  94 140 179 229 279 348 409
#     4  11  21  40  66  95 131 181 224 273 342 408
#
# _framework density 26.926265000000001
#
# number of rings (size 3 to 8) (size 9 to 14) (size 15 to 20)
#    0.000    1.600    2.000    2.400    0.000    6.400 
#    0.000   11.000    0.000    0.000    0.000    0.000 
#    0.000    0.000    0.000    0.000    0.000    0.000 
#
# Total GULP energy -111904.094729 kJ/mol
# GULP energy per Si atom -5595.204736 kJ/mol
# Density = 2.686498 g / cm^3
# Si number density = 26.926265 Si / 1000 Ang^3
#
#
#
# Elastic Constant Matrix: (Units=GPa)
#
#
# Indices 1 2 3 4 5 6 
#
# 1 67.6839 29.9182 43.1348 0.0000 -24.4747 0.0000
# 2 29.9182 88.0887 46.6135 0.0000 -6.2451 0.0000
# 3 43.1348 46.6135 156.2501 0.0000 -37.8156 0.0000
# 4 0.0000 0.0000 0.0000 64.6735 0.0000 -10.4174
# 5 -24.4747 -6.2451 -37.8156 0.0000 65.6976 0.0000
# 6 0.0000 0.0000 0.0000 -10.4174 0.0000 33.4321
#
#
#
# Elastic Compliance Matrix: (Units=1/GPa)
#
#
# Indices 1 2 3 4 5 6 
#
# 1 0.020942 -0.005198 -0.002861 0.000000 0.005661 0.000000
# 2 -0.005198 0.014852 -0.003628 0.000000 -0.002613 0.000000
# 3 -0.002861 -0.003628 0.009214 0.000000 0.003893 0.000000
# 4 0.000000 0.000000 0.000000 0.016279 0.000000 0.005073
# 5 0.005661 -0.002613 0.003893 0.000000 0.019323 0.000000
# 6 0.000000 0.000000 0.000000 0.005073 0.000000 0.031492
#
#
# Mechanical properties :
#
#
# Convention : Reuss Voigt Hill
#
# Bulk Modulus (GPa) = 46.22025 61.26173 53.74099
# Shear Modulus (GPa) = 35.04148 45.58439 40.31294
#
# Velocity S-wave (km/s) = 3.61139 4.11899 3.87351
# Velocity P-wave (km/s) = 5.88152 6.73962 6.32514
#
# Compressibility (1/GPa) = 0.02163554
#
# Stress axis : x y z
#
# Youngs Moduli (GPa) = 47.75048 67.32988 108.52596
#
# Poissons Ratio (x) = 0.34996 0.31046
# Poissons Ratio (y) = 0.24819 0.39377
# Poissons Ratio (z) = 0.13660 0.24430
#
# Static dielectric constant tensor:
#      x y z
#    x 2.128660 0.000000 0.034510 
#    y 0.000000 2.116520 0.000000 
#    z 0.034510 0.000000 2.210770 
# 
# From -- ./inp_files/20871.got.cif
#   From: 2010.05.17/outbox.cif.g08.bks.cpg/sg14_11_cif.got.tgz:20871.got - 2010.06.03 17:49:19.
