data_PCOD9248947
_publ_section_title
;
Structure prediction by ZEFSAII (Michael W. Deem and Ramdas Pophale) SiO2 
 PCOD9248947
Probable space group: P 21/C
;
_chemical_formula_sum "Si O2"
_cell_formula_units_Z 26
_cell_length_a 18.523697
_cell_length_b 9.261560
_cell_length_c 14.493729
_cell_angle_alpha 90.000000
_cell_angle_beta 21.721007
_cell_angle_gamma 90.000000
_cell_volume 920.229684
_symmetry_space_group_name_H-M "P 21/C"
_symmetry_group_IT_number 14
_symmetry_cell_setting 'monoclinic'
loop_
_space_group_symop_operation_xyz
x,y,z
-x,1/2+y,1/2-z
-x,-y,-z
x,1/2-y,1/2+z
loop_
_atom_site_type_symbol
_atom_site_label
_atom_site_fract_x
_atom_site_fract_y
_atom_site_fract_z
Si Si1 0.248975 0.485074 0.297040
Si Si2 0.522766 0.027699 0.131161
Si Si3 0.000000 0.000000 0.500000
Si Si4 0.267495 0.153883 0.270383
Si Si5 0.936373 0.703757 0.237650
Si Si6 0.227545 0.897312 0.004503
Si Si7 0.215420 0.996822 0.634234
O O1 0.307172 0.319665 0.221175
O O2 0.337430 0.576469 0.275263
O O3 0.016126 0.474221 0.593792
O O4 0.273875 0.551364 0.166578
O O5 0.392736 0.092950 0.204602
O O6 0.633643 0.127717 0.072616
O O7 0.365203 0.941426 0.379493
O O8 0.691174 0.939410 0.874232
O O9 0.959255 0.886568 0.461056
O O10 0.048316 0.860076 0.515786
O O11 0.070150 0.781296 0.155439
O O12 0.787460 0.827876 0.379776
O O13 0.164999 0.064994 0.097748
#
# Coordination Sequence:
#
# PCOD9248947 Si02
#       7
#     4   4   2   4   4   4   4
#     4  10  22  44  76 107 156 202 265 320 392 480
#     4  11  25  48  72 117 163 203 268 339 411 450
#     4  12  24  48  78 106 162 220 276 314 388 512
#     4  11  25  47  77 112 159 217 257 330 393 488
#     4  11  25  47  79 113 156 213 273 314 395 485
#     4  11  25  47  77 119 159 209 271 338 390 483
#     4  10  22  45  78 113 153 207 262 337 391 474
#
# _framework density 28.253816
#
# number of rings (size 3 to 8) (size 9 to 14) (size 15 to 20)
#    0.000    1.231    3.077    0.923    6.462    0.615 
#   11.077    6.154    0.000    0.000    0.000    0.000 
#    0.000    0.000    0.000    0.000    0.000    0.000 
#
# Total GULP energy -145079.954277 kJ/mol
# GULP energy per Si atom -5579.998241 kJ/mol
# Density = 2.818951 g / cm^3
# Si number density = 28.253816 Si / 1000 Ang^3
#
#
#
# Elastic Constant Matrix: (Units=GPa)
#
#
# Indices 1 2 3 4 5 6 
#
# 1 220.4554 38.3104 33.6030 0.0000 -1.3866 0.0000
# 2 38.3104 105.4036 28.1988 0.0000 13.8518 0.0000
# 3 33.6030 28.1988 103.0729 0.0000 -2.7620 0.0000
# 4 0.0000 0.0000 0.0000 -6.0156 0.0000 15.9753
# 5 -1.3866 13.8518 -2.7620 0.0000 45.3967 0.0000
# 6 0.0000 0.0000 0.0000 15.9753 0.0000 37.7464
#
#
#
# Elastic Compliance Matrix: (Units=1/GPa)
#
#
# Indices 1 2 3 4 5 6 
#
# 1 0.004993 -0.001572 -0.001183 0.000000 0.000560 0.000000
# 2 -0.001572 0.011250 -0.002663 0.000000 -0.003643 0.000000
# 3 -0.001183 -0.002663 0.010854 0.000000 0.001437 0.000000
# 4 0.000000 0.000000 0.000000 -0.078267 0.000000 0.033125
# 5 0.000560 -0.003643 0.001437 0.000000 0.023244 0.000000
# 6 0.000000 0.000000 0.000000 0.033125 0.000000 0.012473
#
#
# Mechanical properties :
#
#
# Convention : Reuss Voigt Hill
#
# Bulk Modulus (GPa) = 61.49240 69.90628 65.69934
# Shear Modulus (GPa) = 6223.87742 37.34682 3130.61212
#
# Velocity S-wave (km/s) = 46.98539 3.63965 33.32322
# Velocity P-wave (km/s) = 54.45470 6.51603 38.77997
#
# Compressibility (1/GPa) = 0.01626217
#
# Stress axis : x y z
#
# Youngs Moduli (GPa) = 200.27869 88.89039 92.12809
#
# Poissons Ratio (x) = 0.13974 0.10896
# Poissons Ratio (y) = 0.31484 0.24532
# Poissons Ratio (z) = 0.23687 0.23670
#
# Static dielectric constant tensor:
#      x y z
#    x 2.223600 0.000000 0.088740 
#    y 0.000000 2.146500 0.000000 
#    z 0.088740 0.000000 1.450640 
# 
# From -- ./inp_files/60415.got.cif
#   From: 2010.05.17/outbox.cif.g08.bks.cpg/sg14_31_cif.got.tgz:60415.got - 2010.06.03 17:49:19.
