data_PCOD9248480
_publ_section_title
;
Structure prediction by ZEFSAII (Michael W. Deem and Ramdas Pophale) SiO2 
 PCOD9248480
Probable space group: P 21/C
;
_chemical_formula_sum "Si O2"
_cell_formula_units_Z 28
_cell_length_a 20.307256
_cell_length_b 5.218326
_cell_length_c 12.494865
_cell_angle_alpha 90.000000
_cell_angle_beta 57.615304
_cell_angle_gamma 90.000000
_cell_volume 1118.146652
_symmetry_space_group_name_H-M "P 21/C"
_symmetry_group_IT_number 14
_symmetry_cell_setting 'monoclinic'
loop_
_space_group_symop_operation_xyz
x,y,z
-x,1/2+y,1/2-z
-x,-y,-z
x,1/2-y,1/2+z
loop_
_atom_site_type_symbol
_atom_site_label
_atom_site_fract_x
_atom_site_fract_y
_atom_site_fract_z
Si Si1 0.882506 0.078875 0.100475
Si Si2 0.243800 0.258411 0.222955
Si Si3 0.262971 0.606822 0.870531
Si Si4 0.996282 0.675949 0.328615
Si Si5 0.457741 0.150959 0.748790
Si Si6 0.386794 0.879400 0.622953
Si Si7 0.671072 0.401171 0.504454
O O1 0.839851 0.878007 0.216474
O O2 0.811694 0.242624 0.111732
O O3 0.926574 0.937790 0.964362
O O4 0.939428 0.225425 0.133031
O O5 0.316742 0.441131 0.145771
O O6 0.247175 0.177146 0.345135
O O7 0.264612 0.028484 0.127141
O O8 0.344037 0.687573 0.742295
O O9 0.281681 0.686356 0.972809
O O10 0.015873 0.440191 0.228277
O O11 0.516267 0.938842 0.748618
O O12 0.445600 0.054808 0.637390
O O13 0.373990 0.096349 0.878467
O O14 0.399358 0.710291 0.507299
#
# Coordination Sequence:
#
# PCOD9248480 Si02
#       7
#     4   4   4   4   4   4   4
#     4  10  25  44  69 105 140 182 240 296 336 427
#     4  10  22  42  70  95 137 172 232 295 347 402
#     4   9  21  40  64  99 133 171 225 291 346 401
#     4  11  28  47  72 103 147 192 234 282 355 419
#     4  11  27  44  67  96 139 184 229 283 351 418
#     4   9  22  41  63  99 129 173 227 291 336 412
#     4  10  23  41  69  98 133 179 234 286 355 416
#
# _framework density 25.041435
#
# number of rings (size 3 to 8) (size 9 to 14) (size 15 to 20)
#    0.000    2.000    0.000    0.000   14.000    6.857 
#    0.000    0.000    0.000    0.000    0.000    0.000 
#    0.000    0.000    0.000    0.000    0.000    0.000 
#
# Total GULP energy -156372.219261 kJ/mol
# GULP energy per Si atom -5584.722116 kJ/mol
# Density = 2.498444 g / cm^3
# Si number density = 25.041435 Si / 1000 Ang^3
#
#
#
# Elastic Constant Matrix: (Units=GPa)
#
#
# Indices 1 2 3 4 5 6 
#
# 1 112.6837 11.8845 34.0200 0.0000 12.2536 0.0000
# 2 11.8845 54.5422 8.3663 0.0000 7.2499 0.0000
# 3 34.0200 8.3663 92.3057 0.0000 13.8894 0.0000
# 4 0.0000 0.0000 0.0000 24.2104 0.0000 -12.8579
# 5 12.2536 7.2499 13.8894 0.0000 32.4500 0.0000
# 6 0.0000 0.0000 0.0000 -12.8579 0.0000 13.6418
#
#
#
# Elastic Compliance Matrix: (Units=1/GPa)
#
#
# Indices 1 2 3 4 5 6 
#
# 1 0.010264 -0.001443 -0.003332 0.000000 -0.002127 0.000000
# 2 -0.001443 0.019214 -0.000690 0.000000 -0.003452 0.000000
# 3 -0.003332 -0.000690 0.012732 0.000000 -0.004037 0.000000
# 4 0.000000 0.000000 0.000000 0.082703 0.000000 0.077951
# 5 -0.002127 -0.003452 -0.004037 0.000000 0.034119 0.000000
# 6 0.000000 0.000000 0.000000 0.077951 0.000000 0.146776
#
#
# Mechanical properties :
#
#
# Convention : Reuss Voigt Hill
#
# Bulk Modulus (GPa) = 31.96999 40.89702 36.43350
# Shear Modulus (GPa) = 15.28288 27.74449 21.51368
#
# Velocity S-wave (km/s) = 2.47311 3.33219 2.93426
# Velocity P-wave (km/s) = 4.57707 5.58317 5.10497
#
# Compressibility (1/GPa) = 0.03127934
#
# Stress axis : x y z
#
# Youngs Moduli (GPa) = 97.42968 52.04657 78.54462
#
# Poissons Ratio (x) = 0.07508 0.26171
# Poissons Ratio (y) = 0.14055 0.05422
# Poissons Ratio (z) = 0.32463 0.03593
#
# Static dielectric constant tensor:
#      x y z
#    x 1.974920 0.000000 0.020910 
#    y 0.000000 2.043420 0.000000 
#    z 0.020910 0.000000 2.004740 
# 
# From -- ./inp_files/34572.got.cif
#   From: 2010.05.17/outbox.cif.g08.bks.cpg/sg14_18_cif.got.tgz:34572.got - 2010.06.03 17:49:19.
