data_PCOD9248308
_publ_section_title
;
Structure prediction by ZEFSAII (Michael W. Deem and Ramdas Pophale) SiO2 
 PCOD9248308
Probable space group: P 21/C
;
_chemical_formula_sum "Si O2"
_cell_formula_units_Z 30
_cell_length_a 20.856961
_cell_length_b 9.046722
_cell_length_c 10.340819
_cell_angle_alpha 90.000000
_cell_angle_beta 144.165201
_cell_angle_gamma 90.000000
_cell_volume 1142.318338
_symmetry_space_group_name_H-M "P 21/C"
_symmetry_group_IT_number 14
_symmetry_cell_setting 'monoclinic'
loop_
_space_group_symop_operation_xyz
x,y,z
-x,1/2+y,1/2-z
-x,-y,-z
x,1/2-y,1/2+z
loop_
_atom_site_type_symbol
_atom_site_label
_atom_site_fract_x
_atom_site_fract_y
_atom_site_fract_z
Si Si1 0.500000 0.000000 0.000000
Si Si2 0.512032 0.987555 0.709400
Si Si3 0.844920 0.982097 0.037094
Si Si4 0.293078 0.004189 0.597956
Si Si5 0.064163 0.898888 0.300159
Si Si6 0.120102 0.840700 0.677010
Si Si7 0.300075 0.836266 0.361777
Si Si8 0.363916 0.319277 0.788102
O O1 0.525529 0.003445 0.882151
O O2 0.386878 0.889989 0.789878
O O3 0.448266 0.123577 0.534561
O O4 0.426757 0.852052 0.548322
O O5 0.614764 0.927866 0.797598
O O6 0.880963 0.008252 0.244021
O O7 0.769750 0.123066 0.877840
O O8 0.948214 0.980759 0.110536
O O9 0.763675 0.844176 0.887323
O O10 0.176099 0.993848 0.472570
O O11 0.274463 0.976699 0.417033
O O12 0.372045 0.354087 0.264053
O O13 0.063348 0.836810 0.445126
O O14 0.071761 0.780304 0.197522
O O15 0.245287 0.798964 0.844625
#
# Coordination Sequence:
#
# PCOD9248308 Si02
#       8
#     2   4   4   4   4   4   4   4
#     4  10  22  42  64  96 140 174 228 280 354 400
#     4   9  21  44  65 104 131 187 225 282 355 412
#     4  11  24  43  71 101 136 184 232 290 351 414
#     4  10  24  43  70 106 138 183 234 287 349 422
#     4  11  26  44  72 103 137 183 237 284 362 412
#     4  11  23  46  67  98 136 180 229 290 342 426
#     4   9  21  45  68  98 138 181 225 281 359 407
#     4  10  23  44  71 100 142 180 237 286 344 420
#
# _framework density 26.26238
#
# number of rings (size 3 to 8) (size 9 to 14) (size 15 to 20)
#    0.000    1.867    1.333    0.400    3.733    7.467 
#   16.800    0.000    0.000    0.000    0.000    0.000 
#    0.000    0.000    0.000    0.000    0.000    0.000 
#
# Total GULP energy -167285.766943 kJ/mol
# GULP energy per Si atom -5576.192231 kJ/mol
# Density = 2.620261 g / cm^3
# Si number density = 26.262380 Si / 1000 Ang^3
#
#
#
# Elastic Constant Matrix: (Units=GPa)
#
#
# Indices 1 2 3 4 5 6 
#
# 1 130.0818 22.7750 49.5779 0.0000 6.2927 0.0000
# 2 22.7750 87.2328 18.5324 0.0000 -8.2032 0.0000
# 3 49.5779 18.5324 107.2087 0.0000 -10.3516 0.0000
# 4 0.0000 0.0000 0.0000 29.1658 0.0000 8.9573
# 5 6.2927 -8.2032 -10.3516 0.0000 67.6346 0.0000
# 6 0.0000 0.0000 0.0000 8.9573 0.0000 32.4127
#
#
#
# Elastic Compliance Matrix: (Units=1/GPa)
#
#
# Indices 1 2 3 4 5 6 
#
# 1 0.009755 -0.001786 -0.004375 0.000000 -0.001794 0.000000
# 2 -0.001786 0.012316 -0.001160 0.000000 0.001482 0.000000
# 3 -0.004375 -0.001160 0.011751 0.000000 0.002065 0.000000
# 4 0.000000 0.000000 0.000000 0.037467 0.000000 -0.010354
# 5 -0.001794 0.001482 0.002065 0.000000 0.015448 0.000000
# 6 0.000000 0.000000 0.000000 -0.010354 0.000000 0.033713
#
#
# Mechanical properties :
#
#
# Convention : Reuss Voigt Hill
#
# Bulk Modulus (GPa) = 52.14136 56.25488 54.19812
# Shear Modulus (GPa) = 35.33961 41.41849 38.37905
#
# Velocity S-wave (km/s) = 3.67227 3.97558 3.82693
# Velocity P-wave (km/s) = 6.15450 6.52231 6.34107
#
# Compressibility (1/GPa) = 0.01917863
#
# Stress axis : x y z
#
# Youngs Moduli (GPa) = 102.51668 81.19743 85.10017
#
# Poissons Ratio (x) = 0.14501 0.37235
# Poissons Ratio (y) = 0.18308 0.09871
# Poissons Ratio (z) = 0.44855 0.09418
#
# Static dielectric constant tensor:
#      x y z
#    x 2.412030 0.000000 0.636840 
#    y 0.000000 14.442110 0.000000 
#    z 0.636840 0.000000 3.115960 
# 
# From -- ./inp_files/18030.got.cif
#   From: 2010.05.17/outbox.cif.g08.bks.cpg/sg14_10_cif.got.tgz:18030.got - 2010.06.03 17:49:19.
