data_PCOD9248375
_publ_section_title
;
Structure prediction by ZEFSAII (Michael W. Deem and Ramdas Pophale) SiO2 
 PCOD9248375
Probable space group: P 21/C
;
_chemical_formula_sum "Si O2"
_cell_formula_units_Z 18
_cell_length_a 11.320440
_cell_length_b 9.373198
_cell_length_c 8.486600
_cell_angle_alpha 90.000000
_cell_angle_beta 132.640406
_cell_angle_gamma 90.000000
_cell_volume 662.427113
_symmetry_space_group_name_H-M "P 21/C"
_symmetry_group_IT_number 14
_symmetry_cell_setting 'monoclinic'
loop_
_space_group_symop_operation_xyz
x,y,z
-x,1/2+y,1/2-z
-x,-y,-z
x,1/2-y,1/2+z
loop_
_atom_site_type_symbol
_atom_site_label
_atom_site_fract_x
_atom_site_fract_y
_atom_site_fract_z
Si Si1 0.938647 0.673935 0.661432
Si Si2 0.384917 0.291309 0.813274
Si Si3 0.000000 0.000000 0.500000
Si Si4 0.142016 0.804328 0.065591
Si Si5 0.516908 0.424256 0.234665
O O1 0.794142 0.710093 0.415397
O O2 0.080883 0.626181 0.672110
O O3 0.891318 0.569598 0.758628
O O4 0.008332 0.816299 0.806647
O O5 0.481299 0.408157 0.795048
O O6 0.466914 0.140352 0.855557
O O7 0.396749 0.350933 0.999285
O O8 0.870276 0.133078 0.418021
O O9 0.308656 0.866793 0.161240
#
# Coordination Sequence:
#
# PCOD9248375 Si02
#       5
#     4   4   2   4   4
#     4  10  22  42  67 100 130 176 231 278 337 399
#     4  11  26  45  68 103 140 180 232 278 351 405
#     4   8  24  38  70  98 128 180 226 280 336 396
#     4  10  22  42  69  97 134 174 231 278 339 399
#     4  11  26  46  69 103 140 188 221 287 344 412
#
# _framework density 27.172799000000001
#
# number of rings (size 3 to 8) (size 9 to 14) (size 15 to 20)
#    1.333    0.444    0.000    2.667    6.222    3.556 
#    4.000    0.000    0.000    0.000    0.000    0.000 
#    0.000    0.000    0.000    0.000    0.000    0.000 
#
# Total GULP energy -100259.239104 kJ/mol
# GULP energy per Si atom -5569.957728 kJ/mol
# Density = 2.711095 g / cm^3
# Si number density = 27.172799 Si / 1000 Ang^3
#
#
#
# Elastic Constant Matrix: (Units=GPa)
#
#
# Indices 1 2 3 4 5 6 
#
# 1 73.7330 0.4378 25.3210 0.0000 10.8135 0.0000
# 2 0.4378 99.2212 13.1780 0.0000 -2.8368 0.0000
# 3 25.3210 13.1780 139.2652 0.0000 10.3267 0.0000
# 4 0.0000 0.0000 0.0000 39.0348 0.0000 -15.2723
# 5 10.8135 -2.8368 10.3267 0.0000 25.4044 0.0000
# 6 0.0000 0.0000 0.0000 -15.2723 0.0000 42.9793
#
#
#
# Elastic Compliance Matrix: (Units=1/GPa)
#
#
# Indices 1 2 3 4 5 6 
#
# 1 0.015178 0.000090 -0.002361 0.000000 -0.005491 0.000000
# 2 0.000090 0.010269 -0.001103 0.000000 0.001557 0.000000
# 3 -0.002361 -0.001103 0.007887 0.000000 -0.002324 0.000000
# 4 0.000000 0.000000 0.000000 0.029755 0.000000 0.010573
# 5 -0.005491 0.001557 -0.002324 0.000000 0.042819 0.000000
# 6 0.000000 0.000000 0.000000 0.010573 0.000000 0.027024
#
#
# Mechanical properties :
#
#
# Convention : Reuss Voigt Hill
#
# Bulk Modulus (GPa) = 37.61653 43.34367 40.48010
# Shear Modulus (GPa) = 33.66034 39.70254 36.68144
#
# Velocity S-wave (km/s) = 3.52341 3.82660 3.67813
# Velocity P-wave (km/s) = 5.51598 5.95899 5.74176
#
# Compressibility (1/GPa) = 0.02658406
#
# Stress axis : x y z
#
# Youngs Moduli (GPa) = 65.88495 97.37882 126.79801
#
# Poissons Ratio (x) = -0.00873 0.29937
# Poissons Ratio (y) = -0.00590 0.13992
# Poissons Ratio (z) = 0.15555 0.10746
#
# Static dielectric constant tensor:
#      x y z
#    x 2.155780 0.000000 -0.073000 
#    y 0.000000 2.466870 0.000000 
#    z -0.073000 0.000000 2.281910 
# 
# From -- ./inp_files/12289.got.cif
#   From: 2010.05.17/outbox.cif.g08.bks.cpg/sg14_7_cif.got.tgz:12289.got - 2010.06.03 17:49:19.
