data_PCOD9248800
_publ_section_title
;
Structure prediction by ZEFSAII (Michael W. Deem and Ramdas Pophale) SiO2 
 PCOD9248800
Probable space group: P 21/C
;
_chemical_formula_sum "Si O2"
_cell_formula_units_Z 30
_cell_length_a 8.937682
_cell_length_b 6.579341
_cell_length_c 24.590448
_cell_angle_alpha 90.000000
_cell_angle_beta 54.507556
_cell_angle_gamma 90.000000
_cell_volume 1177.336520
_symmetry_space_group_name_H-M "P 21/C"
_symmetry_group_IT_number 14
_symmetry_cell_setting 'monoclinic'
loop_
_space_group_symop_operation_xyz
x,y,z
-x,1/2+y,1/2-z
-x,-y,-z
x,1/2-y,1/2+z
loop_
_atom_site_type_symbol
_atom_site_label
_atom_site_fract_x
_atom_site_fract_y
_atom_site_fract_z
Si Si1 0.748598 0.863012 0.474984
Si Si2 0.500000 0.000000 0.000000
Si Si3 0.757726 0.229542 0.031392
Si Si4 0.724039 0.701705 0.699680
Si Si5 0.227245 0.357782 0.153794
Si Si6 0.934983 0.462278 0.582129
Si Si7 0.820179 0.020027 0.773388
Si Si8 0.454152 0.898400 0.684905
O O1 0.574423 0.715368 0.512351
O O2 0.924940 0.720501 0.442556
O O3 0.755736 0.034257 0.518710
O O4 0.765738 0.937236 0.408928
O O5 0.387655 0.871764 0.977688
O O6 0.753655 0.134847 0.092635
O O7 0.958550 0.142388 0.971286
O O8 0.893628 0.559168 0.648877
O O9 0.775544 0.869376 0.732747
O O10 0.646547 0.796368 0.660029
O O11 0.581422 0.542692 0.755363
O O12 0.226700 0.112088 0.162398
O O13 0.403095 0.448919 0.147319
O O14 0.035673 0.424382 0.222784
O O15 0.693340 0.217318 0.792970
#
# Coordination Sequence:
#
# PCOD9248800 Si02
#       8
#     4   2   4   4   4   4   4   4
#     4  11  23  43  68  95 129 180 217 280 343 393
#     4  10  24  44  66  92 138 160 226 284 326 404
#     4  10  22  44  66  99 127 172 225 279 334 399
#     4  11  23  41  64  92 134 174 211 271 331 387
#     4  11  24  38  66  94 128 172 220 267 334 392
#     4  10  23  40  68  95 130 172 225 276 331 406
#     4  11  22  40  60  92 133 168 216 271 319 406
#     4  11  23  41  61  94 135 168 219 265 319 407
#
# _framework density 25.481245999999999
#
# number of rings (size 3 to 8) (size 9 to 14) (size 15 to 20)
#    0.000    1.333    2.667    2.400    1.867    4.267 
#    0.000    1.333    0.000    0.000    0.000    0.000 
#    0.000    0.000    0.000    0.000    0.000    0.000 
#
# Total GULP energy -167367.120921 kJ/mol
# GULP energy per Si atom -5578.904031 kJ/mol
# Density = 2.542325 g / cm^3
# Si number density = 25.481246 Si / 1000 Ang^3
#
#
#
# Elastic Constant Matrix: (Units=GPa)
#
#
# Indices 1 2 3 4 5 6 
#
# 1 115.2125 32.0086 -8.5964 0.0000 6.0229 0.0000
# 2 32.0086 113.3430 6.9578 0.0000 -2.2332 0.0000
# 3 -8.5964 6.9578 17.2372 0.0000 -4.0916 0.0000
# 4 0.0000 0.0000 0.0000 9.5836 0.0000 1.3968
# 5 6.0229 -2.2332 -4.0916 0.0000 26.4243 0.0000
# 6 0.0000 0.0000 0.0000 1.3968 0.0000 49.7628
#
#
#
# Elastic Compliance Matrix: (Units=1/GPa)
#
#
# Indices 1 2 3 4 5 6 
#
# 1 0.010116 -0.003256 0.005966 0.000000 -0.001657 0.000000
# 2 -0.003256 0.010096 -0.005523 0.000000 0.000740 0.000000
# 3 0.005966 -0.005523 0.065181 0.000000 0.008266 0.000000
# 4 0.000000 0.000000 0.000000 0.104773 0.000000 -0.002941
# 5 -0.001657 0.000740 0.008266 0.000000 0.039564 0.000000
# 6 0.000000 0.000000 0.000000 -0.002941 0.000000 0.020178
#
#
# Mechanical properties :
#
#
# Convention : Reuss Voigt Hill
#
# Bulk Modulus (GPa) = 12.53663 34.05920 23.29792
# Shear Modulus (GPa) = 17.72279 31.51565 24.61922
#
# Velocity S-wave (km/s) = 2.64014 3.52066 3.11170
# Velocity P-wave (km/s) = 3.77152 5.47011 4.69822
#
# Compressibility (1/GPa) = 0.07976623
#
# Stress axis : x y z
#
# Youngs Moduli (GPa) = 98.85482 99.05097 15.34195
#
# Poissons Ratio (x) = 0.32247 -0.09152
# Poissons Ratio (y) = 0.32183 0.08474
# Poissons Ratio (z) = -0.58973 0.54707
#
# Static dielectric constant tensor:
#      x y z
#    x 1.987130 0.000000 0.022230 
#    y 0.000000 1.991300 0.000000 
#    z 0.022230 0.000000 2.119260 
# 
# From -- ./inp_files/79211.got.cif
#   From: 2010.05.17/outbox.cif.g08.bks.cpg/sg14_40_cif.got.tgz:79211.got - 2010.06.03 17:49:19.
