data_PCOD9248883
_publ_section_title
;
Structure prediction by ZEFSAII (Michael W. Deem and Ramdas Pophale) SiO2 
 PCOD9248883
Probable space group: P 21/C
;
_chemical_formula_sum "Si O2"
_cell_formula_units_Z 22
_cell_length_a 19.664458
_cell_length_b 5.423162
_cell_length_c 9.142838
_cell_angle_alpha 90.000000
_cell_angle_beta 129.445742
_cell_angle_gamma 90.000000
_cell_volume 752.939941
_symmetry_space_group_name_H-M "P 21/C"
_symmetry_group_IT_number 14
_symmetry_cell_setting 'monoclinic'
loop_
_space_group_symop_operation_xyz
x,y,z
-x,1/2+y,1/2-z
-x,-y,-z
x,1/2-y,1/2+z
loop_
_atom_site_type_symbol
_atom_site_label
_atom_site_fract_x
_atom_site_fract_y
_atom_site_fract_z
Si Si1 0.373736 0.763203 0.928199
Si Si2 0.500000 0.500000 0.500000
Si Si3 0.993408 0.654356 0.826939
Si Si4 0.188686 0.384201 0.829832
Si Si5 0.819975 0.249010 0.412609
Si Si6 0.383188 0.248764 0.604183
O O1 0.272737 0.836981 0.779114
O O2 0.383399 0.502253 0.011731
O O3 0.423193 0.785181 0.843455
O O4 0.417921 0.020906 0.051115
O O5 0.555730 0.714698 0.674132
O O6 0.986301 0.379495 0.757376
O O7 0.902289 0.744923 0.768079
O O8 0.088471 0.661170 0.034441
O O9 0.185791 0.467732 0.654468
O O10 0.184682 0.625537 0.932397
O O11 0.277869 0.237392 0.993021
#
# Coordination Sequence:
#
# PCOD9248883 Si02
#       6
#     4   2   4   4   4   4
#     4  11  26  45  71 105 141 188 236 301 359 436
#     4  12  24  50  72 106 142 190 244 298 370 428
#     4  10  23  42  73 106 145 192 245 300 366 435
#     4  10  22  44  70 107 143 192 239 302 360 437
#     4  10  22  46  70 105 143 188 240 296 360 429
#     4  11  26  45  71 104 144 184 241 295 365 429
#
# _framework density 29.218799000000001
#
# number of rings (size 3 to 8) (size 9 to 14) (size 15 to 20)
#    0.000    1.455    1.818    1.636    0.000   14.545 
#    3.273   16.364    0.000    0.000    0.000    0.000 
#    0.000    0.000    0.000    0.000    0.000    0.000 
#
# Total GULP energy -122711.919025 kJ/mol
# GULP energy per Si atom -5577.814501 kJ/mol
# Density = 2.915230 g / cm^3
# Si number density = 29.218799 Si / 1000 Ang^3
#
#
#
# Elastic Constant Matrix: (Units=GPa)
#
#
# Indices 1 2 3 4 5 6 
#
# 1 180.0697 63.3037 88.5436 0.0000 45.8483 0.0000
# 2 63.3037 131.9864 64.2115 0.0000 -14.3800 0.0000
# 3 88.5436 64.2115 124.9290 0.0000 35.0096 0.0000
# 4 0.0000 0.0000 0.0000 24.8142 0.0000 -5.0347
# 5 45.8483 -14.3800 35.0096 0.0000 77.3378 0.0000
# 6 0.0000 0.0000 0.0000 -5.0347 0.0000 72.2112
#
#
#
# Elastic Compliance Matrix: (Units=1/GPa)
#
#
# Indices 1 2 3 4 5 6 
#
# 1 0.009857 -0.003293 -0.003991 0.000000 -0.004649 0.000000
# 2 -0.003293 0.013081 -0.006435 0.000000 0.007297 0.000000
# 3 -0.003991 -0.006435 0.015820 0.000000 -0.005992 0.000000
# 4 0.000000 0.000000 0.000000 0.040878 0.000000 0.002850
# 5 -0.004649 0.007297 -0.005992 0.000000 0.019756 0.000000
# 6 0.000000 0.000000 0.000000 0.002850 0.000000 0.014047
#
#
# Mechanical properties :
#
#
# Convention : Reuss Voigt Hill
#
# Bulk Modulus (GPa) = 88.33041 96.56696 92.44868
# Shear Modulus (GPa) = 34.56624 49.60105 42.08364
#
# Velocity S-wave (km/s) = 3.44323 4.12463 3.79924
# Velocity P-wave (km/s) = 6.79000 7.47026 7.13824
#
# Compressibility (1/GPa) = 0.01132113
#
# Stress axis : x y z
#
# Youngs Moduli (GPa) = 101.44934 76.44448 63.21184
#
# Poissons Ratio (x) = 0.25170 0.25228
# Poissons Ratio (y) = 0.33403 0.40677
# Poissons Ratio (z) = 0.40489 0.49192
#
# Static dielectric constant tensor:
#      x y z
#    x 2.603040 0.000000 -0.017330 
#    y 0.000000 2.291830 0.000000 
#    z -0.017330 0.000000 2.321260 
# 
# From -- ./inp_files/35573.got.cif
#   From: 2010.05.17/outbox.cif.g08.bks.cpg/sg14_18_cif.got.tgz:35573.got - 2010.06.03 17:49:19.
