data_PCOD9248531
_publ_section_title
;
Structure prediction by ZEFSAII (Michael W. Deem and Ramdas Pophale) SiO2 
 PCOD9248531
Probable space group: P 21/C
;
_chemical_formula_sum "Si O2"
_cell_formula_units_Z 24
_cell_length_a 15.750709
_cell_length_b 11.787275
_cell_length_c 10.618857
_cell_angle_alpha 90.000000
_cell_angle_beta 147.716049
_cell_angle_gamma 90.000000
_cell_volume 1052.995534
_symmetry_space_group_name_H-M "P 21/C"
_symmetry_group_IT_number 14
_symmetry_cell_setting 'monoclinic'
loop_
_space_group_symop_operation_xyz
x,y,z
-x,1/2+y,1/2-z
-x,-y,-z
x,1/2-y,1/2+z
loop_
_atom_site_type_symbol
_atom_site_label
_atom_site_fract_x
_atom_site_fract_y
_atom_site_fract_z
Si Si1 0.603237 0.666853 0.080717
Si Si2 0.314945 0.925574 0.359541
Si Si3 0.743546 0.039489 0.286999
Si Si4 0.839854 0.808284 0.521165
Si Si5 0.473387 0.115586 0.132730
Si Si6 0.964847 0.246190 0.486761
O O1 0.713990 0.558453 0.196614
O O2 0.678681 0.739323 0.288795
O O3 0.427693 0.619646 0.888839
O O4 0.587839 0.756305 0.949625
O O5 0.428564 0.914610 0.622381
O O6 0.162734 0.847479 0.183193
O O7 0.597336 0.102222 0.172080
O O8 0.872524 0.130499 0.407423
O O9 0.807072 0.942289 0.461472
O O10 0.670336 0.969943 0.077456
O O11 0.950496 0.773197 0.540715
O O12 0.920209 0.776504 0.752830
#
# Coordination Sequence:
#
# PCOD9248531 Si02
#       6
#     4   4   4   4   4   4
#     4  10  25  44  64 103 130 180 227 285 337 400
#     4  11  25  41  73  96 138 173 232 286 332 403
#     4  10  23  44  68  99 133 181 226 282 339 408
#     4  11  28  44  70  98 142 181 227 277 345 406
#     4  10  22  42  73  98 129 176 232 286 333 402
#     4  12  26  45  68 102 140 183 225 279 343 409
#
# _framework density 22.792119
#
# number of rings (size 3 to 8) (size 9 to 14) (size 15 to 20)
#    0.000    1.333    1.667    1.500   11.667    2.000 
#    0.000    0.000    0.000    0.000    0.000    0.000 
#    0.000    0.000    0.000    0.000    0.000    0.000 
#
# Total GULP energy -134371.690590 kJ/mol
# GULP energy per Si atom -5598.820441 kJ/mol
# Density = 2.274024 g / cm^3
# Si number density = 22.792119 Si / 1000 Ang^3
#
#
#
# Elastic Constant Matrix: (Units=GPa)
#
#
# Indices 1 2 3 4 5 6 
#
# 1 84.0317 39.6049 31.5355 0.0000 5.5613 0.0000
# 2 39.6049 154.7416 25.0551 0.0000 8.0310 0.0000
# 3 31.5355 25.0551 77.4797 0.0000 -9.1748 0.0000
# 4 0.0000 0.0000 0.0000 32.2509 0.0000 14.2588
# 5 5.5613 8.0310 -9.1748 0.0000 38.8625 0.0000
# 6 0.0000 0.0000 0.0000 14.2588 0.0000 10.3309
#
#
#
# Elastic Compliance Matrix: (Units=1/GPa)
#
#
# Indices 1 2 3 4 5 6 
#
# 1 0.015640 -0.002911 -0.005780 0.000000 -0.003001 0.000000
# 2 -0.002911 0.007514 -0.001419 0.000000 -0.001471 0.000000
# 3 -0.005780 -0.001419 0.016306 0.000000 0.004970 0.000000
# 4 0.000000 0.000000 0.000000 0.079551 0.000000 -0.109797
# 5 -0.003001 -0.001471 0.004970 0.000000 0.027639 0.000000
# 6 0.000000 0.000000 0.000000 -0.109797 0.000000 0.248341
#
#
# Mechanical properties :
#
#
# Convention : Reuss Voigt Hill
#
# Bulk Modulus (GPa) = 51.97471 56.51599 54.24535
# Shear Modulus (GPa) = 11.85891 30.95934 21.40913
#
# Velocity S-wave (km/s) = 2.28350 3.68956 3.06816
# Velocity P-wave (km/s) = 5.45947 6.55748 6.03351
#
# Compressibility (1/GPa) = 0.01924013
#
# Stress axis : x y z
#
# Youngs Moduli (GPa) = 63.93858 133.09148 61.32563
#
# Poissons Ratio (x) = 0.38748 0.35444
# Poissons Ratio (y) = 0.18615 0.08702
# Poissons Ratio (z) = 0.36954 0.18885
#
# Static dielectric constant tensor:
#      x y z
#    x 1.894010 0.000000 0.009650 
#    y 0.000000 1.839110 0.000000 
#    z 0.009650 0.000000 1.804050 
# 
# From -- ./inp_files/33969.got.cif
#   From: 2010.05.17/outbox.cif.g08.bks.cpg/sg14_17_cif.got.tgz:33969.got - 2010.06.03 17:49:19.
