data_PCOD9248088
_publ_section_title
;
Structure prediction by ZEFSAII (Michael W. Deem and Ramdas Pophale) SiO2 
 PCOD9248088
Probable space group: P 21/C
;
_chemical_formula_sum "Si O2"
_cell_formula_units_Z 24
_cell_length_a 12.632767
_cell_length_b 9.012777
_cell_length_c 8.504240
_cell_angle_alpha 90.000000
_cell_angle_beta 80.491038
_cell_angle_gamma 90.000000
_cell_volume 954.957270
_symmetry_space_group_name_H-M "P 21/C"
_symmetry_group_IT_number 14
_symmetry_cell_setting 'monoclinic'
loop_
_space_group_symop_operation_xyz
x,y,z
-x,1/2+y,1/2-z
-x,-y,-z
x,1/2-y,1/2+z
loop_
_atom_site_type_symbol
_atom_site_label
_atom_site_fract_x
_atom_site_fract_y
_atom_site_fract_z
Si Si1 0.755844 0.918156 0.211475
Si Si2 0.568186 0.280531 0.038957
Si Si3 0.068906 0.912207 0.303484
Si Si4 0.191907 0.687784 0.073864
Si Si5 0.126161 0.297808 0.618408
Si Si6 0.516551 0.473754 0.747284
O O1 0.771882 0.778640 0.323532
O O2 0.794176 0.065902 0.292723
O O3 0.631974 0.946294 0.203018
O O4 0.832329 0.878005 0.047651
O O5 0.566283 0.400107 0.182598
O O6 0.501697 0.137045 0.106371
O O7 0.691634 0.240860 0.982092
O O8 0.524581 0.366058 0.898218
O O9 0.111262 0.813834 0.148504
O O10 0.151213 0.889274 0.425832
O O11 0.957806 0.836701 0.383239
O O12 0.069670 0.079694 0.242603
#
# Coordination Sequence:
#
# PCOD9248088 Si02
#       6
#     4   4   4   4   4   4
#     4  11  25  44  66  94 128 166 214 262 319 382
#     4  10  22  41  64  95 130 165 210 260 315 373
#     4  12  25  42  67  93 128 170 214 265 317 378
#     4  11  23  43  66  94 129 169 214 263 318 377
#     4  12  26  44  65  94 128 168 213 264 320 379
#     4  10  23  42  66  96 129 167 211 260 313 377
#
# _framework density 25.132014999999999
#
# number of rings (size 3 to 8) (size 9 to 14) (size 15 to 20)
#    0.000    1.000    0.000    7.000    0.000   10.000 
#    0.000    1.667    0.000    0.000    0.000    0.000 
#    0.000    0.000    0.000    0.000    0.000    0.000 
#
# Total GULP energy -134592.899000 kJ/mol
# GULP energy per Si atom -5608.037458 kJ/mol
# Density = 2.507481 g / cm^3
# Si number density = 25.132015 Si / 1000 Ang^3
#
#
#
# Elastic Constant Matrix: (Units=GPa)
#
#
# Indices 1 2 3 4 5 6 
#
# 1 41.6405 12.7183 8.2669 0.0000 -5.3108 0.0000
# 2 12.7183 107.0780 34.0918 0.0000 -9.7530 0.0000
# 3 8.2669 34.0918 75.5461 0.0000 -10.2514 0.0000
# 4 0.0000 0.0000 0.0000 49.3415 0.0000 -6.2388
# 5 -5.3108 -9.7530 -10.2514 0.0000 32.6402 0.0000
# 6 0.0000 0.0000 0.0000 -6.2388 0.0000 32.8397
#
#
#
# Elastic Compliance Matrix: (Units=1/GPa)
#
#
# Indices 1 2 3 4 5 6 
#
# 1 0.025370 -0.002318 -0.001320 0.000000 0.003021 0.000000
# 2 -0.002318 0.011219 -0.004601 0.000000 0.001530 0.000000
# 3 -0.001320 -0.004601 0.015921 0.000000 0.003410 0.000000
# 4 0.000000 0.000000 0.000000 0.020766 0.000000 0.003945
# 5 0.003021 0.001530 0.003410 0.000000 0.032657 0.000000
# 6 0.000000 0.000000 0.000000 0.003945 0.000000 0.031200
#
#
# Mechanical properties :
#
#
# Convention : Reuss Voigt Hill
#
# Bulk Modulus (GPa) = 27.75426 37.15761 32.45593
# Shear Modulus (GPa) = 30.18917 34.24344 32.21631
#
# Velocity S-wave (km/s) = 3.46963 3.69527 3.58422
# Velocity P-wave (km/s) = 5.20754 5.74663 5.48371
#
# Compressibility (1/GPa) = 0.03603050
#
# Stress axis : x y z
#
# Youngs Moduli (GPa) = 39.41595 89.13724 62.81127
#
# Poissons Ratio (x) = 0.20661 0.08293
# Poissons Ratio (y) = 0.09136 0.28902
# Poissons Ratio (z) = 0.05204 0.41016
#
# Static dielectric constant tensor:
#      x y z
#    x 1.935880 0.000000 0.004980 
#    y 0.000000 1.942710 0.000000 
#    z 0.004980 0.000000 2.021750 
# 
# From -- ./inp_files/15036.got.cif
#   From: 2010.05.17/outbox.cif.g08.bks.cpg/sg14_8_cif.got.tgz:15036.got - 2010.06.03 17:49:19.
