data_PCOD9248404
_publ_section_title
;
Structure prediction by ZEFSAII (Michael W. Deem and Ramdas Pophale) SiO2 
 PCOD9248404
Probable space group: P 21/C
;
_chemical_formula_sum "Si O2"
_cell_formula_units_Z 28
_cell_length_a 12.083702
_cell_length_b 13.462275
_cell_length_c 7.351660
_cell_angle_alpha 90.000000
_cell_angle_beta 59.467015
_cell_angle_gamma 90.000000
_cell_volume 1030.094089
_symmetry_space_group_name_H-M "P 21/C"
_symmetry_group_IT_number 14
_symmetry_cell_setting 'monoclinic'
loop_
_space_group_symop_operation_xyz
x,y,z
-x,1/2+y,1/2-z
-x,-y,-z
x,1/2-y,1/2+z
loop_
_atom_site_type_symbol
_atom_site_label
_atom_site_fract_x
_atom_site_fract_y
_atom_site_fract_z
Si Si1 0.199602 0.645016 0.491358
Si Si2 0.978119 0.523292 0.229792
Si Si3 0.173967 0.376333 0.089940
Si Si4 0.627565 0.199294 0.465409
Si Si5 0.487751 0.033219 0.726755
Si Si6 0.950837 0.768193 0.613961
Si Si7 0.588598 0.640237 0.382756
O O1 0.142217 0.540913 0.603998
O O2 0.311082 0.638943 0.250346
O O3 0.268689 0.716212 0.578740
O O4 0.078599 0.703872 0.511234
O O5 0.957786 0.639948 0.249459
O O6 0.000000 0.500000 0.000000
O O7 0.111339 0.480317 0.203543
O O8 0.061512 0.321693 0.069428
O O9 0.289324 0.371320 0.853682
O O10 0.176442 0.300178 0.253463
O O11 0.603642 0.115528 0.638410
O O12 0.491184 0.255858 0.545004
O O13 0.500000 0.000000 0.500000
O O14 0.500263 0.938066 0.844762
O O15 0.386207 0.099378 0.932837
#
# Coordination Sequence:
#
# PCOD9248404 Si02
#       7
#     4   4   4   4   4   4   4
#     4  11  23  42  71 104 138 189 245 295 374 442
#     4   9  20  40  66  97 132 181 234 294 365 431
#     4  10  23  42  66 101 140 188 233 302 375 438
#     4  12  24  46  72 103 147 193 242 312 364 450
#     4  11  27  47  74 109 143 197 255 295 376 452
#     4  10  22  42  67  98 137 185 236 298 372 437
#     4  11  27  49  71 110 153 192 248 313 378 439
#
# _framework density 27.181982999999999
#
# number of rings (size 3 to 8) (size 9 to 14) (size 15 to 20)
#    0.000    1.429    1.429    3.429    4.000    6.857 
#    2.571    2.143    0.000    0.000    0.000    0.000 
#    0.000    0.000    0.000    0.000    0.000    0.000 
#
# Total GULP energy -156229.563273 kJ/mol
# GULP energy per Si atom -5579.627260 kJ/mol
# Density = 2.712012 g / cm^3
# Si number density = 27.181983 Si / 1000 Ang^3
#
#
#
# Elastic Constant Matrix: (Units=GPa)
#
#
# Indices 1 2 3 4 5 6 
#
# 1 65.7757 8.2995 12.1526 0.0000 -4.8619 0.0000
# 2 8.2995 109.4420 36.9804 0.0000 -9.2105 0.0000
# 3 12.1526 36.9804 178.4633 0.0000 -15.9024 0.0000
# 4 0.0000 0.0000 0.0000 65.4155 0.0000 2.1735
# 5 -4.8619 -9.2105 -15.9024 0.0000 43.5511 0.0000
# 6 0.0000 0.0000 0.0000 2.1735 0.0000 23.3089
#
#
#
# Elastic Compliance Matrix: (Units=1/GPa)
#
#
# Indices 1 2 3 4 5 6 
#
# 1 0.015543 -0.000808 -0.000777 0.000000 0.001281 0.000000
# 2 -0.000808 0.009948 -0.001888 0.000000 0.001324 0.000000
# 3 -0.000777 -0.001888 0.006206 0.000000 0.001780 0.000000
# 4 0.000000 0.000000 0.000000 0.015334 0.000000 -0.001430
# 5 0.001281 0.001324 0.001780 0.000000 0.024035 0.000000
# 6 0.000000 0.000000 0.000000 -0.001430 0.000000 0.043035
#
#
# Mechanical properties :
#
#
# Convention : Reuss Voigt Hill
#
# Bulk Modulus (GPa) = 40.40339 52.06068 46.23203
# Shear Modulus (GPa) = 38.66992 46.20499 42.43746
#
# Velocity S-wave (km/s) = 3.77587 4.12738 3.95553
# Velocity P-wave (km/s) = 5.82288 6.47363 6.15686
#
# Compressibility (1/GPa) = 0.02475040
#
# Stress axis : x y z
#
# Youngs Moduli (GPa) = 64.33613 100.52193 161.12908
#
# Poissons Ratio (x) = 0.08127 0.12516
# Poissons Ratio (y) = 0.05201 0.30427
# Poissons Ratio (z) = 0.04998 0.18982
#
# Static dielectric constant tensor:
#      x y z
#    x 2.279350 0.000000 0.064440 
#    y 0.000000 2.457640 0.000000 
#    z 0.064440 0.000000 2.172870 
# 
# From -- ./inp_files/16195.got.cif
#   From: 2010.05.17/outbox.cif.g08.bks.cpg/sg14_9_cif.got.tgz:16195.got - 2010.06.03 17:49:19.
