data_PCOD9248726
_publ_section_title
;
Structure prediction by ZEFSAII (Michael W. Deem and Ramdas Pophale) SiO2 
 PCOD9248726
Probable space group: P 21/C
;
_chemical_formula_sum "Si O2"
_cell_formula_units_Z 26
_cell_length_a 8.362929
_cell_length_b 17.564791
_cell_length_c 9.186263
_cell_angle_alpha 90.000000
_cell_angle_beta 49.956951
_cell_angle_gamma 90.000000
_cell_volume 1033.047345
_symmetry_space_group_name_H-M "P 21/C"
_symmetry_group_IT_number 14
_symmetry_cell_setting 'monoclinic'
loop_
_space_group_symop_operation_xyz
x,y,z
-x,1/2+y,1/2-z
-x,-y,-z
x,1/2-y,1/2+z
loop_
_atom_site_type_symbol
_atom_site_label
_atom_site_fract_x
_atom_site_fract_y
_atom_site_fract_z
Si Si1 0.798345 0.280741 0.045133
Si Si2 0.990794 0.869063 0.030424
Si Si3 0.465975 0.697300 0.549318
Si Si4 0.500000 0.500000 0.000000
Si Si5 0.675114 0.651812 0.964202
Si Si6 0.828968 0.611992 0.182799
Si Si7 0.985887 0.996611 0.797480
O O1 0.672894 0.331431 0.235229
O O2 0.885446 0.206530 0.079456
O O3 0.665154 0.243136 0.995018
O O4 0.987705 0.330883 0.875976
O O5 0.794888 0.841538 0.240925
O O6 0.930471 0.926005 0.937236
O O7 0.105237 0.926628 0.077531
O O8 0.603162 0.763592 0.543959
O O9 0.612714 0.637510 0.383215
O O10 0.507171 0.409733 0.950409
O O11 0.761735 0.504109 0.850041
O O12 0.810635 0.623412 0.021230
O O13 0.888748 0.528527 0.202783
#
# Coordination Sequence:
#
# PCOD9248726 Si02
#       7
#     4   4   4   2   4   4   4
#     4  12  24  42  71 100 144 187 238 301 359 435
#     4  10  22  43  71  97 139 187 233 291 365 415
#     4  12  26  42  70 106 140 188 236 297 364 427
#     4  10  22  44  72  98 138 186 240 280 364 434
#     4  11  23  44  70 100 141 184 233 300 353 432
#     4  12  26  45  71 108 143 187 246 303 358 437
#     4  10  24  44  72 100 143 191 235 301 358 432
#
# _framework density 25.168254000000001
#
# number of rings (size 3 to 8) (size 9 to 14) (size 15 to 20)
#    0.000    0.923    3.077    3.692    4.308    2.462 
#    2.769    2.308    0.000    0.000    0.000    0.000 
#    0.000    0.000    0.000    0.000    0.000    0.000 
#
# Total GULP energy -145041.072702 kJ/mol
# GULP energy per Si atom -5578.502796 kJ/mol
# Density = 2.511097 g / cm^3
# Si number density = 25.168254 Si / 1000 Ang^3
#
#
#
# Elastic Constant Matrix: (Units=GPa)
#
#
# Indices 1 2 3 4 5 6 
#
# 1 59.5581 -11.2055 33.9859 0.0000 1.0105 0.0000
# 2 -11.2055 65.9768 3.9692 0.0000 -6.2921 0.0000
# 3 33.9859 3.9692 99.8737 0.0000 -6.2958 0.0000
# 4 0.0000 0.0000 0.0000 40.3907 0.0000 7.2888
# 5 1.0105 -6.2921 -6.2958 0.0000 29.7235 0.0000
# 6 0.0000 0.0000 0.0000 7.2888 0.0000 38.9263
#
#
#
# Elastic Compliance Matrix: (Units=1/GPa)
#
#
# Indices 1 2 3 4 5 6 
#
# 1 0.021998 0.004056 -0.007743 0.000000 -0.001529 0.000000
# 2 0.004056 0.016234 -0.001842 0.000000 0.002908 0.000000
# 3 -0.007743 -0.001842 0.012885 0.000000 0.002602 0.000000
# 4 0.000000 0.000000 0.000000 0.025624 0.000000 -0.004798
# 5 -0.001529 0.002908 0.002602 0.000000 0.034862 0.000000
# 6 0.000000 0.000000 0.000000 -0.004798 0.000000 0.026588
#
#
# Mechanical properties :
#
#
# Convention : Reuss Voigt Hill
#
# Bulk Modulus (GPa) = 24.96362 30.98975 27.97669
# Shear Modulus (GPa) = 30.74989 35.05204 32.90096
#
# Velocity S-wave (km/s) = 3.49918 3.73595 3.61950
# Velocity P-wave (km/s) = 5.12503 5.56323 5.34862
#
# Compressibility (1/GPa) = 0.04005829
#
# Stress axis : x y z
#
# Youngs Moduli (GPa) = 45.45874 61.59943 77.61058
#
# Poissons Ratio (x) = -0.24985 0.60096
# Poissons Ratio (y) = -0.18439 0.14296
# Poissons Ratio (z) = 0.35200 0.11347
#
# Static dielectric constant tensor:
#      x y z
#    x 1.763860 0.000000 -0.216090 
#    y 0.000000 2.012600 0.000000 
#    z -0.216090 0.000000 1.865330 
# 
# From -- ./inp_files/10166.got.cif
#   From: 2010.05.17/outbox.cif.g08.bks.cpg/sg14_6_cif.got.tgz:10166.got - 2010.06.03 17:49:19.
