data_PCOD9248025
_publ_section_title
;
Structure prediction by ZEFSAII (Michael W. Deem and Ramdas Pophale) SiO2 
 PCOD9248025
Probable space group: P 21/C
;
_chemical_formula_sum "Si O2"
_cell_formula_units_Z 24
_cell_length_a 8.130743
_cell_length_b 13.586676
_cell_length_c 14.081284
_cell_angle_alpha 90.000000
_cell_angle_beta 38.070462
_cell_angle_gamma 90.000000
_cell_volume 959.202785
_symmetry_space_group_name_H-M "P 21/C"
_symmetry_group_IT_number 14
_symmetry_cell_setting 'monoclinic'
loop_
_space_group_symop_operation_xyz
x,y,z
-x,1/2+y,1/2-z
-x,-y,-z
x,1/2-y,1/2+z
loop_
_atom_site_type_symbol
_atom_site_label
_atom_site_fract_x
_atom_site_fract_y
_atom_site_fract_z
Si Si1 0.134281 0.047888 0.604348
Si Si2 0.187255 0.478797 0.573668
Si Si3 0.426018 0.143846 0.119630
Si Si4 0.825378 0.674461 0.082734
Si Si5 0.378242 0.659683 0.032832
Si Si6 0.195823 0.666738 0.319728
O O1 0.056107 0.088676 0.537648
O O2 0.333995 0.129912 0.555007
O O3 0.288404 0.943996 0.529210
O O4 0.913681 0.033148 0.784881
O O5 0.386296 0.553608 0.433126
O O6 0.340653 0.385771 0.551099
O O7 0.935090 0.442045 0.628631
O O8 0.176718 0.155110 0.303779
O O9 0.580485 0.246350 0.050529
O O10 0.503734 0.677464 0.210478
O O11 0.990989 0.769037 0.974142
O O12 0.204982 0.692203 0.202815
#
# Coordination Sequence:
#
# PCOD9248025 Si02
#       6
#     4   4   4   4   4   4
#     4   9  19  37  62  86 117 161 210 254 300 364
#     4  10  22  41  62  88 125 170 210 250 307 381
#     4  11  24  38  61  94 128 164 206 258 316 371
#     4  11  24  40  63  97 129 161 205 264 315 360
#     4   9  19  39  63  86 117 165 209 246 304 379
#     4  10  22  41  65  91 126 168 208 255 310 367
#
# _framework density 25.020778
#
# number of rings (size 3 to 8) (size 9 to 14) (size 15 to 20)
#    0.000    2.000    0.000    4.000    0.000    9.333 
#    0.000    0.000    0.000    0.000    0.000    0.000 
#    0.000    0.000    0.000    0.000    0.000    0.000 
#
# Total GULP energy -134141.056699 kJ/mol
# GULP energy per Si atom -5589.210696 kJ/mol
# Density = 2.496383 g / cm^3
# Si number density = 25.020778 Si / 1000 Ang^3
#
#
#
# Elastic Constant Matrix: (Units=GPa)
#
#
# Indices 1 2 3 4 5 6 
#
# 1 65.0388 21.0096 5.1238 0.0000 -9.9865 0.0000
# 2 21.0096 96.1012 56.4158 0.0000 7.7653 0.0000
# 3 5.1238 56.4158 117.4094 0.0000 4.5501 0.0000
# 4 0.0000 0.0000 0.0000 62.6151 0.0000 -3.9840
# 5 -9.9865 7.7653 4.5501 0.0000 48.6530 0.0000
# 6 0.0000 0.0000 0.0000 -3.9840 0.0000 16.7759
#
#
#
# Elastic Compliance Matrix: (Units=1/GPa)
#
#
# Indices 1 2 3 4 5 6 
#
# 1 0.017548 -0.005063 0.001501 0.000000 0.004270 0.000000
# 2 -0.005063 0.016091 -0.007398 0.000000 -0.002916 0.000000
# 3 0.001501 -0.007398 0.011992 0.000000 0.000367 0.000000
# 4 0.000000 0.000000 0.000000 0.016216 0.000000 0.003851
# 5 0.004270 -0.002916 0.000367 0.000000 0.021861 0.000000
# 6 0.000000 0.000000 0.000000 0.003851 0.000000 0.060524
#
#
# Mechanical properties :
#
#
# Convention : Reuss Voigt Hill
#
# Bulk Modulus (GPa) = 42.17121 49.29422 45.73271
# Shear Modulus (GPa) = 28.72661 38.67547 33.70104
#
# Velocity S-wave (km/s) = 3.39205 3.93585 3.67403
# Velocity P-wave (km/s) = 5.67736 6.35599 6.02624
#
# Compressibility (1/GPa) = 0.02371286
#
# Stress axis : x y z
#
# Youngs Moduli (GPa) = 56.98603 62.14661 83.38781
#
# Poissons Ratio (x) = 0.31463 -0.12520
# Poissons Ratio (y) = 0.28851 0.61689
# Poissons Ratio (z) = -0.08556 0.45975
#
# Static dielectric constant tensor:
#      x y z
#    x 2.158910 0.000000 0.005250 
#    y 0.000000 1.974120 0.000000 
#    z 0.005250 0.000000 1.971110 
# 
# From -- ./inp_files/57650.got.cif
#   From: 2010.05.17/outbox.cif.g08.bks.cpg/sg14_29_cif.got.tgz:57650.got - 2010.06.03 17:49:19.
