data_PCOD9248534
_publ_section_title
;
Structure prediction by ZEFSAII (Michael W. Deem and Ramdas Pophale) SiO2 
 PCOD9248534
Probable space group: P 21/C
;
_chemical_formula_sum "Si O2"
_cell_formula_units_Z 20
_cell_length_a 15.936171
_cell_length_b 8.927611
_cell_length_c 21.564295
_cell_angle_alpha 90.000000
_cell_angle_beta 162.943123
_cell_angle_gamma 90.000000
_cell_volume 899.906683
_symmetry_space_group_name_H-M "P 21/C"
_symmetry_group_IT_number 14
_symmetry_cell_setting 'monoclinic'
loop_
_space_group_symop_operation_xyz
x,y,z
-x,1/2+y,1/2-z
-x,-y,-z
x,1/2-y,1/2+z
loop_
_atom_site_type_symbol
_atom_site_label
_atom_site_fract_x
_atom_site_fract_y
_atom_site_fract_z
Si Si1 0.600356 0.412816 0.855683
Si Si2 0.590977 0.081213 0.890109
Si Si3 0.610616 0.253961 0.082753
Si Si4 0.183822 0.472242 0.211415
Si Si5 0.785100 0.975294 0.618860
O O1 0.514178 0.250480 0.818337
O O2 0.377452 0.492591 0.652486
O O3 0.697363 0.502842 0.985551
O O4 0.880841 0.398630 0.011132
O O5 0.333011 0.021970 0.750239
O O6 0.886321 0.071175 0.137285
O O7 0.740440 0.368599 0.124563
O O8 0.825823 0.141985 0.269449
O O9 0.396554 0.138043 0.898833
O O10 0.425011 0.353515 0.999028
#
# Coordination Sequence:
#
# PCOD9248534 Si02
#       5
#     4   4   4   4   4
#     4  12  28  46  71 104 139 184 232 282 346 411
#     4  12  28  46  71 104 139 184 232 282 346 411
#     4  10  22  42  74 105 133 185 229 286 339 407
#     4  11  23  44  69 101 142 175 235 283 340 412
#     4  11  24  47  72 100 144 181 232 281 346 406
#
# _framework density 22.224525
#
# number of rings (size 3 to 8) (size 9 to 14) (size 15 to 20)
#    0.000    0.800    4.000    3.000    5.600    0.000 
#    0.000    5.000    0.000    0.000    0.000    0.000 
#    0.000    0.000    0.000    0.000    0.000    0.000 
#
# Total GULP energy -111831.073851 kJ/mol
# GULP energy per Si atom -5591.553693 kJ/mol
# Density = 2.217394 g / cm^3
# Si number density = 22.224525 Si / 1000 Ang^3
#
#
#
# Elastic Constant Matrix: (Units=GPa)
#
#
# Indices 1 2 3 4 5 6 
#
# 1 158.8888 27.9359 23.4759 0.0000 -21.4506 0.0000
# 2 27.9359 104.5898 -9.0882 0.0000 -10.9106 0.0000
# 3 23.4759 -9.0882 33.8238 0.0000 -6.1980 0.0000
# 4 0.0000 0.0000 0.0000 6.6317 0.0000 -2.8021
# 5 -21.4506 -10.9106 -6.1980 0.0000 40.2306 0.0000
# 6 0.0000 0.0000 0.0000 -2.8021 0.0000 32.3468
#
#
#
# Elastic Compliance Matrix: (Units=1/GPa)
#
#
# Indices 1 2 3 4 5 6 
#
# 1 0.007895 -0.002312 -0.005603 0.000000 0.002719 0.000000
# 2 -0.002312 0.010870 0.004980 0.000000 0.002483 0.000000
# 3 -0.005603 0.004980 0.035494 0.000000 0.003832 0.000000
# 4 0.000000 0.000000 0.000000 0.156521 0.000000 0.013559
# 5 0.002719 0.002483 0.003832 0.000000 0.027570 0.000000
# 6 0.000000 0.000000 0.000000 0.013559 0.000000 0.032090
#
#
# Mechanical properties :
#
#
# Convention : Reuss Voigt Hill
#
# Bulk Modulus (GPa) = 20.66497 42.43885 31.55191
# Shear Modulus (GPa) = 17.09759 32.84041 24.96900
#
# Velocity S-wave (km/s) = 2.77666 3.84821 3.35548
# Velocity P-wave (km/s) = 4.42699 6.23554 5.40741
#
# Compressibility (1/GPa) = 0.04839106
#
# Stress axis : x y z
#
# Youngs Moduli (GPa) = 126.66062 91.99274 28.17390
#
# Poissons Ratio (x) = 0.21268 0.15785
# Poissons Ratio (y) = 0.29283 -0.14032
# Poissons Ratio (z) = 0.70963 -0.45816
#
# Static dielectric constant tensor:
#      x y z
#    x 1.854540 0.000000 -0.063380 
#    y 0.000000 1.785930 0.000000 
#    z -0.063380 0.000000 1.844120 
# 
# From -- ./inp_files/23031.got.cif
#   From: 2010.05.17/outbox.cif.g08.bks.cpg/sg14_12_cif.got.tgz:23031.got - 2010.06.03 17:49:19.
