data_PCOD9248256
_publ_section_title
;
Structure prediction by ZEFSAII (Michael W. Deem and Ramdas Pophale) SiO2 
 PCOD9248256
Probable space group: P 21/C
;
_chemical_formula_sum "Si O2"
_cell_formula_units_Z 32
_cell_length_a 6.897315
_cell_length_b 8.361832
_cell_length_c 30.198482
_cell_angle_alpha 90.000000
_cell_angle_beta 68.061730
_cell_angle_gamma 90.000000
_cell_volume 1615.553053
_symmetry_space_group_name_H-M "P 21/C"
_symmetry_group_IT_number 14
_symmetry_cell_setting 'monoclinic'
loop_
_space_group_symop_operation_xyz
x,y,z
-x,1/2+y,1/2-z
-x,-y,-z
x,1/2-y,1/2+z
loop_
_atom_site_type_symbol
_atom_site_label
_atom_site_fract_x
_atom_site_fract_y
_atom_site_fract_z
Si Si1 0.871631 0.124329 0.480220
Si Si2 0.304458 0.278397 0.831389
Si Si3 0.250499 0.894506 0.694203
Si Si4 0.440379 0.613719 0.463332
Si Si5 0.160204 0.089358 0.922630
Si Si6 0.886493 0.627278 0.380733
Si Si7 0.907745 0.506539 0.882073
Si Si8 0.967113 0.585335 0.711453
O O1 0.665216 0.215713 0.515533
O O2 0.823635 0.038740 0.437634
O O3 0.029695 0.269637 0.456225
O O4 0.000000 0.000000 0.500000
O O5 0.518701 0.370740 0.806521
O O6 0.320240 0.170242 0.874265
O O7 0.227222 0.166199 0.798113
O O8 0.113242 0.399501 0.856215
O O9 0.249072 0.960852 0.644225
O O10 0.136396 0.723489 0.704018
O O11 0.113831 0.010410 0.736425
O O12 0.500000 0.500000 0.500000
O O13 0.272473 0.516816 0.449126
O O14 0.645871 0.633744 0.415912
O O15 0.005320 0.982254 0.906354
O O16 0.932140 0.546675 0.329614
O O17 0.965473 0.808247 0.375024
#
# Coordination Sequence:
#
# PCOD9248256 Si02
#       8
#     4   4   4   4   4   4   4   4
#     4  11  24  42  63  93 134 171 217 275 326 378
#     4   9  22  41  65  89 127 168 206 258 329 384
#     4  11  22  42  67  94 130 165 214 266 319 391
#     4  12  25  38  67  93 121 178 219 257 328 393
#     4  10  22  42  61  88 129 166 211 270 317 376
#     4  11  23  43  63  92 132 166 216 268 322 390
#     4  10  24  41  63  94 131 167 214 272 322 379
#     4  10  23  40  64  97 124 168 208 268 322 381
#
# _framework density 19.807459999999999
#
# number of rings (size 3 to 8) (size 9 to 14) (size 15 to 20)
#    0.000    1.500    1.250    3.375    3.500    6.500 
#    0.000    2.500    0.000    0.000    0.000    0.000 
#    0.000    0.000    0.000    0.000    0.000    0.000 
#
# Total GULP energy -178832.745309 kJ/mol
# GULP energy per Si atom -5588.523291 kJ/mol
# Density = 1.976238 g / cm^3
# Si number density = 19.807460 Si / 1000 Ang^3
#
#
#
# Elastic Constant Matrix: (Units=GPa)
#
#
# Indices 1 2 3 4 5 6 
#
# 1 44.3833 5.1109 20.9715 0.0000 1.5053 0.0000
# 2 5.1109 108.2782 22.4596 0.0000 8.9575 0.0000
# 3 20.9715 22.4596 59.7800 0.0000 11.6829 0.0000
# 4 0.0000 0.0000 0.0000 37.7735 0.0000 7.9431
# 5 1.5053 8.9575 11.6829 0.0000 20.2311 0.0000
# 6 0.0000 0.0000 0.0000 7.9431 0.0000 24.6190
#
#
#
# Elastic Compliance Matrix: (Units=1/GPa)
#
#
# Indices 1 2 3 4 5 6 
#
# 1 0.027318 0.000584 -0.010545 0.000000 0.003798 0.000000
# 2 0.000584 0.010147 -0.003529 0.000000 -0.002498 0.000000
# 3 -0.010545 -0.003529 0.024003 0.000000 -0.011514 0.000000
# 4 0.000000 0.000000 0.000000 0.028400 0.000000 -0.009163
# 5 0.003798 -0.002498 -0.011514 0.000000 0.056901 0.000000
# 6 0.000000 0.000000 0.000000 -0.009163 0.000000 0.043575
#
#
# Mechanical properties :
#
#
# Convention : Reuss Voigt Hill
#
# Bulk Modulus (GPa) = 28.99599 34.39173 31.69386
# Shear Modulus (GPa) = 21.85122 27.45135 24.65129
#
# Velocity S-wave (km/s) = 3.32502 3.72682 3.53164
# Velocity P-wave (km/s) = 5.42326 5.99330 5.71539
#
# Compressibility (1/GPa) = 0.03448753
#
# Stress axis : x y z
#
# Youngs Moduli (GPa) = 36.60649 98.55614 41.66104
#
# Poissons Ratio (x) = -0.05752 0.43931
# Poissons Ratio (y) = -0.02136 0.14700
# Poissons Ratio (z) = 0.38601 0.34776
#
# Static dielectric constant tensor:
#      x y z
#    x 1.703560 0.000000 0.004880 
#    y 0.000000 1.686020 0.000000 
#    z 0.004880 0.000000 1.710200 
# 
# From -- ./inp_files/78793.got.cif
#   From: 2010.05.17/outbox.cif.g08.bks.cpg/sg14_40_cif.got.tgz:78793.got - 2010.06.03 17:49:19.
