data_PCOD9248523
_publ_section_title
;
Structure prediction by ZEFSAII (Michael W. Deem and Ramdas Pophale) SiO2 
 PCOD9248523
Probable space group: P 21/C
;
_chemical_formula_sum "Si O2"
_cell_formula_units_Z 28
_cell_length_a 7.210861
_cell_length_b 12.497610
_cell_length_c 13.227218
_cell_angle_alpha 90.000000
_cell_angle_beta 123.035461
_cell_angle_gamma 90.000000
_cell_volume 999.307929
_symmetry_space_group_name_H-M "P 21/C"
_symmetry_group_IT_number 14
_symmetry_cell_setting 'monoclinic'
loop_
_space_group_symop_operation_xyz
x,y,z
-x,1/2+y,1/2-z
-x,-y,-z
x,1/2-y,1/2+z
loop_
_atom_site_type_symbol
_atom_site_label
_atom_site_fract_x
_atom_site_fract_y
_atom_site_fract_z
Si Si1 0.124635 0.075011 0.836647
Si Si2 0.451337 0.075011 0.663352
Si Si3 0.943924 0.250000 0.500001
Si Si4 0.823219 0.919617 0.837873
Si Si5 0.852527 0.419616 0.837873
Si Si6 0.579793 0.728535 0.672536
Si Si7 0.234723 0.728534 0.827465
O O1 0.350062 0.142478 0.892459
O O2 0.943207 0.166885 0.794054
O O3 0.072224 0.014145 0.713504
O O4 0.059215 0.977124 0.888407
O O5 0.645216 0.014146 0.786496
O O6 0.282398 0.977124 0.611593
O O7 0.355095 0.166885 0.705944
O O8 0.565139 0.142478 0.607540
O O9 0.020321 0.153866 0.449929
O O10 0.682416 0.260615 0.394787
O O11 0.892838 0.239384 0.605211
O O12 0.120462 0.346134 0.550072
O O13 0.714841 0.840254 0.719384
O O14 0.723927 0.340254 0.719384
#
# Coordination Sequence:
#
# PCOD9248523 Si02
#       7
#     4   4   4   4   4   4   4
#     4  10  22  42  72  90 140 174 210 290 330 378
#     4  10  22  42  72  90 140 174 210 290 330 378
#     4  12  24  40  74  94 138 180 218 268 344 386
#     4  11  22  44  64 101 134 169 223 278 324 394
#     4  11  22  44  64 101 134 169 223 278 324 394
#     4  11  22  44  64 101 134 169 223 278 324 394
#     4  11  22  44  64 101 134 169 223 278 324 394
#
# _framework density 28.019392
#
# number of rings (size 3 to 8) (size 9 to 14) (size 15 to 20)
#    0.000    1.143    5.714    0.000    0.000    2.286 
#    0.000    2.857    0.000    0.000    0.000    0.000 
#    0.000    0.000    0.000    0.000    0.000    0.000 
#
# Total GULP energy -156089.697360 kJ/mol
# GULP energy per Si atom -5574.632049 kJ/mol
# Density = 2.795562 g / cm^3
# Si number density = 28.019392 Si / 1000 Ang^3
#
#
#
# Elastic Constant Matrix: (Units=GPa)
#
#
# Indices 1 2 3 4 5 6 
#
# 1 78.4924 44.9247 -9.7484 0.0000 -2.8621 0.0000
# 2 44.9247 176.8691 22.9267 0.0000 -1.2358 0.0000
# 3 -9.7484 22.9267 65.6136 0.0000 2.1376 0.0000
# 4 0.0000 0.0000 0.0000 42.4303 0.0000 -0.8865
# 5 -2.8621 -1.2358 2.1376 0.0000 18.8892 0.0000
# 6 0.0000 0.0000 0.0000 -0.8865 0.0000 58.2092
#
#
#
# Elastic Compliance Matrix: (Units=1/GPa)
#
#
# Indices 1 2 3 4 5 6 
#
# 1 0.015872 -0.004523 0.003884 0.000000 0.001669 0.000000
# 2 -0.004523 0.007219 -0.003199 0.000000 0.000149 0.000000
# 3 0.003884 -0.003199 0.016986 0.000000 -0.001543 0.000000
# 4 0.000000 0.000000 0.000000 0.023576 0.000000 0.000359
# 5 0.001669 0.000149 -0.001543 0.000000 0.053378 0.000000
# 6 0.000000 0.000000 0.000000 0.000359 0.000000 0.017185
#
#
# Mechanical properties :
#
#
# Convention : Reuss Voigt Hill
#
# Bulk Modulus (GPa) = 30.86383 48.57568 39.71976
# Shear Modulus (GPa) = 32.74575 41.43056 37.08815
#
# Velocity S-wave (km/s) = 3.42231 3.84948 3.64216
# Velocity P-wave (km/s) = 5.16288 6.09361 5.64745
#
# Compressibility (1/GPa) = 0.03240038
#
# Stress axis : x y z
#
# Youngs Moduli (GPa) = 63.00274 138.53127 58.87201
#
# Poissons Ratio (x) = 0.62663 -0.22868
# Poissons Ratio (y) = 0.28499 0.18835
# Poissons Ratio (z) = -0.24473 0.44319
#
# Static dielectric constant tensor:
#      x y z
#    x 2.256220 0.000000 0.002750 
#    y 0.000000 2.217150 0.000000 
#    z 0.002750 0.000000 2.305220 
# 
# From -- ./inp_files/40401.got.cif
#   From: 2010.05.17/outbox.cif.g08.bks.cpg/sg14_21_cif.got.tgz:40401.got - 2010.06.03 17:49:19.
