data_PCOD9248939
_publ_section_title
;
Structure prediction by ZEFSAII (Michael W. Deem and Ramdas Pophale) SiO2 
 PCOD9248939
Probable space group: P 21/C
;
_chemical_formula_sum "Si O2"
_cell_formula_units_Z 22
_cell_length_a 21.524271
_cell_length_b 8.143579
_cell_length_c 13.982091
_cell_angle_alpha 90.000000
_cell_angle_beta 23.530117
_cell_angle_gamma 90.000000
_cell_volume 978.453541
_symmetry_space_group_name_H-M "P 21/C"
_symmetry_group_IT_number 14
_symmetry_cell_setting 'monoclinic'
loop_
_space_group_symop_operation_xyz
x,y,z
-x,1/2+y,1/2-z
-x,-y,-z
x,1/2-y,1/2+z
loop_
_atom_site_type_symbol
_atom_site_label
_atom_site_fract_x
_atom_site_fract_y
_atom_site_fract_z
Si Si1 0.323616 0.337626 0.073902
Si Si2 0.407537 0.695876 0.918899
Si Si3 0.079792 0.096142 0.473960
Si Si4 0.500000 0.500000 0.000000
Si Si5 0.760877 0.141704 0.008602
Si Si6 0.645530 0.111280 0.821031
O O1 0.153969 0.266656 0.332705
O O2 0.417164 0.369593 0.039977
O O3 0.334539 0.516810 0.010371
O O4 0.423134 0.214300 0.866942
O O5 0.305948 0.826412 0.003309
O O6 0.406729 0.738402 0.033721
O O7 0.943841 0.114218 0.743378
O O8 0.225734 0.996103 0.308199
O O9 0.000000 0.000000 0.500000
O O10 0.337959 0.507165 0.295122
O O11 0.723500 0.307031 0.119716
O O12 0.500000 0.000000 0.000000
#
# Coordination Sequence:
#
# PCOD9248939 Si02
#       6
#     4   4   4   2   4   4
#     4  11  24  44  73 109 146 202 249 319 382 454
#     4  11  23  46  75 107 146 198 261 311 377 471
#     4  12  28  48  71 111 160 194 250 332 388 456
#     4  10  22  44  74 104 142 196 258 300 374 464
#     4  11  25  45  72 107 149 194 249 312 392 451
#     4  12  25  49  75 109 147 204 262 307 386 478
#
# _framework density 22.484461
#
# number of rings (size 3 to 8) (size 9 to 14) (size 15 to 20)
#    0.000    0.727    3.636    4.364    5.091    0.727 
#    6.545    0.000    0.000    0.000    0.000    0.000 
#    0.000    0.000    0.000    0.000    0.000    0.000 
#
# Total GULP energy -122696.870813 kJ/mol
# GULP energy per Si atom -5577.130491 kJ/mol
# Density = 2.243329 g / cm^3
# Si number density = 22.484461 Si / 1000 Ang^3
#
#
#
# Elastic Constant Matrix: (Units=GPa)
#
#
# Indices 1 2 3 4 5 6 
#
# 1 101.3490 18.5344 43.4842 0.0000 4.1090 0.0000
# 2 18.5344 106.4654 70.5418 0.0000 2.2900 0.0000
# 3 43.4842 70.5418 211.2224 0.0000 1.8149 0.0000
# 4 0.0000 0.0000 0.0000 49.3825 0.0000 7.5343
# 5 4.1090 2.2900 1.8149 0.0000 39.7457 0.0000
# 6 0.0000 0.0000 0.0000 7.5343 0.0000 32.6068
#
#
#
# Elastic Compliance Matrix: (Units=1/GPa)
#
#
# Indices 1 2 3 4 5 6 
#
# 1 0.010885 -0.000506 -0.002063 0.000000 -0.001002 0.000000
# 2 -0.000506 0.012096 -0.003931 0.000000 -0.000465 0.000000
# 3 -0.002063 -0.003931 0.006471 0.000000 0.000144 0.000000
# 4 0.000000 0.000000 0.000000 0.020990 0.000000 -0.004850
# 5 -0.001002 -0.000465 0.000144 0.000000 0.025284 0.000000
# 6 0.000000 0.000000 0.000000 -0.004850 0.000000 0.031789
#
#
# Mechanical properties :
#
#
# Convention : Reuss Voigt Hill
#
# Bulk Modulus (GPa) = 60.79057 76.01752 68.40404
# Shear Modulus (GPa) = 39.68251 43.44543 41.56397
#
# Velocity S-wave (km/s) = 4.20561 4.40050 4.30416
# Velocity P-wave (km/s) = 7.11887 7.72667 7.42899
#
# Compressibility (1/GPa) = 0.01644992
#
# Stress axis : x y z
#
# Youngs Moduli (GPa) = 91.86640 82.67390 154.54007
#
# Poissons Ratio (x) = 0.04187 0.31885
# Poissons Ratio (y) = 0.04652 0.60755
# Poissons Ratio (z) = 0.18954 0.32502
#
# Static dielectric constant tensor:
#      x y z
#    x 1.758890 0.000000 0.053940 
#    y 0.000000 1.778510 0.000000 
#    z 0.053940 0.000000 1.794840 
# 
# From -- ./inp_files/51225.got.cif
#   From: 2010.05.17/outbox.cif.g08.bks.cpg/sg14_26_cif.got.tgz:51225.got - 2010.06.03 17:49:19.
