data_PCOD9248132
_publ_section_title
;
Structure prediction by ZEFSAII (Michael W. Deem and Ramdas Pophale) SiO2 
 PCOD9248132
Probable space group: P 21/C
;
_chemical_formula_sum "Si O2"
_cell_formula_units_Z 28
_cell_length_a 13.603016
_cell_length_b 12.120046
_cell_length_c 9.105688
_cell_angle_alpha 90.000000
_cell_angle_beta 132.601432
_cell_angle_gamma 90.000000
_cell_volume 1105.038375
_symmetry_space_group_name_H-M "P 21/C"
_symmetry_group_IT_number 14
_symmetry_cell_setting 'monoclinic'
loop_
_space_group_symop_operation_xyz
x,y,z
-x,1/2+y,1/2-z
-x,-y,-z
x,1/2-y,1/2+z
loop_
_atom_site_type_symbol
_atom_site_label
_atom_site_fract_x
_atom_site_fract_y
_atom_site_fract_z
Si Si1 0.831218 0.624954 0.094910
Si Si2 0.568891 0.385357 0.515651
Si Si3 0.515218 0.190824 0.267535
Si Si4 0.961034 0.100910 0.649209
Si Si5 0.977991 0.765876 0.017396
Si Si6 0.740234 0.973067 0.993032
Si Si7 0.350949 0.983715 0.408554
O O1 0.922730 0.663075 0.325214
O O2 0.697346 0.585992 0.041187
O O3 0.882560 0.511752 0.076279
O O4 0.855124 0.713000 0.988803
O O5 0.500000 0.500000 0.500000
O O6 0.495346 0.307318 0.324608
O O7 0.573476 0.309021 0.663100
O O8 0.695887 0.430743 0.557729
O O9 0.376174 0.121212 0.122882
O O10 0.627423 0.123403 0.471124
O O11 0.939952 0.171236 0.482247
O O12 0.939019 0.167675 0.778101
O O13 0.118975 0.073890 0.816074
O O14 0.742712 0.019083 0.829172
O O15 0.500000 0.000000 0.500000
#
# Coordination Sequence:
#
# PCOD9248132 Si02
#       7
#     4   4   4   4   4   4   4
#     4  11  23  47  71 102 144 178 235 292 344 419
#     4  10  22  42  64  95 133 181 229 284 343 409
#     4  10  22  42  62  94 136 179 231 282 350 402
#     4  11  23  44  69 102 139 176 236 291 348 414
#     4  10  24  43  70 107 130 192 228 282 355 416
#     4  10  22  41  65  99 132 178 232 287 343 414
#     4  10  22  43  66  97 135 180 226 284 343 405
#
# _framework density 25.338487000000001
#
# number of rings (size 3 to 8) (size 9 to 14) (size 15 to 20)
#    0.000    1.714    1.429    1.714    2.000    3.429 
#   23.143    0.000    0.000    0.000    0.000    0.000 
#    0.000    0.000    0.000    0.000    0.000    0.000 
#
# Total GULP energy -156692.942650 kJ/mol
# GULP energy per Si atom -5596.176523 kJ/mol
# Density = 2.528082 g / cm^3
# Si number density = 25.338487 Si / 1000 Ang^3
#
#
#
# Elastic Constant Matrix: (Units=GPa)
#
#
# Indices 1 2 3 4 5 6 
#
# 1 57.5947 8.1588 16.1278 0.0000 -22.0265 0.0000
# 2 8.1588 45.9858 17.2219 0.0000 -15.1587 0.0000
# 3 16.1278 17.2219 74.3421 0.0000 -28.2277 0.0000
# 4 0.0000 0.0000 0.0000 45.1348 0.0000 -27.7156
# 5 -22.0265 -15.1587 -28.2277 0.0000 47.6462 0.0000
# 6 0.0000 0.0000 0.0000 -27.7156 0.0000 50.3183
#
#
#
# Elastic Compliance Matrix: (Units=1/GPa)
#
#
# Indices 1 2 3 4 5 6 
#
# 1 0.021171 -0.000376 -0.001077 0.000000 0.009029 0.000000
# 2 -0.000376 0.025017 -0.003558 0.000000 0.005677 0.000000
# 3 -0.001077 -0.003558 0.017922 0.000000 0.008988 0.000000
# 4 0.000000 0.000000 0.000000 0.033480 0.000000 0.018441
# 5 0.009029 0.005677 0.008988 0.000000 0.032293 0.000000
# 6 0.000000 0.000000 0.000000 0.018441 0.000000 0.030031
#
#
# Mechanical properties :
#
#
# Convention : Reuss Voigt Hill
#
# Bulk Modulus (GPa) = 18.48906 28.99329 23.74118
# Shear Modulus (GPa) = 26.60077 37.71414 32.15745
#
# Velocity S-wave (km/s) = 3.24360 3.86218 3.56633
# Velocity P-wave (km/s) = 4.61959 5.59963 5.13305
#
# Compressibility (1/GPa) = 0.05408603
#
# Stress axis : x y z
#
# Youngs Moduli (GPa) = 47.23487 39.97355 55.79762
#
# Poissons Ratio (x) = 0.01504 0.06011
# Poissons Ratio (y) = 0.01778 0.19853
# Poissons Ratio (z) = 0.05088 0.14223
#
# Static dielectric constant tensor:
#      x y z
#    x 2.020740 0.000000 0.021180 
#    y 0.000000 2.034270 0.000000 
#    z 0.021180 0.000000 1.726760 
# 
# From -- ./inp_files/15867.got.cif
#   From: 2010.05.17/outbox.cif.g08.bks.cpg/sg14_8_cif.got.tgz:15867.got - 2010.06.03 17:49:19.
