data_PCOD9248504
_publ_section_title
;
Structure prediction by ZEFSAII (Michael W. Deem and Ramdas Pophale) SiO2 
 PCOD9248504
Probable space group: P 21/C
;
_chemical_formula_sum "Si O2"
_cell_formula_units_Z 20
_cell_length_a 5.319864
_cell_length_b 15.122544
_cell_length_c 10.889107
_cell_angle_alpha 90.000000
_cell_angle_beta 82.423847
_cell_angle_gamma 90.000000
_cell_volume 868.380043
_symmetry_space_group_name_H-M "P 21/C"
_symmetry_group_IT_number 14
_symmetry_cell_setting 'monoclinic'
loop_
_space_group_symop_operation_xyz
x,y,z
-x,1/2+y,1/2-z
-x,-y,-z
x,1/2-y,1/2+z
loop_
_atom_site_type_symbol
_atom_site_label
_atom_site_fract_x
_atom_site_fract_y
_atom_site_fract_z
Si Si1 0.410697 0.381981 0.374262
Si Si2 0.078726 0.034179 0.693489
Si Si3 0.184850 0.610572 0.000567
Si Si4 0.631525 0.680501 0.118573
Si Si5 0.290884 0.433397 0.649907
O O1 0.231757 0.404270 0.271993
O O2 0.464516 0.279430 0.349324
O O3 0.294205 0.385238 0.519862
O O4 0.596176 0.467201 0.369750
O O5 0.857363 0.088391 0.638896
O O6 0.202450 0.983249 0.571552
O O7 0.990573 0.954426 0.786642
O O8 0.448678 0.654077 0.018311
O O9 0.929057 0.663717 0.061566
O O10 0.590471 0.620725 0.243694
#
# Coordination Sequence:
#
# PCOD9248504 Si02
#       5
#     4   4   4   4   4
#     4  11  24  42  69  98 138 187 219 284 343 400
#     4  10  22  42  71  92 136 181 224 282 340 395
#     4  10  24  43  70 100 134 174 234 279 331 403
#     4  11  25  45  67 103 137 179 230 281 331 408
#     4  10  24  44  66  99 140 174 233 277 342 406
#
# _framework density 23.031392
#
# number of rings (size 3 to 8) (size 9 to 14) (size 15 to 20)
#    0.000    1.600    2.000    0.600    8.400    2.400 
#    0.000    0.000    0.000    0.000    0.000    0.000 
#    0.000    0.000    0.000    0.000    0.000    0.000 
#
# Total GULP energy -111493.574559 kJ/mol
# GULP energy per Si atom -5574.678728 kJ/mol
# Density = 2.297897 g / cm^3
# Si number density = 23.031392 Si / 1000 Ang^3
#
#
#
# Elastic Constant Matrix: (Units=GPa)
#
#
# Indices 1 2 3 4 5 6 
#
# 1 72.2688 10.7668 19.0902 0.0000 14.5018 0.0000
# 2 10.7668 100.2136 -15.9459 0.0000 -1.2477 0.0000
# 3 19.0902 -15.9459 64.9756 0.0000 1.5126 0.0000
# 4 0.0000 0.0000 0.0000 61.0868 0.0000 -43.8193
# 5 14.5018 -1.2477 1.5126 0.0000 30.1995 0.0000
# 6 0.0000 0.0000 0.0000 -43.8193 0.0000 68.7739
#
#
#
# Elastic Compliance Matrix: (Units=1/GPa)
#
#
# Indices 1 2 3 4 5 6 
#
# 1 0.017393 -0.002865 -0.005623 0.000000 -0.008189 0.000000
# 2 -0.002865 0.010859 0.003468 0.000000 0.001651 0.000000
# 3 -0.005623 0.003468 0.017848 0.000000 0.001949 0.000000
# 4 0.000000 0.000000 0.000000 0.030150 0.000000 0.019210
# 5 -0.008189 0.001651 0.001949 0.000000 0.037016 0.000000
# 6 0.000000 0.000000 0.000000 0.019210 0.000000 0.026780
#
#
# Mechanical properties :
#
#
# Convention : Reuss Voigt Hill
#
# Bulk Modulus (GPa) = 27.73105 29.47558 28.60332
# Shear Modulus (GPa) = 30.84418 46.91514 38.87966
#
# Velocity S-wave (km/s) = 3.66351 4.51822 4.11313
# Velocity P-wave (km/s) = 5.47373 6.32810 5.91636
#
# Compressibility (1/GPa) = 0.03606067
#
# Stress axis : x y z
#
# Youngs Moduli (GPa) = 57.49598 92.08994 56.02824
#
# Poissons Ratio (x) = 0.26386 0.31502
# Poissons Ratio (y) = 0.16474 -0.19432
# Poissons Ratio (z) = 0.32328 -0.31940
#
# Static dielectric constant tensor:
#      x y z
#    x 1.976850 0.000000 -0.088420 
#    y 0.000000 2.437020 0.000000 
#    z -0.088420 0.000000 1.915180 
# 
# From -- ./inp_files/20656.got.cif
#   From: 2010.05.17/outbox.cif.g08.bks.cpg/sg14_11_cif.got.tgz:20656.got - 2010.06.03 17:49:19.
