data_PCOD9248425
_publ_section_title
;
Structure prediction by ZEFSAII (Michael W. Deem and Ramdas Pophale) SiO2 
 PCOD9248425
Probable space group: P 21/C
;
_chemical_formula_sum "Si O2"
_cell_formula_units_Z 20
_cell_length_a 7.215107
_cell_length_b 10.778393
_cell_length_c 14.807285
_cell_angle_alpha 90.000000
_cell_angle_beta 56.485384
_cell_angle_gamma 90.000000
_cell_volume 960.075677
_symmetry_space_group_name_H-M "P 21/C"
_symmetry_group_IT_number 14
_symmetry_cell_setting 'monoclinic'
loop_
_space_group_symop_operation_xyz
x,y,z
-x,1/2+y,1/2-z
-x,-y,-z
x,1/2-y,1/2+z
loop_
_atom_site_type_symbol
_atom_site_label
_atom_site_fract_x
_atom_site_fract_y
_atom_site_fract_z
Si Si1 0.291486 0.766899 0.410020
Si Si2 0.667537 0.968808 0.337858
Si Si3 0.078514 0.388451 0.410641
Si Si4 0.035604 0.967124 0.386603
Si Si5 0.394401 0.161786 0.311571
O O1 0.477033 0.863508 0.393972
O O2 0.431690 0.670120 0.316119
O O3 0.133554 0.704771 0.526586
O O4 0.147075 0.833430 0.369394
O O5 0.837398 0.941563 0.208141
O O6 0.820216 0.970556 0.384152
O O7 0.526586 0.091991 0.354951
O O8 0.283234 0.290791 0.375078
O O9 0.000000 0.500000 0.500000
O O10 0.000000 0.000000 0.500000
O O11 0.208617 0.073905 0.316071
#
# Coordination Sequence:
#
# PCOD9248425 Si02
#       5
#     4   4   4   4   4
#     4  10  22  43  65  97 131 170 219 275 324 386
#     4  10  24  42  70  97 130 177 216 271 337 380
#     4  11  21  44  68  99 136 169 216 272 325 395
#     4  11  23  45  65  96 132 171 224 269 321 393
#     4  10  22  42  68  95 134 167 221 271 322 390
#
# _framework density 20.831690999999999
#
# number of rings (size 3 to 8) (size 9 to 14) (size 15 to 20)
#    0.000    1.600    4.000    0.000    0.000    6.400 
#    3.600    1.000    0.000    0.000    0.000    0.000 
#    0.000    0.000    0.000    0.000    0.000    0.000 
#
# Total GULP energy -111385.443646 kJ/mol
# GULP energy per Si atom -5569.272182 kJ/mol
# Density = 2.078428 g / cm^3
# Si number density = 20.831691 Si / 1000 Ang^3
#
#
#
# Elastic Constant Matrix: (Units=GPa)
#
#
# Indices 1 2 3 4 5 6 
#
# 1 176.6355 39.4919 39.9587 0.0000 -5.8107 0.0000
# 2 39.4919 66.0510 39.7947 0.0000 1.0350 0.0000
# 3 39.9587 39.7947 150.6381 0.0000 -7.9337 0.0000
# 4 0.0000 0.0000 0.0000 50.8528 0.0000 -19.5399
# 5 -5.8107 1.0350 -7.9337 0.0000 21.3714 0.0000
# 6 0.0000 0.0000 0.0000 -19.5399 0.0000 13.1361
#
#
#
# Elastic Compliance Matrix: (Units=1/GPa)
#
#
# Indices 1 2 3 4 5 6 
#
# 1 0.006685 -0.003580 -0.000737 0.000000 0.001717 0.000000
# 2 -0.003580 0.020075 -0.004545 0.000000 -0.003633 0.000000
# 3 -0.000737 -0.004545 0.008196 0.000000 0.003062 0.000000
# 4 0.000000 0.000000 0.000000 0.045899 0.000000 0.068274
# 5 0.001717 -0.003633 0.003062 0.000000 0.048571 0.000000
# 6 0.000000 0.000000 0.000000 0.068274 0.000000 0.177684
#
#
# Mechanical properties :
#
#
# Convention : Reuss Voigt Hill
#
# Bulk Modulus (GPa) = 58.03065 70.20169 64.11617
# Shear Modulus (GPa) = 15.12498 35.34401 25.23450
#
# Velocity S-wave (km/s) = 2.69747 4.12351 3.48422
# Velocity P-wave (km/s) = 6.13345 7.51290 6.85795
#
# Compressibility (1/GPa) = 0.01723227
#
# Stress axis : x y z
#
# Youngs Moduli (GPa) = 149.58900 49.81206 122.01131
#
# Poissons Ratio (x) = 0.17831 0.08994
# Poissons Ratio (y) = 0.53549 0.55456
# Poissons Ratio (z) = 0.11027 0.22640
#
# Static dielectric constant tensor:
#      x y z
#    x 1.667900 0.000000 -0.059120 
#    y 0.000000 1.801020 0.000000 
#    z -0.059120 0.000000 1.886010 
# 
# From -- ./inp_files/52836.got.cif
#   From: 2010.05.17/outbox.cif.g08.bks.cpg/sg14_27_cif.got.tgz:52836.got - 2010.06.03 17:49:19.
