data_PCOD9248703
_publ_section_title
;
Structure prediction by ZEFSAII (Michael W. Deem and Ramdas Pophale) SiO2 
 PCOD9248703
Probable space group: P 21/C
;
_chemical_formula_sum "Si O2"
_cell_formula_units_Z 28
_cell_length_a 9.477848
_cell_length_b 8.233159
_cell_length_c 22.959193
_cell_angle_alpha 90.000000
_cell_angle_beta 41.779452
_cell_angle_gamma 90.000000
_cell_volume 1193.657994
_symmetry_space_group_name_H-M "P 21/C"
_symmetry_group_IT_number 14
_symmetry_cell_setting 'monoclinic'
loop_
_space_group_symop_operation_xyz
x,y,z
-x,1/2+y,1/2-z
-x,-y,-z
x,1/2-y,1/2+z
loop_
_atom_site_type_symbol
_atom_site_label
_atom_site_fract_x
_atom_site_fract_y
_atom_site_fract_z
Si Si1 0.009536 0.485155 0.197083
Si Si2 0.972893 0.493089 0.438239
Si Si3 0.565334 0.980363 0.258346
Si Si4 0.689297 0.186118 0.322408
Si Si5 0.381599 0.360148 0.708824
Si Si6 0.706127 0.703817 0.967499
Si Si7 0.562067 0.375475 0.532463
O O1 0.848109 0.338460 0.263868
O O2 0.863374 0.641820 0.231158
O O3 0.161917 0.537946 0.202368
O O4 0.138968 0.441177 0.098783
O O5 0.858953 0.655598 0.447068
O O6 0.811852 0.356226 0.462829
O O7 0.000000 0.500000 0.500000
O O8 0.203112 0.468528 0.341317
O O9 0.576746 0.132598 0.297880
O O10 0.406913 0.021760 0.255594
O O11 0.520865 0.813449 0.305359
O O12 0.497829 0.196202 0.427838
O O13 0.497543 0.430663 0.616555
O O14 0.593304 0.733439 0.939110
O O15 0.500000 0.500000 0.500000
#
# Coordination Sequence:
#
# PCOD9248703 Si02
#       7
#     4   4   4   4   4   4   4
#     4  12  25  46  70 107 144 190 239 297 361 424
#     4  11  23  43  72 102 142 194 241 282 367 443
#     4  12  27  47  72 108 146 190 238 302 366 435
#     4  12  26  46  74 106 149 186 241 299 362 427
#     4  12  27  46  73 106 144 190 242 298 366 432
#     4  11  25  44  73 105 144 187 241 302 352 429
#     4  10  22  43  70 104 138 183 239 289 352 436
#
# _framework density 23.457305000000002
#
# number of rings (size 3 to 8) (size 9 to 14) (size 15 to 20)
#    0.000    0.571    2.857    5.571    8.000    0.000 
#    0.000    0.714    0.000    0.000    0.000    0.000 
#    0.000    0.000    0.000    0.000    0.000    0.000 
#
# Total GULP energy -156402.531201 kJ/mol
# GULP energy per Si atom -5585.804686 kJ/mol
# Density = 2.340392 g / cm^3
# Si number density = 23.457305 Si / 1000 Ang^3
#
#
#
# Elastic Constant Matrix: (Units=GPa)
#
#
# Indices 1 2 3 4 5 6 
#
# 1 104.2936 -4.4384 11.4436 0.0000 13.4276 0.0000
# 2 -4.4384 57.9678 11.3278 0.0000 8.3882 0.0000
# 3 11.4436 11.3278 85.2230 0.0000 4.6834 0.0000
# 4 0.0000 0.0000 0.0000 25.3738 0.0000 -2.0556
# 5 13.4276 8.3882 4.6834 0.0000 40.9439 0.0000
# 6 0.0000 0.0000 0.0000 -2.0556 0.0000 36.4391
#
#
#
# Elastic Compliance Matrix: (Units=1/GPa)
#
#
# Indices 1 2 3 4 5 6 
#
# 1 0.010262 0.001568 -0.001393 0.000000 -0.003527 0.000000
# 2 0.001568 0.018428 -0.002440 0.000000 -0.004011 0.000000
# 3 -0.001393 -0.002440 0.012270 0.000000 -0.000447 0.000000
# 4 0.000000 0.000000 0.000000 0.039592 0.000000 0.002233
# 5 -0.003527 -0.004011 -0.000447 0.000000 0.026453 0.000000
# 6 0.000000 0.000000 0.000000 0.002233 0.000000 0.027569
#
#
# Mechanical properties :
#
#
# Convention : Reuss Voigt Hill
#
# Bulk Modulus (GPa) = 27.44836 31.57226 29.51031
# Shear Modulus (GPa) = 33.05878 35.82813 34.44345
#
# Velocity S-wave (km/s) = 3.75816 3.91241 3.83606
# Velocity P-wave (km/s) = 5.52797 5.82219 5.67699
#
# Compressibility (1/GPa) = 0.03643205
#
# Stress axis : x y z
#
# Youngs Moduli (GPa) = 97.44682 54.26486 81.50123
#
# Poissons Ratio (x) = -0.08510 0.11350
# Poissons Ratio (y) = -0.15283 0.19883
# Poissons Ratio (z) = 0.13570 0.13239
#
# Static dielectric constant tensor:
#      x y z
#    x 1.853630 0.000000 0.007990 
#    y 0.000000 2.020710 0.000000 
#    z 0.007990 0.000000 1.899920 
# 
# From -- ./inp_files/64975.got.cif
#   From: 2010.05.17/outbox.cif.g08.bks.cpg/sg14_33_cif.got.tgz:64975.got - 2010.06.03 17:49:19.
