data_PCOD9248968
_publ_section_title
;
Structure prediction by ZEFSAII (Michael W. Deem and Ramdas Pophale) SiO2 
 PCOD9248968
Probable space group: P 21/C
;
_chemical_formula_sum "Si O2"
_cell_formula_units_Z 16
_cell_length_a 6.901546
_cell_length_b 19.108311
_cell_length_c 4.879719
_cell_angle_alpha 90.000000
_cell_angle_beta 82.767701
_cell_angle_gamma 90.000000
_cell_volume 638.402220
_symmetry_space_group_name_H-M "P 21/C"
_symmetry_group_IT_number 14
_symmetry_cell_setting 'monoclinic'
loop_
_space_group_symop_operation_xyz
x,y,z
-x,1/2+y,1/2-z
-x,-y,-z
x,1/2-y,1/2+z
loop_
_atom_site_type_symbol
_atom_site_label
_atom_site_fract_x
_atom_site_fract_y
_atom_site_fract_z
Si Si1 0.896438 0.705986 0.073625
Si Si2 0.993127 0.566400 0.804076
Si Si3 0.424584 0.121635 0.638839
Si Si4 0.378155 0.932525 0.919373
O O1 0.932452 0.726118 0.379335
O O2 0.677701 0.683990 0.013854
O O3 0.023405 0.639084 0.965677
O O4 0.152738 0.560476 0.539601
O O5 0.000000 0.500000 0.000000
O O6 0.769807 0.577030 0.752262
O O7 0.538225 0.130246 0.901032
O O8 0.564741 0.081956 0.401867
O O9 0.500000 0.000000 0.000000
#
# Coordination Sequence:
#
# PCOD9248968 Si02
#       4
#     4   4   4   4
#     4  10  22  45  66  91 134 177 218 272 333 394
#     4  10  24  42  71  97 136 174 219 277 335 384
#     4  10  25  40  65  94 132 172 216 268 331 380
#     4  12  22  41  65 103 132 170 218 273 331 400
#
# _framework density 25.062569
#
# number of rings (size 3 to 8) (size 9 to 14) (size 15 to 20)
#    1.500    0.000    2.500    2.250    0.000    5.000 
#    0.000    7.500    0.000    0.000    0.000    0.000 
#    0.000    0.000    0.000    0.000    0.000    0.000 
#
# Total GULP energy -89451.823077 kJ/mol
# GULP energy per Si atom -5590.738942 kJ/mol
# Density = 2.500553 g / cm^3
# Si number density = 25.062569 Si / 1000 Ang^3
#
#
#
# Elastic Constant Matrix: (Units=GPa)
#
#
# Indices 1 2 3 4 5 6 
#
# 1 137.4046 13.2999 54.5345 0.0000 -36.7666 0.0000
# 2 13.2999 82.0819 15.8989 0.0000 -18.0617 0.0000
# 3 54.5345 15.8989 122.4791 0.0000 -29.5194 0.0000
# 4 0.0000 0.0000 0.0000 42.9019 0.0000 3.0563
# 5 -36.7666 -18.0617 -29.5194 0.0000 54.8658 0.0000
# 6 0.0000 0.0000 0.0000 3.0563 0.0000 29.1858
#
#
#
# Elastic Compliance Matrix: (Units=1/GPa)
#
#
# Indices 1 2 3 4 5 6 
#
# 1 0.009859 0.000107 -0.003221 0.000000 0.004909 0.000000
# 2 0.000107 0.013198 -0.000800 0.000000 0.003986 0.000000
# 3 -0.003221 -0.000800 0.010478 0.000000 0.003216 0.000000
# 4 0.000000 0.000000 0.000000 0.023484 0.000000 -0.002459
# 5 0.004909 0.003986 0.003216 0.000000 0.024558 0.000000
# 6 0.000000 0.000000 0.000000 -0.002459 0.000000 0.034521
#
#
# Mechanical properties :
#
#
# Convention : Reuss Voigt Hill
#
# Bulk Modulus (GPa) = 38.90082 56.60359 47.75220
# Shear Modulus (GPa) = 37.73742 42.60618 40.17180
#
# Velocity S-wave (km/s) = 3.88458 4.12757 4.00792
# Velocity P-wave (km/s) = 5.97287 6.73422 6.36494
#
# Compressibility (1/GPa) = 0.02570640
#
# Stress axis : x y z
#
# Youngs Moduli (GPa) = 101.42744 75.77100 95.44256
#
# Poissons Ratio (x) = -0.00807 0.30738
# Poissons Ratio (y) = -0.01081 0.07636
# Poissons Ratio (z) = 0.32665 0.06062
#
# Static dielectric constant tensor:
#      x y z
#    x 1.982850 0.000000 0.005360 
#    y 0.000000 2.094730 0.000000 
#    z 0.005360 0.000000 1.911650 
# 
# From -- ./inp_files/266.got.cif
#   From: 2010.05.17/outbox.cif.g08.bks.cpg/sg14_1_cif.got.tgz:266.got - 2010.06.03 17:49:19.
