data_PCOD9248550
_publ_section_title
;
Structure prediction by ZEFSAII (Michael W. Deem and Ramdas Pophale) SiO2 
 PCOD9248550
Probable space group: P 21/C
;
_chemical_formula_sum "Si O2"
_cell_formula_units_Z 22
_cell_length_a 23.509727
_cell_length_b 4.858013
_cell_length_c 13.987223
_cell_angle_alpha 90.000000
_cell_angle_beta 146.525332
_cell_angle_gamma 90.000000
_cell_volume 881.123968
_symmetry_space_group_name_H-M "P 21/C"
_symmetry_group_IT_number 14
_symmetry_cell_setting 'monoclinic'
loop_
_space_group_symop_operation_xyz
x,y,z
-x,1/2+y,1/2-z
-x,-y,-z
x,1/2-y,1/2+z
loop_
_atom_site_type_symbol
_atom_site_label
_atom_site_fract_x
_atom_site_fract_y
_atom_site_fract_z
Si Si1 0.500000 0.000000 0.000000
Si Si2 0.633279 0.539977 0.097523
Si Si3 0.756782 0.135480 0.053106
Si Si4 0.619442 0.622089 0.855841
Si Si5 0.764853 0.051170 0.286847
Si Si6 0.931291 0.176303 0.154750
O O1 0.441339 0.287386 0.942418
O O2 0.468519 0.040640 0.839683
O O3 0.661672 0.231175 0.172770
O O4 0.737307 0.729541 0.251841
O O5 0.600271 0.545488 0.940200
O O6 0.780532 0.127591 0.198502
O O7 0.855544 0.060653 0.129950
O O8 0.719318 0.436366 0.970045
O O9 0.660200 0.931895 0.904709
O O10 0.859300 0.162884 0.478911
O O11 0.006875 0.415715 0.299129
#
# Coordination Sequence:
#
# PCOD9248550 Si02
#       6
#     2   4   4   4   4   4
#     4  12  24  40  68  96 132 166 212 280 324 356
#     4  10  23  40  63  91 124 169 214 255 313 388
#     4  10  22  43  62  84 125 168 204 252 319 385
#     4  10  23  40  63  91 124 169 214 255 313 388
#     4  10  22  43  62  84 125 168 204 252 319 385
#     4  12  24  37  62  95 120 151 208 265 314 380
#
# _framework density 24.968112999999999
#
# number of rings (size 3 to 8) (size 9 to 14) (size 15 to 20)
#    0.000    1.455    0.000    4.364    0.000    8.727 
#    0.000    0.000    0.000    0.000    0.000    0.000 
#    0.000    0.000    0.000    0.000    0.000    0.000 
#
# Total GULP energy -122924.955988 kJ/mol
# GULP energy per Si atom -5587.497999 kJ/mol
# Density = 2.491128 g / cm^3
# Si number density = 24.968113 Si / 1000 Ang^3
#
#
#
# Elastic Constant Matrix: (Units=GPa)
#
#
# Indices 1 2 3 4 5 6 
#
# 1 50.7125 9.4702 12.9648 0.0000 -11.9898 0.0000
# 2 9.4702 119.3487 20.5794 0.0000 -6.9152 0.0000
# 3 12.9648 20.5794 70.1336 0.0000 -3.0176 0.0000
# 4 0.0000 0.0000 0.0000 33.3334 0.0000 -2.8547
# 5 -11.9898 -6.9152 -3.0176 0.0000 28.4257 0.0000
# 6 0.0000 0.0000 0.0000 -2.8547 0.0000 14.4936
#
#
#
# Elastic Compliance Matrix: (Units=1/GPa)
#
#
# Indices 1 2 3 4 5 6 
#
# 1 0.022934 -0.000661 -0.003653 0.000000 0.009125 0.000000
# 2 -0.000661 0.008946 -0.002432 0.000000 0.001639 0.000000
# 3 -0.003653 -0.002432 0.015627 0.000000 -0.000474 0.000000
# 4 0.000000 0.000000 0.000000 0.030515 0.000000 0.006010
# 5 0.009125 0.001639 -0.000474 0.000000 0.039377 0.000000
# 6 0.000000 0.000000 0.000000 0.006010 0.000000 0.070180
#
#
# Mechanical properties :
#
#
# Convention : Reuss Voigt Hill
#
# Bulk Modulus (GPa) = 29.39976 36.24705 32.82341
# Shear Modulus (GPa) = 23.53960 28.39590 25.96775
#
# Velocity S-wave (km/s) = 3.07381 3.37603 3.22846
# Velocity P-wave (km/s) = 4.93946 5.45395 5.20307
#
# Compressibility (1/GPa) = 0.03401388
#
# Stress axis : x y z
#
# Youngs Moduli (GPa) = 43.60400 111.78640 63.99149
#
# Poissons Ratio (x) = 0.07391 0.23375
# Poissons Ratio (y) = 0.02883 0.15564
# Poissons Ratio (z) = 0.15928 0.27188
#
# Static dielectric constant tensor:
#      x y z
#    x 1.638440 0.000000 -0.283450 
#    y 0.000000 1.994880 0.000000 
#    z -0.283450 0.000000 1.644180 
# 
# From -- ./inp_files/51033.got.cif
#   From: 2010.05.17/outbox.cif.g08.bks.cpg/sg14_26_cif.got.tgz:51033.got - 2010.06.03 17:49:19.
