data_PCOD9248148
_publ_section_title
;
Structure prediction by ZEFSAII (Michael W. Deem and Ramdas Pophale) SiO2 
 PCOD9248148
Probable space group: P 21/C
;
_chemical_formula_sum "Si O2"
_cell_formula_units_Z 28
_cell_length_a 19.025718
_cell_length_b 5.059554
_cell_length_c 18.207529
_cell_angle_alpha 90.000000
_cell_angle_beta 142.762161
_cell_angle_gamma 90.000000
_cell_volume 1060.594605
_symmetry_space_group_name_H-M "P 21/C"
_symmetry_group_IT_number 14
_symmetry_cell_setting 'monoclinic'
loop_
_space_group_symop_operation_xyz
x,y,z
-x,1/2+y,1/2-z
-x,-y,-z
x,1/2-y,1/2+z
loop_
_atom_site_type_symbol
_atom_site_label
_atom_site_fract_x
_atom_site_fract_y
_atom_site_fract_z
Si Si1 0.304196 0.133410 0.779450
Si Si2 0.232847 0.103250 0.350644
Si Si3 0.081801 0.459694 0.324458
Si Si4 0.908186 0.265154 0.874488
Si Si5 0.610548 0.306671 0.909486
Si Si6 0.146106 0.394936 0.539906
Si Si7 0.539605 0.193446 0.188351
O O1 0.332089 0.303413 0.874895
O O2 0.265551 0.302536 0.676186
O O3 0.391297 0.909413 0.824807
O O4 0.183207 0.998598 0.702269
O O5 0.170953 0.345036 0.339651
O O6 0.281813 0.907606 0.453622
O O7 0.140924 0.951075 0.223310
O O8 0.148405 0.467294 0.457338
O O9 0.018864 0.735160 0.256647
O O10 0.897773 0.133348 0.945823
O O11 0.040772 0.315720 0.962969
O O12 0.567213 0.011789 0.890032
O O13 0.617525 0.338205 0.827199
O O14 0.510047 0.512262 0.851771
#
# Coordination Sequence:
#
# PCOD9248148 Si02
#       7
#     4   4   4   4   4   4   4
#     4  11  24  40  69  96 134 182 223 277 340 402
#     4  11  25  42  65 102 137 176 224 279 338 396
#     4  12  26  43  67  99 136 179 226 276 327 396
#     4  10  22  42  63  99 133 176 223 272 332 404
#     4  10  24  46  70  98 133 174 222 287 333 404
#     4  10  22  41  66  93 136 180 223 269 334 394
#     4  10  24  46  70  98 131 174 231 273 344 404
#
# _framework density 26.400283000000002
#
# number of rings (size 3 to 8) (size 9 to 14) (size 15 to 20)
#    0.000    1.429    1.429    2.143    8.000    1.143 
#    2.571    0.000    0.000    0.000    0.000    0.000 
#    0.000    0.000    0.000    0.000    0.000    0.000 
#
# Total GULP energy -157028.674030 kJ/mol
# GULP energy per Si atom -5608.166930 kJ/mol
# Density = 2.634019 g / cm^3
# Si number density = 26.400283 Si / 1000 Ang^3
#
#
#
# Elastic Constant Matrix: (Units=GPa)
#
#
# Indices 1 2 3 4 5 6 
#
# 1 94.1170 11.6274 49.3262 0.0000 -20.8226 0.0000
# 2 11.6274 77.8906 19.2789 0.0000 4.6081 0.0000
# 3 49.3262 19.2789 110.2565 0.0000 -23.5750 0.0000
# 4 0.0000 0.0000 0.0000 35.7447 0.0000 10.0169
# 5 -20.8226 4.6081 -23.5750 0.0000 46.8720 0.0000
# 6 0.0000 0.0000 0.0000 10.0169 0.0000 31.9157
#
#
#
# Elastic Compliance Matrix: (Units=1/GPa)
#
#
# Indices 1 2 3 4 5 6 
#
# 1 0.014459 -0.001024 -0.005485 0.000000 0.003765 0.000000
# 2 -0.001024 0.013828 -0.002631 0.000000 -0.003137 0.000000
# 3 -0.005485 -0.002631 0.012906 0.000000 0.004313 0.000000
# 4 0.000000 0.000000 0.000000 0.030674 0.000000 -0.009627
# 5 0.003765 -0.003137 0.004313 0.000000 0.025485 0.000000
# 6 0.000000 0.000000 0.000000 -0.009627 0.000000 0.034354
#
#
# Mechanical properties :
#
#
# Convention : Reuss Voigt Hill
#
# Bulk Modulus (GPa) = 43.63988 49.19212 46.41600
# Shear Modulus (GPa) = 31.72136 36.37526 34.04831
#
# Velocity S-wave (km/s) = 3.47010 3.71595 3.59513
# Velocity P-wave (km/s) = 5.71152 6.08972 5.90365
#
# Compressibility (1/GPa) = 0.02291482
#
# Stress axis : x y z
#
# Youngs Moduli (GPa) = 69.16100 72.31647 77.48527
#
# Poissons Ratio (x) = 0.07403 0.42497
# Poissons Ratio (y) = 0.07080 0.20385
# Poissons Ratio (z) = 0.37931 0.19025
#
# Static dielectric constant tensor:
#      x y z
#    x 2.059540 0.000000 0.025340 
#    y 0.000000 2.077140 0.000000 
#    z 0.025340 0.000000 2.072580 
# 
# From -- ./inp_files/60961.got.cif
#   From: 2010.05.17/outbox.cif.g08.bks.cpg/sg14_31_cif.got.tgz:60961.got - 2010.06.03 17:49:19.
