data_PCOD9248431
_publ_section_title
;
Structure prediction by ZEFSAII (Michael W. Deem and Ramdas Pophale) SiO2 
 PCOD9248431
Probable space group: P 21/C
;
_chemical_formula_sum "Si O2"
_cell_formula_units_Z 18
_cell_length_a 9.642877
_cell_length_b 8.032492
_cell_length_c 10.562082
_cell_angle_alpha 90.000000
_cell_angle_beta 64.028759
_cell_angle_gamma 90.000000
_cell_volume 735.483448
_symmetry_space_group_name_H-M "P 21/C"
_symmetry_group_IT_number 14
_symmetry_cell_setting 'monoclinic'
loop_
_space_group_symop_operation_xyz
x,y,z
-x,1/2+y,1/2-z
-x,-y,-z
x,1/2-y,1/2+z
loop_
_atom_site_type_symbol
_atom_site_label
_atom_site_fract_x
_atom_site_fract_y
_atom_site_fract_z
Si Si1 0.225807 0.037597 0.099789
Si Si2 0.343191 0.579685 0.799503
Si Si3 0.662294 0.465754 0.724263
Si Si4 0.066689 0.190743 0.781601
Si Si5 0.000000 0.000000 0.500000
O O1 0.338342 0.035087 0.175050
O O2 0.092721 0.901466 0.182028
O O3 0.132843 0.211269 0.134062
O O4 0.305317 0.998011 0.937363
O O5 0.495559 0.543355 0.818884
O O6 0.184457 0.546800 0.934464
O O7 0.344513 0.769630 0.752109
O O8 0.806002 0.554532 0.733254
O O9 0.042272 0.330852 0.897035
#
# Coordination Sequence:
#
# PCOD9248431 Si02
#       5
#     4   4   4   4   2
#     4  11  24  43  70 101 138 179 229 280 337 414
#     4  11  24  44  69 100 137 181 231 275 347 401
#     4  12  25  47  68 100 142 180 223 295 331 402
#     4  11  24  42  71 100 136 180 231 275 346 402
#     4  10  22  42  68  96 132 176 222 274 336 408
#
# _framework density 24.473697000000001
#
# number of rings (size 3 to 8) (size 9 to 14) (size 15 to 20)
#    0.000    0.889    2.222    5.333    6.222    0.000 
#    0.000    2.222    0.000    0.000    0.000    0.000 
#    0.000    0.000    0.000    0.000    0.000    0.000 
#
# Total GULP energy -100365.239675 kJ/mol
# GULP energy per Si atom -5575.846649 kJ/mol
# Density = 2.441799 g / cm^3
# Si number density = 24.473697 Si / 1000 Ang^3
#
#
#
# Elastic Constant Matrix: (Units=GPa)
#
#
# Indices 1 2 3 4 5 6 
#
# 1 121.1754 23.3659 24.5813 0.0000 -40.6112 0.0000
# 2 23.3659 96.2895 3.9358 0.0000 -22.2541 0.0000
# 3 24.5813 3.9358 41.9398 0.0000 -13.0769 0.0000
# 4 0.0000 0.0000 0.0000 25.4991 0.0000 2.6181
# 5 -40.6112 -22.2541 -13.0769 0.0000 44.0947 0.0000
# 6 0.0000 0.0000 0.0000 2.6181 0.0000 40.0340
#
#
#
# Elastic Compliance Matrix: (Units=1/GPa)
#
#
# Indices 1 2 3 4 5 6 
#
# 1 0.012582 -0.000556 -0.004183 0.000000 0.010067 0.000000
# 2 -0.000556 0.011807 0.001009 0.000000 0.005747 0.000000
# 3 -0.004183 0.001009 0.027722 0.000000 0.004878 0.000000
# 4 0.000000 0.000000 0.000000 0.039482 0.000000 -0.002582
# 5 0.010067 0.005747 0.004878 0.000000 0.036297 0.000000
# 6 0.000000 0.000000 0.000000 -0.002582 0.000000 0.025148
#
#
# Mechanical properties :
#
#
# Convention : Reuss Voigt Hill
#
# Bulk Modulus (GPa) = 22.39550 40.35232 31.37391
# Shear Modulus (GPa) = 28.50933 35.76034 32.13484
#
# Velocity S-wave (km/s) = 3.41676 3.82668 3.62751
# Velocity P-wave (km/s) = 4.97357 6.00404 5.51293
#
# Compressibility (1/GPa) = 0.04465182
#
# Stress axis : x y z
#
# Youngs Moduli (GPa) = 79.47726 84.69534 36.07268
#
# Poissons Ratio (x) = 0.04705 0.15091
# Poissons Ratio (y) = 0.04415 -0.03641
# Poissons Ratio (z) = 0.33249 -0.08549
#
# Static dielectric constant tensor:
#      x y z
#    x 1.921950 0.000000 0.080990 
#    y 0.000000 1.969750 0.000000 
#    z 0.080990 0.000000 1.923920 
# 
# From -- ./inp_files/22869.got.cif
#   From: 2010.05.17/outbox.cif.g08.bks.cpg/sg14_12_cif.got.tgz:22869.got - 2010.06.03 17:49:19.
