data_PCOD9248250
_publ_section_title
;
Structure prediction by ZEFSAII (Michael W. Deem and Ramdas Pophale) SiO2 
 PCOD9248250
Probable space group: P 21/C
;
_chemical_formula_sum "Si O2"
_cell_formula_units_Z 20
_cell_length_a 6.699975
_cell_length_b 7.259493
_cell_length_c 25.756002
_cell_angle_alpha 90.000000
_cell_angle_beta 45.317749
_cell_angle_gamma 90.000000
_cell_volume 890.713661
_symmetry_space_group_name_H-M "P 21/C"
_symmetry_group_IT_number 14
_symmetry_cell_setting 'monoclinic'
loop_
_space_group_symop_operation_xyz
x,y,z
-x,1/2+y,1/2-z
-x,-y,-z
x,1/2-y,1/2+z
loop_
_atom_site_type_symbol
_atom_site_label
_atom_site_fract_x
_atom_site_fract_y
_atom_site_fract_z
Si Si1 0.240367 0.671480 0.351028
Si Si2 0.210299 0.626389 0.583011
Si Si3 0.604920 0.667366 0.086092
Si Si4 0.691814 0.904484 0.682615
Si Si5 0.273219 0.757891 0.459825
O O1 0.491076 0.602085 0.268680
O O2 0.318348 0.651164 0.397541
O O3 0.958034 0.564631 0.387667
O O4 0.209304 0.888943 0.347313
O O5 0.433338 0.685713 0.584969
O O6 0.335860 0.661048 0.502680
O O7 0.958284 0.773451 0.638687
O O8 0.527898 0.662300 0.160930
O O9 0.578080 0.457693 0.069867
O O10 0.936414 0.709831 0.022332
#
# Coordination Sequence:
#
# PCOD9248250 Si02
#       5
#     4   4   4   4   4
#     4  11  21  40  65  90 127 173 216 266 327 385
#     4  11  21  40  67  92 124 169 215 265 329 387
#     4   9  20  40  62  93 127 165 212 265 327 386
#     4  10  22  42  60  89 130 172 212 270 324 389
#     4   9  20  38  65  93 128 163 211 271 324 384
#
# _framework density 22.453907000000001
#
# number of rings (size 3 to 8) (size 9 to 14) (size 15 to 20)
#    0.000    2.000    2.000    2.400    0.000    0.800 
#    3.600   10.000    0.000    0.000    0.000    0.000 
#    0.000    0.000    0.000    0.000    0.000    0.000 
#
# Total GULP energy -111944.719940 kJ/mol
# GULP energy per Si atom -5597.235997 kJ/mol
# Density = 2.240280 g / cm^3
# Si number density = 22.453907 Si / 1000 Ang^3
#
#
#
# Elastic Constant Matrix: (Units=GPa)
#
#
# Indices 1 2 3 4 5 6 
#
# 1 94.7457 66.9902 38.2603 0.0000 15.4178 0.0000
# 2 66.9902 115.7214 34.8203 0.0000 11.8663 0.0000
# 3 38.2603 34.8203 149.1871 0.0000 27.5950 0.0000
# 4 0.0000 0.0000 0.0000 34.3576 0.0000 5.5783
# 5 15.4178 11.8663 27.5950 0.0000 29.1282 0.0000
# 6 0.0000 0.0000 0.0000 5.5783 0.0000 29.1588
#
#
#
# Elastic Compliance Matrix: (Units=1/GPa)
#
#
# Indices 1 2 3 4 5 6 
#
# 1 0.019095 -0.010085 -0.001738 0.000000 -0.004352 0.000000
# 2 -0.010085 0.014727 -0.000883 0.000000 0.000175 0.000000
# 3 -0.001738 -0.000883 0.008631 0.000000 -0.006896 0.000000
# 4 0.000000 0.000000 0.000000 0.030039 0.000000 -0.005747
# 5 -0.004352 0.000175 -0.006896 0.000000 0.043097 0.000000
# 6 0.000000 0.000000 0.000000 -0.005747 0.000000 0.035394
#
#
# Mechanical properties :
#
#
# Convention : Reuss Voigt Hill
#
# Bulk Modulus (GPa) = 58.68540 71.08843 64.88691
# Shear Modulus (GPa) = 27.46112 33.16781 30.31446
#
# Velocity S-wave (km/s) = 3.50093 3.84754 3.67832
# Velocity P-wave (km/s) = 6.52187 7.17402 6.85570
#
# Compressibility (1/GPa) = 0.01704001
#
# Stress axis : x y z
#
# Youngs Moduli (GPa) = 52.36921 67.90124 115.86676
#
# Poissons Ratio (x) = 0.68477 0.20142
# Poissons Ratio (y) = 0.52813 0.10236
# Poissons Ratio (z) = 0.09104 0.05999
#
# Static dielectric constant tensor:
#      x y z
#    x 1.811450 0.000000 0.020280 
#    y 0.000000 1.867440 0.000000 
#    z 0.020280 0.000000 1.810030 
# 
# From -- ./inp_files/70915.got.cif
#   From: 2010.05.17/outbox.cif.g08.bks.cpg/sg14_36_cif.got.tgz:70915.got - 2010.06.03 17:49:19.
