data_PCOD9248961
_publ_section_title
;
Structure prediction by ZEFSAII (Michael W. Deem and Ramdas Pophale) SiO2 
 PCOD9248961
Probable space group: P 21/C
;
_chemical_formula_sum "Si O2"
_cell_formula_units_Z 16
_cell_length_a 12.640338
_cell_length_b 7.326736
_cell_length_c 19.402578
_cell_angle_alpha 90.000000
_cell_angle_beta 19.959324
_cell_angle_gamma 90.000000
_cell_volume 613.383822
_symmetry_space_group_name_H-M "P 21/C"
_symmetry_group_IT_number 14
_symmetry_cell_setting 'monoclinic'
loop_
_space_group_symop_operation_xyz
x,y,z
-x,1/2+y,1/2-z
-x,-y,-z
x,1/2-y,1/2+z
loop_
_atom_site_type_symbol
_atom_site_label
_atom_site_fract_x
_atom_site_fract_y
_atom_site_fract_z
Si Si1 0.541534 0.192872 0.434357
Si Si2 0.877635 0.547567 0.236277
Si Si3 0.717321 0.634280 0.188426
Si Si4 0.425656 0.980769 0.730059
O O1 0.807673 0.335850 0.293919
O O2 0.235994 0.312826 0.636723
O O3 0.500000 0.000000 0.500000
O O4 0.611090 0.153740 0.311606
O O5 0.659934 0.596953 0.303612
O O6 0.234509 0.567933 0.997884
O O7 0.801090 0.846886 0.131719
O O8 0.470454 0.596809 0.279224
O O9 0.000000 0.500000 0.000000
#
# Coordination Sequence:
#
# PCOD9248961 Si02
#       4
#     4   4   4   4
#     4  11  23  42  65 101 135 178 222 284 336 402
#     4  10  24  43  66 101 139 170 236 276 333 418
#     4  10  22  45  65 102 133 177 233 280 333 407
#     4  11  23  43  70  96 138 187 220 282 347 398
#
# _framework density 26.084809
#
# number of rings (size 3 to 8) (size 9 to 14) (size 15 to 20)
#    0.000    1.500    2.500    1.500    3.500    0.000 
#    9.000    7.500    0.000    0.000    0.000    0.000 
#    0.000    0.000    0.000    0.000    0.000    0.000 
#
# Total GULP energy -89510.234839 kJ/mol
# GULP energy per Si atom -5594.389677 kJ/mol
# Density = 2.602544 g / cm^3
# Si number density = 26.084809 Si / 1000 Ang^3
#
#
#
# Elastic Constant Matrix: (Units=GPa)
#
#
# Indices 1 2 3 4 5 6 
#
# 1 179.5780 72.2278 29.6135 0.0000 5.1997 0.0000
# 2 72.2278 211.7404 28.5314 0.0000 -0.6655 0.0000
# 3 29.6135 28.5314 56.4583 0.0000 17.1396 0.0000
# 4 0.0000 0.0000 0.0000 48.7634 0.0000 20.8383
# 5 5.1997 -0.6655 17.1396 0.0000 26.7538 0.0000
# 6 0.0000 0.0000 0.0000 20.8383 0.0000 48.9525
#
#
#
# Elastic Compliance Matrix: (Units=1/GPa)
#
#
# Indices 1 2 3 4 5 6 
#
# 1 0.006786 -0.001953 -0.002678 0.000000 0.000348 0.000000
# 2 -0.001953 0.005736 -0.002524 0.000000 0.002139 0.000000
# 3 -0.002678 -0.002524 0.025143 0.000000 -0.015650 0.000000
# 4 0.000000 0.000000 0.000000 0.025067 0.000000 -0.010671
# 5 0.000348 0.002139 -0.015650 0.000000 0.047390 0.000000
# 6 0.000000 0.000000 0.000000 -0.010671 0.000000 0.024970
#
#
# Mechanical properties :
#
#
# Convention : Reuss Voigt Hill
#
# Bulk Modulus (GPa) = 42.81625 78.72469 60.77047
# Shear Modulus (GPa) = 31.80955 46.05421 38.93188
#
# Velocity S-wave (km/s) = 3.49587 4.20641 3.86749
# Velocity P-wave (km/s) = 5.72230 7.33742 6.57960
#
# Compressibility (1/GPa) = 0.02335562
#
# Stress axis : x y z
#
# Youngs Moduli (GPa) = 147.37196 174.34874 39.77206
#
# Poissons Ratio (x) = 0.34045 0.10651
# Poissons Ratio (y) = 0.28777 0.10037
# Poissons Ratio (z) = 0.39468 0.43999
#
# Static dielectric constant tensor:
#      x y z
#    x 2.051420 0.000000 -0.042300 
#    y 0.000000 2.096350 0.000000 
#    z -0.042300 0.000000 2.132760 
# 
# From -- ./inp_files/73527.got.cif
#   From: 2010.05.17/outbox.cif.g08.bks.cpg/sg14_37_cif.got.tgz:73527.got - 2010.06.03 17:49:19.
