data_PCOD9248086
_publ_section_title
;
Structure prediction by ZEFSAII (Michael W. Deem and Ramdas Pophale) SiO2 
 PCOD9248086
Probable space group: P 21/C
;
_chemical_formula_sum "Si O2"
_cell_formula_units_Z 24
_cell_length_a 14.868689
_cell_length_b 8.459104
_cell_length_c 10.075123
_cell_angle_alpha 90.000000
_cell_angle_beta 77.764338
_cell_angle_gamma 90.000000
_cell_volume 1238.420875
_symmetry_space_group_name_H-M "P 21/C"
_symmetry_group_IT_number 14
_symmetry_cell_setting 'monoclinic'
loop_
_space_group_symop_operation_xyz
x,y,z
-x,1/2+y,1/2-z
-x,-y,-z
x,1/2-y,1/2+z
loop_
_atom_site_type_symbol
_atom_site_label
_atom_site_fract_x
_atom_site_fract_y
_atom_site_fract_z
Si Si1 0.251871 0.603819 0.600644
Si Si2 0.430004 0.064478 0.133545
Si Si3 0.896590 0.604907 0.677382
Si Si4 0.282000 0.897228 0.785056
Si Si5 0.471533 0.065742 0.652129
Si Si6 0.073352 0.396934 0.638830
O O1 0.327272 0.471926 0.616751
O O2 0.265638 0.750761 0.693204
O O3 0.271319 0.650725 0.442222
O O4 0.150370 0.530586 0.640869
O O5 0.449369 0.248944 0.149953
O O6 0.450788 0.970580 0.262826
O O7 0.500000 0.000000 0.000000
O O8 0.795988 0.528556 0.717897
O O9 0.909697 0.751664 0.769705
O O10 0.914364 0.652259 0.518732
O O11 0.972781 0.472152 0.686589
O O12 0.381453 0.972163 0.729011
O O13 0.500000 0.000000 0.500000
#
# Coordination Sequence:
#
# PCOD9248086 Si02
#       6
#     4   4   4   4   4   4
#     4  11  24  41  64  92 129 163 211 261 314 379
#     4  12  24  44  63  92 128 165 213 264 315 381
#     4  10  22  41  65  92 129 163 210 258 317 376
#     4  11  24  42  63  94 125 166 210 260 317 378
#     4  12  26  42  67  92 126 170 211 263 321 375
#     4  10  22  41  64  94 127 165 207 262 313 379
#
# _framework density 19.379518000000001
#
# number of rings (size 3 to 8) (size 9 to 14) (size 15 to 20)
#    0.000    1.000    1.667    5.000    2.333    2.000 
#    0.000    0.000    0.000    0.000    0.000    0.000 
#    0.000    0.000    0.000    0.000    0.000    0.000 
#
# Total GULP energy -134306.289083 kJ/mol
# GULP energy per Si atom -5596.095378 kJ/mol
# Density = 1.933541 g / cm^3
# Si number density = 19.379518 Si / 1000 Ang^3
#
#
#
# Elastic Constant Matrix: (Units=GPa)
#
#
# Indices 1 2 3 4 5 6 
#
# 1 74.3134 -11.1950 21.5178 0.0000 8.7517 0.0000
# 2 -11.1950 96.7708 58.6406 0.0000 19.1960 0.0000
# 3 21.5178 58.6406 103.6164 0.0000 22.6602 0.0000
# 4 0.0000 0.0000 0.0000 34.9970 0.0000 19.2197
# 5 8.7517 19.1960 22.6602 0.0000 32.6144 0.0000
# 6 0.0000 0.0000 0.0000 19.2197 0.0000 25.7423
#
#
#
# Elastic Compliance Matrix: (Units=1/GPa)
#
#
# Indices 1 2 3 4 5 6 
#
# 1 0.016738 0.006549 -0.006317 0.000000 -0.003957 0.000000
# 2 0.006549 0.018662 -0.010772 0.000000 -0.005257 0.000000
# 3 -0.006317 -0.010772 0.018043 0.000000 -0.004501 0.000000
# 4 0.000000 0.000000 0.000000 0.048433 0.000000 -0.036161
# 5 -0.003957 -0.005257 -0.004501 0.000000 0.037945 0.000000
# 6 0.000000 0.000000 0.000000 -0.036161 0.000000 0.065845
#
#
# Mechanical properties :
#
#
# Convention : Reuss Voigt Hill
#
# Bulk Modulus (GPa) = 30.89820 45.84748 38.37284
# Shear Modulus (GPa) = 21.04969 32.38657 26.71813
#
# Velocity S-wave (km/s) = 3.29930 4.09244 3.71708
# Velocity P-wave (km/s) = 5.52198 6.78526 6.18595
#
# Compressibility (1/GPa) = 0.03236435
#
# Stress axis : x y z
#
# Youngs Moduli (GPa) = 59.74303 53.58607 55.42199
#
# Poissons Ratio (x) = -0.35096 0.35011
# Poissons Ratio (y) = -0.39128 0.59699
# Poissons Ratio (z) = 0.37741 0.57721
#
# Static dielectric constant tensor:
#      x y z
#    x 1.666920 0.000000 0.007290 
#    y 0.000000 1.633150 0.000000 
#    z 0.007290 0.000000 1.652130 
# 
# From -- ./inp_files/15061.got.cif
#   From: 2010.05.17/outbox.cif.g08.bks.cpg/sg14_8_cif.got.tgz:15061.got - 2010.06.03 17:49:19.
