data_PCOD9248894
_publ_section_title
;
Structure prediction by ZEFSAII (Michael W. Deem and Ramdas Pophale) SiO2 
 PCOD9248894
Probable space group: P 21/C
;
_chemical_formula_sum "Si O2"
_cell_formula_units_Z 28
_cell_length_a 8.978130
_cell_length_b 8.940714
_cell_length_c 14.378773
_cell_angle_alpha 90.000000
_cell_angle_beta 92.914327
_cell_angle_gamma 90.000000
_cell_volume 1152.704191
_symmetry_space_group_name_H-M "P 21/C"
_symmetry_group_IT_number 14
_symmetry_cell_setting 'monoclinic'
loop_
_space_group_symop_operation_xyz
x,y,z
-x,1/2+y,1/2-z
-x,-y,-z
x,1/2-y,1/2+z
loop_
_atom_site_type_symbol
_atom_site_label
_atom_site_fract_x
_atom_site_fract_y
_atom_site_fract_z
Si Si1 0.359943 0.373055 0.207525
Si Si2 0.174735 0.068824 0.211284
Si Si3 0.918577 0.042561 0.344686
Si Si4 0.750347 0.464770 0.486599
Si Si5 0.629048 0.032294 0.614424
Si Si6 0.898244 0.186463 0.532991
Si Si7 0.555674 0.687391 0.584326
O O1 0.258187 0.226833 0.206213
O O2 0.251822 0.513619 0.187302
O O3 0.485479 0.368017 0.132315
O O4 0.435385 0.378071 0.310865
O O5 0.275801 0.975342 0.287193
O O6 0.176709 0.998408 0.110098
O O7 0.017517 0.079794 0.258707
O O8 0.982140 0.891748 0.396768
O O9 0.940394 0.163811 0.426634
O O10 0.858412 0.357934 0.548734
O O11 0.695290 0.614682 0.534535
O O12 0.598448 0.370168 0.463883
O O13 0.574334 0.865388 0.589703
O O14 0.746325 0.091970 0.543901
#
# Coordination Sequence:
#
# PCOD9248894 Si02
#       7
#     4   4   4   4   4   4   4
#     4  11  23  42  69  98 130 181 225 273 337 401
#     4  10  24  43  65  97 138 170 225 279 327 409
#     4  10  24  45  66  96 133 184 226 268 334 415
#     4  11  23  42  65 102 135 170 219 287 333 389
#     4  10  22  44  70  97 130 178 225 273 337 404
#     4  10  24  44  71  94 134 178 224 276 334 401
#     4  10  24  40  65 103 137 164 221 285 338 388
#
# _framework density 24.290706
#
# number of rings (size 3 to 8) (size 9 to 14) (size 15 to 20)
#    0.000    1.714    1.429    0.857    8.000    2.286 
#    2.571    1.429    0.000    0.000    0.000    0.000 
#    0.000    0.000    0.000    0.000    0.000    0.000 
#
# Total GULP energy -156867.511833 kJ/mol
# GULP energy per Si atom -5602.411137 kJ/mol
# Density = 2.423542 g / cm^3
# Si number density = 24.290706 Si / 1000 Ang^3
#
#
#
# Elastic Constant Matrix: (Units=GPa)
#
#
# Indices 1 2 3 4 5 6 
#
# 1 68.5309 5.5158 20.6504 0.0000 -15.4299 0.0000
# 2 5.5158 39.8360 22.6191 0.0000 0.1103 0.0000
# 3 20.6504 22.6191 106.4445 0.0000 -27.7370 0.0000
# 4 0.0000 0.0000 0.0000 27.8961 0.0000 -3.5145
# 5 -15.4299 0.1103 -27.7370 0.0000 45.4154 0.0000
# 6 0.0000 0.0000 0.0000 -3.5145 0.0000 28.6841
#
#
#
# Elastic Compliance Matrix: (Units=1/GPa)
#
#
# Indices 1 2 3 4 5 6 
#
# 1 0.016217 -0.001288 -0.001708 0.000000 0.004470 0.000000
# 2 -0.001288 0.029440 -0.007301 0.000000 -0.004968 0.000000
# 3 -0.001708 -0.007301 0.013237 0.000000 0.007522 0.000000
# 4 0.000000 0.000000 0.000000 0.036409 0.000000 0.004461
# 5 0.004470 -0.004968 0.007522 0.000000 0.028144 0.000000
# 6 0.000000 0.000000 0.000000 0.004461 0.000000 0.035409
#
#
# Mechanical properties :
#
#
# Convention : Reuss Voigt Hill
#
# Bulk Modulus (GPa) = 26.10864 34.70911 30.40888
# Shear Modulus (GPa) = 26.01238 31.46753 28.73995
#
# Velocity S-wave (km/s) = 3.27598 3.60315 3.44345
# Velocity P-wave (km/s) = 5.00810 5.62408 5.32501
#
# Compressibility (1/GPa) = 0.03830149
#
# Stress axis : x y z
#
# Youngs Moduli (GPa) = 61.66536 33.96700 75.54419
#
# Poissons Ratio (x) = 0.04376 0.12900
# Poissons Ratio (y) = 0.07944 0.55152
# Poissons Ratio (z) = 0.10530 0.24798
#
# Static dielectric constant tensor:
#      x y z
#    x 1.915990 0.000000 0.028430 
#    y 0.000000 1.928260 0.000000 
#    z 0.028430 0.000000 1.897900 
# 
# From -- ./inp_files/54789.got.cif
#   From: 2010.05.17/outbox.cif.g08.bks.cpg/sg14_28_cif.got.tgz:54789.got - 2010.06.03 17:49:19.
