data_PCOD9248381
_publ_section_title
;
Structure prediction by ZEFSAII (Michael W. Deem and Ramdas Pophale) SiO2 
 PCOD9248381
Probable space group: P 21/C
;
_chemical_formula_sum "Si O2"
_cell_formula_units_Z 30
_cell_length_a 12.278341
_cell_length_b 4.871338
_cell_length_c 18.852931
_cell_angle_alpha 90.000000
_cell_angle_beta 73.903966
_cell_angle_gamma 90.000000
_cell_volume 1083.425568
_symmetry_space_group_name_H-M "P 21/C"
_symmetry_group_IT_number 14
_symmetry_cell_setting 'monoclinic'
loop_
_space_group_symop_operation_xyz
x,y,z
-x,1/2+y,1/2-z
-x,-y,-z
x,1/2-y,1/2+z
loop_
_atom_site_type_symbol
_atom_site_label
_atom_site_fract_x
_atom_site_fract_y
_atom_site_fract_z
Si Si1 0.208264 0.856919 0.337518
Si Si2 0.500000 0.500000 0.000000
Si Si3 0.627889 0.572251 0.377565
Si Si4 0.567307 0.318128 0.759322
Si Si5 0.207118 0.792019 0.037109
Si Si6 0.707486 0.708109 0.053147
Si Si7 0.002554 0.588413 0.364554
Si Si8 0.158007 0.259764 0.227451
O O1 0.090530 0.763134 0.394443
O O2 0.311478 0.656594 0.300626
O O3 0.263035 0.094950 0.375217
O O4 0.170891 0.974016 0.267247
O O5 0.540068 0.753442 0.939077
O O6 0.415313 0.371730 0.953581
O O7 0.581560 0.363024 0.327442
O O8 0.704521 0.377980 0.416255
O O9 0.715748 0.790248 0.326019
O O10 0.491388 0.110942 0.725387
O O11 0.081811 0.885888 0.080212
O O12 0.257170 0.978900 0.964576
O O13 0.216031 0.476150 0.014872
O O14 0.921848 0.756488 0.326539
O O15 0.092028 0.436151 0.297087
#
# Coordination Sequence:
#
# PCOD9248381 Si02
#       8
#     4   2   4   4   4   4   4   4
#     4  11  26  42  69 105 139 187 235 294 360 427
#     4  10  22  46  74  96 142 190 238 294 350 420
#     4   9  22  44  70 105 134 189 238 294 355 435
#     4  11  26  45  70 107 145 184 237 306 367 422
#     4  10  26  45  69 100 139 188 238 289 353 426
#     4  11  26  46  68 103 141 187 244 291 353 426
#     4  11  23  43  72  99 140 185 232 297 356 428
#     4  10  22  42  67 105 139 182 236 293 364 424
#
# _framework density 27.689948999999999
#
# number of rings (size 3 to 8) (size 9 to 14) (size 15 to 20)
#    0.000    1.600    1.333    0.800    7.467    8.533 
#    0.000    0.000    0.000    0.000    0.000    0.000 
#    0.000    0.000    0.000    0.000    0.000    0.000 
#
# Total GULP energy -167749.365510 kJ/mol
# GULP energy per Si atom -5591.645517 kJ/mol
# Density = 2.762693 g / cm^3
# Si number density = 27.689949 Si / 1000 Ang^3
#
#
#
# Elastic Constant Matrix: (Units=GPa)
#
#
# Indices 1 2 3 4 5 6 
#
# 1 163.7414 32.0712 37.8012 0.0000 2.7531 0.0000
# 2 32.0712 88.2265 23.4177 0.0000 -16.6682 0.0000
# 3 37.8012 23.4177 106.0832 0.0000 -8.0571 0.0000
# 4 0.0000 0.0000 0.0000 52.6181 0.0000 -2.0558
# 5 2.7531 -16.6682 -8.0571 0.0000 38.7873 0.0000
# 6 0.0000 0.0000 0.0000 -2.0558 0.0000 18.0482
#
#
#
# Elastic Compliance Matrix: (Units=1/GPa)
#
#
# Indices 1 2 3 4 5 6 
#
# 1 0.007105 -0.002384 -0.002156 0.000000 -0.001977 0.000000
# 2 -0.002384 0.013745 -0.001751 0.000000 0.005712 0.000000
# 3 -0.002156 -0.001751 0.010705 0.000000 0.001624 0.000000
# 4 0.000000 0.000000 0.000000 0.019090 0.000000 0.002174
# 5 -0.001977 0.005712 0.001624 0.000000 0.028714 0.000000
# 6 0.000000 0.000000 0.000000 0.002174 0.000000 0.055655
#
#
# Mechanical properties :
#
#
# Convention : Reuss Voigt Hill
#
# Bulk Modulus (GPa) = 52.70480 60.51459 56.60970
# Shear Modulus (GPa) = 32.48472 39.54148 36.01310
#
# Velocity S-wave (km/s) = 3.42886 3.78300 3.61027
# Velocity P-wave (km/s) = 5.89502 6.40182 6.15364
#
# Compressibility (1/GPa) = 0.01897360
#
# Stress axis : x y z
#
# Youngs Moduli (GPa) = 140.74569 72.75392 93.41831
#
# Poissons Ratio (x) = 0.17345 0.20137
# Poissons Ratio (y) = 0.33554 0.16356
# Poissons Ratio (z) = 0.30339 0.12738
#
# Static dielectric constant tensor:
#      x y z
#    x 2.403100 0.000000 -0.284710 
#    y 0.000000 2.155050 0.000000 
#    z -0.284710 0.000000 2.556490 
# 
# From -- ./inp_files/66486.got.cif
#   From: 2010.05.17/outbox.cif.g08.bks.cpg/sg14_34_cif.got.tgz:66486.got - 2010.06.03 17:49:19.
