data_PCOD9248352
_publ_section_title
;
Structure prediction by ZEFSAII (Michael W. Deem and Ramdas Pophale) SiO2 
 PCOD9248352
Probable space group: P 21/C
;
_chemical_formula_sum "Si O2"
_cell_formula_units_Z 20
_cell_length_a 14.801884
_cell_length_b 4.839690
_cell_length_c 9.648320
_cell_angle_alpha 90.000000
_cell_angle_beta 76.268420
_cell_angle_gamma 90.000000
_cell_volume 671.417381
_symmetry_space_group_name_H-M "P 21/C"
_symmetry_group_IT_number 14
_symmetry_cell_setting 'monoclinic'
loop_
_space_group_symop_operation_xyz
x,y,z
-x,1/2+y,1/2-z
-x,-y,-z
x,1/2-y,1/2+z
loop_
_atom_site_type_symbol
_atom_site_label
_atom_site_fract_x
_atom_site_fract_y
_atom_site_fract_z
Si Si1 0.158898 0.302314 0.367869
Si Si2 0.127701 0.717698 0.694855
Si Si3 0.500000 0.000000 0.000000
Si Si4 0.463392 0.514237 0.783567
Si Si5 0.000000 0.000000 0.000000
Si Si6 0.698800 0.317580 0.534536
O O1 0.101335 0.576826 0.330360
O O2 0.250639 0.449035 0.391590
O O3 0.080563 0.247099 0.508445
O O4 0.164078 0.060564 0.257493
O O5 0.221266 0.825057 0.584094
O O6 0.048894 0.682588 0.612885
O O7 0.481239 0.228569 0.149334
O O8 0.617703 0.044298 0.977009
O O9 0.500650 0.243442 0.861317
O O10 0.357952 0.595523 0.853260
#
# Coordination Sequence:
#
# PCOD9248352 Si02
#       6
#     4   4   2   4   2   4
#     4  11  25  43  66  98 133 169 214 267 326 386
#     4  11  25  44  68  98 132 169 213 268 326 390
#     4  10  22  42  66  92 130 176 222 270 320 380
#     4  10  23  41  63  92 126 169 221 272 324 379
#     4  10  24  44  72  98 128 170 214 264 326 394
#     4  10  24  41  66  96 132 174 220 268 323 383
#
# _framework density 29.787731999999998
#
# number of rings (size 3 to 8) (size 9 to 14) (size 15 to 20)
#    0.000    1.600    0.000    2.400    0.000   24.000 
#    0.000    0.000    0.000    0.000    0.000    0.000 
#    0.000    0.000    0.000    0.000    0.000    0.000 
#
# Total GULP energy -111583.657421 kJ/mol
# GULP energy per Si atom -5579.182871 kJ/mol
# Density = 2.971993 g / cm^3
# Si number density = 29.787732 Si / 1000 Ang^3
#
#
#
# Elastic Constant Matrix: (Units=GPa)
#
#
# Indices 1 2 3 4 5 6 
#
# 1 274.5482 86.2287 77.0122 0.0000 7.2042 0.0000
# 2 86.2287 255.8292 67.7614 0.0000 9.6276 0.0000
# 3 77.0122 67.7614 206.2281 0.0000 11.5401 0.0000
# 4 0.0000 0.0000 0.0000 49.3475 0.0000 -3.3253
# 5 7.2042 9.6276 11.5401 0.0000 64.7965 0.0000
# 6 0.0000 0.0000 0.0000 -3.3253 0.0000 47.8744
#
#
#
# Elastic Compliance Matrix: (Units=1/GPa)
#
#
# Indices 1 2 3 4 5 6 
#
# 1 0.004350 -0.001132 -0.001247 0.000000 -0.000093 0.000000
# 2 -0.001132 0.004586 -0.001063 0.000000 -0.000366 0.000000
# 3 -0.001247 -0.001063 0.005704 0.000000 -0.000719 0.000000
# 4 0.000000 0.000000 0.000000 0.020360 0.000000 0.001414
# 5 -0.000093 -0.000366 -0.000719 0.000000 0.015626 0.000000
# 6 0.000000 0.000000 0.000000 0.001414 0.000000 0.020986
#
#
# Mechanical properties :
#
#
# Convention : Reuss Voigt Hill
#
# Bulk Modulus (GPa) = 128.95783 133.17889 131.06836
# Shear Modulus (GPa) = 61.66470 66.11056 63.88763
#
# Velocity S-wave (km/s) = 4.55481 4.71615 4.63618
# Velocity P-wave (km/s) = 8.42900 8.62916 8.52967
#
# Compressibility (1/GPa) = 0.00775447
#
# Stress axis : x y z
#
# Youngs Moduli (GPa) = 229.86813 218.05439 175.30202
#
# Poissons Ratio (x) = 0.24693 0.21864
# Poissons Ratio (y) = 0.26031 0.18643
# Poissons Ratio (z) = 0.28670 0.23190
#
# Static dielectric constant tensor:
#      x y z
#    x 2.296390 0.000000 -0.288600 
#    y 0.000000 2.389970 0.000000 
#    z -0.288600 0.000000 2.815630 
# 
# From -- ./inp_files/30986.got.cif
#   From: 2010.05.17/outbox.cif.g08.bks.cpg/sg14_16_cif.got.tgz:30986.got - 2010.06.03 17:49:19.
