data_PCOD9248498
_publ_section_title
;
Structure prediction by ZEFSAII (Michael W. Deem and Ramdas Pophale) SiO2 
 PCOD9248498
Probable space group: P 21/C
;
_chemical_formula_sum "Si O2"
_cell_formula_units_Z 30
_cell_length_a 11.523511
_cell_length_b 7.578024
_cell_length_c 13.062629
_cell_angle_alpha 90.000000
_cell_angle_beta 73.624059
_cell_angle_gamma 90.000000
_cell_volume 1094.424462
_symmetry_space_group_name_H-M "P 21/C"
_symmetry_group_IT_number 14
_symmetry_cell_setting 'monoclinic'
loop_
_space_group_symop_operation_xyz
x,y,z
-x,1/2+y,1/2-z
-x,-y,-z
x,1/2-y,1/2+z
loop_
_atom_site_type_symbol
_atom_site_label
_atom_site_fract_x
_atom_site_fract_y
_atom_site_fract_z
Si Si1 0.801570 0.055888 0.564356
Si Si2 0.604874 0.002500 0.232055
Si Si3 0.280621 0.854636 0.195112
Si Si4 0.957162 0.355953 0.770862
Si Si5 0.046097 0.224981 0.032476
Si Si6 0.439364 0.716665 0.918954
Si Si7 0.500000 0.500000 0.500000
Si Si8 0.148447 0.160487 0.818998
O O1 0.745263 0.039858 0.692590
O O2 0.692355 0.142263 0.527077
O O3 0.914280 0.189220 0.544422
O O4 0.852575 0.879548 0.502270
O O5 0.501081 0.910939 0.322725
O O6 0.709604 0.856859 0.204165
O O7 0.654619 0.176395 0.276630
O O8 0.570657 0.077729 0.126110
O O9 0.147711 0.789933 0.191919
O O10 0.364320 0.956082 0.094204
O O11 0.888254 0.537062 0.766894
O O12 0.035655 0.340200 0.649119
O O13 0.058384 0.327478 0.830628
O O14 0.098188 0.085075 0.938505
O O15 0.521917 0.778277 0.991014
#
# Coordination Sequence:
#
# PCOD9248498 Si02
#       8
#     4   4   4   4   4   4   2   4
#     4   9  21  41  71  95 137 176 229 279 351 409
#     4  10  24  47  69  95 139 186 236 282 353 414
#     4   9  22  45  63  99 140 179 228 295 338 415
#     4  10  24  43  67 101 146 175 227 296 347 412
#     4  10  22  42  71 105 132 185 227 281 359 421
#     4  11  24  44  70  97 137 187 228 294 337 417
#     4  12  26  40  72 104 138 182 240 284 356 408
#     4  11  25  42  72 105 138 181 232 285 353 429
#
# _framework density 27.411669
#
# number of rings (size 3 to 8) (size 9 to 14) (size 15 to 20)
#    0.000    1.867    0.000    2.800   11.200    1.600 
#    2.400    0.000    0.000    0.000    0.000    0.000 
#    0.000    0.000    0.000    0.000    0.000    0.000 
#
# Total GULP energy -167367.851403 kJ/mol
# GULP energy per Si atom -5578.928380 kJ/mol
# Density = 2.734928 g / cm^3
# Si number density = 27.411669 Si / 1000 Ang^3
#
#
#
# Elastic Constant Matrix: (Units=GPa)
#
#
# Indices 1 2 3 4 5 6 
#
# 1 112.7613 35.0762 26.8860 0.0000 -33.0790 0.0000
# 2 35.0762 86.1520 23.1531 0.0000 -10.4454 0.0000
# 3 26.8860 23.1531 170.2782 0.0000 -29.0145 0.0000
# 4 0.0000 0.0000 0.0000 48.9827 0.0000 1.9866
# 5 -33.0790 -10.4454 -29.0145 0.0000 34.7429 0.0000
# 6 0.0000 0.0000 0.0000 1.9866 0.0000 45.1477
#
#
#
# Elastic Compliance Matrix: (Units=1/GPa)
#
#
# Indices 1 2 3 4 5 6 
#
# 1 0.013610 -0.004204 0.000484 0.000000 0.012098 0.000000
# 2 -0.004204 0.013556 -0.001361 0.000000 -0.001064 0.000000
# 3 0.000484 -0.001361 0.006984 0.000000 0.005884 0.000000
# 4 0.000000 0.000000 0.000000 0.020452 0.000000 -0.000900
# 5 0.012098 -0.001064 0.005884 0.000000 0.044896 0.000000
# 6 0.000000 0.000000 0.000000 -0.000900 0.000000 0.022189
#
#
# Mechanical properties :
#
#
# Convention : Reuss Voigt Hill
#
# Bulk Modulus (GPa) = 41.68741 59.93578 50.81160
# Shear Modulus (GPa) = 35.75402 44.71308 40.23355
#
# Velocity S-wave (km/s) = 3.61548 4.04316 3.83528
# Velocity P-wave (km/s) = 5.71575 6.61125 6.17974
#
# Compressibility (1/GPa) = 0.02398806
#
# Stress axis : x y z
#
# Youngs Moduli (GPa) = 73.47649 73.76871 143.18505
#
# Poissons Ratio (x) = 0.31016 -0.06934
# Poissons Ratio (y) = 0.30893 0.19482
# Poissons Ratio (z) = -0.03558 0.10037
#
# Static dielectric constant tensor:
#      x y z
#    x 1.578130 0.000000 -0.430350 
#    y 0.000000 2.325740 0.000000 
#    z -0.430350 0.000000 1.733070 
# 
# From -- ./inp_files/43647.got.cif
#   From: 2010.05.17/outbox.cif.g08.bks.cpg/sg14_22_cif.got.tgz:43647.got - 2010.06.03 17:49:19.
