data_PCOD9248771
_publ_section_title
;
Structure prediction by ZEFSAII (Michael W. Deem and Ramdas Pophale) SiO2 
 PCOD9248771
Probable space group: P 21/C
;
_chemical_formula_sum "Si O2"
_cell_formula_units_Z 24
_cell_length_a 5.600816
_cell_length_b 16.155678
_cell_length_c 12.416296
_cell_angle_alpha 90.000000
_cell_angle_beta 68.492309
_cell_angle_gamma 90.000000
_cell_volume 1045.257964
_symmetry_space_group_name_H-M "P 21/C"
_symmetry_group_IT_number 14
_symmetry_cell_setting 'monoclinic'
loop_
_space_group_symop_operation_xyz
x,y,z
-x,1/2+y,1/2-z
-x,-y,-z
x,1/2-y,1/2+z
loop_
_atom_site_type_symbol
_atom_site_label
_atom_site_fract_x
_atom_site_fract_y
_atom_site_fract_z
Si Si1 0.419677 0.112809 0.980703
Si Si2 0.279816 0.763322 0.605403
Si Si3 0.851943 0.867125 0.754668
Si Si4 0.177884 0.032061 0.670374
Si Si5 0.621882 0.908220 0.569318
Si Si6 0.027587 0.609378 0.593034
O O1 0.508883 0.194786 0.898352
O O2 0.172029 0.078857 0.961422
O O3 0.692501 0.066334 0.942497
O O4 0.337288 0.138106 0.114132
O O5 0.428484 0.844457 0.541209
O O6 0.079141 0.799837 0.724089
O O7 0.109649 0.704644 0.555780
O O8 0.715790 0.863130 0.661217
O O9 0.987127 0.956778 0.727599
O O10 0.162989 0.066256 0.551718
O O11 0.114447 0.100192 0.769500
O O12 0.458821 0.989234 0.630400
#
# Coordination Sequence:
#
# PCOD9248771 Si02
#       6
#     4   4   4   4   4   4
#     4  10  25  43  68  99 134 173 225 277 338 396
#     4   9  23  40  65  96 131 177 222 272 337 385
#     4  11  23  43  67  98 136 177 224 281 333 403
#     4  10  24  41  68  97 137 180 224 277 331 406
#     4  10  22  44  65 100 131 184 225 277 332 397
#     4  10  24  45  64 104 129 182 218 280 338 395
#
# _framework density 22.960840000000001
#
# number of rings (size 3 to 8) (size 9 to 14) (size 15 to 20)
#    1.000    1.000    0.000    1.500    9.333    1.333 
#    6.000    0.000    0.000    0.000    0.000    0.000 
#    0.000    0.000    0.000    0.000    0.000    0.000 
#
# Total GULP energy -133695.957429 kJ/mol
# GULP energy per Si atom -5570.664893 kJ/mol
# Density = 2.290858 g / cm^3
# Si number density = 22.960840 Si / 1000 Ang^3
#
#
#
# Elastic Constant Matrix: (Units=GPa)
#
#
# Indices 1 2 3 4 5 6 
#
# 1 105.1950 34.1387 53.7712 0.0000 -6.8741 0.0000
# 2 34.1387 64.2550 35.1252 0.0000 -9.0553 0.0000
# 3 53.7712 35.1252 131.6938 0.0000 -13.6194 0.0000
# 4 0.0000 0.0000 0.0000 16.4625 0.0000 -10.0156
# 5 -6.8741 -9.0553 -13.6194 0.0000 29.8148 0.0000
# 6 0.0000 0.0000 0.0000 -10.0156 0.0000 18.4857
#
#
#
# Elastic Compliance Matrix: (Units=1/GPa)
#
#
# Indices 1 2 3 4 5 6 
#
# 1 0.013143 -0.004771 -0.004125 0.000000 -0.000303 0.000000
# 2 -0.004771 0.020301 -0.003089 0.000000 0.003655 0.000000
# 3 -0.004125 -0.003089 0.010397 0.000000 0.002860 0.000000
# 4 0.000000 0.000000 0.000000 0.090612 0.000000 0.049094
# 5 -0.000303 0.003655 0.002860 0.000000 0.035887 0.000000
# 6 0.000000 0.000000 0.000000 0.049094 0.000000 0.080695
#
#
# Mechanical properties :
#
#
# Convention : Reuss Voigt Hill
#
# Bulk Modulus (GPa) = 50.32149 60.80157 55.56153
# Shear Modulus (GPa) = 17.75378 24.82653 21.29016
#
# Velocity S-wave (km/s) = 2.78370 3.29181 3.04836
# Velocity P-wave (km/s) = 5.68294 6.40204 6.05318
#
# Compressibility (1/GPa) = 0.01987223
#
# Stress axis : x y z
#
# Youngs Moduli (GPa) = 76.08458 49.25814 96.17735
#
# Poissons Ratio (x) = 0.23499 0.39677
# Poissons Ratio (y) = 0.36297 0.29708
# Poissons Ratio (z) = 0.31388 0.15215
#
# Static dielectric constant tensor:
#      x y z
#    x 1.928250 0.000000 0.024600 
#    y 0.000000 1.908570 0.000000 
#    z 0.024600 0.000000 1.793840 
# 
# From -- ./inp_files/21175.got.cif
#   From: 2010.05.17/outbox.cif.g08.bks.cpg/sg14_11_cif.got.tgz:21175.got - 2010.06.03 17:49:19.
