data_PCOD9248951
_publ_section_title
;
Structure prediction by ZEFSAII (Michael W. Deem and Ramdas Pophale) SiO2 
 PCOD9248951
Probable space group: P 21/C
;
_chemical_formula_sum "Si O2"
_cell_formula_units_Z 22
_cell_length_a 12.299044
_cell_length_b 4.982816
_cell_length_c 21.817690
_cell_angle_alpha 90.000000
_cell_angle_beta 44.509004
_cell_angle_gamma 90.000000
_cell_volume 937.316393
_symmetry_space_group_name_H-M "P 21/C"
_symmetry_group_IT_number 14
_symmetry_cell_setting 'monoclinic'
loop_
_space_group_symop_operation_xyz
x,y,z
-x,1/2+y,1/2-z
-x,-y,-z
x,1/2-y,1/2+z
loop_
_atom_site_type_symbol
_atom_site_label
_atom_site_fract_x
_atom_site_fract_y
_atom_site_fract_z
Si Si1 0.773708 0.725653 0.025740
Si Si2 0.000000 0.500000 0.000000
Si Si3 0.613826 0.748680 0.958150
Si Si4 0.913037 0.535069 0.625931
Si Si5 0.399616 0.946169 0.802567
Si Si6 0.082349 0.249155 0.740410
O O1 0.822409 0.445800 0.037073
O O2 0.661820 0.908476 0.111177
O O3 0.709279 0.727716 0.983366
O O4 0.955747 0.831485 0.952462
O O5 0.917259 0.699894 0.083264
O O6 0.741287 0.755163 0.853185
O O7 0.500000 0.500000 0.000000
O O8 0.500000 0.000000 0.000000
O O9 0.748039 0.398806 0.681834
O O10 0.939494 0.621715 0.684291
O O11 0.504041 0.176192 0.728474
O O12 0.011971 0.546234 0.765696
#
# Coordination Sequence:
#
# PCOD9248951 Si02
#       6
#     4   2   4   4   4   4
#     4  11  26  48  75 103 150 195 257 295 382 448
#     4  10  22  44  78 102 138 192 252 308 364 430
#     4  12  29  49  74 110 155 201 241 313 387 444
#     4  11  26  45  77 104 147 193 255 303 371 445
#     4  11  28  44  70 108 145 187 234 311 376 429
#     4  12  26  49  77 110 143 195 258 307 360 455
#
# _framework density 23.471266
#
# number of rings (size 3 to 8) (size 9 to 14) (size 15 to 20)
#    0.000    0.727    1.818    4.364   17.818    0.000 
#    0.000    0.000    0.000    0.000    0.000    0.000 
#    0.000    0.000    0.000    0.000    0.000    0.000 
#
# Total GULP energy -122818.207372 kJ/mol
# GULP energy per Si atom -5582.645790 kJ/mol
# Density = 2.341784 g / cm^3
# Si number density = 23.471266 Si / 1000 Ang^3
#
#
#
# Elastic Constant Matrix: (Units=GPa)
#
#
# Indices 1 2 3 4 5 6 
#
# 1 104.0907 -5.7236 15.8571 0.0000 -5.6670 0.0000
# 2 -5.7236 102.3110 23.8267 0.0000 -27.8721 0.0000
# 3 15.8571 23.8267 133.4491 0.0000 -22.9100 0.0000
# 4 0.0000 0.0000 0.0000 27.0531 0.0000 -4.9233
# 5 -5.6670 -27.8721 -22.9100 0.0000 49.0024 0.0000
# 6 0.0000 0.0000 0.0000 -4.9233 0.0000 21.4283
#
#
#
# Elastic Compliance Matrix: (Units=1/GPa)
#
#
# Indices 1 2 3 4 5 6 
#
# 1 0.009919 0.001173 -0.001170 0.000000 0.001267 0.000000
# 2 0.001173 0.011833 -0.001167 0.000000 0.006321 0.000000
# 3 -0.001170 -0.001167 0.008376 0.000000 0.003117 0.000000
# 4 0.000000 0.000000 0.000000 0.038577 0.000000 0.008863
# 5 0.001267 0.006321 0.003117 0.000000 0.025606 0.000000
# 6 0.000000 0.000000 0.000000 0.008863 0.000000 0.048704
#
#
# Mechanical properties :
#
#
# Convention : Reuss Voigt Hill
#
# Bulk Modulus (GPa) = 35.97330 45.30791 40.64061
# Shear Modulus (GPa) = 32.33915 39.88946 36.11430
#
# Velocity S-wave (km/s) = 3.71592 4.12697 3.92683
# Velocity P-wave (km/s) = 5.81125 6.48496 6.15732
#
# Compressibility (1/GPa) = 0.02779840
#
# Stress axis : x y z
#
# Youngs Moduli (GPa) = 100.81904 84.50638 119.38825
#
# Poissons Ratio (x) = -0.09909 0.13974
# Poissons Ratio (y) = -0.11822 0.13933
# Poissons Ratio (z) = 0.11801 0.09862
#
# Static dielectric constant tensor:
#      x y z
#    x 1.831900 0.000000 -0.051410 
#    y 0.000000 2.453930 0.000000 
#    z -0.051410 0.000000 1.860450 
# 
# From -- ./inp_files/72714.got.cif
#   From: 2010.05.17/outbox.cif.g08.bks.cpg/sg14_37_cif.got.tgz:72714.got - 2010.06.03 17:49:19.
