data_PCOD9248779
_publ_section_title
;
Structure prediction by ZEFSAII (Michael W. Deem and Ramdas Pophale) SiO2 
 PCOD9248779
Probable space group: P 21/C
;
_chemical_formula_sum "Si O2"
_cell_formula_units_Z 28
_cell_length_a 8.678016
_cell_length_b 5.329691
_cell_length_c 25.919391
_cell_angle_alpha 90.000000
_cell_angle_beta 81.257761
_cell_angle_gamma 90.000000
_cell_volume 1184.873933
_symmetry_space_group_name_H-M "P 21/C"
_symmetry_group_IT_number 14
_symmetry_cell_setting 'monoclinic'
loop_
_space_group_symop_operation_xyz
x,y,z
-x,1/2+y,1/2-z
-x,-y,-z
x,1/2-y,1/2+z
loop_
_atom_site_type_symbol
_atom_site_label
_atom_site_fract_x
_atom_site_fract_y
_atom_site_fract_z
Si Si1 0.423383 0.201125 0.968056
Si Si2 0.013669 0.815239 0.644458
Si Si3 0.630964 0.315868 0.612936
Si Si4 0.859812 0.579055 0.043349
Si Si5 0.137683 0.820735 0.805563
Si Si6 0.624175 0.444438 0.880282
Si Si7 0.576702 0.290996 0.770701
O O1 0.254410 0.289504 0.992669
O O2 0.553696 0.388425 0.940669
O O3 0.372835 0.069305 0.917638
O O4 0.500000 0.000000 0.000000
O O5 0.194182 0.885755 0.627889
O O6 0.934843 0.797542 0.591210
O O7 0.974531 0.555886 0.676508
O O8 0.939509 0.052480 0.678730
O O9 0.718746 0.342060 0.661676
O O10 0.741752 0.128815 0.573625
O O11 0.454219 0.215274 0.626120
O O12 0.000000 0.500000 0.000000
O O13 0.236770 0.826267 0.748086
O O14 0.557621 0.297372 0.833362
O O15 0.484810 0.531543 0.751361
#
# Coordination Sequence:
#
# PCOD9248779 Si02
#       7
#     4   4   4   4   4   4   4
#     4  11  25  42  70  97 138 187 239 296 347 429
#     4  11  26  44  69 102 146 182 227 301 355 423
#     4  10  22  44  65  94 136 179 235 285 346 424
#     4  10  24  41  63  94 134 184 233 285 354 417
#     4  11  23  46  69 101 141 183 233 287 361 417
#     4  11  27  43  68 105 139 183 238 297 356 430
#     4  12  25  43  78 105 137 188 239 288 354 435
#
# _framework density 23.631208999999998
#
# number of rings (size 3 to 8) (size 9 to 14) (size 15 to 20)
#    0.000    1.143    2.857    1.714    8.000    4.000 
#    0.000    0.000    0.000    0.000    0.000    0.000 
#    0.000    0.000    0.000    0.000    0.000    0.000 
#
# Total GULP energy -156281.663699 kJ/mol
# GULP energy per Si atom -5581.487989 kJ/mol
# Density = 2.357742 g / cm^3
# Si number density = 23.631209 Si / 1000 Ang^3
#
#
#
# Elastic Constant Matrix: (Units=GPa)
#
#
# Indices 1 2 3 4 5 6 
#
# 1 166.1602 39.0216 27.3056 0.0000 -15.0274 0.0000
# 2 39.0216 77.9648 0.9827 0.0000 -2.4983 0.0000
# 3 27.3056 0.9827 65.4510 0.0000 -13.3479 0.0000
# 4 0.0000 0.0000 0.0000 26.5933 0.0000 2.9876
# 5 -15.0274 -2.4983 -13.3479 0.0000 33.4912 0.0000
# 6 0.0000 0.0000 0.0000 2.9876 0.0000 23.2762
#
#
#
# Elastic Compliance Matrix: (Units=1/GPa)
#
#
# Indices 1 2 3 4 5 6 
#
# 1 0.007497 -0.003654 -0.002658 0.000000 0.002032 0.000000
# 2 -0.003654 0.014638 0.001298 0.000000 -0.000030 0.000000
# 3 -0.002658 0.001298 0.017573 0.000000 0.005908 0.000000
# 4 0.000000 0.000000 0.000000 0.038154 0.000000 -0.004897
# 5 0.002032 -0.000030 0.005908 0.000000 0.033123 0.000000
# 6 0.000000 0.000000 0.000000 -0.004897 0.000000 0.043591
#
#
# Mechanical properties :
#
#
# Convention : Reuss Voigt Hill
#
# Bulk Modulus (GPa) = 33.69251 49.35508 41.52379
# Shear Modulus (GPa) = 28.65404 32.82321 30.73863
#
# Velocity S-wave (km/s) = 3.48595 3.73094 3.61052
# Velocity P-wave (km/s) = 5.52187 6.28417 5.91531
#
# Compressibility (1/GPa) = 0.02968019
#
# Stress axis : x y z
#
# Youngs Moduli (GPa) = 133.38768 68.31704 56.90545
#
# Poissons Ratio (x) = 0.24961 0.15128
# Poissons Ratio (y) = 0.48735 -0.07389
# Poissons Ratio (z) = 0.35460 -0.08870
#
# Static dielectric constant tensor:
#      x y z
#    x 3.259730 0.000000 0.203720 
#    y 0.000000 1.873230 0.000000 
#    z 0.203720 0.000000 1.952360 
# 
# From -- ./inp_files/76028.got.cif
#   From: 2010.05.17/outbox.cif.g08.bks.cpg/sg14_39_cif.got.tgz:76028.got - 2010.06.03 17:49:19.
