data_PCOD9248532
_publ_section_title
;
Structure prediction by ZEFSAII (Michael W. Deem and Ramdas Pophale) SiO2 
 PCOD9248532
Probable space group: P 21/C
;
_chemical_formula_sum "Si O2"
_cell_formula_units_Z 24
_cell_length_a 8.213950
_cell_length_b 13.382735
_cell_length_c 9.243933
_cell_angle_alpha 90.000000
_cell_angle_beta 90.924313
_cell_angle_gamma 90.000000
_cell_volume 1016.008186
_symmetry_space_group_name_H-M "P 21/C"
_symmetry_group_IT_number 14
_symmetry_cell_setting 'monoclinic'
loop_
_space_group_symop_operation_xyz
x,y,z
-x,1/2+y,1/2-z
-x,-y,-z
x,1/2-y,1/2+z
loop_
_atom_site_type_symbol
_atom_site_label
_atom_site_fract_x
_atom_site_fract_y
_atom_site_fract_z
Si Si1 0.794367 0.798406 0.220237
Si Si2 0.228969 0.481861 0.079622
Si Si3 0.902122 0.194145 0.425367
Si Si4 0.590355 0.491092 0.199943
Si Si5 0.693570 0.238126 0.672537
Si Si6 0.610571 0.645132 0.429588
O O1 0.835982 0.890242 0.327359
O O2 0.710248 0.717478 0.322312
O O3 0.942511 0.747606 0.137759
O O4 0.675442 0.840551 0.092222
O O5 0.105519 0.574421 0.079584
O O6 0.403439 0.512180 0.154390
O O7 0.289552 0.458378 0.917267
O O8 0.859504 0.231398 0.583885
O O9 0.744644 0.225642 0.329731
O O10 0.619927 0.373098 0.180685
O O11 0.623797 0.535445 0.358711
O O12 0.570840 0.313352 0.593851
#
# Coordination Sequence:
#
# PCOD9248532 Si02
#       6
#     4   4   4   4   4   4
#     4  12  26  43  70 105 144 179 229 285 353 407
#     4  10  22  44  72 100 137 182 232 282 345 410
#     4  11  25  45  67 100 143 184 221 284 350 415
#     4  10  22  42  74 104 130 177 241 285 332 403
#     4  11  23  43  71  99 136 181 232 279 341 408
#     4  12  24  43  72 105 137 181 234 288 336 408
#
# _framework density 23.621856000000001
#
# number of rings (size 3 to 8) (size 9 to 14) (size 15 to 20)
#    0.000    1.000    3.333    3.000    2.333    3.333 
#    0.000    6.667    0.000    0.000    0.000    0.000 
#    0.000    0.000    0.000    0.000    0.000    0.000 
#
# Total GULP energy -134442.850638 kJ/mol
# GULP energy per Si atom -5601.785443 kJ/mol
# Density = 2.356809 g / cm^3
# Si number density = 23.621856 Si / 1000 Ang^3
#
#
#
# Elastic Constant Matrix: (Units=GPa)
#
#
# Indices 1 2 3 4 5 6 
#
# 1 79.9715 17.5566 21.0501 0.0000 -13.2305 0.0000
# 2 17.5566 82.6743 33.7223 0.0000 -11.8725 0.0000
# 3 21.0501 33.7223 102.3053 0.0000 -6.7593 0.0000
# 4 0.0000 0.0000 0.0000 44.1922 0.0000 2.3810
# 5 -13.2305 -11.8725 -6.7593 0.0000 50.3743 0.0000
# 6 0.0000 0.0000 0.0000 2.3810 0.0000 36.6612
#
#
#
# Elastic Compliance Matrix: (Units=1/GPa)
#
#
# Indices 1 2 3 4 5 6 
#
# 1 0.013920 -0.001664 -0.002119 0.000000 0.002980 0.000000
# 2 -0.001664 0.014547 -0.004293 0.000000 0.002415 0.000000
# 3 -0.002119 -0.004293 0.011625 0.000000 -0.000008 0.000000
# 4 0.000000 0.000000 0.000000 0.022708 0.000000 -0.001475
# 5 0.002980 0.002415 -0.000008 0.000000 0.021202 0.000000
# 6 0.000000 0.000000 0.000000 -0.001475 0.000000 0.027373
#
#
# Mechanical properties :
#
#
# Convention : Reuss Voigt Hill
#
# Bulk Modulus (GPa) = 41.76977 45.51214 43.64096
# Shear Modulus (GPa) = 36.89837 39.08701 37.99269
#
# Velocity S-wave (km/s) = 3.95656 4.07221 4.01480
# Velocity P-wave (km/s) = 6.21237 6.43578 6.32506
#
# Compressibility (1/GPa) = 0.02394076
#
# Stress axis : x y z
#
# Youngs Moduli (GPa) = 71.83686 68.74269 86.02011
#
# Poissons Ratio (x) = 0.11438 0.18227
# Poissons Ratio (y) = 0.11953 0.36929
# Poissons Ratio (z) = 0.15221 0.29512
#
# Static dielectric constant tensor:
#      x y z
#    x 1.919850 0.000000 0.004110 
#    y 0.000000 1.883270 0.000000 
#    z 0.004110 0.000000 1.842400 
# 
# From -- ./inp_files/8472.got.cif
#   From: 2010.05.17/outbox.cif.g08.bks.cpg/sg14_5_cif.got.tgz:8472.got - 2010.06.03 17:49:19.
