data_PCOD9248886
_publ_section_title
;
Structure prediction by ZEFSAII (Michael W. Deem and Ramdas Pophale) SiO2 
 PCOD9248886
Probable space group: P 21/C
;
_chemical_formula_sum "Si O2"
_cell_formula_units_Z 22
_cell_length_a 15.318764
_cell_length_b 5.017287
_cell_length_c 26.402405
_cell_angle_alpha 90.000000
_cell_angle_beta 154.501553
_cell_angle_gamma 90.000000
_cell_volume 873.566213
_symmetry_space_group_name_H-M "P 21/C"
_symmetry_group_IT_number 14
_symmetry_cell_setting 'monoclinic'
loop_
_space_group_symop_operation_xyz
x,y,z
-x,1/2+y,1/2-z
-x,-y,-z
x,1/2-y,1/2+z
loop_
_atom_site_type_symbol
_atom_site_label
_atom_site_fract_x
_atom_site_fract_y
_atom_site_fract_z
Si Si1 0.788749 0.234409 0.989032
Si Si2 0.449622 0.538817 0.756063
Si Si3 0.000000 0.500000 0.500000
Si Si4 0.137147 0.354384 0.245148
Si Si5 0.414693 0.035020 0.025075
Si Si6 0.779234 0.465243 0.129886
O O1 0.984057 0.359281 0.118342
O O2 0.868915 0.114675 0.978724
O O3 0.609034 0.442448 0.882056
O O4 0.699828 0.024206 0.982391
O O5 0.495337 0.838012 0.761811
O O6 0.214989 0.497268 0.646350
O O7 0.347008 0.494904 0.342990
O O8 0.191501 0.062702 0.297176
O O9 0.998544 0.472540 0.217657
O O10 0.332838 0.805916 0.944010
O O11 0.351486 0.311518 0.967680
#
# Coordination Sequence:
#
# PCOD9248886 Si02
#       6
#     4   4   2   4   4   4
#     4  10  23  42  68 103 132 178 231 281 344 413
#     4  10  23  43  65  94 126 167 222 276 340 406
#     4  10  22  44  70  92 134 176 220 288 342 396
#     4  11  23  44  70 100 143 182 228 288 344 406
#     4  11  25  44  68 101 140 182 230 278 337 412
#     4  11  25  43  68 103 138 182 231 275 341 414
#
# _framework density 25.184127
#
# number of rings (size 3 to 8) (size 9 to 14) (size 15 to 20)
#    0.000    1.455    0.000    4.364    0.000   13.091 
#    0.000   10.909    0.000    0.000    0.000    0.000 
#    0.000    0.000    0.000    0.000    0.000    0.000 
#
# Total GULP energy -122780.284988 kJ/mol
# GULP energy per Si atom -5580.922045 kJ/mol
# Density = 2.512681 g / cm^3
# Si number density = 25.184127 Si / 1000 Ang^3
#
#
#
# Elastic Constant Matrix: (Units=GPa)
#
#
# Indices 1 2 3 4 5 6 
#
# 1 44.0340 11.9959 32.6727 0.0000 3.7503 0.0000
# 2 11.9959 76.2452 40.3013 0.0000 2.2703 0.0000
# 3 32.6727 40.3013 259.7976 0.0000 20.7623 0.0000
# 4 0.0000 0.0000 0.0000 27.4742 0.0000 1.2052
# 5 3.7503 2.2703 20.7623 0.0000 69.2449 0.0000
# 6 0.0000 0.0000 0.0000 1.2052 0.0000 17.8511
#
#
#
# Elastic Compliance Matrix: (Units=1/GPa)
#
#
# Indices 1 2 3 4 5 6 
#
# 1 0.025499 -0.002530 -0.002777 0.000000 -0.000465 0.000000
# 2 -0.002530 0.014541 -0.001957 0.000000 0.000247 0.000000
# 3 -0.002777 -0.001957 0.004595 0.000000 -0.001163 0.000000
# 4 0.000000 0.000000 0.000000 0.036506 0.000000 -0.002465
# 5 -0.000465 0.000247 -0.001163 0.000000 0.014807 0.000000
# 6 0.000000 0.000000 0.000000 -0.002465 0.000000 0.056185
#
#
# Mechanical properties :
#
#
# Convention : Reuss Voigt Hill
#
# Bulk Modulus (GPa) = 33.21584 61.11294 47.16439
# Shear Modulus (GPa) = 28.29690 42.58785 35.44237
#
# Velocity S-wave (km/s) = 3.35565 4.11671 3.75551
# Velocity P-wave (km/s) = 5.31335 6.84949 6.12973
#
# Compressibility (1/GPa) = 0.03010611
#
# Stress axis : x y z
#
# Youngs Moduli (GPa) = 39.21690 68.77195 217.62861
#
# Poissons Ratio (x) = 0.17400 0.60439
# Poissons Ratio (y) = 0.09922 0.42595
# Poissons Ratio (z) = 0.10891 0.13460
#
# Static dielectric constant tensor:
#      x y z
#    x 1.968120 0.000000 -0.048210 
#    y 0.000000 2.044510 0.000000 
#    z -0.048210 0.000000 2.042720 
# 
# From -- ./inp_files/80320.got.cif
#   From: 2010.05.17/outbox.cif.g08.bks.cpg/sg14_41_cif.got.tgz:80320.got - 2010.06.03 17:49:19.
