data_PCOD9248136
_publ_section_title
;
Structure prediction by ZEFSAII (Michael W. Deem and Ramdas Pophale) SiO2 
 PCOD9248136
Probable space group: P 21/C
;
_chemical_formula_sum "Si O2"
_cell_formula_units_Z 28
_cell_length_a 14.155132
_cell_length_b 5.377797
_cell_length_c 19.426315
_cell_angle_alpha 90.000000
_cell_angle_beta 51.154732
_cell_angle_gamma 90.000000
_cell_volume 1151.750699
_symmetry_space_group_name_H-M "P 21/C"
_symmetry_group_IT_number 14
_symmetry_cell_setting 'monoclinic'
loop_
_space_group_symop_operation_xyz
x,y,z
-x,1/2+y,1/2-z
-x,-y,-z
x,1/2-y,1/2+z
loop_
_atom_site_type_symbol
_atom_site_label
_atom_site_fract_x
_atom_site_fract_y
_atom_site_fract_z
Si Si1 0.771794 0.701634 0.193858
Si Si2 0.559741 0.819233 0.693780
Si Si3 0.686673 0.539428 0.368322
Si Si4 0.045344 0.588799 0.574446
Si Si5 0.544413 0.806377 0.539144
Si Si6 0.077048 0.698041 0.922157
Si Si7 0.076489 0.759680 0.202397
O O1 0.687449 0.764832 0.168841
O O2 0.708267 0.730757 0.296052
O O3 0.904008 0.823176 0.138140
O O4 0.805743 0.412631 0.165745
O O5 0.478253 0.575014 0.749215
O O6 0.564356 0.879150 0.609844
O O7 0.663648 0.679523 0.450890
O O8 0.564102 0.393007 0.408490
O O9 0.801032 0.354045 0.318087
O O10 0.017118 0.297068 0.591708
O O11 0.106720 0.623357 0.472646
O O12 0.107758 0.727463 0.607070
O O13 0.500000 0.000000 0.500000
O O14 0.000000 0.500000 0.000000
O O15 0.020187 0.490116 0.244746
#
# Coordination Sequence:
#
# PCOD9248136 Si02
#       7
#     4   4   4   4   4   4   4
#     4  11  22  44  72  98 146 189 244 303 373 438
#     4  12  28  48  76 108 143 191 253 304 371 441
#     4  11  25  47  71 107 150 195 247 312 375 445
#     4  10  22  41  66 100 143 186 242 291 370 439
#     4  11  27  48  76 107 152 198 253 315 376 444
#     4   9  21  38  63  97 135 181 228 295 351 428
#     4  12  27  44  72 107 145 194 244 297 371 452
#
# _framework density 24.310815000000002
#
# number of rings (size 3 to 8) (size 9 to 14) (size 15 to 20)
#    0.000    1.143    2.857    1.714    8.000    6.857 
#    0.000    0.000    0.000    0.000    0.000    0.000 
#    0.000    0.000    0.000    0.000    0.000    0.000 
#
# Total GULP energy -156188.739309 kJ/mol
# GULP energy per Si atom -5578.169261 kJ/mol
# Density = 2.425548 g / cm^3
# Si number density = 24.310815 Si / 1000 Ang^3
#
#
#
# Elastic Constant Matrix: (Units=GPa)
#
#
# Indices 1 2 3 4 5 6 
#
# 1 95.2716 -0.8177 40.9122 0.0000 20.8703 0.0000
# 2 -0.8177 68.2185 26.6558 0.0000 4.2643 0.0000
# 3 40.9122 26.6558 132.0380 0.0000 28.8097 0.0000
# 4 0.0000 0.0000 0.0000 38.8115 0.0000 -2.6870
# 5 20.8703 4.2643 28.8097 0.0000 45.2052 0.0000
# 6 0.0000 0.0000 0.0000 -2.6870 0.0000 30.5911
#
#
#
# Elastic Compliance Matrix: (Units=1/GPa)
#
#
# Indices 1 2 3 4 5 6 
#
# 1 0.012862 0.001762 -0.003495 0.000000 -0.003877 0.000000
# 2 0.001762 0.016171 -0.003833 0.000000 0.000104 0.000000
# 3 -0.003495 -0.003833 0.010453 0.000000 -0.004687 0.000000
# 4 0.000000 0.000000 0.000000 0.025923 0.000000 0.002277
# 5 -0.003877 0.000104 -0.004687 0.000000 0.026888 0.000000
# 6 0.000000 0.000000 0.000000 0.002277 0.000000 0.032889
#
#
# Mechanical properties :
#
#
# Convention : Reuss Voigt Hill
#
# Bulk Modulus (GPa) = 35.26928 47.66985 41.46956
# Shear Modulus (GPa) = 34.30063 38.17342 36.23703
#
# Velocity S-wave (km/s) = 3.76030 3.96690 3.86498
# Velocity P-wave (km/s) = 5.77860 6.37439 6.08379
#
# Compressibility (1/GPa) = 0.02835329
#
# Stress axis : x y z
#
# Youngs Moduli (GPa) = 77.75119 61.83816 95.66650
#
# Poissons Ratio (x) = -0.10897 0.33436
# Poissons Ratio (y) = -0.13701 0.36672
# Poissons Ratio (z) = 0.27174 0.23705
#
# Static dielectric constant tensor:
#      x y z
#    x 2.045950 0.000000 0.101170 
#    y 0.000000 2.403470 0.000000 
#    z 0.101170 0.000000 2.023210 
# 
# From -- ./inp_files/67825.got.cif
#   From: 2010.05.17/outbox.cif.g08.bks.cpg/sg14_34_cif.got.tgz:67825.got - 2010.06.03 17:49:19.
