data_PCOD9248816
_publ_section_title
;
Structure prediction by ZEFSAII (Michael W. Deem and Ramdas Pophale) SiO2 
 PCOD9248816
Probable space group: P 21/C
;
_chemical_formula_sum "Si O2"
_cell_formula_units_Z 24
_cell_length_a 10.777835
_cell_length_b 8.868551
_cell_length_c 11.804223
_cell_angle_alpha 90.000000
_cell_angle_beta 79.052371
_cell_angle_gamma 90.000000
_cell_volume 1107.758661
_symmetry_space_group_name_H-M "P 21/C"
_symmetry_group_IT_number 14
_symmetry_cell_setting 'monoclinic'
loop_
_space_group_symop_operation_xyz
x,y,z
-x,1/2+y,1/2-z
-x,-y,-z
x,1/2-y,1/2+z
loop_
_atom_site_type_symbol
_atom_site_label
_atom_site_fract_x
_atom_site_fract_y
_atom_site_fract_z
Si Si1 0.637392 0.520792 0.262538
Si Si2 0.794597 0.840775 0.924693
Si Si3 0.821778 0.370932 0.066128
Si Si4 0.149269 0.975669 0.881211
Si Si5 0.069295 0.034954 0.656430
Si Si6 0.391331 0.337490 0.348232
O O1 0.744372 0.545101 0.339324
O O2 0.695517 0.435633 0.144100
O O3 0.521857 0.425794 0.331892
O O4 0.598877 0.688158 0.228795
O O5 0.863689 0.697402 0.861952
O O6 0.669850 0.794584 0.019518
O O7 0.881099 0.916785 0.006962
O O8 0.829692 0.192960 0.081120
O O9 0.935141 0.447859 0.118497
O O10 0.847453 0.420279 0.933033
O O11 0.061476 0.984743 0.787092
O O12 0.284673 0.047586 0.818636
#
# Coordination Sequence:
#
# PCOD9248816 Si02
#       6
#     4   4   4   4   4   4
#     4  12  22  45  66  99 137 174 223 281 328 410
#     4  10  22  44  67  95 132 178 218 277 338 394
#     4  11  26  41  68 100 134 177 228 274 335 394
#     4  10  24  42  68  99 128 181 220 272 340 392
#     4  11  24  46  66  98 138 177 226 278 331 403
#     4  10  23  41  68  96 132 175 219 269 345 388
#
# _framework density 21.665368999999998
#
# number of rings (size 3 to 8) (size 9 to 14) (size 15 to 20)
#    1.000    0.333    3.333    1.500    4.667    2.000 
#    0.000    1.667    0.000    0.000    0.000    0.000 
#    0.000    0.000    0.000    0.000    0.000    0.000 
#
# Total GULP energy -134135.096926 kJ/mol
# GULP energy per Si atom -5588.962372 kJ/mol
# Density = 2.161606 g / cm^3
# Si number density = 21.665369 Si / 1000 Ang^3
#
#
#
# Elastic Constant Matrix: (Units=GPa)
#
#
# Indices 1 2 3 4 5 6 
#
# 1 45.5729 6.9346 15.5985 0.0000 -7.5414 0.0000
# 2 6.9346 97.5070 26.7074 0.0000 8.4529 0.0000
# 3 15.5985 26.7074 108.8163 0.0000 9.8820 0.0000
# 4 0.0000 0.0000 0.0000 23.9081 0.0000 5.0335
# 5 -7.5414 8.4529 9.8820 0.0000 35.6231 0.0000
# 6 0.0000 0.0000 0.0000 5.0335 0.0000 30.4302
#
#
#
# Elastic Compliance Matrix: (Units=1/GPa)
#
#
# Indices 1 2 3 4 5 6 
#
# 1 0.024519 -0.001271 -0.003797 0.000000 0.006546 0.000000
# 2 -0.001271 0.011189 -0.002358 0.000000 -0.002270 0.000000
# 3 -0.003797 -0.002358 0.010602 0.000000 -0.003185 0.000000
# 4 0.000000 0.000000 0.000000 0.043336 0.000000 -0.007168
# 5 0.006546 -0.002270 -0.003185 0.000000 0.030880 0.000000
# 6 0.000000 0.000000 0.000000 -0.007168 0.000000 0.034048
#
#
# Mechanical properties :
#
#
# Convention : Reuss Voigt Hill
#
# Bulk Modulus (GPa) = 31.78873 38.93080 35.35976
# Shear Modulus (GPa) = 27.79145 31.50267 29.64706
#
# Velocity S-wave (km/s) = 3.58545 3.81735 3.70321
# Velocity P-wave (km/s) = 5.64314 6.11863 5.88569
#
# Compressibility (1/GPa) = 0.03145769
#
# Stress axis : x y z
#
# Youngs Moduli (GPa) = 40.78446 89.37634 94.32117
#
# Poissons Ratio (x) = 0.11361 0.35816
# Poissons Ratio (y) = 0.05184 0.22238
# Poissons Ratio (z) = 0.15487 0.21072
#
# Static dielectric constant tensor:
#      x y z
#    x 1.819210 0.000000 -0.001240 
#    y 0.000000 1.730340 0.000000 
#    z -0.001240 0.000000 1.779880 
# 
# From -- ./inp_files/28039.got.cif
#   From: 2010.05.17/outbox.cif.g08.bks.cpg/sg14_15_cif.got.tgz:28039.got - 2010.06.03 17:49:19.
