data_PCOD9248996
_publ_section_title
;
Structure prediction by ZEFSAII (Michael W. Deem and Ramdas Pophale) SiO2 
 PCOD9248996
Probable space group: P 21/C
;
_chemical_formula_sum "Si O2"
_cell_formula_units_Z 20
_cell_length_a 8.955671
_cell_length_b 11.460032
_cell_length_c 10.218166
_cell_angle_alpha 90.000000
_cell_angle_beta 68.340607
_cell_angle_gamma 90.000000
_cell_volume 974.668567
_symmetry_space_group_name_H-M "P 21/C"
_symmetry_group_IT_number 14
_symmetry_cell_setting 'monoclinic'
loop_
_space_group_symop_operation_xyz
x,y,z
-x,1/2+y,1/2-z
-x,-y,-z
x,1/2-y,1/2+z
loop_
_atom_site_type_symbol
_atom_site_label
_atom_site_fract_x
_atom_site_fract_y
_atom_site_fract_z
Si Si1 0.044945 0.364867 0.517395
Si Si2 0.629063 0.839917 0.953971
Si Si3 0.435357 0.619324 0.962413
Si Si4 0.117496 0.744030 0.175401
Si Si5 0.327200 0.939410 0.207211
O O1 0.234666 0.349179 0.479852
O O2 0.000000 0.500000 0.500000
O O3 0.979600 0.279828 0.423856
O O4 0.969819 0.326424 0.681282
O O5 0.580190 0.712263 0.923019
O O6 0.683453 0.923664 0.817978
O O7 0.465379 0.891387 0.066553
O O8 0.379229 0.593821 0.834376
O O9 0.500000 0.500000 0.000000
O O10 0.279461 0.673009 0.085866
O O11 0.169287 0.868686 0.219641
#
# Coordination Sequence:
#
# PCOD9248996 Si02
#       5
#     4   4   4   4   4
#     4  12  26  46  71 105 145 188 231 297 361 417
#     4  10  25  42  71  97 137 185 229 285 357 418
#     4  11  26  42  71 101 139 183 235 289 344 426
#     4  11  25  46  69 103 143 181 237 294 349 418
#     4  10  22  45  68  98 134 183 236 284 340 417
#
# _framework density 20.519798000000002
#
# number of rings (size 3 to 8) (size 9 to 14) (size 15 to 20)
#    0.000    1.200    4.000    0.000   11.200    0.000 
#    0.000    3.000    0.000    0.000    0.000    0.000 
#    0.000    0.000    0.000    0.000    0.000    0.000 
#
# Total GULP energy -111716.837264 kJ/mol
# GULP energy per Si atom -5585.841863 kJ/mol
# Density = 2.047309 g / cm^3
# Si number density = 20.519798 Si / 1000 Ang^3
#
#
#
# Elastic Constant Matrix: (Units=GPa)
#
#
# Indices 1 2 3 4 5 6 
#
# 1 66.9650 40.6406 -11.2731 0.0000 24.5335 0.0000
# 2 40.6406 154.6602 41.0778 0.0000 10.0097 0.0000
# 3 -11.2731 41.0778 68.3925 0.0000 16.4832 0.0000
# 4 0.0000 0.0000 0.0000 37.4915 0.0000 11.4797
# 5 24.5335 10.0097 16.4832 0.0000 35.6448 0.0000
# 6 0.0000 0.0000 0.0000 11.4797 0.0000 30.2951
#
#
#
# Elastic Compliance Matrix: (Units=1/GPa)
#
#
# Indices 1 2 3 4 5 6 
#
# 1 0.040922 -0.014896 0.024165 0.000000 -0.035157 0.000000
# 2 -0.014896 0.013115 -0.013411 0.000000 0.012771 0.000000
# 3 0.024165 -0.013411 0.033493 0.000000 -0.028354 0.000000
# 4 0.000000 0.000000 0.000000 0.030174 0.000000 -0.011434
# 5 -0.035157 0.012771 -0.028354 0.000000 0.061778 0.000000
# 6 0.000000 0.000000 0.000000 -0.011434 0.000000 0.037341
#
#
# Mechanical properties :
#
#
# Convention : Reuss Voigt Hill
#
# Bulk Modulus (GPa) = 12.61879 47.87871 30.24875
# Shear Modulus (GPa) = 19.87903 35.32443 27.60173
#
# Velocity S-wave (km/s) = 3.11589 4.15357 3.67158
# Velocity P-wave (km/s) = 4.37126 6.81076 5.72252
#
# Compressibility (1/GPa) = 0.07924687
#
# Stress axis : x y z
#
# Youngs Moduli (GPa) = 24.43693 76.24642 29.85711
#
# Poissons Ratio (x) = 1.13577 -0.72150
# Poissons Ratio (y) = 0.36401 0.40040
# Poissons Ratio (z) = -0.59052 1.02251
#
# Static dielectric constant tensor:
#      x y z
#    x 0.774010 0.000000 -0.372960 
#    y 0.000000 1.744750 0.000000 
#    z -0.372960 0.000000 1.589100 
# 
# From -- ./inp_files/7841.got.cif
#   From: 2010.05.17/outbox.cif.g08.bks.cpg/sg14_4_cif.got.tgz:7841.got - 2010.06.03 17:49:19.
