data_PCOD9248183
_publ_section_title
;
Structure prediction by ZEFSAII (Michael W. Deem and Ramdas Pophale) SiO2 
 PCOD9248183
Probable space group: P 21/C
;
_chemical_formula_sum "Si O2"
_cell_formula_units_Z 24
_cell_length_a 12.159517
_cell_length_b 5.266270
_cell_length_c 15.966141
_cell_angle_alpha 90.000000
_cell_angle_beta 77.867149
_cell_angle_gamma 90.000000
_cell_volume 999.559236
_symmetry_space_group_name_H-M "P 21/C"
_symmetry_group_IT_number 14
_symmetry_cell_setting 'monoclinic'
loop_
_space_group_symop_operation_xyz
x,y,z
-x,1/2+y,1/2-z
-x,-y,-z
x,1/2-y,1/2+z
loop_
_atom_site_type_symbol
_atom_site_label
_atom_site_fract_x
_atom_site_fract_y
_atom_site_fract_z
Si Si1 0.424677 0.943800 0.749570
Si Si2 0.229874 0.297081 0.375068
Si Si3 0.357414 0.601486 0.939640
Si Si4 0.593930 0.780521 0.414305
Si Si5 0.992181 0.813611 0.198278
Si Si6 0.793772 0.028242 0.941942
O O1 0.511737 0.174536 0.758004
O O2 0.314136 0.990996 0.824033
O O3 0.388063 0.007210 0.659791
O O4 0.122042 0.273851 0.334707
O O5 0.191895 0.359894 0.476184
O O6 0.303165 0.040961 0.370081
O O7 0.463814 0.793104 0.917106
O O8 0.405641 0.376355 0.990361
O O9 0.260108 0.720905 0.010372
O O10 0.698331 0.589475 0.396252
O O11 0.025138 0.543369 0.233215
O O12 0.091916 0.914068 0.123122
#
# Coordination Sequence:
#
# PCOD9248183 Si02
#       6
#     4   4   4   4   4   4
#     4  12  26  42  70 107 151 193 241 305 374 445
#     4  11  26  46  73 111 146 201 254 309 376 454
#     4  10  22  42  71 107 143 192 244 310 372 455
#     4  10  22  41  68 109 146 193 242 301 380 448
#     4  12  31  52  77 111 147 202 257 318 381 447
#     4  11  25  45  77 100 150 196 252 313 372 452
#
# _framework density 24.010584000000001
#
# number of rings (size 3 to 8) (size 9 to 14) (size 15 to 20)
#    0.000    1.000    1.667    3.000   11.667    0.667 
#    0.000    0.000    0.000    0.000    0.000    0.000 
#    0.000    0.000    0.000    0.000    0.000    0.000 
#
# Total GULP energy -134189.070328 kJ/mol
# GULP energy per Si atom -5591.211264 kJ/mol
# Density = 2.395594 g / cm^3
# Si number density = 24.010584 Si / 1000 Ang^3
#
#
#
# Elastic Constant Matrix: (Units=GPa)
#
#
# Indices 1 2 3 4 5 6 
#
# 1 201.1739 57.5550 47.9449 0.0000 22.1693 0.0000
# 2 57.5550 108.7444 9.8367 0.0000 19.6485 0.0000
# 3 47.9449 9.8367 69.9216 0.0000 7.9123 0.0000
# 4 0.0000 0.0000 0.0000 40.9160 0.0000 -1.5384
# 5 22.1693 19.6485 7.9123 0.0000 36.8869 0.0000
# 6 0.0000 0.0000 0.0000 -1.5384 0.0000 24.0195
#
#
#
# Elastic Compliance Matrix: (Units=1/GPa)
#
#
# Indices 1 2 3 4 5 6 
#
# 1 0.007027 -0.003031 -0.004199 0.000000 -0.001708 0.000000
# 2 -0.003031 0.011530 0.000968 0.000000 -0.004528 0.000000
# 3 -0.004199 0.000968 0.017236 0.000000 -0.001690 0.000000
# 4 0.000000 0.000000 0.000000 0.024499 0.000000 0.001569
# 5 -0.001708 -0.004528 -0.001690 0.000000 0.030911 0.000000
# 6 0.000000 0.000000 0.000000 0.001569 0.000000 0.041733
#
#
# Mechanical properties :
#
#
# Convention : Reuss Voigt Hill
#
# Bulk Modulus (GPa) = 42.97152 67.83479 55.40316
# Shear Modulus (GPa) = 32.63386 37.99803 35.31594
#
# Velocity S-wave (km/s) = 3.69066 3.98245 3.83933
# Velocity P-wave (km/s) = 6.00808 7.03277 6.54052
#
# Compressibility (1/GPa) = 0.02327123
#
# Stress axis : x y z
#
# Youngs Moduli (GPa) = 142.31369 86.72683 58.01944
#
# Poissons Ratio (x) = 0.26283 0.24360
# Poissons Ratio (y) = 0.43129 -0.05618
# Poissons Ratio (z) = 0.59751 -0.08398
#
# Static dielectric constant tensor:
#      x y z
#    x 1.882630 0.000000 0.027770 
#    y 0.000000 1.981710 0.000000 
#    z 0.027770 0.000000 2.003220 
# 
# From -- ./inp_files/56536.got.cif
#   From: 2010.05.17/outbox.cif.g08.bks.cpg/sg14_29_cif.got.tgz:56536.got - 2010.06.03 17:49:19.
