data_PCOD9248072
_publ_section_title
;
Structure prediction by ZEFSAII (Michael W. Deem and Ramdas Pophale) SiO2 
 PCOD9248072
Probable space group: P 21/C
;
_chemical_formula_sum "Si O2"
_cell_formula_units_Z 20
_cell_length_a 9.893242
_cell_length_b 11.267970
_cell_length_c 13.069391
_cell_angle_alpha 90.000000
_cell_angle_beta 133.683570
_cell_angle_gamma 90.000000
_cell_volume 1053.603498
_symmetry_space_group_name_H-M "P 21/C"
_symmetry_group_IT_number 14
_symmetry_cell_setting 'monoclinic'
loop_
_space_group_symop_operation_xyz
x,y,z
-x,1/2+y,1/2-z
-x,-y,-z
x,1/2-y,1/2+z
loop_
_atom_site_type_symbol
_atom_site_label
_atom_site_fract_x
_atom_site_fract_y
_atom_site_fract_z
Si Si1 0.825409 0.035759 0.837654
Si Si2 0.062030 0.759837 0.262087
Si Si3 0.947132 0.367803 0.944003
Si Si4 0.238871 0.231784 0.236110
Si Si5 0.339633 0.781482 0.095484
O O1 0.878560 0.125113 0.773118
O O2 0.692754 0.106949 0.846525
O O3 0.752773 0.910947 0.757887
O O4 0.000000 0.000000 0.000000
O O5 0.049535 0.654208 0.174326
O O6 0.209939 0.722964 0.426650
O O7 0.864440 0.776683 0.215614
O O8 0.746126 0.328582 0.884002
O O9 0.000000 0.500000 0.000000
O O10 0.099709 0.278743 0.074236
O O11 0.446685 0.275112 0.324761
#
# Coordination Sequence:
#
# PCOD9248072 Si02
#       5
#     4   4   4   4   4
#     4  11  21  46  65  85 135 168 202 262 317 375
#     4  10  22  41  64  90 125 162 214 253 315 367
#     4  10  23  42  63  89 130 164 206 259 314 368
#     4  11  24  41  67  94 123 171 208 258 318 365
#     4  10  24  40  63  98 120 164 214 256 314 372
#
# _framework density 18.982472000000001
#
# number of rings (size 3 to 8) (size 9 to 14) (size 15 to 20)
#    0.000    1.600    6.000    0.000    8.400    4.000 
#    0.000    2.000    0.000    0.000    0.000    0.000 
#    0.000    0.000    0.000    0.000    0.000    0.000 
#
# Total GULP energy -111571.381121 kJ/mol
# GULP energy per Si atom -5578.569056 kJ/mol
# Density = 1.893927 g / cm^3
# Si number density = 18.982472 Si / 1000 Ang^3
#
#
#
# Elastic Constant Matrix: (Units=GPa)
#
#
# Indices 1 2 3 4 5 6 
#
# 1 187.1785 47.8801 69.9075 0.0000 7.0594 0.0000
# 2 47.8801 119.4077 13.3566 0.0000 -2.5293 0.0000
# 3 69.9075 13.3566 47.9763 0.0000 -7.1280 0.0000
# 4 0.0000 0.0000 0.0000 15.2765 0.0000 -7.4172
# 5 7.0594 -2.5293 -7.1280 0.0000 34.6841 0.0000
# 6 0.0000 0.0000 0.0000 -7.4172 0.0000 6.0953
#
#
#
# Elastic Compliance Matrix: (Units=1/GPa)
#
#
# Indices 1 2 3 4 5 6 
#
# 1 0.014463 -0.003588 -0.021199 0.000000 -0.007562 0.000000
# 2 -0.003588 0.009535 0.002874 0.000000 0.002016 0.000000
# 3 -0.021199 0.002874 0.053230 0.000000 0.015464 0.000000
# 4 0.000000 0.000000 0.000000 0.159980 0.000000 0.194673
# 5 -0.007562 0.002016 0.015464 0.000000 0.033696 0.000000
# 6 0.000000 0.000000 0.000000 0.194673 0.000000 0.400951
#
#
# Mechanical properties :
#
#
# Convention : Reuss Voigt Hill
#
# Bulk Modulus (GPa) = 29.93906 68.53898 49.23902
# Shear Modulus (GPa) = 6.87934 26.10574 16.49254
#
# Velocity S-wave (km/s) = 1.90576 3.71247 2.95079
# Velocity P-wave (km/s) = 4.54409 7.38657 6.13230
#
# Compressibility (1/GPa) = 0.03340119
#
# Stress axis : x y z
#
# Youngs Moduli (GPa) = 69.14248 104.87935 18.78629
#
# Poissons Ratio (x) = 0.37634 0.39825
# Poissons Ratio (y) = 0.24810 -0.05399
# Poissons Ratio (z) = 1.46573 -0.30139
#
# Static dielectric constant tensor:
#      x y z
#    x 1.645890 0.000000 0.017650 
#    y 0.000000 1.670050 0.000000 
#    z 0.017650 0.000000 1.554930 
# 
# From -- ./inp_files/23744.got.cif
#   From: 2010.05.17/outbox.cif.g08.bks.cpg/sg14_12_cif.got.tgz:23744.got - 2010.06.03 17:49:19.
