data_PCOD9248731
_publ_section_title
;
Structure prediction by ZEFSAII (Michael W. Deem and Ramdas Pophale) SiO2 
 PCOD9248731
Probable space group: P 21/C
;
_chemical_formula_sum "Si O2"
_cell_formula_units_Z 28
_cell_length_a 15.619915
_cell_length_b 14.107627
_cell_length_c 9.821645
_cell_angle_alpha 90.000000
_cell_angle_beta 146.122303
_cell_angle_gamma 90.000000
_cell_volume 1206.426737
_symmetry_space_group_name_H-M "P 21/C"
_symmetry_group_IT_number 14
_symmetry_cell_setting 'monoclinic'
loop_
_space_group_symop_operation_xyz
x,y,z
-x,1/2+y,1/2-z
-x,-y,-z
x,1/2-y,1/2+z
loop_
_atom_site_type_symbol
_atom_site_label
_atom_site_fract_x
_atom_site_fract_y
_atom_site_fract_z
Si Si1 0.442146 0.193546 0.457522
Si Si2 0.233112 0.050994 0.315434
Si Si3 0.827326 0.033739 0.250691
Si Si4 0.353066 0.537322 0.224723
Si Si5 0.797464 0.210227 0.010924
Si Si6 0.606785 0.855602 0.912442
Si Si7 0.084174 0.650493 0.603742
O O1 0.381109 0.094245 0.437682
O O2 0.356583 0.277710 0.424904
O O3 0.406449 0.192971 0.251292
O O4 0.621638 0.209246 0.726067
O O5 0.267478 0.041245 0.521747
O O6 0.179292 0.946325 0.201185
O O7 0.089029 0.118380 0.096793
O O8 0.758624 0.072349 0.303718
O O9 0.818066 0.114448 0.125442
O O10 0.000000 0.000000 0.500000
O O11 0.724811 0.942815 0.072205
O O12 0.500000 0.500000 0.500000
O O13 0.438833 0.603947 0.229740
O O14 0.846279 0.293562 0.177431
O O15 0.903128 0.210050 0.017090
#
# Coordination Sequence:
#
# PCOD9248731 Si02
#       7
#     4   4   4   4   4   4   4
#     4  12  26  44  77 106 149 190 253 306 361 443
#     4  11  25  48  74 102 148 198 240 304 376 446
#     4  11  26  46  74 107 151 192 243 301 377 443
#     4  10  22  43  72 102 144 186 242 299 357 432
#     4  12  26  47  73 107 143 191 241 313 364 446
#     4  11  27  45  73 112 145 194 248 302 370 436
#     4  11  28  48  74 104 148 191 246 302 381 443
#
# _framework density 23.209035
#
# number of rings (size 3 to 8) (size 9 to 14) (size 15 to 20)
#    0.000    0.857    0.000    6.000   12.000    4.000 
#    0.000    0.000    0.000    0.000    0.000    0.000 
#    0.000    0.000    0.000    0.000    0.000    0.000 
#
# Total GULP energy -156789.833894 kJ/mol
# GULP energy per Si atom -5599.636925 kJ/mol
# Density = 2.315621 g / cm^3
# Si number density = 23.209035 Si / 1000 Ang^3
#
#
#
# Elastic Constant Matrix: (Units=GPa)
#
#
# Indices 1 2 3 4 5 6 
#
# 1 94.7247 30.3743 48.0022 0.0000 -27.4956 0.0000
# 2 30.3743 103.2506 58.0656 0.0000 -3.7206 0.0000
# 3 48.0022 58.0656 128.9818 0.0000 -9.2748 0.0000
# 4 0.0000 0.0000 0.0000 46.6273 0.0000 -1.7984
# 5 -27.4956 -3.7206 -9.2748 0.0000 44.4228 0.0000
# 6 0.0000 0.0000 0.0000 -1.7984 0.0000 35.1975
#
#
#
# Elastic Compliance Matrix: (Units=1/GPa)
#
#
# Indices 1 2 3 4 5 6 
#
# 1 0.015976 -0.001868 -0.004472 0.000000 0.008798 0.000000
# 2 -0.001868 0.013188 -0.005325 0.000000 -0.001163 0.000000
# 3 -0.004472 -0.005325 0.011760 0.000000 -0.000759 0.000000
# 4 0.000000 0.000000 0.000000 0.021489 0.000000 0.001098
# 5 0.008798 -0.001163 -0.000759 0.000000 0.027701 0.000000
# 6 0.000000 0.000000 0.000000 0.001098 0.000000 0.028467
#
#
# Mechanical properties :
#
#
# Convention : Reuss Voigt Hill
#
# Bulk Modulus (GPa) = 56.84022 66.64905 61.74464
# Shear Modulus (GPa) = 33.83503 37.95051 35.89277
#
# Velocity S-wave (km/s) = 3.82231 4.04810 3.93682
# Velocity P-wave (km/s) = 6.63504 7.11538 6.87941
#
# Compressibility (1/GPa) = 0.01759318
#
# Stress axis : x y z
#
# Youngs Moduli (GPa) = 62.59408 75.82896 85.03216
#
# Poissons Ratio (x) = 0.14163 0.38028
# Poissons Ratio (y) = 0.11691 0.45283
# Poissons Ratio (z) = 0.27993 0.40382
#
# Static dielectric constant tensor:
#      x y z
#    x 1.843080 0.000000 0.011340 
#    y 0.000000 1.953080 0.000000 
#    z 0.011340 0.000000 1.829360 
# 
# From -- ./inp_files/16431.got.cif
#   From: 2010.05.17/outbox.cif.g08.bks.cpg/sg14_9_cif.got.tgz:16431.got - 2010.06.03 17:49:19.
