data_PCOD9248831
_publ_section_title
;
Structure prediction by ZEFSAII (Michael W. Deem and Ramdas Pophale) SiO2 
 PCOD9248831
Probable space group: P 21/C
;
_chemical_formula_sum "Si O2"
_cell_formula_units_Z 28
_cell_length_a 9.026132
_cell_length_b 9.297414
_cell_length_c 27.368068
_cell_angle_alpha 90.000000
_cell_angle_beta 29.763657
_cell_angle_gamma 90.000000
_cell_volume 1140.145465
_symmetry_space_group_name_H-M "P 21/C"
_symmetry_group_IT_number 14
_symmetry_cell_setting 'monoclinic'
loop_
_space_group_symop_operation_xyz
x,y,z
-x,1/2+y,1/2-z
-x,-y,-z
x,1/2-y,1/2+z
loop_
_atom_site_type_symbol
_atom_site_label
_atom_site_fract_x
_atom_site_fract_y
_atom_site_fract_z
Si Si1 0.566845 0.143367 0.840278
Si Si2 0.073821 0.949992 0.355969
Si Si3 0.760866 0.804400 0.638882
Si Si4 0.748836 0.378170 0.532179
Si Si5 0.095675 0.896526 0.160090
Si Si6 0.549181 0.277711 0.182879
Si Si7 0.331521 0.196433 0.066995
O O1 0.416618 0.290105 0.862341
O O2 0.830127 0.144246 0.804805
O O3 0.706360 0.057316 0.753833
O O4 0.324765 0.043106 0.936725
O O5 0.823908 0.837027 0.410964
O O6 0.257382 0.907556 0.352143
O O7 0.984435 0.102734 0.404693
O O8 0.501071 0.811528 0.753191
O O9 0.939021 0.652670 0.583086
O O10 0.728200 0.297739 0.589317
O O11 0.486579 0.306377 0.575500
O O12 0.779341 0.826299 0.238853
O O13 0.099157 0.064020 0.141752
O O14 0.392503 0.841682 0.047312
#
# Coordination Sequence:
#
# PCOD9248831 Si02
#       7
#     4   4   4   4   4   4   4
#     4  10  23  42  70  98 137 189 237 290 354 433
#     4  11  25  43  66 105 144 182 235 298 363 423
#     4  11  24  43  65 103 137 181 232 297 357 423
#     4  11  22  44  68  99 136 186 232 290 363 425
#     4  10  22  44  68 101 133 185 244 287 350 426
#     4  11  24  42  67  97 136 179 232 291 356 429
#     4  10  23  42  70  99 138 183 237 296 347 433
#
# _framework density 24.558271999999999
#
# number of rings (size 3 to 8) (size 9 to 14) (size 15 to 20)
#    0.000    1.429    2.857    1.286    6.000    1.143 
#    0.000    0.000    0.000    0.000    0.000    0.000 
#    0.000    0.000    0.000    0.000    0.000    0.000 
#
# Total GULP energy -155970.975165 kJ/mol
# GULP energy per Si atom -5570.391970 kJ/mol
# Density = 2.450238 g / cm^3
# Si number density = 24.558272 Si / 1000 Ang^3
#
#
#
# Elastic Constant Matrix: (Units=GPa)
#
#
# Indices 1 2 3 4 5 6 
#
# 1 164.6402 46.3927 36.1314 0.0000 7.9319 0.0000
# 2 46.3927 62.2449 21.9253 0.0000 -1.8245 0.0000
# 3 36.1314 21.9253 76.7269 0.0000 -0.0193 0.0000
# 4 0.0000 0.0000 0.0000 32.5880 0.0000 0.6249
# 5 7.9319 -1.8245 -0.0193 0.0000 34.5107 0.0000
# 6 0.0000 0.0000 0.0000 0.6249 0.0000 54.6847
#
#
#
# Elastic Compliance Matrix: (Units=1/GPa)
#
#
# Indices 1 2 3 4 5 6 
#
# 1 0.008198 -0.005353 -0.002332 0.000000 -0.002169 0.000000
# 2 -0.005353 0.021389 -0.003591 0.000000 0.002359 0.000000
# 3 -0.002332 -0.003591 0.015157 0.000000 0.000355 0.000000
# 4 0.000000 0.000000 0.000000 0.030693 0.000000 -0.000351
# 5 -0.002169 0.002359 0.000355 0.000000 0.029600 0.000000
# 6 0.000000 0.000000 0.000000 -0.000351 0.000000 0.018291
#
#
# Mechanical properties :
#
#
# Convention : Reuss Voigt Hill
#
# Bulk Modulus (GPa) = 45.05633 56.94565 51.00099
# Shear Modulus (GPa) = 32.62073 37.63418 35.12746
#
# Velocity S-wave (km/s) = 3.64854 3.91889 3.78613
# Velocity P-wave (km/s) = 6.01129 6.61175 6.31866
#
# Compressibility (1/GPa) = 0.02219444
#
# Stress axis : x y z
#
# Youngs Moduli (GPa) = 121.97643 46.75284 65.97414
#
# Poissons Ratio (x) = 0.25025 0.15383
# Poissons Ratio (y) = 0.65290 0.23691
# Poissons Ratio (z) = 0.28440 0.16788
#
# Static dielectric constant tensor:
#      x y z
#    x 2.051160 0.000000 -0.047880 
#    y 0.000000 2.338090 0.000000 
#    z -0.047880 0.000000 1.907340 
# 
# From -- ./inp_files/76651.got.cif
#   From: 2010.05.17/outbox.cif.g08.bks.cpg/sg14_39_cif.got.tgz:76651.got - 2010.06.03 17:49:19.
