data_PCOD9248367
_publ_section_title
;
Structure prediction by ZEFSAII (Michael W. Deem and Ramdas Pophale) SiO2 
 PCOD9248367
Probable space group: P 21/C
;
_chemical_formula_sum "Si O2"
_cell_formula_units_Z 32
_cell_length_a 9.006200
_cell_length_b 5.355295
_cell_length_c 28.765876
_cell_angle_alpha 90.000000
_cell_angle_beta 85.911112
_cell_angle_gamma 90.000000
_cell_volume 1383.871423
_symmetry_space_group_name_H-M "P 21/C"
_symmetry_group_IT_number 14
_symmetry_cell_setting 'monoclinic'
loop_
_space_group_symop_operation_xyz
x,y,z
-x,1/2+y,1/2-z
-x,-y,-z
x,1/2-y,1/2+z
loop_
_atom_site_type_symbol
_atom_site_label
_atom_site_fract_x
_atom_site_fract_y
_atom_site_fract_z
Si Si1 0.360725 0.258362 0.646766
Si Si2 0.426456 0.404389 0.739589
Si Si3 0.903218 0.201411 0.109172
Si Si4 0.813759 0.692374 0.686038
Si Si5 0.644497 0.533670 0.106336
Si Si6 0.536307 0.250557 0.471118
Si Si7 0.900397 0.075544 0.338514
Si Si8 0.811691 0.441948 0.416897
O O1 0.404274 0.455192 0.685257
O O2 0.296874 0.336464 0.597895
O O3 0.504909 0.099818 0.632486
O O4 0.231663 0.098221 0.674704
O O5 0.450096 0.680461 0.760580
O O6 0.296948 0.255492 0.769951
O O7 0.851562 0.069403 0.159097
O O8 0.761479 0.320675 0.086563
O O9 0.010909 0.420772 0.124193
O O10 0.018215 0.027226 0.077171
O O11 0.736209 0.827154 0.643890
O O12 0.972091 0.814367 0.696665
O O13 0.573367 0.722442 0.070847
O O14 0.500000 0.500000 0.500000
O O15 0.710444 0.275712 0.452658
O O16 0.500000 0.000000 0.500000
O O17 0.828701 0.302365 0.367531
#
# Coordination Sequence:
#
# PCOD9248367 Si02
#       8
#     4   4   4   4   4   4   4   4
#     4  11  22  40  71  98 136 188 233 278 347 405
#     4  12  27  42  63 104 143 177 238 291 331 388
#     4   9  21  40  72  96 130 189 230 276 343 423
#     4  10  22  42  66  97 139 183 232 285 338 405
#     4  11  22  42  72  97 134 182 234 276 355 421
#     4  12  28  45  71 109 139 172 227 296 355 425
#     4   9  20  41  64  98 127 188 227 276 342 413
#     4  10  22  44  71  95 140 180 228 282 353 427
#
# _framework density 23.123538
#
# number of rings (size 3 to 8) (size 9 to 14) (size 15 to 20)
#    0.000    1.500    2.500    1.500   10.500    0.000 
#    6.750    1.250    0.000    0.000    0.000    0.000 
#    0.000    0.000    0.000    0.000    0.000    0.000 
#
# Total GULP energy -178341.751089 kJ/mol
# GULP energy per Si atom -5573.179722 kJ/mol
# Density = 2.307091 g / cm^3
# Si number density = 23.123538 Si / 1000 Ang^3
#
#
#
# Elastic Constant Matrix: (Units=GPa)
#
#
# Indices 1 2 3 4 5 6 
#
# 1 98.5785 17.9270 32.5430 0.0000 -5.7790 0.0000
# 2 17.9270 55.9244 13.4156 0.0000 4.2123 0.0000
# 3 32.5430 13.4156 60.4781 0.0000 -12.2924 0.0000
# 4 0.0000 0.0000 0.0000 20.5395 0.0000 6.0746
# 5 -5.7790 4.2123 -12.2924 0.0000 16.4853 0.0000
# 6 0.0000 0.0000 0.0000 6.0746 0.0000 39.2083
#
#
#
# Elastic Compliance Matrix: (Units=1/GPa)
#
#
# Indices 1 2 3 4 5 6 
#
# 1 0.012678 -0.002636 -0.006125 0.000000 0.000551 0.000000
# 2 -0.002636 0.020748 -0.005244 0.000000 -0.010136 0.000000
# 3 -0.006125 -0.005244 0.024551 0.000000 0.017499 0.000000
# 4 0.000000 0.000000 0.000000 0.051025 0.000000 -0.007905
# 5 0.000551 -0.010136 0.017499 0.000000 0.076491 0.000000
# 6 0.000000 0.000000 0.000000 -0.007905 0.000000 0.026730
#
#
# Mechanical properties :
#
#
# Convention : Reuss Voigt Hill
#
# Bulk Modulus (GPa) = 33.37142 38.08358 35.72750
# Shear Modulus (GPa) = 19.98228 25.31965 22.65096
#
# Velocity S-wave (km/s) = 2.94284 3.31263 3.13319
# Velocity P-wave (km/s) = 5.10002 5.58003 5.34541
#
# Compressibility (1/GPa) = 0.02996576
#
# Stress axis : x y z
#
# Youngs Moduli (GPa) = 78.87691 48.19806 40.73164
#
# Poissons Ratio (x) = 0.12706 0.24949
# Poissons Ratio (y) = 0.20793 0.21360
# Poissons Ratio (z) = 0.48315 0.25275
#
# Static dielectric constant tensor:
#      x y z
#    x 1.917720 0.000000 0.006720 
#    y 0.000000 2.069560 0.000000 
#    z 0.006720 0.000000 1.879210 
# 
# From -- ./inp_files/79254.got.cif
#   From: 2010.05.17/outbox.cif.g08.bks.cpg/sg14_40_cif.got.tgz:79254.got - 2010.06.03 17:49:19.
