data_PCOD9248468
_publ_section_title
;
Structure prediction by ZEFSAII (Michael W. Deem and Ramdas Pophale) SiO2 
 PCOD9248468
Probable space group: P 21/C
;
_chemical_formula_sum "Si O2"
_cell_formula_units_Z 16
_cell_length_a 6.655167
_cell_length_b 9.936133
_cell_length_c 13.501284
_cell_angle_alpha 90.000000
_cell_angle_beta 133.143934
_cell_angle_gamma 90.000000
_cell_volume 651.416792
_symmetry_space_group_name_H-M "P 21/C"
_symmetry_group_IT_number 14
_symmetry_cell_setting 'monoclinic'
loop_
_space_group_symop_operation_xyz
x,y,z
-x,1/2+y,1/2-z
-x,-y,-z
x,1/2-y,1/2+z
loop_
_atom_site_type_symbol
_atom_site_label
_atom_site_fract_x
_atom_site_fract_y
_atom_site_fract_z
Si Si1 0.450413 0.850533 0.529954
Si Si2 0.359414 0.003044 0.219777
Si Si3 0.904536 0.859250 0.421903
Si Si4 0.805331 0.633663 0.534640
O O1 0.542905 0.878329 0.674138
O O2 0.613088 0.723155 0.540568
O O3 0.122016 0.827415 0.409546
O O4 0.500000 0.000000 0.500000
O O5 0.581832 0.883662 0.299675
O O6 0.353822 0.049113 0.103452
O O7 0.056517 0.958885 0.155135
O O8 0.954889 0.746000 0.519134
O O9 0.000000 0.000000 0.500000
#
# Coordination Sequence:
#
# PCOD9248468 Si02
#       4
#     4   4   4   4
#     4  11  23  44  72 106 137 192 236 291 369 425
#     4  10  25  46  73 107 145 189 237 302 359 424
#     4  10  22  42  70 101 142 183 235 293 359 422
#     4  11  24  48  70 103 146 184 240 297 356 429
#
# _framework density 24.561845999999999
#
# number of rings (size 3 to 8) (size 9 to 14) (size 15 to 20)
#    0.000    1.500    5.000    0.000    7.000    2.000 
#    4.500    2.500    0.000    0.000    0.000    0.000 
#    0.000    0.000    0.000    0.000    0.000    0.000 
#
# Total GULP energy -89348.901752 kJ/mol
# GULP energy per Si atom -5584.306359 kJ/mol
# Density = 2.450594 g / cm^3
# Si number density = 24.561846 Si / 1000 Ang^3
#
#
#
# Elastic Constant Matrix: (Units=GPa)
#
#
# Indices 1 2 3 4 5 6 
#
# 1 130.4969 17.5893 37.0323 0.0000 19.0750 0.0000
# 2 17.5893 73.1115 14.8741 0.0000 -5.8478 0.0000
# 3 37.0323 14.8741 98.6124 0.0000 1.6529 0.0000
# 4 0.0000 0.0000 0.0000 -13.2113 0.0000 2.3822
# 5 19.0750 -5.8478 1.6529 0.0000 20.0101 0.0000
# 6 0.0000 0.0000 0.0000 2.3822 0.0000 68.7995
#
#
#
# Elastic Compliance Matrix: (Units=1/GPa)
#
#
# Indices 1 2 3 4 5 6 
#
# 1 0.010522 -0.002689 -0.003369 0.000000 -0.010538 0.000000
# 2 -0.002689 0.015178 -0.001399 0.000000 0.007114 0.000000
# 3 -0.003369 -0.001399 0.011586 0.000000 0.001846 0.000000
# 4 0.000000 0.000000 0.000000 -0.075223 0.000000 0.002605
# 5 -0.010538 0.007114 0.001846 0.000000 0.061947 0.000000
# 6 0.000000 0.000000 0.000000 0.002605 0.000000 0.014445
#
#
# Mechanical properties :
#
#
# Convention : Reuss Voigt Hill
#
# Bulk Modulus (GPa) = 44.69783 49.02358 46.86071
# Shear Modulus (GPa) = 82.20232 30.63467 56.41849
#
# Velocity S-wave (km/s) = 5.79138 3.53547 4.79790
# Velocity P-wave (km/s) = 7.93459 6.05546 7.05785
#
# Compressibility (1/GPa) = 0.02237245
#
# Stress axis : x y z
#
# Youngs Moduli (GPa) = 95.04062 65.88369 86.31109
#
# Poissons Ratio (x) = 0.17715 0.29079
# Poissons Ratio (y) = 0.25554 0.12074
# Poissons Ratio (z) = 0.32020 0.09217
#
# Static dielectric constant tensor:
#      x y z
#    x 1.890770 0.000000 0.020070 
#    y 0.000000 1.717540 0.000000 
#    z 0.020070 0.000000 2.030020 
# 
# From -- ./inp_files/36942.got.cif
#   From: 2010.05.17/outbox.cif.g08.bks.cpg/sg14_19_cif.got.tgz:36942.got - 2010.06.03 17:49:19.
