data_PCOD9248274
_publ_section_title
;
Structure prediction by ZEFSAII (Michael W. Deem and Ramdas Pophale) SiO2 
 PCOD9248274
Probable space group: P 21/C
;
_chemical_formula_sum "Si O2"
_cell_formula_units_Z 20
_cell_length_a 7.176972
_cell_length_b 14.389862
_cell_length_c 12.274699
_cell_angle_alpha 90.000000
_cell_angle_beta 42.326925
_cell_angle_gamma 90.000000
_cell_volume 853.603241
_symmetry_space_group_name_H-M "P 21/C"
_symmetry_group_IT_number 14
_symmetry_cell_setting 'monoclinic'
loop_
_space_group_symop_operation_xyz
x,y,z
-x,1/2+y,1/2-z
-x,-y,-z
x,1/2-y,1/2+z
loop_
_atom_site_type_symbol
_atom_site_label
_atom_site_fract_x
_atom_site_fract_y
_atom_site_fract_z
Si Si1 0.135389 0.835004 0.132536
Si Si2 0.473928 0.881943 0.773277
Si Si3 0.060558 0.866626 0.575291
Si Si4 0.432284 0.676341 0.721685
Si Si5 0.632927 0.549834 0.813684
O O1 0.044248 0.727460 0.153724
O O2 0.876480 0.900401 0.272653
O O3 0.365326 0.839390 0.126335
O O4 0.270474 0.870498 0.962497
O O5 0.769734 0.918458 0.690483
O O6 0.533389 0.779780 0.701326
O O7 0.350517 0.944880 0.731796
O O8 0.151593 0.835265 0.414114
O O9 0.328892 0.927049 0.493395
O O10 0.631423 0.604947 0.697105
#
# Coordination Sequence:
#
# PCOD9248274 Si02
#       5
#     4   4   4   4   4
#     4  11  20  42  63  88 123 167 200 251 305 360
#     4  11  21  41  67  89 125 161 204 256 300 358
#     4   9  20  41  60  86 125 160 197 255 299 359
#     4   9  23  39  63  86 126 161 201 247 312 355
#     4  10  22  42  62  91 126 155 210 253 299 364
#
# _framework density 23.430088000000001
#
# number of rings (size 3 to 8) (size 9 to 14) (size 15 to 20)
#    1.200    0.800    2.000    1.200    0.000    4.000 
#    3.600    2.000    0.000    0.000    0.000    0.000 
#    0.000    0.000    0.000    0.000    0.000    0.000 
#
# Total GULP energy -111722.388444 kJ/mol
# GULP energy per Si atom -5586.119422 kJ/mol
# Density = 2.337676 g / cm^3
# Si number density = 23.430088 Si / 1000 Ang^3
#
#
#
# Elastic Constant Matrix: (Units=GPa)
#
#
# Indices 1 2 3 4 5 6 
#
# 1 72.9645 -13.4583 18.4389 0.0000 5.9829 0.0000
# 2 -13.4583 31.7007 3.9384 0.0000 15.7331 0.0000
# 3 18.4389 3.9384 54.3870 0.0000 -12.6248 0.0000
# 4 0.0000 0.0000 0.0000 19.2920 0.0000 -10.2957
# 5 5.9829 15.7331 -12.6248 0.0000 38.1951 0.0000
# 6 0.0000 0.0000 0.0000 -10.2957 0.0000 7.7887
#
#
#
# Elastic Compliance Matrix: (Units=1/GPa)
#
#
# Indices 1 2 3 4 5 6 
#
# 1 0.021117 0.017605 -0.011790 0.000000 -0.014457 0.000000
# 2 0.017605 0.057127 -0.017555 0.000000 -0.032092 0.000000
# 3 -0.011790 -0.017555 0.027903 0.000000 0.018301 0.000000
# 4 0.000000 0.000000 0.000000 0.175985 0.000000 0.232631
# 5 -0.014457 -0.032092 0.018301 0.000000 0.047714 0.000000
# 6 0.000000 0.000000 0.000000 0.232631 0.000000 0.435903
#
#
# Mechanical properties :
#
#
# Convention : Reuss Voigt Hill
#
# Bulk Modulus (GPa) = 12.09660 19.65445 15.87553
# Shear Modulus (GPa) = 6.12156 23.06403 14.59279
#
# Velocity S-wave (km/s) = 1.61814 3.14088 2.49835
# Velocity P-wave (km/s) = 2.94367 4.64330 3.88751
#
# Compressibility (1/GPa) = 0.08266783
#
# Stress axis : x y z
#
# Youngs Moduli (GPa) = 47.35426 17.50480 35.83794
#
# Poissons Ratio (x) = -0.30817 0.42253
# Poissons Ratio (y) = -0.83367 0.62913
# Poissons Ratio (z) = 0.55831 0.30729
#
# Static dielectric constant tensor:
#      x y z
#    x 1.871510 0.000000 -0.017980 
#    y 0.000000 1.887100 0.000000 
#    z -0.017980 0.000000 1.856750 
# 
# From -- ./inp_files/20946.got.cif
#   From: 2010.05.17/outbox.cif.g08.bks.cpg/sg14_11_cif.got.tgz:20946.got - 2010.06.03 17:49:19.
