data_PCOD9248818
_publ_section_title
;
Structure prediction by ZEFSAII (Michael W. Deem and Ramdas Pophale) SiO2 
 PCOD9248818
Probable space group: P 21/C
;
_chemical_formula_sum "Si O2"
_cell_formula_units_Z 20
_cell_length_a 5.237691
_cell_length_b 9.619096
_cell_length_c 18.583138
_cell_angle_alpha 90.000000
_cell_angle_beta 105.323118
_cell_angle_gamma 90.000000
_cell_volume 902.969943
_symmetry_space_group_name_H-M "P 21/C"
_symmetry_group_IT_number 14
_symmetry_cell_setting 'monoclinic'
loop_
_space_group_symop_operation_xyz
x,y,z
-x,1/2+y,1/2-z
-x,-y,-z
x,1/2-y,1/2+z
loop_
_atom_site_type_symbol
_atom_site_label
_atom_site_fract_x
_atom_site_fract_y
_atom_site_fract_z
Si Si1 0.575187 0.215714 0.640430
Si Si2 0.853302 0.896994 0.935780
Si Si3 0.047486 0.652542 0.033241
Si Si4 0.852281 0.679490 0.289150
Si Si5 0.374834 0.398258 0.881108
O O1 0.450742 0.340313 0.581405
O O2 0.358639 0.215194 0.689257
O O3 0.858451 0.254678 0.693639
O O4 0.591977 0.065068 0.604971
O O5 0.875453 0.937482 0.853841
O O6 0.009566 0.754691 0.963686
O O7 0.000000 0.000000 0.000000
O O8 0.335502 0.665733 0.088630
O O9 0.822817 0.671034 0.076649
O O10 0.000000 0.500000 0.000000
O O11 0.743023 0.624011 0.206720
#
# Coordination Sequence:
#
# PCOD9248818 Si02
#       5
#     4   4   4   4   4
#     4  10  22  44  67  95 136 169 228 282 334 395
#     4  10  25  45  67  99 141 176 220 281 347 407
#     4  12  24  43  71 103 130 181 232 285 340 408
#     4  10  24  42  63  96 135 175 217 284 338 399
#     4  12  24  43  73  98 132 182 236 281 342 413
#
# _framework density 22.149132000000002
#
# number of rings (size 3 to 8) (size 9 to 14) (size 15 to 20)
#    1.200    0.000    2.000    4.200    2.800    4.000 
#    3.600    0.000    0.000    0.000    0.000    0.000 
#    0.000    0.000    0.000    0.000    0.000    0.000 
#
# Total GULP energy -111565.570870 kJ/mol
# GULP energy per Si atom -5578.278544 kJ/mol
# Density = 2.209872 g / cm^3
# Si number density = 22.149132 Si / 1000 Ang^3
#
#
#
# Elastic Constant Matrix: (Units=GPa)
#
#
# Indices 1 2 3 4 5 6 
#
# 1 167.9284 10.2945 49.0632 0.0000 33.7525 0.0000
# 2 10.2945 26.6983 2.9964 0.0000 5.4109 0.0000
# 3 49.0632 2.9964 148.1731 0.0000 16.3905 0.0000
# 4 0.0000 0.0000 0.0000 28.4255 0.0000 7.1918
# 5 33.7525 5.4109 16.3905 0.0000 37.0488 0.0000
# 6 0.0000 0.0000 0.0000 7.1918 0.0000 12.0154
#
#
#
# Elastic Compliance Matrix: (Units=1/GPa)
#
#
# Indices 1 2 3 4 5 6 
#
# 1 0.007821 -0.001576 -0.001887 0.000000 -0.006060 0.000000
# 2 -0.001576 0.038919 0.000215 0.000000 -0.004344 0.000000
# 3 -0.001887 0.000215 0.007552 0.000000 -0.001653 0.000000
# 4 0.000000 0.000000 0.000000 0.041458 0.000000 -0.024814
# 5 -0.006060 -0.004344 -0.001653 0.000000 0.033878 0.000000
# 6 0.000000 0.000000 0.000000 -0.024814 0.000000 0.098079
#
#
# Mechanical properties :
#
#
# Convention : Reuss Voigt Hill
#
# Bulk Modulus (GPa) = 20.92194 51.94535 36.43364
# Shear Modulus (GPa) = 19.98917 34.19431 27.09174
#
# Velocity S-wave (km/s) = 3.00739 3.93341 3.50115
# Velocity P-wave (km/s) = 4.63957 6.64322 5.72966
#
# Compressibility (1/GPa) = 0.04779671
#
# Stress axis : x y z
#
# Youngs Moduli (GPa) = 127.86098 25.69420 132.40897
#
# Poissons Ratio (x) = 0.04049 0.24992
# Poissons Ratio (y) = 0.20147 -0.02849
# Poissons Ratio (z) = 0.24134 -0.00553
#
# Static dielectric constant tensor:
#      x y z
#    x 1.857960 0.000000 -0.016560 
#    y 0.000000 1.822070 0.000000 
#    z -0.016560 0.000000 1.807800 
# 
# From -- ./inp_files/62956.got.cif
#   From: 2010.05.17/outbox.cif.g08.bks.cpg/sg14_32_cif.got.tgz:62956.got - 2010.06.03 17:49:19.
