data_PCOD9248979
_publ_section_title
;
Structure prediction by ZEFSAII (Michael W. Deem and Ramdas Pophale) SiO2 
 PCOD9248979
Probable space group: P 21/C
;
_chemical_formula_sum "Si O2"
_cell_formula_units_Z 20
_cell_length_a 14.948096
_cell_length_b 9.863171
_cell_length_c 12.376464
_cell_angle_alpha 90.000000
_cell_angle_beta 29.954212
_cell_angle_gamma 90.000000
_cell_volume 911.102703
_symmetry_space_group_name_H-M "P 21/C"
_symmetry_group_IT_number 14
_symmetry_cell_setting 'monoclinic'
loop_
_space_group_symop_operation_xyz
x,y,z
-x,1/2+y,1/2-z
-x,-y,-z
x,1/2-y,1/2+z
loop_
_atom_site_type_symbol
_atom_site_label
_atom_site_fract_x
_atom_site_fract_y
_atom_site_fract_z
Si Si1 0.453553 0.634049 0.112029
Si Si2 0.704410 0.826290 0.530819
Si Si3 0.917054 0.315953 0.412161
Si Si4 0.337752 0.102866 0.184566
Si Si5 0.129777 0.437487 0.691006
O O1 0.525546 0.627994 0.159788
O O2 0.242349 0.664970 0.337063
O O3 0.500000 0.500000 0.000000
O O4 0.572180 0.753889 0.938408
O O5 0.725332 0.887889 0.626689
O O6 0.878597 0.861346 0.274495
O O7 0.719672 0.661892 0.521233
O O8 0.953073 0.155909 0.354076
O O9 0.873588 0.414682 0.357014
O O10 0.183509 0.065650 0.260477
O O11 0.500000 0.000000 0.000000
#
# Coordination Sequence:
#
# PCOD9248979 Si02
#       5
#     4   4   4   4   4
#     4  11  24  45  67  99 129 177 216 267 337 386
#     4   9  23  43  64  93 136 160 222 271 316 394
#     4  10  22  45  67  94 133 175 217 270 327 389
#     4  11  23  42  66  98 134 169 221 278 324 397
#     4   9  22  43  64  96 130 170 222 267 326 387
#
# _framework density 21.951422000000001
#
# number of rings (size 3 to 8) (size 9 to 14) (size 15 to 20)
#    1.200    0.800    0.000    2.400    2.800    3.200 
#   10.800    0.000    0.000    0.000    0.000    0.000 
#    0.000    0.000    0.000    0.000    0.000    0.000 
#
# Total GULP energy -111448.026060 kJ/mol
# GULP energy per Si atom -5572.401303 kJ/mol
# Density = 2.190146 g / cm^3
# Si number density = 21.951422 Si / 1000 Ang^3
#
#
#
# Elastic Constant Matrix: (Units=GPa)
#
#
# Indices 1 2 3 4 5 6 
#
# 1 70.5330 62.0907 16.8656 0.0000 2.0002 0.0000
# 2 62.0907 108.4285 29.9815 0.0000 -6.1040 0.0000
# 3 16.8656 29.9815 114.6690 0.0000 -18.6314 0.0000
# 4 0.0000 0.0000 0.0000 29.5259 0.0000 -5.1078
# 5 2.0002 -6.1040 -18.6314 0.0000 24.4554 0.0000
# 6 0.0000 0.0000 0.0000 -5.1078 0.0000 28.9998
#
#
#
# Elastic Compliance Matrix: (Units=1/GPa)
#
#
# Indices 1 2 3 4 5 6 
#
# 1 0.029770 -0.017164 -0.001121 0.000000 -0.007573 0.000000
# 2 -0.017164 0.019844 -0.001862 0.000000 0.004939 0.000000
# 3 -0.001121 -0.001862 0.010627 0.000000 0.007724 0.000000
# 4 0.000000 0.000000 0.000000 0.034933 0.000000 0.006153
# 5 -0.007573 0.004939 0.007724 0.000000 0.048627 0.000000
# 6 0.000000 0.000000 0.000000 0.006153 0.000000 0.035567
#
#
# Mechanical properties :
#
#
# Convention : Reuss Voigt Hill
#
# Bulk Modulus (GPa) = 50.13064 56.83401 53.48232
# Shear Modulus (GPa) = 22.09345 28.90908 25.50126
#
# Velocity S-wave (km/s) = 3.17593 3.63293 3.41209
# Velocity P-wave (km/s) = 6.02788 6.59883 6.31981
#
# Compressibility (1/GPa) = 0.01994788
#
# Stress axis : x y z
#
# Youngs Moduli (GPa) = 33.59069 50.39258 94.09687
#
# Poissons Ratio (x) = 0.86493 0.10552
# Poissons Ratio (y) = 0.57655 0.17517
# Poissons Ratio (z) = 0.03767 0.09381
#
# Static dielectric constant tensor:
#      x y z
#    x 1.936960 0.000000 0.048750 
#    y 0.000000 1.769560 0.000000 
#    z 0.048750 0.000000 1.834220 
# 
# From -- ./inp_files/32289.got.cif
#   From: 2010.05.17/outbox.cif.g08.bks.cpg/sg14_17_cif.got.tgz:32289.got - 2010.06.03 17:49:19.
