data_PCOD9248372
_publ_section_title
;
Structure prediction by ZEFSAII (Michael W. Deem and Ramdas Pophale) SiO2 
 PCOD9248372
Probable space group: P 21/C
;
_chemical_formula_sum "Si O2"
_cell_formula_units_Z 16
_cell_length_a 4.822045
_cell_length_b 8.932836
_cell_length_c 14.314907
_cell_angle_alpha 90.000000
_cell_angle_beta 71.185962
_cell_angle_gamma 90.000000
_cell_volume 583.662797
_symmetry_space_group_name_H-M "P 21/C"
_symmetry_group_IT_number 14
_symmetry_cell_setting 'monoclinic'
loop_
_space_group_symop_operation_xyz
x,y,z
-x,1/2+y,1/2-z
-x,-y,-z
x,1/2-y,1/2+z
loop_
_atom_site_type_symbol
_atom_site_label
_atom_site_fract_x
_atom_site_fract_y
_atom_site_fract_z
Si Si1 0.516479 0.262638 0.130019
Si Si2 0.034135 0.856919 0.062127
Si Si3 0.059021 0.593758 0.283841
Si Si4 0.822697 0.562761 0.107460
O O1 0.183094 0.215542 0.156542
O O2 0.579681 0.434954 0.148441
O O3 0.650585 0.156579 0.197413
O O4 0.688958 0.223202 0.015957
O O5 0.769922 0.737212 0.089693
O O6 0.042392 0.934927 0.161681
O O7 0.000000 0.000000 0.000000
O O8 0.024797 0.580837 0.176995
O O9 0.000000 0.500000 0.000000
#
# Coordination Sequence:
#
# PCOD9248372 Si02
#       4
#     4   4   4   4
#     4  10  23  41  64  96 129 170 221 276 333 396
#     4   9  20  41  66  94 129 170 216 272 335 400
#     4  11  22  42  67  95 131 175 221 273 333 398
#     4  10  22  42  66  99 136 177 227 281 338 406
#
# _framework density 27.41309
#
# number of rings (size 3 to 8) (size 9 to 14) (size 15 to 20)
#    0.000    2.000    0.000    2.250    0.000    6.000 
#    0.000   43.750    0.000    0.000    0.000    0.000 
#    0.000    0.000    0.000    0.000    0.000    0.000 
#
# Total GULP energy -89635.378558 kJ/mol
# GULP energy per Si atom -5602.211160 kJ/mol
# Density = 2.735070 g / cm^3
# Si number density = 27.413090 Si / 1000 Ang^3
#
#
#
# Elastic Constant Matrix: (Units=GPa)
#
#
# Indices 1 2 3 4 5 6 
#
# 1 70.6039 19.3772 8.4419 0.0000 11.9149 0.0000
# 2 19.3772 214.4075 44.3613 0.0000 6.2569 0.0000
# 3 8.4419 44.3613 150.8585 0.0000 19.2415 0.0000
# 4 0.0000 0.0000 0.0000 62.7753 0.0000 1.8656
# 5 11.9149 6.2569 19.2415 0.0000 32.5454 0.0000
# 6 0.0000 0.0000 0.0000 1.8656 0.0000 38.0740
#
#
#
# Elastic Compliance Matrix: (Units=1/GPa)
#
#
# Indices 1 2 3 4 5 6 
#
# 1 0.015421 -0.001277 0.000218 0.000000 -0.005529 0.000000
# 2 -0.001277 0.005072 -0.001466 0.000000 0.000359 0.000000
# 3 0.000218 -0.001466 0.007595 0.000000 -0.004288 0.000000
# 4 0.000000 0.000000 0.000000 0.015953 0.000000 -0.000782
# 5 -0.005529 0.000359 -0.004288 0.000000 0.035216 0.000000
# 6 0.000000 0.000000 0.000000 -0.000782 0.000000 0.026303
#
#
# Mechanical properties :
#
#
# Convention : Reuss Voigt Hill
#
# Bulk Modulus (GPa) = 43.40836 64.47010 53.93923
# Shear Modulus (GPa) = 42.26891 50.92490 46.59690
#
# Velocity S-wave (km/s) = 3.93099 4.31476 4.12734
# Velocity P-wave (km/s) = 6.03928 6.95643 6.51402
#
# Compressibility (1/GPa) = 0.02303704
#
# Stress axis : x y z
#
# Youngs Moduli (GPa) = 64.84618 197.15019 131.67414
#
# Poissons Ratio (x) = 0.25184 -0.02869
# Poissons Ratio (y) = 0.08284 0.19302
# Poissons Ratio (z) = -0.01413 0.28900
#
# Static dielectric constant tensor:
#      x y z
#    x 2.088500 0.000000 -0.038950 
#    y 0.000000 2.153770 0.000000 
#    z -0.038950 0.000000 2.166350 
# 
# From -- ./inp_files/36697.got.cif
#   From: 2010.05.17/outbox.cif.g08.bks.cpg/sg14_19_cif.got.tgz:36697.got - 2010.06.03 17:49:19.
