data_PCOD9248283
_publ_section_title
;
Structure prediction by ZEFSAII (Michael W. Deem and Ramdas Pophale) SiO2 
 PCOD9248283
Probable space group: P 21/C
;
_chemical_formula_sum "Si O2"
_cell_formula_units_Z 24
_cell_length_a 14.378291
_cell_length_b 9.439272
_cell_length_c 17.179740
_cell_angle_alpha 90.000000
_cell_angle_beta 146.202499
_cell_angle_gamma 90.000000
_cell_volume 1296.999167
_symmetry_space_group_name_H-M "P 21/C"
_symmetry_group_IT_number 14
_symmetry_cell_setting 'monoclinic'
loop_
_space_group_symop_operation_xyz
x,y,z
-x,1/2+y,1/2-z
-x,-y,-z
x,1/2-y,1/2+z
loop_
_atom_site_type_symbol
_atom_site_label
_atom_site_fract_x
_atom_site_fract_y
_atom_site_fract_z
Si Si1 0.977488 0.402221 0.909245
Si Si2 0.538876 0.392277 0.094212
Si Si3 0.140159 0.616244 0.589321
Si Si4 0.654282 0.550910 0.896616
Si Si5 0.350457 0.891749 0.913794
Si Si6 0.357309 0.706671 0.597907
O O1 0.926714 0.250964 0.909532
O O2 0.825649 0.443251 0.745615
O O3 0.000000 0.500000 0.000000
O O4 0.156919 0.410433 0.993414
O O5 0.694031 0.442962 0.253974
O O6 0.386630 0.383918 0.047705
O O7 0.593222 0.246102 0.094713
O O8 0.500000 0.500000 0.000000
O O9 0.203564 0.660966 0.547499
O O10 0.000000 0.500000 0.500000
O O11 0.522740 0.626303 0.746241
O O12 0.629410 0.378912 0.884302
O O13 0.334010 0.845312 0.992810
O O14 0.500000 0.000000 0.000000
#
# Coordination Sequence:
#
# PCOD9248283 Si02
#       6
#     4   4   4   4   4   4
#     4  11  23  43  65  94 130 169 215 267 318 384
#     4  10  22  42  63  92 125 166 213 266 322 379
#     4  10  24  40  64  93 127 166 217 262 324 383
#     4  11  24  42  68  94 133 171 215 268 328 385
#     4  11  25  43  66  96 129 170 221 265 323 387
#     4  11  24  44  66  95 130 170 215 266 327 390
#
# _framework density 18.504252000000001
#
# number of rings (size 3 to 8) (size 9 to 14) (size 15 to 20)
#    0.000    1.333    3.333    1.000    9.333    2.667 
#    3.000    0.000    0.000    0.000    0.000    0.000 
#    0.000    0.000    0.000    0.000    0.000    0.000 
#
# Total GULP energy -133887.289823 kJ/mol
# GULP energy per Si atom -5578.637076 kJ/mol
# Density = 1.846214 g / cm^3
# Si number density = 18.504252 Si / 1000 Ang^3
#
#
#
# Elastic Constant Matrix: (Units=GPa)
#
#
# Indices 1 2 3 4 5 6 
#
# 1 180.9917 39.5733 96.8485 0.0000 7.6444 0.0000
# 2 39.5733 75.1051 55.8096 0.0000 5.5295 0.0000
# 3 96.8485 55.8096 123.5985 0.0000 10.0475 0.0000
# 4 0.0000 0.0000 0.0000 30.0414 0.0000 5.7502
# 5 7.6444 5.5295 10.0475 0.0000 38.9260 0.0000
# 6 0.0000 0.0000 0.0000 5.7502 0.0000 32.8271
#
#
#
# Elastic Compliance Matrix: (Units=1/GPa)
#
#
# Indices 1 2 3 4 5 6 
#
# 1 0.009546 0.000795 -0.007842 0.000000 0.000037 0.000000
# 2 0.000795 0.020115 -0.009663 0.000000 -0.000519 0.000000
# 3 -0.007842 -0.009663 0.018755 0.000000 -0.001928 0.000000
# 4 0.000000 0.000000 0.000000 0.034442 0.000000 -0.006033
# 5 0.000037 -0.000519 -0.001928 0.000000 0.026254 0.000000
# 6 0.000000 0.000000 0.000000 -0.006033 0.000000 0.031519
#
#
# Mechanical properties :
#
#
# Convention : Reuss Voigt Hill
#
# Bulk Modulus (GPa) = 66.68603 84.90647 75.79625
# Shear Modulus (GPa) = 27.92511 32.85648 30.39079
#
# Velocity S-wave (km/s) = 3.88895 4.21838 4.05701
# Velocity P-wave (km/s) = 7.50211 8.34930 7.93702
#
# Compressibility (1/GPa) = 0.01499564
#
# Stress axis : x y z
#
# Youngs Moduli (GPa) = 104.75680 49.71498 53.31848
#
# Poissons Ratio (x) = -0.03950 0.41811
# Poissons Ratio (y) = -0.08324 0.51521
# Poissons Ratio (z) = 0.82147 0.48039
#
# Static dielectric constant tensor:
#      x y z
#    x 1.625150 0.000000 -0.015520 
#    y 0.000000 1.609680 0.000000 
#    z -0.015520 0.000000 1.638790 
# 
# From -- ./inp_files/59124.got.cif
#   From: 2010.05.17/outbox.cif.g08.bks.cpg/sg14_30_cif.got.tgz:59124.got - 2010.06.03 17:49:19.
