data_PCOD9248477
_publ_section_title
;
Structure prediction by ZEFSAII (Michael W. Deem and Ramdas Pophale) SiO2 
 PCOD9248477
Probable space group: P 21/C
;
_chemical_formula_sum "Si O2"
_cell_formula_units_Z 24
_cell_length_a 10.855377
_cell_length_b 12.066347
_cell_length_c 21.373431
_cell_angle_alpha 90.000000
_cell_angle_beta 156.634528
_cell_angle_gamma 90.000000
_cell_volume 1110.304067
_symmetry_space_group_name_H-M "P 21/C"
_symmetry_group_IT_number 14
_symmetry_cell_setting 'monoclinic'
loop_
_space_group_symop_operation_xyz
x,y,z
-x,1/2+y,1/2-z
-x,-y,-z
x,1/2-y,1/2+z
loop_
_atom_site_type_symbol
_atom_site_label
_atom_site_fract_x
_atom_site_fract_y
_atom_site_fract_z
Si Si1 0.347306 0.856359 0.281318
Si Si2 0.381873 0.625923 0.942680
Si Si3 0.329419 0.948496 0.636990
Si Si4 0.236967 0.346213 0.569723
Si Si5 0.206302 0.704442 0.523920
Si Si6 0.222059 0.283868 0.281232
O O1 0.386082 0.837039 0.372688
O O2 0.552180 0.763637 0.340517
O O3 0.489460 0.972458 0.325828
O O4 0.983766 0.856996 0.093110
O O5 0.030209 0.637248 0.804316
O O6 0.500000 0.500000 0.000000
O O7 0.594618 0.707491 0.083848
O O8 0.520295 0.934490 0.790458
O O9 0.283587 0.829527 0.582903
O O10 0.000000 0.000000 0.500000
O O11 0.980218 0.344403 0.505289
O O12 0.526251 0.656735 0.646191
O O13 0.975445 0.707657 0.357794
#
# Coordination Sequence:
#
# PCOD9248477 Si02
#       6
#     4   4   4   4   4   4
#     4  12  23  42  66  96 142 176 227 286 346 414
#     4  11  25  46  68 100 138 188 240 287 343 409
#     4  12  24  41  65 104 139 177 220 280 357 422
#     4  12  23  41  67 101 137 179 221 287 356 414
#     4  11  20  41  67  95 133 172 227 275 346 405
#     4  10  22  42  70  93 134 187 231 284 333 409
#
# _framework density 21.615701000000001
#
# number of rings (size 3 to 8) (size 9 to 14) (size 15 to 20)
#    0.000    0.667    5.000    3.500    0.000    0.000 
#    0.000    3.333    0.000    0.000    0.000    0.000 
#    0.000    0.000    0.000    0.000    0.000    0.000 
#
# Total GULP energy -134180.853735 kJ/mol
# GULP energy per Si atom -5590.868906 kJ/mol
# Density = 2.156650 g / cm^3
# Si number density = 21.615701 Si / 1000 Ang^3
#
#
#
# Elastic Constant Matrix: (Units=GPa)
#
#
# Indices 1 2 3 4 5 6 
#
# 1 108.5773 43.1017 56.8999 0.0000 -0.2740 0.0000
# 2 43.1017 71.3682 48.4000 0.0000 9.5721 0.0000
# 3 56.8999 48.4000 160.2694 0.0000 9.9695 0.0000
# 4 0.0000 0.0000 0.0000 35.6070 0.0000 2.0985
# 5 -0.2740 9.5721 9.9695 0.0000 48.3851 0.0000
# 6 0.0000 0.0000 0.0000 2.0985 0.0000 24.7325
#
#
#
# Elastic Compliance Matrix: (Units=1/GPa)
#
#
# Indices 1 2 3 4 5 6 
#
# 1 0.013236 -0.006266 -0.002926 0.000000 0.001918 0.000000
# 2 -0.006266 0.020872 -0.003869 0.000000 -0.003367 0.000000
# 3 -0.002926 -0.003869 0.008509 0.000000 -0.001004 0.000000
# 4 0.000000 0.000000 0.000000 0.028226 0.000000 -0.002395
# 5 0.001918 -0.003367 -0.001004 0.000000 0.021552 0.000000
# 6 0.000000 0.000000 0.000000 -0.002395 0.000000 0.040636
#
#
# Mechanical properties :
#
#
# Convention : Reuss Voigt Hill
#
# Bulk Modulus (GPa) = 60.62739 70.77981 65.70360
# Shear Modulus (GPa) = 30.36740 34.53245 32.44992
#
# Velocity S-wave (km/s) = 3.75224 4.00129 3.87876
# Velocity P-wave (km/s) = 6.84698 7.35954 7.10788
#
# Compressibility (1/GPa) = 0.01649420
#
# Stress axis : x y z
#
# Youngs Moduli (GPa) = 75.55277 47.91155 117.52097
#
# Poissons Ratio (x) = 0.30024 0.34386
# Poissons Ratio (y) = 0.47345 0.45467
# Poissons Ratio (z) = 0.22106 0.18536
#
# Static dielectric constant tensor:
#      x y z
#    x 1.793160 0.000000 -0.004770 
#    y 0.000000 1.799130 0.000000 
#    z -0.004770 0.000000 1.822390 
# 
# From -- ./inp_files/16126.got.cif
#   From: 2010.05.17/outbox.cif.g08.bks.cpg/sg14_9_cif.got.tgz:16126.got - 2010.06.03 17:49:19.
