data_PCOD9248915
_publ_section_title
;
Structure prediction by ZEFSAII (Michael W. Deem and Ramdas Pophale) SiO2 
 PCOD9248915
Probable space group: P 21/C
;
_chemical_formula_sum "Si O2"
_cell_formula_units_Z 32
_cell_length_a 22.506776
_cell_length_b 8.573655
_cell_length_c 14.122939
_cell_angle_alpha 90.000000
_cell_angle_beta 31.559633
_cell_angle_gamma 90.000000
_cell_volume 1426.350408
_symmetry_space_group_name_H-M "P 21/C"
_symmetry_group_IT_number 14
_symmetry_cell_setting 'monoclinic'
loop_
_space_group_symop_operation_xyz
x,y,z
-x,1/2+y,1/2-z
-x,-y,-z
x,1/2-y,1/2+z
loop_
_atom_site_type_symbol
_atom_site_label
_atom_site_fract_x
_atom_site_fract_y
_atom_site_fract_z
Si Si1 0.547198 0.674022 0.956529
Si Si2 0.305185 0.692228 0.333686
Si Si3 0.165335 0.894101 0.671823
Si Si4 0.949426 0.656605 0.783002
Si Si5 0.074276 0.402945 0.974987
Si Si6 0.260043 0.312410 0.148887
Si Si7 0.288869 0.165745 0.919661
Si Si8 0.848846 0.282070 0.116598
O O1 0.434519 0.750617 0.151385
O O2 0.500000 0.500000 0.000000
O O3 0.649638 0.671145 0.891404
O O4 0.605687 0.737143 0.781838
O O5 0.235086 0.801853 0.498766
O O6 0.289248 0.516181 0.392899
O O7 0.252886 0.697557 0.299373
O O8 0.130440 0.782197 0.806025
O O9 0.069918 0.993334 0.745846
O O10 0.240383 0.026482 0.621078
O O11 0.041349 0.748119 0.597163
O O12 0.983830 0.628576 0.845113
O O13 0.830074 0.750599 0.945970
O O14 0.138192 0.250828 0.850579
O O15 0.172069 0.533100 0.860231
O O16 0.000000 0.500000 0.000000
O O17 0.301498 0.190700 0.013695
#
# Coordination Sequence:
#
# PCOD9248915 Si02
#       8
#     4   4   4   4   4   4   4   4
#     4  10  22  44  72 101 136 185 237 294 361 421
#     4  11  25  43  69 102 138 181 235 300 357 420
#     4  11  24  46  65 103 137 181 239 287 360 430
#     4  11  25  44  70  98 141 187 234 288 360 435
#     4  12  26  44  68 103 140 186 240 285 361 434
#     4  11  24  44  72  99 140 188 234 294 359 428
#     4  10  22  45  69  99 135 186 234 288 360 431
#     4  12  27  42  68 100 142 182 231 294 356 431
#
# _framework density 22.434881000000001
#
# number of rings (size 3 to 8) (size 9 to 14) (size 15 to 20)
#    0.000    1.000    2.500    4.125    5.250    3.000 
#    0.000    5.625    0.000    0.000    0.000    0.000 
#    0.000    0.000    0.000    0.000    0.000    0.000 
#
# Total GULP energy -179018.507650 kJ/mol
# GULP energy per Si atom -5594.328364 kJ/mol
# Density = 2.238382 g / cm^3
# Si number density = 22.434881 Si / 1000 Ang^3
#
#
#
# Elastic Constant Matrix: (Units=GPa)
#
#
# Indices 1 2 3 4 5 6 
#
# 1 122.7141 2.2440 43.1886 0.0000 18.1141 0.0000
# 2 2.2440 60.0621 6.4599 0.0000 -2.9488 0.0000
# 3 43.1886 6.4599 101.5622 0.0000 -1.4019 0.0000
# 4 0.0000 0.0000 0.0000 27.0009 0.0000 6.4963
# 5 18.1141 -2.9488 -1.4019 0.0000 36.1237 0.0000
# 6 0.0000 0.0000 0.0000 6.4963 0.0000 36.5881
#
#
#
# Elastic Compliance Matrix: (Units=1/GPa)
#
#
# Indices 1 2 3 4 5 6 
#
# 1 0.010567 -0.000174 -0.004558 0.000000 -0.005490 0.000000
# 2 -0.000174 0.016831 -0.000977 0.000000 0.001423 0.000000
# 3 -0.004558 -0.000977 0.011883 0.000000 0.002667 0.000000
# 4 0.000000 0.000000 0.000000 0.038688 0.000000 -0.006869
# 5 -0.005490 0.001423 0.002667 0.000000 0.030655 0.000000
# 6 0.000000 0.000000 0.000000 -0.006869 0.000000 0.028551
#
#
# Mechanical properties :
#
#
# Convention : Reuss Voigt Hill
#
# Bulk Modulus (GPa) = 35.88999 43.12485 39.50742
# Shear Modulus (GPa) = 31.66933 35.43895 33.55414
#
# Velocity S-wave (km/s) = 3.76122 3.97878 3.87152
# Velocity P-wave (km/s) = 5.90715 6.35386 6.13457
#
# Compressibility (1/GPa) = 0.02786292
#
# Stress axis : x y z
#
# Youngs Moduli (GPa) = 94.63616 59.41461 84.15059
#
# Poissons Ratio (x) = 0.01034 0.38357
# Poissons Ratio (y) = 0.01647 0.08220
# Poissons Ratio (z) = 0.43137 0.05804
#
# Static dielectric constant tensor:
#      x y z
#    x 1.864010 0.000000 -0.019130 
#    y 0.000000 1.891520 0.000000 
#    z -0.019130 0.000000 1.847000 
# 
# From -- ./inp_files/51256.got.cif
#   From: 2010.05.17/outbox.cif.g08.bks.cpg/sg14_26_cif.got.tgz:51256.got - 2010.06.03 17:49:19.
