data_PCOD9248450
_publ_section_title
;
Structure prediction by ZEFSAII (Michael W. Deem and Ramdas Pophale) SiO2 
 PCOD9248450
Probable space group: P 21/C
;
_chemical_formula_sum "Si O2"
_cell_formula_units_Z 30
_cell_length_a 9.442711
_cell_length_b 7.595229
_cell_length_c 27.342231
_cell_angle_alpha 90.000000
_cell_angle_beta 33.531125
_cell_angle_gamma 90.000000
_cell_volume 1083.221439
_symmetry_space_group_name_H-M "P 21/C"
_symmetry_group_IT_number 14
_symmetry_cell_setting 'monoclinic'
loop_
_space_group_symop_operation_xyz
x,y,z
-x,1/2+y,1/2-z
-x,-y,-z
x,1/2-y,1/2+z
loop_
_atom_site_type_symbol
_atom_site_label
_atom_site_fract_x
_atom_site_fract_y
_atom_site_fract_z
Si Si1 0.683480 0.815868 0.215958
Si Si2 0.762848 0.745311 0.505982
Si Si3 0.500000 0.000000 0.000000
Si Si4 0.465871 0.661849 0.674264
Si Si5 0.690919 0.831647 0.362176
Si Si6 0.956121 0.025168 0.826802
Si Si7 0.289721 0.716460 0.407176
Si Si8 0.964780 0.517449 0.863694
O O1 0.626049 0.799396 0.176311
O O2 0.423810 0.803198 0.321264
O O3 0.823888 0.990283 0.195388
O O4 0.865295 0.654564 0.178072
O O5 0.690106 0.589620 0.489174
O O6 0.523846 0.783059 0.611289
O O7 0.871718 0.898727 0.440588
O O8 0.993827 0.704827 0.478439
O O9 0.728938 0.133551 0.917706
O O10 0.572228 0.471706 0.627620
O O11 0.173870 0.641367 0.774634
O O12 0.770615 0.639580 0.363730
O O13 0.409527 0.813659 0.419795
O O14 0.729878 0.970477 0.393798
O O15 0.893578 0.884052 0.261042
#
# Coordination Sequence:
#
# PCOD9248450 Si02
#       8
#     4   4   2   4   4   4   4   4
#     4  10  23  44  72 106 152 195 254 299 388 444
#     4  12  24  43  74 104 148 189 247 308 375 437
#     4  12  24  44  72 112 142 192 254 306 378 456
#     4  11  23  41  70 104 143 195 244 306 369 460
#     4  11  22  43  71 106 144 191 255 296 374 449
#     4  11  23  42  75 103 145 195 242 313 359 454
#     4  10  22  42  69 108 138 189 244 308 363 443
#     4  11  24  45  73 106 148 196 242 320 369 456
#
# _framework density 27.695169
#
# number of rings (size 3 to 8) (size 9 to 14) (size 15 to 20)
#    0.000    1.067    2.667    5.200    0.000    1.600 
#    0.000    0.667    8.800    0.000    0.000    0.000 
#    0.000    0.000    0.000    0.000    0.000    0.000 
#
# Total GULP energy -167506.486474 kJ/mol
# GULP energy per Si atom -5583.549549 kJ/mol
# Density = 2.763213 g / cm^3
# Si number density = 27.695169 Si / 1000 Ang^3
#
#
#
# Elastic Constant Matrix: (Units=GPa)
#
#
# Indices 1 2 3 4 5 6 
#
# 1 228.3409 48.8564 50.4311 0.0000 4.7179 0.0000
# 2 48.8564 83.3124 17.1307 0.0000 -7.8158 0.0000
# 3 50.4311 17.1307 134.5049 0.0000 1.7182 0.0000
# 4 0.0000 0.0000 0.0000 2.3804 0.0000 -0.6876
# 5 4.7179 -7.8158 1.7182 0.0000 41.8378 0.0000
# 6 0.0000 0.0000 0.0000 -0.6876 0.0000 36.4362
#
#
#
# Elastic Compliance Matrix: (Units=1/GPa)
#
#
# Indices 1 2 3 4 5 6 
#
# 1 0.005389 -0.002926 -0.001634 0.000000 -0.001087 0.000000
# 2 -0.002926 0.014154 -0.000744 0.000000 0.003005 0.000000
# 3 -0.001634 -0.000744 0.008146 0.000000 -0.000289 0.000000
# 4 0.000000 0.000000 0.000000 0.422408 0.000000 0.007971
# 5 -0.001087 0.003005 -0.000289 0.000000 0.024598 0.000000
# 6 0.000000 0.000000 0.000000 0.007971 0.000000 0.027596
#
#
# Mechanical properties :
#
#
# Convention : Reuss Voigt Hill
#
# Bulk Modulus (GPa) = 58.54654 75.44384 66.99519
# Shear Modulus (GPa) = 9.64151 38.11355 23.87753
#
# Velocity S-wave (km/s) = 1.86785 3.71372 2.93943
# Velocity P-wave (km/s) = 5.08304 6.75935 5.98022
#
# Compressibility (1/GPa) = 0.01708043
#
# Stress axis : x y z
#
# Youngs Moduli (GPa) = 185.56882 70.65234 122.76368
#
# Poissons Ratio (x) = 0.20674 0.20059
# Poissons Ratio (y) = 0.54301 0.09132
# Poissons Ratio (z) = 0.30320 0.05256
#
# Static dielectric constant tensor:
#      x y z
#    x 2.123120 0.000000 -0.030920 
#    y 0.000000 2.063220 0.000000 
#    z -0.030920 0.000000 1.984590 
# 
# From -- ./inp_files/76483.got.cif
#   From: 2010.05.17/outbox.cif.g08.bks.cpg/sg14_39_cif.got.tgz:76483.got - 2010.06.03 17:49:19.
