data_PCOD9248610
_publ_section_title
;
Structure prediction by ZEFSAII (Michael W. Deem and Ramdas Pophale) SiO2 
 PCOD9248610
Probable space group: P 21/C
;
_chemical_formula_sum "Si O2"
_cell_formula_units_Z 20
_cell_length_a 6.303340
_cell_length_b 11.483482
_cell_length_c 14.114856
_cell_angle_alpha 90.000000
_cell_angle_beta 64.669060
_cell_angle_gamma 90.000000
_cell_volume 923.459665
_symmetry_space_group_name_H-M "P 21/C"
_symmetry_group_IT_number 14
_symmetry_cell_setting 'monoclinic'
loop_
_space_group_symop_operation_xyz
x,y,z
-x,1/2+y,1/2-z
-x,-y,-z
x,1/2-y,1/2+z
loop_
_atom_site_type_symbol
_atom_site_label
_atom_site_fract_x
_atom_site_fract_y
_atom_site_fract_z
Si Si1 0.105240 0.409240 0.554117
Si Si2 0.572394 0.985652 0.595147
Si Si3 0.097275 0.429340 0.269182
Si Si4 0.177475 0.683347 0.843547
Si Si5 0.355788 0.225395 0.866851
O O1 0.096473 0.481023 0.653213
O O2 0.928714 0.300910 0.595117
O O3 0.000000 0.500000 0.500000
O O4 0.339234 0.354704 0.464414
O O5 0.337510 0.001203 0.703641
O O6 0.741582 0.090262 0.594222
O O7 0.500000 0.000000 0.500000
O O8 0.677446 0.858999 0.597512
O O9 0.161352 0.327355 0.331921
O O10 0.014782 0.373763 0.187759
O O11 0.400073 0.711562 0.734423
#
# Coordination Sequence:
#
# PCOD9248610 Si02
#       5
#     4   4   4   4   4
#     4  10  22  43  66  98 132 174 224 272 335 400
#     4  11  24  42  66  99 136 177 225 275 337 400
#     4  10  23  42  67  98 137 174 229 273 331 404
#     4  11  24  43  69  96 136 178 220 286 330 397
#     4  10  23  42  67  98 134 175 221 272 336 402
#
# _framework density 21.657685000000001
#
# number of rings (size 3 to 8) (size 9 to 14) (size 15 to 20)
#    0.000    1.600    2.000    1.200    2.800    7.200 
#    0.000    0.000    0.000    0.000    0.000    0.000 
#    0.000    0.000    0.000    0.000    0.000    0.000 
#
# Total GULP energy -111776.505598 kJ/mol
# GULP energy per Si atom -5588.825280 kJ/mol
# Density = 2.160839 g / cm^3
# Si number density = 21.657685 Si / 1000 Ang^3
#
#
#
# Elastic Constant Matrix: (Units=GPa)
#
#
# Indices 1 2 3 4 5 6 
#
# 1 51.6507 41.5601 23.1770 0.0000 10.2362 0.0000
# 2 41.5601 179.9150 67.3543 0.0000 12.3547 0.0000
# 3 23.1770 67.3543 96.9971 0.0000 1.3805 0.0000
# 4 0.0000 0.0000 0.0000 54.0340 0.0000 -3.1456
# 5 10.2362 12.3547 1.3805 0.0000 31.4295 0.0000
# 6 0.0000 0.0000 0.0000 -3.1456 0.0000 17.5236
#
#
#
# Elastic Compliance Matrix: (Units=1/GPa)
#
#
# Indices 1 2 3 4 5 6 
#
# 1 0.025458 -0.004316 -0.002994 0.000000 -0.006463 0.000000
# 2 -0.004316 0.008483 -0.004835 0.000000 -0.001717 0.000000
# 3 -0.002994 -0.004835 0.014350 0.000000 0.002245 0.000000
# 4 0.000000 0.000000 0.000000 0.018702 0.000000 0.003357
# 5 -0.006463 -0.001717 0.002245 0.000000 0.034498 0.000000
# 6 0.000000 0.000000 0.000000 0.003357 0.000000 0.057668
#
#
# Mechanical properties :
#
#
# Convention : Reuss Voigt Hill
#
# Bulk Modulus (GPa) = 41.66399 65.86062 53.76231
# Shear Modulus (GPa) = 26.11632 33.69552 29.90592
#
# Velocity S-wave (km/s) = 3.47633 3.94867 3.72000
# Velocity P-wave (km/s) = 5.94915 7.15997 6.58246
#
# Compressibility (1/GPa) = 0.02400154
#
# Stress axis : x y z
#
# Youngs Moduli (GPa) = 39.28027 117.88169 69.68464
#
# Poissons Ratio (x) = 0.50879 0.20864
# Poissons Ratio (y) = 0.16954 0.33692
# Poissons Ratio (z) = 0.11761 0.56994
#
# Static dielectric constant tensor:
#      x y z
#    x 1.772990 0.000000 -0.046180 
#    y 0.000000 1.756010 0.000000 
#    z -0.046180 0.000000 1.847010 
# 
# From -- ./inp_files/36834.got.cif
#   From: 2010.05.17/outbox.cif.g08.bks.cpg/sg14_19_cif.got.tgz:36834.got - 2010.06.03 17:49:19.
