data_PCOD9248533
_publ_section_title
;
Structure prediction by ZEFSAII (Michael W. Deem and Ramdas Pophale) SiO2 
 PCOD9248533
Probable space group: P 21/C
;
_chemical_formula_sum "Si O2"
_cell_formula_units_Z 26
_cell_length_a 7.741437
_cell_length_b 13.608624
_cell_length_c 10.997386
_cell_angle_alpha 90.000000
_cell_angle_beta 87.921074
_cell_angle_gamma 90.000000
_cell_volume 1157.815402
_symmetry_space_group_name_H-M "P 21/C"
_symmetry_group_IT_number 14
_symmetry_cell_setting 'monoclinic'
loop_
_space_group_symop_operation_xyz
x,y,z
-x,1/2+y,1/2-z
-x,-y,-z
x,1/2-y,1/2+z
loop_
_atom_site_type_symbol
_atom_site_label
_atom_site_fract_x
_atom_site_fract_y
_atom_site_fract_z
Si Si1 0.585620 0.791704 0.126264
Si Si2 0.247952 0.495756 0.380028
Si Si3 0.000000 0.000000 0.500000
Si Si4 0.095890 0.324477 0.824534
Si Si5 0.893106 0.159150 0.686389
Si Si6 0.163741 0.010045 0.153442
Si Si7 0.395746 0.795105 0.869914
O O1 0.752784 0.722578 0.100163
O O2 0.487521 0.748135 0.246736
O O3 0.657841 0.897928 0.164133
O O4 0.489618 0.796530 0.998568
O O5 0.261156 0.496325 0.525440
O O6 0.332769 0.596219 0.334857
O O7 0.042260 0.494429 0.361049
O O8 0.987839 0.912387 0.396022
O O9 0.000515 0.912646 0.604531
O O10 0.184705 0.383070 0.710506
O O11 0.983606 0.235302 0.775054
O O12 0.778977 0.079328 0.762669
O O13 0.772403 0.226254 0.606041
#
# Coordination Sequence:
#
# PCOD9248533 Si02
#       7
#     4   4   2   4   4   4   4
#     4  12  28  46  72 104 149 190 233 300 377 447
#     4  11  23  43  72 102 138 188 243 291 354 444
#     4  10  28  40  74 114 140 184 266 310 360 444
#     4  11  24  45  72 103 144 189 245 304 365 431
#     4  11  24  45  72 103 144 189 245 304 365 431
#     4  10  22  42  74 105 130 184 251 298 341 438
#     4  12  28  46  72 104 149 190 233 300 377 447
#
# _framework density 22.456081999999999
#
# number of rings (size 3 to 8) (size 9 to 14) (size 15 to 20)
#    0.000    0.923    3.077    2.308    8.615    2.462 
#    0.000    3.846    0.000    0.000    0.000    0.000 
#    0.000    0.000    0.000    0.000    0.000    0.000 
#
# Total GULP energy -144772.180735 kJ/mol
# GULP energy per Si atom -5568.160798 kJ/mol
# Density = 2.240497 g / cm^3
# Si number density = 22.456082 Si / 1000 Ang^3
#
#
#
# Elastic Constant Matrix: (Units=GPa)
#
#
# Indices 1 2 3 4 5 6 
#
# 1 61.0948 34.5043 7.8285 0.0000 12.2231 0.0000
# 2 34.5043 153.9287 13.7906 0.0000 -15.7550 0.0000
# 3 7.8285 13.7906 77.9512 0.0000 -12.2664 0.0000
# 4 0.0000 0.0000 0.0000 46.4171 0.0000 1.2370
# 5 12.2231 -15.7550 -12.2664 0.0000 31.7735 0.0000
# 6 0.0000 0.0000 0.0000 1.2370 0.0000 34.3625
#
#
#
# Elastic Compliance Matrix: (Units=1/GPa)
#
#
# Indices 1 2 3 4 5 6 
#
# 1 0.022913 -0.006188 -0.003275 0.000000 -0.013147 0.000000
# 2 -0.006188 0.008553 0.000160 0.000000 0.006684 0.000000
# 3 -0.003275 0.000160 0.014203 0.000000 0.006822 0.000000
# 4 0.000000 0.000000 0.000000 0.021564 0.000000 -0.000776
# 5 -0.013147 0.006684 0.006822 0.000000 0.042478 0.000000
# 6 0.000000 0.000000 0.000000 -0.000776 0.000000 0.029129
#
#
# Mechanical properties :
#
#
# Convention : Reuss Voigt Hill
#
# Bulk Modulus (GPa) = 36.95209 45.02462 40.98835
# Shear Modulus (GPa) = 30.03555 38.30072 34.16814
#
# Velocity S-wave (km/s) = 3.66119 4.13435 3.90494
# Velocity P-wave (km/s) = 5.86203 6.54859 6.21480
#
# Compressibility (1/GPa) = 0.02706207
#
# Stress axis : x y z
#
# Youngs Moduli (GPa) = 43.64323 116.91190 70.40908
#
# Poissons Ratio (x) = 0.72350 0.23060
# Poissons Ratio (y) = 0.27008 -0.01127
# Poissons Ratio (z) = 0.14294 -0.01871
#
# Static dielectric constant tensor:
#      x y z
#    x 1.895870 0.000000 -0.026440 
#    y 0.000000 1.775740 0.000000 
#    z -0.026440 0.000000 1.874120 
# 
# From -- ./inp_files/24219.got.cif
#   From: 2010.05.17/outbox.cif.g08.bks.cpg/sg14_13_cif.got.tgz:24219.got - 2010.06.03 17:49:19.
