data_PCOD9248260
_publ_section_title
;
Structure prediction by ZEFSAII (Michael W. Deem and Ramdas Pophale) SiO2 
 PCOD9248260
Probable space group: P 21/C
;
_chemical_formula_sum "Si O2"
_cell_formula_units_Z 28
_cell_length_a 10.476383
_cell_length_b 20.529789
_cell_length_c 8.660806
_cell_angle_alpha 90.000000
_cell_angle_beta 42.787727
_cell_angle_gamma 90.000000
_cell_volume 1265.335306
_symmetry_space_group_name_H-M "P 21/C"
_symmetry_group_IT_number 14
_symmetry_cell_setting 'monoclinic'
loop_
_space_group_symop_operation_xyz
x,y,z
-x,1/2+y,1/2-z
-x,-y,-z
x,1/2-y,1/2+z
loop_
_atom_site_type_symbol
_atom_site_label
_atom_site_fract_x
_atom_site_fract_y
_atom_site_fract_z
Si Si1 0.779677 0.895181 0.443971
Si Si2 0.403930 0.443648 0.186571
Si Si3 0.543072 0.034555 0.119934
Si Si4 0.112265 0.758880 0.428017
Si Si5 0.816023 0.349468 0.422902
Si Si6 0.321876 0.216649 0.222778
Si Si7 0.550605 0.321951 0.213770
O O1 0.722252 0.900817 0.315612
O O2 0.717223 0.832107 0.598779
O O3 0.002051 0.894596 0.253976
O O4 0.663348 0.953209 0.624940
O O5 0.324585 0.486742 0.396698
O O6 0.539639 0.392978 0.150328
O O7 0.500000 0.500000 0.000000
O O8 0.642086 0.104885 0.037394
O O9 0.500000 0.000000 0.000000
O O10 0.154572 0.790778 0.224773
O O11 0.186532 0.686849 0.408813
O O12 0.237394 0.804969 0.427137
O O13 0.886329 0.759908 0.646351
O O14 0.455454 0.272194 0.176098
O O15 0.424806 0.185524 0.982175
#
# Coordination Sequence:
#
# PCOD9248260 Si02
#       7
#     4   4   4   4   4   4   4
#     4  10  22  42  61  91 127 158 205 264 315 374
#     4  10  23  41  63  88 123 167 211 255 307 378
#     4  11  23  43  65  90 125 171 219 258 310 381
#     4  11  23  39  62  95 123 156 205 259 322 384
#     4  11  24  40  63  92 126 162 207 263 320 383
#     4  11  23  39  66  95 125 160 204 261 322 386
#     4  12  22  40  65  91 126 165 202 260 323 369
#
# _framework density 22.128520999999999
#
# number of rings (size 3 to 8) (size 9 to 14) (size 15 to 20)
#    0.000    1.143    0.000    7.714    0.000    4.571 
#    0.000    4.286    0.000    0.000    0.000    0.000 
#    0.000    0.000    0.000    0.000    0.000    0.000 
#
# Total GULP energy -156209.879799 kJ/mol
# GULP energy per Si atom -5578.924279 kJ/mol
# Density = 2.207816 g / cm^3
# Si number density = 22.128521 Si / 1000 Ang^3
#
#
#
# Elastic Constant Matrix: (Units=GPa)
#
#
# Indices 1 2 3 4 5 6 
#
# 1 133.9419 54.5977 68.8677 0.0000 -2.4622 0.0000
# 2 54.5977 87.6065 33.1853 0.0000 7.9724 0.0000
# 3 68.8677 33.1853 62.9061 0.0000 -1.0718 0.0000
# 4 0.0000 0.0000 0.0000 30.1434 0.0000 10.0738
# 5 -2.4622 7.9724 -1.0718 0.0000 39.0099 0.0000
# 6 0.0000 0.0000 0.0000 10.0738 0.0000 52.5497
#
#
#
# Elastic Compliance Matrix: (Units=1/GPa)
#
#
# Indices 1 2 3 4 5 6 
#
# 1 0.018705 -0.005085 -0.017765 0.000000 0.001732 0.000000
# 2 -0.005085 0.016039 -0.002957 0.000000 -0.003680 0.000000
# 3 -0.017765 -0.002957 0.036914 0.000000 0.000497 0.000000
# 4 0.000000 0.000000 0.000000 0.035446 0.000000 -0.006795
# 5 0.001732 -0.003680 0.000497 0.000000 0.026510 0.000000
# 6 0.000000 0.000000 0.000000 -0.006795 0.000000 0.020332
#
#
# Mechanical properties :
#
#
# Convention : Reuss Voigt Hill
#
# Bulk Modulus (GPa) = 49.89240 66.41732 58.15486
# Shear Modulus (GPa) = 23.55821 32.86085 28.20953
#
# Velocity S-wave (km/s) = 3.26637 3.85775 3.57431
# Velocity P-wave (km/s) = 6.06805 7.06559 6.58573
#
# Compressibility (1/GPa) = 0.02004313
#
# Stress axis : x y z
#
# Youngs Moduli (GPa) = 53.46195 62.34917 27.09006
#
# Poissons Ratio (x) = 0.31706 0.48127
# Poissons Ratio (y) = 0.27187 0.08009
# Poissons Ratio (z) = 0.94977 0.18434
#
# Static dielectric constant tensor:
#      x y z
#    x 1.724650 0.000000 0.015440 
#    y 0.000000 1.834440 0.000000 
#    z 0.015440 0.000000 1.849350 
# 
# From -- ./inp_files/10366.got.cif
#   From: 2010.05.17/outbox.cif.g08.bks.cpg/sg14_6_cif.got.tgz:10366.got - 2010.06.03 17:49:19.
