data_PCOD9248766
_publ_section_title
;
Structure prediction by ZEFSAII (Michael W. Deem and Ramdas Pophale) SiO2 
 PCOD9248766
Probable space group: P 21/C
;
_chemical_formula_sum "Si O2"
_cell_formula_units_Z 28
_cell_length_a 26.167791
_cell_length_b 8.462980
_cell_length_c 9.870581
_cell_angle_alpha 90.000000
_cell_angle_beta 33.604784
_cell_angle_gamma 90.000000
_cell_volume 1209.818414
_symmetry_space_group_name_H-M "P 21/C"
_symmetry_group_IT_number 14
_symmetry_cell_setting 'monoclinic'
loop_
_space_group_symop_operation_xyz
x,y,z
-x,1/2+y,1/2-z
-x,-y,-z
x,1/2-y,1/2+z
loop_
_atom_site_type_symbol
_atom_site_label
_atom_site_fract_x
_atom_site_fract_y
_atom_site_fract_z
Si Si1 0.729830 0.554952 0.672493
Si Si2 0.436289 0.723666 0.208701
Si Si3 0.942867 0.689501 0.501169
Si Si4 0.525248 0.071280 0.647663
Si Si5 0.766351 0.135988 0.824758
Si Si6 0.102512 0.618461 0.544691
Si Si7 0.174266 0.140093 0.472374
O O1 0.748426 0.492883 0.480181
O O2 0.809436 0.464893 0.580950
O O3 0.744746 0.739547 0.664844
O O4 0.625811 0.508519 0.934986
O O5 0.492832 0.852715 0.167456
O O6 0.456588 0.555985 0.237111
O O7 0.326434 0.740636 0.469246
O O8 0.464164 0.706511 0.991131
O O9 0.953504 0.519957 0.405457
O O10 0.897404 0.657513 0.745996
O O11 0.874764 0.789641 0.553543
O O12 0.036239 0.790010 0.294367
O O13 0.853523 0.250491 0.651446
O O14 0.788021 0.034281 0.642234
#
# Coordination Sequence:
#
# PCOD9248766 Si02
#       7
#     4   4   4   4   4   4   4
#     4  10  23  43  65  92 135 167 217 269 320 384
#     4  10  23  41  68  95 134 169 212 267 319 388
#     4  11  26  41  67  94 127 169 221 263 330 373
#     4  10  22  44  64 101 130 172 212 262 326 381
#     4  11  23  42  66  94 130 172 213 273 321 384
#     4  11  25  42  67  95 127 171 216 275 318 392
#     4  11  24  44  62  98 126 176 213 270 316 392
#
# _framework density 23.143969999999999
#
# number of rings (size 3 to 8) (size 9 to 14) (size 15 to 20)
#    0.000    1.429    2.857    0.857    6.000    2.857 
#    0.000    0.000    0.000    0.000    0.000    0.000 
#    0.000    0.000    0.000    0.000    0.000    0.000 
#
# Total GULP energy -156568.262883 kJ/mol
# GULP energy per Si atom -5591.723674 kJ/mol
# Density = 2.309129 g / cm^3
# Si number density = 23.143970 Si / 1000 Ang^3
#
#
#
# Elastic Constant Matrix: (Units=GPa)
#
#
# Indices 1 2 3 4 5 6 
#
# 1 60.4972 -6.9106 0.1986 0.0000 3.3935 0.0000
# 2 -6.9106 38.9389 -11.4136 0.0000 3.2217 0.0000
# 3 0.1986 -11.4136 33.5664 0.0000 2.0884 0.0000
# 4 0.0000 0.0000 0.0000 20.6947 0.0000 -9.0850
# 5 3.3935 3.2217 2.0884 0.0000 12.9371 0.0000
# 6 0.0000 0.0000 0.0000 -9.0850 0.0000 28.5509
#
#
#
# Elastic Compliance Matrix: (Units=1/GPa)
#
#
# Indices 1 2 3 4 5 6 
#
# 1 0.017310 0.004030 0.001629 0.000000 -0.005807 0.000000
# 2 0.004030 0.030480 0.010989 0.000000 -0.010421 0.000000
# 3 0.001629 0.010989 0.034057 0.000000 -0.008662 0.000000
# 4 0.000000 0.000000 0.000000 0.056168 0.000000 0.017873
# 5 -0.005807 -0.010421 -0.008662 0.000000 0.082814 0.000000
# 6 0.000000 0.000000 0.000000 0.017873 0.000000 0.040712
#
#
# Mechanical properties :
#
#
# Convention : Reuss Voigt Hill
#
# Bulk Modulus (GPa) = 8.68480 10.75013 9.71746
# Shear Modulus (GPa) = 18.75281 22.51174 20.63228
#
# Velocity S-wave (km/s) = 2.84961 3.12217 2.98900
# Velocity P-wave (km/s) = 3.81938 4.20146 4.01497
#
# Compressibility (1/GPa) = 0.11514370
#
# Stress axis : x y z
#
# Youngs Moduli (GPa) = 57.76849 32.80872 29.36221
#
# Poissons Ratio (x) = -0.13223 -0.04784
# Poissons Ratio (y) = -0.23282 -0.32265
# Poissons Ratio (z) = -0.09412 -0.36052
#
# Static dielectric constant tensor:
#      x y z
#    x 1.859860 0.000000 0.005750 
#    y 0.000000 1.889310 0.000000 
#    z 0.005750 0.000000 1.828030 
# 
# From -- ./inp_files/19638.got.cif
#   From: 2010.05.17/outbox.cif.g08.bks.cpg/sg14_10_cif.got.tgz:19638.got - 2010.06.03 17:49:19.
