data_PCOD9248416
_publ_section_title
;
Structure prediction by ZEFSAII (Michael W. Deem and Ramdas Pophale) SiO2 
 PCOD9248416
Probable space group: P 21/C
;
_chemical_formula_sum "Si O2"
_cell_formula_units_Z 28
_cell_length_a 23.108419
_cell_length_b 7.973445
_cell_length_c 23.160149
_cell_angle_alpha 90.000000
_cell_angle_beta 167.227458
_cell_angle_gamma 90.000000
_cell_volume 943.429166
_symmetry_space_group_name_H-M "P 21/C"
_symmetry_group_IT_number 14
_symmetry_cell_setting 'monoclinic'
loop_
_space_group_symop_operation_xyz
x,y,z
-x,1/2+y,1/2-z
-x,-y,-z
x,1/2-y,1/2+z
loop_
_atom_site_type_symbol
_atom_site_label
_atom_site_fract_x
_atom_site_fract_y
_atom_site_fract_z
Si Si1 0.500000 0.000000 0.500000
Si Si2 0.070854 0.114357 0.391726
Si Si3 0.500000 0.500000 0.500000
Si Si4 0.352533 0.841338 0.184706
Si Si5 0.595533 0.744101 0.691983
Si Si6 0.286409 0.885286 0.508128
Si Si7 0.167832 0.291307 0.278163
Si Si8 0.953599 0.252598 0.952270
O O1 0.518223 0.091778 0.451498
O O2 0.768840 0.094140 0.779920
O O3 0.119060 0.035582 0.374907
O O4 0.347079 0.166662 0.689096
O O5 0.947625 0.962360 0.308420
O O6 0.883281 0.273871 0.200659
O O7 0.460551 0.598792 0.522983
O O8 0.765346 0.405777 0.783005
O O9 0.468834 0.021622 0.282476
O O10 0.355382 0.730321 0.129604
O O11 0.560346 0.753903 0.429028
O O12 0.063349 0.837979 0.929905
O O13 0.896926 0.750031 0.962039
O O14 0.197511 0.272584 0.236847
#
# Coordination Sequence:
#
# PCOD9248416 Si02
#       8
#     2   4   2   4   4   4   4   4
#     4  10  26  44  68 106 154 200 252 310 376 470
#     4  11  25  47  77 112 149 208 259 328 391 460
#     4  10  22  42  68 108 142 196 242 304 364 468
#     4  11  26  47  75 107 151 201 256 325 388 453
#     4  11  24  45  72 106 153 200 250 306 388 453
#     4  11  25  50  76 108 154 200 275 330 389 462
#     4  11  26  45  78 114 152 203 254 310 401 468
#     4  11  24  43  72 107 156 191 249 305 378 477
#
# _framework density 29.678963
#
# number of rings (size 3 to 8) (size 9 to 14) (size 15 to 20)
#    0.000    1.143    1.429    3.429    6.000    3.429 
#    7.714    0.000    0.000    0.000    0.000    0.000 
#    0.000    0.000    0.000    0.000    0.000    0.000 
#
# Total GULP energy -156441.476050 kJ/mol
# GULP energy per Si atom -5587.195573 kJ/mol
# Density = 2.961141 g / cm^3
# Si number density = 29.678963 Si / 1000 Ang^3
#
#
#
# Elastic Constant Matrix: (Units=GPa)
#
#
# Indices 1 2 3 4 5 6 
#
# 1 141.8342 13.2322 37.0911 0.0000 -23.9907 0.0000
# 2 13.2322 119.0387 20.1541 0.0000 -14.4260 0.0000
# 3 37.0911 20.1541 134.1917 0.0000 -27.5127 0.0000
# 4 0.0000 0.0000 0.0000 53.6346 0.0000 -9.6094
# 5 -23.9907 -14.4260 -27.5127 0.0000 68.9200 0.0000
# 6 0.0000 0.0000 0.0000 -9.6094 0.0000 38.8059
#
#
#
# Elastic Compliance Matrix: (Units=1/GPa)
#
#
# Indices 1 2 3 4 5 6 
#
# 1 0.007867 -0.000344 -0.001717 0.000000 0.001981 0.000000
# 2 -0.000344 0.008761 -0.000947 0.000000 0.001336 0.000000
# 3 -0.001717 -0.000947 0.008610 0.000000 0.002641 0.000000
# 4 0.000000 0.000000 0.000000 0.019510 0.000000 0.004831
# 5 0.001981 0.001336 0.002641 0.000000 0.016533 0.000000
# 6 0.000000 0.000000 0.000000 0.004831 0.000000 0.026966
#
#
# Mechanical properties :
#
#
# Convention : Reuss Voigt Hill
#
# Bulk Modulus (GPa) = 52.01929 59.55772 55.78851
# Shear Modulus (GPa) = 49.66761 53.91126 51.78944
#
# Velocity S-wave (km/s) = 4.09528 4.26664 4.18184
# Velocity P-wave (km/s) = 6.31879 6.66207 6.49270
#
# Compressibility (1/GPa) = 0.01922364
#
# Stress axis : x y z
#
# Youngs Moduli (GPa) = 127.12060 114.14126 116.14047
#
# Poissons Ratio (x) = 0.03923 0.19936
# Poissons Ratio (y) = 0.04370 0.10997
# Poissons Ratio (z) = 0.21821 0.10808
#
# Static dielectric constant tensor:
#      x y z
#    x 2.485890 0.000000 0.040320 
#    y 0.000000 1.922300 0.000000 
#    z 0.040320 0.000000 2.234090 
# 
# From -- ./inp_files/80931.got.cif
#   From: 2010.05.17/outbox.cif.g08.bks.cpg/sg14_41_cif.got.tgz:80931.got - 2010.06.03 17:49:19.
