data_PCOD9248840
_publ_section_title
;
Structure prediction by ZEFSAII (Michael W. Deem and Ramdas Pophale) SiO2 
 PCOD9248840
Probable space group: P 21/C
;
_chemical_formula_sum "Si O2"
_cell_formula_units_Z 20
_cell_length_a 14.229289
_cell_length_b 9.405155
_cell_length_c 22.492928
_cell_angle_alpha 90.000000
_cell_angle_beta 165.295892
_cell_angle_gamma 90.000000
_cell_volume 764.070570
_symmetry_space_group_name_H-M "P 21/C"
_symmetry_group_IT_number 14
_symmetry_cell_setting 'monoclinic'
loop_
_space_group_symop_operation_xyz
x,y,z
-x,1/2+y,1/2-z
-x,-y,-z
x,1/2-y,1/2+z
loop_
_atom_site_type_symbol
_atom_site_label
_atom_site_fract_x
_atom_site_fract_y
_atom_site_fract_z
Si Si1 0.390441 0.672780 0.476015
Si Si2 0.697720 0.399148 0.704091
Si Si3 0.662991 0.108174 0.308725
Si Si4 0.448828 0.905770 0.275131
Si Si5 0.636965 0.009357 0.516196
O O1 0.699967 0.567831 0.691400
O O2 0.463553 0.686217 0.450151
O O3 0.342142 0.820024 0.479467
O O4 0.026334 0.573528 0.254387
O O5 0.472583 0.383100 0.626981
O O6 0.122485 0.354849 0.970270
O O7 0.780483 0.271532 0.389327
O O8 0.432058 0.040320 0.220782
O O9 0.000000 0.000000 0.500000
O O10 0.413301 0.946559 0.322718
O O11 0.500000 0.000000 0.500000
#
# Coordination Sequence:
#
# PCOD9248840 Si02
#       5
#     4   4   4   4   4
#     4  10  23  40  68  99 137 178 220 278 338 411
#     4   9  21  41  68  91 140 171 219 279 335 391
#     4  10  22  44  68  94 138 173 229 281 333 396
#     4  10  23  42  69  98 132 182 224 277 340 403
#     4  11  25  41  68 102 138 176 228 273 348 400
#
# _framework density 26.175592000000002
#
# number of rings (size 3 to 8) (size 9 to 14) (size 15 to 20)
#    0.000    2.000    0.000    1.200   16.800    0.000 
#    0.000    4.000    0.000    0.000    0.000    0.000 
#    0.000    0.000    0.000    0.000    0.000    0.000 
#
# Total GULP energy -111803.097676 kJ/mol
# GULP energy per Si atom -5590.154884 kJ/mol
# Density = 2.611602 g / cm^3
# Si number density = 26.175592 Si / 1000 Ang^3
#
#
#
# Elastic Constant Matrix: (Units=GPa)
#
#
# Indices 1 2 3 4 5 6 
#
# 1 203.5653 57.7873 10.9353 0.0000 -18.4480 0.0000
# 2 57.7873 208.0506 35.4311 0.0000 -0.2817 0.0000
# 3 10.9353 35.4311 63.1848 0.0000 7.7736 0.0000
# 4 0.0000 0.0000 0.0000 40.6243 0.0000 5.3863
# 5 -18.4480 -0.2817 7.7736 0.0000 19.9159 0.0000
# 6 0.0000 0.0000 0.0000 5.3863 0.0000 50.2590
#
#
#
# Elastic Compliance Matrix: (Units=1/GPa)
#
#
# Indices 1 2 3 4 5 6 
#
# 1 0.005907 -0.001478 -0.000908 0.000000 0.005805 0.000000
# 2 -0.001478 0.005716 -0.002932 0.000000 -0.000144 0.000000
# 3 -0.000908 -0.002932 0.018631 0.000000 -0.008154 0.000000
# 4 0.000000 0.000000 0.000000 0.024971 0.000000 -0.002676
# 5 0.005805 -0.000144 -0.008154 0.000000 0.058769 0.000000
# 6 0.000000 0.000000 0.000000 -0.002676 0.000000 0.020184
#
#
# Mechanical properties :
#
#
# Convention : Reuss Voigt Hill
#
# Bulk Modulus (GPa) = 50.97159 75.90091 63.43625
# Shear Modulus (GPa) = 33.03553 46.86963 39.95258
#
# Velocity S-wave (km/s) = 3.55642 4.23612 3.91107
# Velocity P-wave (km/s) = 6.03153 7.27915 6.68451
#
# Compressibility (1/GPa) = 0.01961877
#
# Stress axis : x y z
#
# Youngs Moduli (GPa) = 169.29395 174.94101 53.67431
#
# Poissons Ratio (x) = 0.25861 0.04871
# Poissons Ratio (y) = 0.25026 0.15736
# Poissons Ratio (z) = 0.15364 0.51290
#
# Static dielectric constant tensor:
#      x y z
#    x 2.137670 0.000000 -0.018550 
#    y 0.000000 2.142230 0.000000 
#    z -0.018550 0.000000 2.083550 
# 
# From -- ./inp_files/73684.got.cif
#   From: 2010.05.17/outbox.cif.g08.bks.cpg/sg14_37_cif.got.tgz:73684.got - 2010.06.03 17:49:19.
