data_PCOD9248820
_publ_section_title
;
Structure prediction by ZEFSAII (Michael W. Deem and Ramdas Pophale) SiO2 
 PCOD9248820
Probable space group: P 21/C
;
_chemical_formula_sum "Si O2"
_cell_formula_units_Z 28
_cell_length_a 5.502833
_cell_length_b 27.255866
_cell_length_c 7.472709
_cell_angle_alpha 90.000000
_cell_angle_beta 116.323683
_cell_angle_gamma 90.000000
_cell_volume 1004.568004
_symmetry_space_group_name_H-M "P 21/C"
_symmetry_group_IT_number 14
_symmetry_cell_setting 'monoclinic'
loop_
_space_group_symop_operation_xyz
x,y,z
-x,1/2+y,1/2-z
-x,-y,-z
x,1/2-y,1/2+z
loop_
_atom_site_type_symbol
_atom_site_label
_atom_site_fract_x
_atom_site_fract_y
_atom_site_fract_z
Si Si1 0.670686 0.548434 0.841774
Si Si2 0.359858 0.452631 0.738141
Si Si3 0.856696 0.299420 0.864247
Si Si4 0.517032 0.653127 0.600911
Si Si5 0.538595 0.771597 0.437516
Si Si6 0.158613 0.898985 0.497684
Si Si7 0.993061 0.120013 0.942497
O O1 0.484972 0.503933 0.717034
O O2 0.594597 0.598603 0.713266
O O3 0.994214 0.550203 0.922149
O O4 0.658066 0.548313 0.052734
O O5 0.101309 0.431949 0.551291
O O6 0.587827 0.410840 0.795694
O O7 0.656840 0.295348 0.975628
O O8 0.975847 0.353784 0.942142
O O9 0.136573 0.268886 0.919798
O O10 0.631315 0.278284 0.653826
O O11 0.535980 0.696292 0.754132
O O12 0.754401 0.653647 0.531442
O O13 0.195215 0.645041 0.472418
O O14 0.178061 0.885008 0.296380
#
# Coordination Sequence:
#
# PCOD9248820 Si02
#       7
#     4   4   4   4   4   4   4
#     4  10  22  44  67  96 147 178 237 285 350 407
#     4  11  24  40  69 107 131 190 235 286 339 428
#     4  12  26  45  75  98 146 176 240 286 367 409
#     4  11  22  46  69  93 144 181 221 290 348 407
#     4  12  24  48  70 106 133 190 227 295 352 431
#     4  11  23  46  66  98 141 186 218 301 343 421
#     4  11  24  42  72  97 138 180 227 278 346 408
#
# _framework density 27.872679000000002
#
# number of rings (size 3 to 8) (size 9 to 14) (size 15 to 20)
#    0.000    0.857    5.714    1.286    2.000    5.143 
#    0.000    0.000    0.000    0.000    0.000    0.000 
#    0.000    0.000    0.000    0.000    0.000    0.000 
#
# Total GULP energy -156294.328321 kJ/mol
# GULP energy per Si atom -5581.940297 kJ/mol
# Density = 2.780924 g / cm^3
# Si number density = 27.872679 Si / 1000 Ang^3
#
#
#
# Elastic Constant Matrix: (Units=GPa)
#
#
# Indices 1 2 3 4 5 6 
#
# 1 163.1848 5.3915 15.9473 0.0000 27.4102 0.0000
# 2 5.3915 95.8403 -2.9901 0.0000 14.9633 0.0000
# 3 15.9473 -2.9901 48.9408 0.0000 18.6531 0.0000
# 4 0.0000 0.0000 0.0000 35.5554 0.0000 13.4802
# 5 27.4102 14.9633 18.6531 0.0000 40.9937 0.0000
# 6 0.0000 0.0000 0.0000 13.4802 0.0000 50.1550
#
#
#
# Elastic Compliance Matrix: (Units=1/GPa)
#
#
# Indices 1 2 3 4 5 6 
#
# 1 0.006925 0.000297 -0.000523 0.000000 -0.004501 0.000000
# 2 0.000297 0.011376 0.002730 0.000000 -0.005593 0.000000
# 3 -0.000523 0.002730 0.025426 0.000000 -0.012216 0.000000
# 4 0.000000 0.000000 0.000000 0.031316 0.000000 -0.008417
# 5 -0.004501 -0.005593 -0.012216 0.000000 0.035004 0.000000
# 6 0.000000 0.000000 0.000000 -0.008417 0.000000 0.022200
#
#
# Mechanical properties :
#
#
# Convention : Reuss Voigt Hill
#
# Bulk Modulus (GPa) = 20.51926 38.29592 29.40759
# Shear Modulus (GPa) = 34.84690 44.64864 39.74777
#
# Velocity S-wave (km/s) = 3.53968 4.00669 3.78040
# Velocity P-wave (km/s) = 4.90750 5.93078 5.44324
#
# Compressibility (1/GPa) = 0.04873469
#
# Stress axis : x y z
#
# Youngs Moduli (GPa) = 144.39700 87.90658 39.32967
#
# Poissons Ratio (x) = -0.02609 0.02057
# Poissons Ratio (y) = -0.04286 -0.10737
# Poissons Ratio (z) = 0.07552 -0.23998
#
# Static dielectric constant tensor:
#      x y z
#    x 2.386270 0.000000 0.031100 
#    y 0.000000 2.337140 0.000000 
#    z 0.031100 0.000000 2.331260 
# 
# From -- ./inp_files/7014.got.cif
#   From: 2010.05.17/outbox.cif.g08.bks.cpg/sg14_4_cif.got.tgz:7014.got - 2010.06.03 17:49:19.
