data_PCOD9248711
_publ_section_title
;
Structure prediction by ZEFSAII (Michael W. Deem and Ramdas Pophale) SiO2 
 PCOD9248711
Probable space group: P 21/C
;
_chemical_formula_sum "Si O2"
_cell_formula_units_Z 24
_cell_length_a 11.765826
_cell_length_b 8.165639
_cell_length_c 18.786063
_cell_angle_alpha 90.000000
_cell_angle_beta 143.553786
_cell_angle_gamma 90.000000
_cell_volume 1072.221387
_symmetry_space_group_name_H-M "P 21/C"
_symmetry_group_IT_number 14
_symmetry_cell_setting 'monoclinic'
loop_
_space_group_symop_operation_xyz
x,y,z
-x,1/2+y,1/2-z
-x,-y,-z
x,1/2-y,1/2+z
loop_
_atom_site_type_symbol
_atom_site_label
_atom_site_fract_x
_atom_site_fract_y
_atom_site_fract_z
Si Si1 0.779984 0.547705 0.881223
Si Si2 0.468585 0.428384 0.372966
Si Si3 0.234731 0.691600 0.592026
Si Si4 0.739185 0.778883 0.994342
Si Si5 0.096504 0.021018 0.145680
Si Si6 0.342320 0.362431 0.903553
O O1 0.718244 0.585223 0.770222
O O2 0.691075 0.369067 0.850234
O O3 0.718908 0.674823 0.911589
O O4 0.000000 0.500000 0.000000
O O5 0.633957 0.354488 0.407221
O O6 0.551115 0.612818 0.419145
O O7 0.565932 0.690458 0.577958
O O8 0.236564 0.568286 0.659921
O O9 0.017161 0.665539 0.453258
O O10 0.768982 0.667316 0.078763
O O11 0.926838 0.892290 0.078759
O O12 0.206579 0.075881 0.271278
O O13 0.500000 0.500000 0.000000
#
# Coordination Sequence:
#
# PCOD9248711 Si02
#       6
#     4   4   4   4   4   4
#     4  12  23  40  73 105 133 182 237 287 346 413
#     4  11  26  43  71  99 139 181 233 293 344 419
#     4  10  22  43  70  98 135 173 240 286 352 395
#     4  11  26  46  66 103 142 182 233 290 354 419
#     4  10  24  45  67  97 139 183 229 300 336 418
#     4  12  28  44  69 100 144 187 233 280 369 422
#
# _framework density 22.383436
#
# number of rings (size 3 to 8) (size 9 to 14) (size 15 to 20)
#    0.000    1.000    1.667    3.500   11.667    5.333 
#    0.000    0.000    0.000    0.000    0.000    0.000 
#    0.000    0.000    0.000    0.000    0.000    0.000 
#
# Total GULP energy -134030.307868 kJ/mol
# GULP energy per Si atom -5584.596161 kJ/mol
# Density = 2.233249 g / cm^3
# Si number density = 22.383436 Si / 1000 Ang^3
#
#
#
# Elastic Constant Matrix: (Units=GPa)
#
#
# Indices 1 2 3 4 5 6 
#
# 1 81.5317 19.8596 30.3973 0.0000 -14.9933 0.0000
# 2 19.8596 101.8075 44.5007 0.0000 -10.7842 0.0000
# 3 30.3973 44.5007 120.9995 0.0000 -21.6984 0.0000
# 4 0.0000 0.0000 0.0000 54.7099 0.0000 -0.5318
# 5 -14.9933 -10.7842 -21.6984 0.0000 34.9223 0.0000
# 6 0.0000 0.0000 0.0000 -0.5318 0.0000 51.6197
#
#
#
# Elastic Compliance Matrix: (Units=1/GPa)
#
#
# Indices 1 2 3 4 5 6 
#
# 1 0.014236 -0.001306 -0.002332 0.000000 0.004260 0.000000
# 2 -0.001306 0.011859 -0.003913 0.000000 0.000670 0.000000
# 3 -0.002332 -0.003913 0.011134 0.000000 0.004708 0.000000
# 4 0.000000 0.000000 0.000000 0.018280 0.000000 0.000188
# 5 0.004260 0.000670 0.004708 0.000000 0.033596 0.000000
# 6 0.000000 0.000000 0.000000 0.000188 0.000000 0.019374
#
#
# Mechanical properties :
#
#
# Convention : Reuss Voigt Hill
#
# Bulk Modulus (GPa) = 45.19660 54.87266 50.03463
# Shear Modulus (GPa) = 38.18038 42.22245 40.20142
#
# Velocity S-wave (km/s) = 4.13454 4.34790 4.24256
# Velocity P-wave (km/s) = 6.55961 7.05505 6.81183
#
# Compressibility (1/GPa) = 0.02212556
#
# Stress axis : x y z
#
# Youngs Moduli (GPa) = 70.24355 84.32650 89.81690
#
# Poissons Ratio (x) = 0.11017 0.20946
# Poissons Ratio (y) = 0.09177 0.35145
# Poissons Ratio (z) = 0.16381 0.32997
#
# Static dielectric constant tensor:
#      x y z
#    x 1.822600 0.000000 0.061010 
#    y 0.000000 2.046860 0.000000 
#    z 0.061010 0.000000 1.860110 
# 
# From -- ./inp_files/59137.got.cif
#   From: 2010.05.17/outbox.cif.g08.bks.cpg/sg14_30_cif.got.tgz:59137.got - 2010.06.03 17:49:19.
