data_PCOD9248692
_publ_section_title
;
Structure prediction by ZEFSAII (Michael W. Deem and Ramdas Pophale) SiO2 
 PCOD9248692
Probable space group: P 21/C
;
_chemical_formula_sum "Si O2"
_cell_formula_units_Z 24
_cell_length_a 13.168946
_cell_length_b 10.118059
_cell_length_c 8.757198
_cell_angle_alpha 90.000000
_cell_angle_beta 101.405938
_cell_angle_gamma 90.000000
_cell_volume 1143.801200
_symmetry_space_group_name_H-M "P 21/C"
_symmetry_group_IT_number 14
_symmetry_cell_setting 'monoclinic'
loop_
_space_group_symop_operation_xyz
x,y,z
-x,1/2+y,1/2-z
-x,-y,-z
x,1/2-y,1/2+z
loop_
_atom_site_type_symbol
_atom_site_label
_atom_site_fract_x
_atom_site_fract_y
_atom_site_fract_z
Si Si1 0.032332 0.569303 0.763528
Si Si2 0.240620 0.049659 0.457103
Si Si3 0.565305 0.116970 0.446191
Si Si4 0.523087 0.629513 0.412981
Si Si5 0.745643 0.701147 0.353748
Si Si6 0.017508 0.324246 0.565308
O O1 0.129985 0.510790 0.883139
O O2 0.982397 0.434196 0.679571
O O3 0.984487 0.678493 0.862296
O O4 0.046526 0.651620 0.608659
O O5 0.264763 0.150730 0.323566
O O6 0.252121 0.141831 0.610001
O O7 0.317931 0.926654 0.487762
O O8 0.539554 0.122905 0.262045
O O9 0.522860 0.248665 0.508282
O O10 0.500000 0.000000 0.500000
O O11 0.500000 0.500000 0.500000
O O12 0.644781 0.645921 0.410249
O O13 0.860302 0.651634 0.437752
#
# Coordination Sequence:
#
# PCOD9248692 Si02
#       6
#     4   4   4   4   4   4
#     4  10  23  43  66  98 135 178 221 283 331 401
#     4  11  25  42  69  99 138 173 232 278 335 414
#     4  12  24  44  67 100 137 174 230 278 336 406
#     4  12  26  44  71  99 138 181 223 286 341 403
#     4  11  22  42  70  96 131 182 224 267 346 405
#     4  10  22  43  69  97 139 176 225 280 332 406
#
# _framework density 20.982668
#
# number of rings (size 3 to 8) (size 9 to 14) (size 15 to 20)
#    0.000    1.000    3.333    3.000    2.333    4.000 
#    6.000    0.000    0.000    0.000    0.000    0.000 
#    0.000    0.000    0.000    0.000    0.000    0.000 
#
# Total GULP energy -133941.698957 kJ/mol
# GULP energy per Si atom -5580.904123 kJ/mol
# Density = 2.093491 g / cm^3
# Si number density = 20.982668 Si / 1000 Ang^3
#
#
#
# Elastic Constant Matrix: (Units=GPa)
#
#
# Indices 1 2 3 4 5 6 
#
# 1 69.3247 50.1660 36.5658 0.0000 6.5309 0.0000
# 2 50.1660 145.1137 59.7675 0.0000 -9.7164 0.0000
# 3 36.5658 59.7675 117.3011 0.0000 2.5085 0.0000
# 4 0.0000 0.0000 0.0000 43.0702 0.0000 3.0271
# 5 6.5309 -9.7164 2.5085 0.0000 18.2312 0.0000
# 6 0.0000 0.0000 0.0000 3.0271 0.0000 27.8547
#
#
#
# Elastic Compliance Matrix: (Units=1/GPa)
#
#
# Indices 1 2 3 4 5 6 
#
# 1 0.022342 -0.007242 -0.003030 0.000000 -0.011446 0.000000
# 2 -0.007242 0.011606 -0.003855 0.000000 0.009310 0.000000
# 3 -0.003030 -0.003855 0.011488 0.000000 -0.002550 0.000000
# 4 0.000000 0.000000 0.000000 0.023397 0.000000 -0.002543
# 5 -0.011446 0.009310 -0.002550 0.000000 0.064264 0.000000
# 6 0.000000 0.000000 0.000000 -0.002543 0.000000 0.036177
#
#
# Mechanical properties :
#
#
# Convention : Reuss Voigt Hill
#
# Bulk Modulus (GPa) = 58.19945 69.41536 63.80740
# Shear Modulus (GPa) = 24.59959 30.18054 27.39007
#
# Velocity S-wave (km/s) = 3.42771 3.79668 3.61690
# Velocity P-wave (km/s) = 6.59263 7.23697 6.92230
#
# Compressibility (1/GPa) = 0.01718229
#
# Stress axis : x y z
#
# Youngs Moduli (GPa) = 44.75870 86.16283 87.04553
#
# Poissons Ratio (x) = 0.62401 0.26372
# Poissons Ratio (y) = 0.32415 0.33556
# Poissons Ratio (z) = 0.13561 0.33216
#
# Static dielectric constant tensor:
#      x y z
#    x 1.792210 0.000000 0.001400 
#    y 0.000000 1.719060 0.000000 
#    z 0.001400 0.000000 1.763130 
# 
# From -- ./inp_files/15150.got.cif
#   From: 2010.05.17/outbox.cif.g08.bks.cpg/sg14_8_cif.got.tgz:15150.got - 2010.06.03 17:49:19.
