data_PCOD9248485
_publ_section_title
;
Structure prediction by ZEFSAII (Michael W. Deem and Ramdas Pophale) SiO2 
 PCOD9248485
Probable space group: P 21/C
;
_chemical_formula_sum "Si O2"
_cell_formula_units_Z 28
_cell_length_a 5.246387
_cell_length_b 14.661721
_cell_length_c 19.495735
_cell_angle_alpha 90.000000
_cell_angle_beta 70.195006
_cell_angle_gamma 90.000000
_cell_volume 1410.931238
_symmetry_space_group_name_H-M "P 21/C"
_symmetry_group_IT_number 14
_symmetry_cell_setting 'monoclinic'
loop_
_space_group_symop_operation_xyz
x,y,z
-x,1/2+y,1/2-z
-x,-y,-z
x,1/2-y,1/2+z
loop_
_atom_site_type_symbol
_atom_site_label
_atom_site_fract_x
_atom_site_fract_y
_atom_site_fract_z
Si Si1 0.688525 0.893960 0.782847
Si Si2 0.865709 0.634914 0.633595
Si Si3 0.158627 0.797710 0.655629
Si Si4 0.215318 0.954252 0.335281
Si Si5 0.432834 0.713268 0.755144
Si Si6 0.423591 0.522735 0.585479
Si Si7 0.611314 0.021912 0.415836
O O1 0.488908 0.810781 0.783392
O O2 0.970487 0.850676 0.728788
O O3 0.669936 0.983847 0.737379
O O4 0.632121 0.931935 0.863661
O O5 0.701497 0.650782 0.720015
O O6 0.663556 0.583919 0.598860
O O7 0.980202 0.739716 0.617478
O O8 0.135898 0.574965 0.613547
O O9 0.331809 0.731038 0.687403
O O10 0.350353 0.870696 0.602208
O O11 0.228042 0.848723 0.314925
O O12 0.406224 0.978493 0.380798
O O13 0.910577 0.982328 0.378570
O O14 0.500000 0.500000 0.500000
O O15 0.500000 0.000000 0.500000
#
# Coordination Sequence:
#
# PCOD9248485 Si02
#       7
#     4   4   4   4   4   4   4
#     4  10  23  39  70  97 130 171 228 276 329 396
#     4  11  23  43  69  92 133 178 224 273 335 400
#     4  10  22  42  70  98 129 176 227 280 325 395
#     4  11  23  41  71  94 128 177 218 276 325 395
#     4  11  22  41  70 102 126 169 236 278 326 386
#     4  12  26  45  66 100 142 180 217 277 347 405
#     4  11  25  45  65  98 137 175 214 271 343 399
#
# _framework density 19.845050000000001
#
# number of rings (size 3 to 8) (size 9 to 14) (size 15 to 20)
#    0.000    1.143    4.286    0.857   10.000    0.000 
#    2.571    0.000    0.000    0.000    0.000    0.000 
#    0.000    0.000    0.000    0.000    0.000    0.000 
#
# Total GULP energy -156111.718367 kJ/mol
# GULP energy per Si atom -5575.418513 kJ/mol
# Density = 1.979988 g / cm^3
# Si number density = 19.845050 Si / 1000 Ang^3
#
#
#
# Elastic Constant Matrix: (Units=GPa)
#
#
# Indices 1 2 3 4 5 6 
#
# 1 127.1451 55.0426 40.0542 0.0000 7.2688 0.0000
# 2 55.0426 116.8792 62.0616 0.0000 -2.5328 0.0000
# 3 40.0542 62.0616 105.0398 0.0000 7.9137 0.0000
# 4 0.0000 0.0000 0.0000 18.3973 0.0000 4.1081
# 5 7.2688 -2.5328 7.9137 0.0000 17.1379 0.0000
# 6 0.0000 0.0000 0.0000 4.1081 0.0000 34.4510
#
#
#
# Elastic Compliance Matrix: (Units=1/GPa)
#
#
# Indices 1 2 3 4 5 6 
#
# 1 0.010368 -0.004470 -0.000965 0.000000 -0.004613 0.000000
# 2 -0.004470 0.014903 -0.007676 0.000000 0.007643 0.000000
# 3 -0.000965 -0.007676 0.015000 0.000000 -0.007652 0.000000
# 4 0.000000 0.000000 0.000000 0.055843 0.000000 -0.006659
# 5 -0.004613 0.007643 -0.007652 0.000000 0.064970 0.000000
# 6 0.000000 0.000000 0.000000 -0.006659 0.000000 0.029821
#
#
# Mechanical properties :
#
#
# Convention : Reuss Voigt Hill
#
# Bulk Modulus (GPa) = 71.18511 73.70899 72.44705
# Shear Modulus (GPa) = 22.54188 26.79093 24.66641
#
# Velocity S-wave (km/s) = 3.37396 3.67823 3.52937
# Velocity P-wave (km/s) = 7.15028 7.43384 7.29344
#
# Compressibility (1/GPa) = 0.01404788
#
# Stress axis : x y z
#
# Youngs Moduli (GPa) = 96.45164 67.10185 66.66638
#
# Poissons Ratio (x) = 0.29996 0.06432
# Poissons Ratio (y) = 0.43116 0.51175
# Poissons Ratio (z) = 0.09306 0.51510
#
# Static dielectric constant tensor:
#      x y z
#    x 1.759060 0.000000 -0.005820 
#    y 0.000000 1.746570 0.000000 
#    z -0.005820 0.000000 1.671030 
# 
# From -- ./inp_files/53292.got.cif
#   From: 2010.05.17/outbox.cif.g08.bks.cpg/sg14_27_cif.got.tgz:53292.got - 2010.06.03 17:49:19.
