data_PCOD9248296
_publ_section_title
;
Structure prediction by ZEFSAII (Michael W. Deem and Ramdas Pophale) SiO2 
 PCOD9248296
Probable space group: P 21/C
;
_chemical_formula_sum "Si O2"
_cell_formula_units_Z 28
_cell_length_a 6.471133
_cell_length_b 11.906373
_cell_length_c 20.320028
_cell_angle_alpha 90.000000
_cell_angle_beta 49.159818
_cell_angle_gamma 90.000000
_cell_volume 1184.442731
_symmetry_space_group_name_H-M "P 21/C"
_symmetry_group_IT_number 14
_symmetry_cell_setting 'monoclinic'
loop_
_space_group_symop_operation_xyz
x,y,z
-x,1/2+y,1/2-z
-x,-y,-z
x,1/2-y,1/2+z
loop_
_atom_site_type_symbol
_atom_site_label
_atom_site_fract_x
_atom_site_fract_y
_atom_site_fract_z
Si Si1 0.337914 0.532169 0.364365
Si Si2 0.040858 0.797170 0.829737
Si Si3 0.868057 0.843341 0.730467
Si Si4 0.565421 0.382485 0.519729
Si Si5 0.672379 0.496127 0.068960
Si Si6 0.497143 0.632627 0.768519
Si Si7 0.341163 0.656017 0.050128
O O1 0.176166 0.607372 0.346176
O O2 0.660052 0.561263 0.295791
O O3 0.262169 0.578809 0.452262
O O4 0.348970 0.410018 0.329499
O O5 0.196339 0.683863 0.817109
O O6 0.078684 0.816333 0.744607
O O7 0.717287 0.815668 0.906181
O O8 0.681211 0.734883 0.756787
O O9 0.041803 0.886039 0.633331
O O10 0.500000 0.500000 0.500000
O O11 0.700053 0.289946 0.445247
O O12 0.543755 0.461637 0.166247
O O13 0.554173 0.608362 0.059066
O O14 0.590566 0.397022 0.034716
O O15 0.000000 0.500000 0.000000
#
# Coordination Sequence:
#
# PCOD9248296 Si02
#       7
#     4   4   4   4   4   4   4
#     4  10  23  43  64  96 128 178 224 270 337 398
#     4  10  22  42  64  90 130 173 218 277 324 401
#     4  10  23  40  65  95 134 171 225 270 335 404
#     4  11  26  44  64  96 137 178 221 270 336 404
#     4  11  23  42  71  99 130 169 223 288 335 388
#     4  11  23  41  66  97 129 173 223 280 334 397
#     4  11  24  42  65  99 131 173 220 277 336 396
#
# _framework density 23.639807999999999
#
# number of rings (size 3 to 8) (size 9 to 14) (size 15 to 20)
#    0.000    1.429    0.000    5.143    4.000    6.286 
#    2.571    0.000    0.000    0.000    0.000    0.000 
#    0.000    0.000    0.000    0.000    0.000    0.000 
#
# Total GULP energy -156311.014099 kJ/mol
# GULP energy per Si atom -5582.536218 kJ/mol
# Density = 2.358600 g / cm^3
# Si number density = 23.639808 Si / 1000 Ang^3
#
#
#
# Elastic Constant Matrix: (Units=GPa)
#
#
# Indices 1 2 3 4 5 6 
#
# 1 116.9221 38.8691 21.6958 0.0000 17.6507 0.0000
# 2 38.8691 93.6049 -5.2952 0.0000 18.4381 0.0000
# 3 21.6958 -5.2952 42.8086 0.0000 5.1335 0.0000
# 4 0.0000 0.0000 0.0000 31.6570 0.0000 2.4814
# 5 17.6507 18.4381 5.1335 0.0000 32.3299 0.0000
# 6 0.0000 0.0000 0.0000 2.4814 0.0000 23.3790
#
#
#
# Elastic Compliance Matrix: (Units=1/GPa)
#
#
# Indices 1 2 3 4 5 6 
#
# 1 0.011652 -0.004648 -0.006153 0.000000 -0.002734 0.000000
# 2 -0.004648 0.014127 0.004858 0.000000 -0.006291 0.000000
# 3 -0.006153 0.004858 0.027532 0.000000 -0.003783 0.000000
# 4 0.000000 0.000000 0.000000 0.031854 0.000000 -0.003381
# 5 -0.002734 -0.006291 -0.003783 0.000000 0.036612 0.000000
# 6 0.000000 0.000000 0.000000 -0.003381 0.000000 0.043132
#
#
# Mechanical properties :
#
#
# Convention : Reuss Voigt Hill
#
# Bulk Modulus (GPa) = 24.13968 40.43055 32.28511
# Shear Modulus (GPa) = 26.23229 30.67756 28.45492
#
# Velocity S-wave (km/s) = 3.33478 3.60628 3.47318
# Velocity P-wave (km/s) = 5.00612 5.87198 5.45626
#
# Compressibility (1/GPa) = 0.04142557
#
# Stress axis : x y z
#
# Youngs Moduli (GPa) = 85.82023 70.78541 36.32071
#
# Poissons Ratio (x) = 0.32902 0.22347
# Poissons Ratio (y) = 0.39890 -0.17643
# Poissons Ratio (z) = 0.52802 -0.34384
#
# Static dielectric constant tensor:
#      x y z
#    x 1.887910 0.000000 0.049240 
#    y 0.000000 2.037970 0.000000 
#    z 0.049240 0.000000 2.025090 
# 
# From -- ./inp_files/63432.got.cif
#   From: 2010.05.17/outbox.cif.g08.bks.cpg/sg14_32_cif.got.tgz:63432.got - 2010.06.03 17:49:19.
