data_PCOD9248651
_publ_section_title
;
Structure prediction by ZEFSAII (Michael W. Deem and Ramdas Pophale) SiO2 
 PCOD9248651
Probable space group: P 21/C
;
_chemical_formula_sum "Si O2"
_cell_formula_units_Z 24
_cell_length_a 7.347993
_cell_length_b 21.265802
_cell_length_c 7.011696
_cell_angle_alpha 90.000000
_cell_angle_beta 122.253390
_cell_angle_gamma 90.000000
_cell_volume 926.590797
_symmetry_space_group_name_H-M "P 21/C"
_symmetry_group_IT_number 14
_symmetry_cell_setting 'monoclinic'
loop_
_space_group_symop_operation_xyz
x,y,z
-x,1/2+y,1/2-z
-x,-y,-z
x,1/2-y,1/2+z
loop_
_atom_site_type_symbol
_atom_site_label
_atom_site_fract_x
_atom_site_fract_y
_atom_site_fract_z
Si Si1 0.993779 0.371432 0.321506
Si Si2 0.685420 0.167064 0.190774
Si Si3 0.246668 0.498126 0.820474
Si Si4 0.860024 0.634788 0.157197
Si Si5 0.405284 0.805391 0.297626
Si Si6 0.617267 0.940183 0.976429
O O1 0.851791 0.434027 0.219566
O O2 0.808191 0.318804 0.192893
O O3 0.082119 0.357032 0.585397
O O4 0.214011 0.390655 0.333816
O O5 0.579632 0.230444 0.207904
O O6 0.570417 0.104997 0.205310
O O7 0.943290 0.164309 0.350941
O O8 0.640397 0.165989 0.936798
O O9 0.145715 0.440637 0.881474
O O10 0.236184 0.474404 0.597883
O O11 0.500000 0.500000 0.000000
O O12 0.626989 0.664698 0.993376
O O13 0.500000 0.000000 0.000000
#
# Coordination Sequence:
#
# PCOD9248651 Si02
#       6
#     4   4   4   4   4   4
#     4  10  22  43  70  98 133 179 218 273 339 398
#     4  11  27  43  67  98 135 176 225 279 335 403
#     4  11  21  41  74  99 133 177 224 273 343 398
#     4  10  22  43  68  91 134 173 220 274 331 396
#     4  11  25  44  66  95 133 178 230 267 341 406
#     4  11  23  43  68  98 140 170 224 283 334 395
#
# _framework density 25.901401
#
# number of rings (size 3 to 8) (size 9 to 14) (size 15 to 20)
#    0.000    1.333    1.667    5.000    7.000    1.333 
#    3.000    1.667    0.000    0.000    0.000    0.000 
#    0.000    0.000    0.000    0.000    0.000    0.000 
#
# Total GULP energy -134204.453777 kJ/mol
# GULP energy per Si atom -5591.852241 kJ/mol
# Density = 2.584245 g / cm^3
# Si number density = 25.901401 Si / 1000 Ang^3
#
#
#
# Elastic Constant Matrix: (Units=GPa)
#
#
# Indices 1 2 3 4 5 6 
#
# 1 102.0092 14.1060 20.9228 0.0000 20.5262 0.0000
# 2 14.1060 115.0915 12.5302 0.0000 14.0980 0.0000
# 3 20.9228 12.5302 125.4969 0.0000 36.8742 0.0000
# 4 0.0000 0.0000 0.0000 30.3311 0.0000 9.3498
# 5 20.5262 14.0980 36.8742 0.0000 49.2819 0.0000
# 6 0.0000 0.0000 0.0000 9.3498 0.0000 44.2889
#
#
#
# Elastic Compliance Matrix: (Units=1/GPa)
#
#
# Indices 1 2 3 4 5 6 
#
# 1 0.010805 -0.000790 -0.000598 0.000000 -0.003827 0.000000
# 2 -0.000790 0.009065 -0.000139 0.000000 -0.002160 0.000000
# 3 -0.000598 -0.000139 0.010251 0.000000 -0.007381 0.000000
# 4 0.000000 0.000000 0.000000 0.035264 0.000000 -0.007445
# 5 -0.003827 -0.002160 -0.007381 0.000000 0.028026 0.000000
# 6 0.000000 0.000000 0.000000 -0.007445 0.000000 0.024151
#
#
# Mechanical properties :
#
#
# Convention : Reuss Voigt Hill
#
# Bulk Modulus (GPa) = 36.94562 48.63507 42.79035
# Shear Modulus (GPa) = 38.56879 44.44963 41.50921
#
# Velocity S-wave (km/s) = 3.86302 4.14709 4.00757
# Velocity P-wave (km/s) = 5.84741 6.46134 6.16202
#
# Compressibility (1/GPa) = 0.02706680
#
# Stress axis : x y z
#
# Youngs Moduli (GPa) = 92.54950 110.31031 97.55497
#
# Poissons Ratio (x) = 0.08719 0.05835
# Poissons Ratio (y) = 0.07315 0.01352
# Poissons Ratio (z) = 0.05535 0.01529
#
# Static dielectric constant tensor:
#      x y z
#    x 2.097590 0.000000 -0.078300 
#    y 0.000000 2.047430 0.000000 
#    z -0.078300 0.000000 2.241290 
# 
# From -- ./inp_files/10281.got.cif
#   From: 2010.05.17/outbox.cif.g08.bks.cpg/sg14_6_cif.got.tgz:10281.got - 2010.06.03 17:49:19.
