data_PCOD9248623
_publ_section_title
;
Structure prediction by ZEFSAII (Michael W. Deem and Ramdas Pophale) SiO2 
 PCOD9248623
Probable space group: P 21/C
;
_chemical_formula_sum "Si O2"
_cell_formula_units_Z 24
_cell_length_a 8.840748
_cell_length_b 19.955144
_cell_length_c 7.728370
_cell_angle_alpha 90.000000
_cell_angle_beta 128.219891
_cell_angle_gamma 90.000000
_cell_volume 1071.165466
_symmetry_space_group_name_H-M "P 21/C"
_symmetry_group_IT_number 14
_symmetry_cell_setting 'monoclinic'
loop_
_space_group_symop_operation_xyz
x,y,z
-x,1/2+y,1/2-z
-x,-y,-z
x,1/2-y,1/2+z
loop_
_atom_site_type_symbol
_atom_site_label
_atom_site_fract_x
_atom_site_fract_y
_atom_site_fract_z
Si Si1 0.642275 0.610397 0.771468
Si Si2 0.511241 0.752544 0.322624
Si Si3 0.873536 0.910851 0.783304
Si Si4 0.708261 0.043881 0.823656
Si Si5 0.849754 0.667454 0.613795
Si Si6 0.287423 0.665248 0.933799
O O1 0.539522 0.683086 0.719131
O O2 0.478148 0.555368 0.690096
O O3 0.750509 0.611605 0.665739
O O4 0.790733 0.606061 0.037172
O O5 0.722813 0.734128 0.540042
O O6 0.352083 0.778941 0.341395
O O7 0.433493 0.683091 0.189255
O O8 0.746598 0.971393 0.772087
O O9 0.861065 0.853620 0.920843
O O10 0.095774 0.934485 0.939178
O O11 0.687786 0.094972 0.645934
O O12 0.067926 0.675038 0.830926
#
# Coordination Sequence:
#
# PCOD9248623 Si02
#       6
#     4   4   4   4   4   4
#     4  11  23  38  64  92 122 166 208 254 311 370
#     4  11  22  40  57  89 128 159 208 256 307 377
#     4  10  22  43  67  89 129 166 206 264 312 372
#     4   9  21  43  64  92 127 166 207 258 320 364
#     4  11  24  39  62  95 121 165 214 252 314 375
#     4  10  23  39  62  86 125 163 202 259 314 373
#
# _framework density 22.405501999999998
#
# number of rings (size 3 to 8) (size 9 to 14) (size 15 to 20)
#    0.000    1.667    1.667    2.500    2.333    4.667 
#    0.000    7.500    0.000    0.000    0.000    0.000 
#    0.000    0.000    0.000    0.000    0.000    0.000 
#
# Total GULP energy -134057.090186 kJ/mol
# GULP energy per Si atom -5585.712091 kJ/mol
# Density = 2.235451 g / cm^3
# Si number density = 22.405502 Si / 1000 Ang^3
#
#
#
# Elastic Constant Matrix: (Units=GPa)
#
#
# Indices 1 2 3 4 5 6 
#
# 1 60.8309 -25.4975 18.2540 0.0000 14.8018 0.0000
# 2 -25.4975 37.4830 10.8722 0.0000 5.0352 0.0000
# 3 18.2540 10.8722 76.7013 0.0000 6.7375 0.0000
# 4 0.0000 0.0000 0.0000 32.9492 0.0000 8.6080
# 5 14.8018 5.0352 6.7375 0.0000 32.5550 0.0000
# 6 0.0000 0.0000 0.0000 8.6080 0.0000 9.6003
#
#
#
# Elastic Compliance Matrix: (Units=1/GPa)
#
#
# Indices 1 2 3 4 5 6 
#
# 1 0.038437 0.032304 -0.011970 0.000000 -0.019995 0.000000
# 2 0.032304 0.055382 -0.013746 0.000000 -0.020409 0.000000
# 3 -0.011970 -0.013746 0.017488 0.000000 0.003949 0.000000
# 4 0.000000 0.000000 0.000000 0.039634 0.000000 -0.035538
# 5 -0.019995 -0.020409 0.003949 0.000000 0.042148 0.000000
# 6 0.000000 0.000000 0.000000 -0.035538 0.000000 0.136028
#
#
# Mechanical properties :
#
#
# Convention : Reuss Voigt Hill
#
# Bulk Modulus (GPa) = 8.03319 20.25253 14.14286
# Shear Modulus (GPa) = 13.98862 26.44666 20.21764
#
# Velocity S-wave (km/s) = 2.50139 3.43937 3.00718
# Velocity P-wave (km/s) = 3.45481 4.98308 4.28759
#
# Compressibility (1/GPa) = 0.12448349
#
# Stress axis : x y z
#
# Youngs Moduli (GPa) = 26.01680 18.05645 57.18265
#
# Poissons Ratio (x) = -0.58330 0.68448
# Poissons Ratio (y) = -0.84045 0.78601
# Poissons Ratio (z) = 0.31142 0.24820
#
# Static dielectric constant tensor:
#      x y z
#    x 1.821350 0.000000 -0.029140 
#    y 0.000000 1.827930 0.000000 
#    z -0.029140 0.000000 1.874810 
# 
# From -- ./inp_files/10286.got.cif
#   From: 2010.05.17/outbox.cif.g08.bks.cpg/sg14_6_cif.got.tgz:10286.got - 2010.06.03 17:49:19.
