data_PCOD9248920
_publ_section_title
;
Structure prediction by ZEFSAII (Michael W. Deem and Ramdas Pophale) SiO2 
 PCOD9248920
Probable space group: P 21/C
;
_chemical_formula_sum "Si O2"
_cell_formula_units_Z 16
_cell_length_a 5.053950
_cell_length_b 12.771699
_cell_length_c 10.197237
_cell_angle_alpha 90.000000
_cell_angle_beta 85.075775
_cell_angle_gamma 90.000000
_cell_volume 655.777063
_symmetry_space_group_name_H-M "P 21/C"
_symmetry_group_IT_number 14
_symmetry_cell_setting 'monoclinic'
loop_
_space_group_symop_operation_xyz
x,y,z
-x,1/2+y,1/2-z
-x,-y,-z
x,1/2-y,1/2+z
loop_
_atom_site_type_symbol
_atom_site_label
_atom_site_fract_x
_atom_site_fract_y
_atom_site_fract_z
Si Si1 0.762033 0.453496 0.924193
Si Si2 0.503988 0.442394 0.299748
Si Si3 0.775334 0.867325 0.930102
Si Si4 0.711789 0.228941 0.598094
O O1 0.707917 0.494460 0.781337
O O2 0.500000 0.500000 0.000000
O O3 0.761066 0.330608 0.956987
O O4 0.000000 0.500000 0.000000
O O5 0.703000 0.526283 0.357066
O O6 0.685205 0.360920 0.209845
O O7 0.327069 0.386875 0.417989
O O8 0.575602 0.780111 0.884737
O O9 0.065239 0.817980 0.902567
#
# Coordination Sequence:
#
# PCOD9248920 Si02
#       4
#     4   4   4   4
#     4  10  22  44  72 103 146 194 242 306 376 443
#     4  10  26  51  76 115 160 195 257 327 375 463
#     4  11  27  47  79 115 150 203 252 315 389 445
#     4  11  25  47  75 113 150 205 253 303 388 465
#
# _framework density 24.398536
#
# number of rings (size 3 to 8) (size 9 to 14) (size 15 to 20)
#    0.000    1.500    0.000    3.000    3.500   16.000 
#    0.000    0.000    0.000    0.000    0.000    0.000 
#    0.000    0.000    0.000    0.000    0.000    0.000 
#
# Total GULP energy -89510.172719 kJ/mol
# GULP energy per Si atom -5594.385795 kJ/mol
# Density = 2.434300 g / cm^3
# Si number density = 24.398536 Si / 1000 Ang^3
#
#
#
# Elastic Constant Matrix: (Units=GPa)
#
#
# Indices 1 2 3 4 5 6 
#
# 1 86.5832 13.2798 48.0045 0.0000 17.4688 0.0000
# 2 13.2798 99.9565 50.6569 0.0000 -21.3874 0.0000
# 3 48.0045 50.6569 105.1402 0.0000 -20.2800 0.0000
# 4 0.0000 0.0000 0.0000 33.2865 0.0000 16.7587
# 5 17.4688 -21.3874 -20.2800 0.0000 26.1747 0.0000
# 6 0.0000 0.0000 0.0000 16.7587 0.0000 27.1183
#
#
#
# Elastic Compliance Matrix: (Units=1/GPa)
#
#
# Indices 1 2 3 4 5 6 
#
# 1 0.030926 -0.001824 -0.020587 0.000000 -0.038080 0.000000
# 2 -0.001824 0.014498 -0.004271 0.000000 0.009754 0.000000
# 3 -0.020587 -0.004271 0.026977 0.000000 0.031151 0.000000
# 4 0.000000 0.000000 0.000000 0.043611 0.000000 -0.026951
# 5 -0.038080 0.009754 0.031151 0.000000 0.095725 0.000000
# 6 0.000000 0.000000 0.000000 -0.026951 0.000000 0.053531
#
#
# Mechanical properties :
#
#
# Convention : Reuss Voigt Hill
#
# Bulk Modulus (GPa) = 52.52540 57.28470 54.90505
# Shear Modulus (GPa) = 15.38565 29.29847 22.34206
#
# Velocity S-wave (km/s) = 2.51389 3.46906 3.02936
# Velocity P-wave (km/s) = 5.47732 6.29091 5.89816
#
# Compressibility (1/GPa) = 0.01903841
#
# Stress axis : x y z
#
# Youngs Moduli (GPa) = 32.33504 68.97332 37.06854
#
# Poissons Ratio (x) = 0.12577 0.76312
# Poissons Ratio (y) = 0.05896 0.15833
# Poissons Ratio (z) = 0.66567 0.29461
#
# Static dielectric constant tensor:
#      x y z
#    x 1.878250 0.000000 -0.046170 
#    y 0.000000 1.983910 0.000000 
#    z -0.046170 0.000000 2.082600 
# 
# From -- ./inp_files/20505.got.cif
#   From: 2010.05.17/outbox.cif.g08.bks.cpg/sg14_11_cif.got.tgz:20505.got - 2010.06.03 17:49:19.
