data_PCOD9248336
_publ_section_title
;
Structure prediction by ZEFSAII (Michael W. Deem and Ramdas Pophale) SiO2 
 PCOD9248336
Probable space group: P 21/C
;
_chemical_formula_sum "Si O2"
_cell_formula_units_Z 32
_cell_length_a 12.963041
_cell_length_b 9.230755
_cell_length_c 10.734969
_cell_angle_alpha 90.000000
_cell_angle_beta 78.965209
_cell_angle_gamma 90.000000
_cell_volume 1260.782426
_symmetry_space_group_name_H-M "P 21/C"
_symmetry_group_IT_number 14
_symmetry_cell_setting 'monoclinic'
loop_
_space_group_symop_operation_xyz
x,y,z
-x,1/2+y,1/2-z
-x,-y,-z
x,1/2-y,1/2+z
loop_
_atom_site_type_symbol
_atom_site_label
_atom_site_fract_x
_atom_site_fract_y
_atom_site_fract_z
Si Si1 0.213419 0.013949 0.189607
Si Si2 0.337929 0.398410 0.454564
Si Si3 0.379274 0.351233 0.803831
Si Si4 0.542804 0.312879 0.565050
Si Si5 0.305921 0.563218 0.017668
Si Si6 0.041146 0.200640 0.330781
Si Si7 0.145996 0.798555 0.999477
Si Si8 0.863739 0.012863 0.236279
O O1 0.326936 0.023797 0.229041
O O2 0.134806 0.084840 0.306056
O O3 0.172688 0.870789 0.129661
O O4 0.238901 0.122654 0.068239
O O5 0.325309 0.306353 0.332340
O O6 0.447611 0.347707 0.493298
O O7 0.365540 0.567985 0.443389
O O8 0.489143 0.313457 0.713956
O O9 0.354001 0.422075 0.942382
O O10 0.595998 0.170554 0.498813
O O11 0.221829 0.662044 0.959218
O O12 0.239913 0.527450 0.155457
O O13 0.088680 0.352198 0.273700
O O14 0.973945 0.241444 0.468358
O O15 0.953523 0.119869 0.268570
O O16 0.156005 0.924333 0.896182
#
# Coordination Sequence:
#
# PCOD9248336 Si02
#       8
#     4   4   4   4   4   4   4   4
#     4  11  24  43  69  97 143 180 232 281 353 410
#     4  10  22  42  65  99 135 182 219 278 357 403
#     4  11  25  42  69 105 137 176 235 293 338 416
#     4  10  22  43  70  96 140 180 224 279 357 420
#     4  11  25  43  70 106 135 184 238 289 349 413
#     4  11  24  43  69 102 132 183 231 286 349 416
#     4  11  25  44  69  99 140 191 225 287 359 410
#     4  11  26  44  70 102 143 183 236 285 350 425
#
# _framework density 25.381063000000001
#
# number of rings (size 3 to 8) (size 9 to 14) (size 15 to 20)
#    0.000    1.250    2.500    1.875    5.250    2.500 
#    0.000    2.500    0.000    0.000    0.000    0.000 
#    0.000    0.000    0.000    0.000    0.000    0.000 
#
# Total GULP energy -178700.504034 kJ/mol
# GULP energy per Si atom -5584.390751 kJ/mol
# Density = 2.532329 g / cm^3
# Si number density = 25.381063 Si / 1000 Ang^3
#
#
#
# Elastic Constant Matrix: (Units=GPa)
#
#
# Indices 1 2 3 4 5 6 
#
# 1 90.7762 30.4518 26.6966 0.0000 -24.6966 0.0000
# 2 30.4518 118.1409 18.8943 0.0000 3.6815 0.0000
# 3 26.6966 18.8943 62.1792 0.0000 -17.7461 0.0000
# 4 0.0000 0.0000 0.0000 37.5317 0.0000 -7.6258
# 5 -24.6966 3.6815 -17.7461 0.0000 36.3298 0.0000
# 6 0.0000 0.0000 0.0000 -7.6258 0.0000 49.7475
#
#
#
# Elastic Compliance Matrix: (Units=1/GPa)
#
#
# Indices 1 2 3 4 5 6 
#
# 1 0.015823 -0.003935 -0.002805 0.000000 0.009785 0.000000
# 2 -0.003935 0.010089 -0.002825 0.000000 -0.005077 0.000000
# 3 -0.002805 -0.002825 0.020548 0.000000 0.008416 0.000000
# 4 0.000000 0.000000 0.000000 0.027501 0.000000 0.004216
# 5 0.009785 -0.005077 0.008416 0.000000 0.038803 0.000000
# 6 0.000000 0.000000 0.000000 0.004216 0.000000 0.020748
#
#
# Mechanical properties :
#
#
# Convention : Reuss Voigt Hill
#
# Bulk Modulus (GPa) = 36.59186 47.02018 41.80602
# Shear Modulus (GPa) = 30.91166 37.72537 34.31852
#
# Velocity S-wave (km/s) = 3.49363 3.85952 3.68112
# Velocity P-wave (km/s) = 5.54276 6.19896 5.88002
#
# Compressibility (1/GPa) = 0.02732848
#
# Stress axis : x y z
#
# Youngs Moduli (GPa) = 63.19836 99.12014 48.66759
#
# Poissons Ratio (x) = 0.39002 0.13653
# Poissons Ratio (y) = 0.24867 0.13750
# Poissons Ratio (z) = 0.17730 0.28005
#
# Static dielectric constant tensor:
#      x y z
#    x 2.104840 0.000000 0.040110 
#    y 0.000000 1.981110 0.000000 
#    z 0.040110 0.000000 2.064110 
# 
# From -- ./inp_files/31786.got.cif
#   From: 2010.05.17/outbox.cif.g08.bks.cpg/sg14_16_cif.got.tgz:31786.got - 2010.06.03 17:49:19.
