data_PCOD9248156
_publ_section_title
;
Structure prediction by ZEFSAII (Michael W. Deem and Ramdas Pophale) SiO2 
 PCOD9248156
Probable space group: P 21/C
;
_chemical_formula_sum "Si O2"
_cell_formula_units_Z 28
_cell_length_a 14.661944
_cell_length_b 5.247449
_cell_length_c 16.617710
_cell_angle_alpha 90.000000
_cell_angle_beta 112.425891
_cell_angle_gamma 90.000000
_cell_volume 1181.839654
_symmetry_space_group_name_H-M "P 21/C"
_symmetry_group_IT_number 14
_symmetry_cell_setting 'monoclinic'
loop_
_space_group_symop_operation_xyz
x,y,z
-x,1/2+y,1/2-z
-x,-y,-z
x,1/2-y,1/2+z
loop_
_atom_site_type_symbol
_atom_site_label
_atom_site_fract_x
_atom_site_fract_y
_atom_site_fract_z
Si Si1 0.453467 0.762825 0.883312
Si Si2 0.062458 0.473412 0.289767
Si Si3 0.437790 0.733694 0.071490
Si Si4 0.060120 0.758058 0.952432
Si Si5 0.144176 0.411964 0.615082
Si Si6 0.239294 0.025583 0.561571
Si Si7 0.764359 0.186219 0.257650
O O1 0.489455 0.483507 0.869673
O O2 0.344479 0.812579 0.814536
O O3 0.529319 0.989346 0.885179
O O4 0.449395 0.754140 0.979058
O O5 0.081244 0.542203 0.388962
O O6 0.161668 0.529457 0.273646
O O7 0.014927 0.194976 0.264387
O O8 0.331185 0.610524 0.051732
O O9 0.943554 0.703494 0.903990
O O10 0.142033 0.539655 0.976673
O O11 0.082480 0.872315 0.047682
O O12 0.227548 0.323043 0.579891
O O13 0.190475 0.531775 0.710189
O O14 0.241166 0.924084 0.654179
#
# Coordination Sequence:
#
# PCOD9248156 Si02
#       7
#     4   4   4   4   4   4   4
#     4  10  24  46  71 100 135 174 228 291 343 411
#     4  12  26  43  67 100 138 182 232 282 339 411
#     4  10  24  46  71 100 132 178 234 280 348 416
#     4  10  22  41  66  96 140 186 229 283 340 419
#     4  10  22  42  65 102 137 182 235 279 346 415
#     4  11  24  40  70  96 139 187 229 283 348 414
#     4  11  25  42  66 103 138 181 225 290 344 410
#
# _framework density 23.691879
#
# number of rings (size 3 to 8) (size 9 to 14) (size 15 to 20)
#    0.000    1.429    1.429    2.143    8.000    1.143 
#    2.571    0.000    0.000    0.000    0.000    0.000 
#    0.000    0.000    0.000    0.000    0.000    0.000 
#
# Total GULP energy -156325.395626 kJ/mol
# GULP energy per Si atom -5583.049844 kJ/mol
# Density = 2.363795 g / cm^3
# Si number density = 23.691879 Si / 1000 Ang^3
#
#
#
# Elastic Constant Matrix: (Units=GPa)
#
#
# Indices 1 2 3 4 5 6 
#
# 1 90.8831 24.7462 -6.7914 0.0000 12.4630 0.0000
# 2 24.7462 78.9223 16.5408 0.0000 10.2322 0.0000
# 3 -6.7914 16.5408 57.0512 0.0000 24.4647 0.0000
# 4 0.0000 0.0000 0.0000 26.2481 0.0000 -4.1384
# 5 12.4630 10.2322 24.4647 0.0000 40.7203 0.0000
# 6 0.0000 0.0000 0.0000 -4.1384 0.0000 31.5168
#
#
#
# Elastic Compliance Matrix: (Units=1/GPa)
#
#
# Indices 1 2 3 4 5 6 
#
# 1 0.013568 -0.004618 0.005707 0.000000 -0.006421 0.000000
# 2 -0.004618 0.015122 -0.005268 0.000000 0.000778 0.000000
# 3 0.005707 -0.005268 0.026828 0.000000 -0.016541 0.000000
# 4 0.000000 0.000000 0.000000 0.038903 0.000000 0.005108
# 5 -0.006421 0.000778 -0.016541 0.000000 0.036266 0.000000
# 6 0.000000 0.000000 0.000000 0.005108 0.000000 0.032400
#
#
# Mechanical properties :
#
#
# Convention : Reuss Voigt Hill
#
# Bulk Modulus (GPa) = 21.20385 32.87199 27.03792
# Shear Modulus (GPa) = 26.71471 32.52110 29.61791
#
# Velocity S-wave (km/s) = 3.36160 3.70897 3.53955
# Velocity P-wave (km/s) = 4.90270 5.67863 5.30487
#
# Compressibility (1/GPa) = 0.04716125
#
# Stress axis : x y z
#
# Youngs Moduli (GPa) = 73.70522 66.13008 37.27436
#
# Poissons Ratio (x) = 0.30538 -0.21274
# Poissons Ratio (y) = 0.34036 0.19635
# Poissons Ratio (z) = -0.42067 0.34835
#
# Static dielectric constant tensor:
#      x y z
#    x 1.976590 0.000000 -0.027730 
#    y 0.000000 2.108970 0.000000 
#    z -0.027730 0.000000 1.846240 
# 
# From -- ./inp_files/58512.got.cif
#   From: 2010.05.17/outbox.cif.g08.bks.cpg/sg14_30_cif.got.tgz:58512.got - 2010.06.03 17:49:19.
