data_PCOD9248013
_publ_section_title
;
Structure prediction by ZEFSAII (Michael W. Deem and Ramdas Pophale) SiO2 
 PCOD9248013
Probable space group: P 21/C
;
_chemical_formula_sum "Si O2"
_cell_formula_units_Z 20
_cell_length_a 7.218703
_cell_length_b 21.113738
_cell_length_c 8.019187
_cell_angle_alpha 90.000000
_cell_angle_beta 143.877923
_cell_angle_gamma 90.000000
_cell_volume 720.516756
_symmetry_space_group_name_H-M "P 21/C"
_symmetry_group_IT_number 14
_symmetry_cell_setting 'monoclinic'
loop_
_space_group_symop_operation_xyz
x,y,z
-x,1/2+y,1/2-z
-x,-y,-z
x,1/2-y,1/2+z
loop_
_atom_site_type_symbol
_atom_site_label
_atom_site_fract_x
_atom_site_fract_y
_atom_site_fract_z
Si Si1 0.033275 0.617871 0.242553
Si Si2 0.157852 0.757823 0.993376
Si Si3 0.382089 0.038520 0.752635
Si Si4 0.792767 0.680903 0.514329
Si Si5 0.275334 0.053022 0.193247
O O1 0.753360 0.597867 0.166287
O O2 0.092476 0.692467 0.292890
O O3 0.349139 0.591557 0.554431
O O4 0.938927 0.577024 0.011250
O O5 0.899386 0.703879 0.772380
O O6 0.073287 0.800590 0.090835
O O7 0.486370 0.721456 0.241310
O O8 0.420449 0.988223 0.628613
O O9 0.500000 0.000000 0.000000
O O10 0.750237 0.605926 0.470224
O O11 0.000000 0.000000 0.000000
#
# Coordination Sequence:
#
# PCOD9248013 Si02
#       5
#     4   4   4   4   4
#     4  10  22  41  61  83 125 168 205 257 325 401
#     4  11  24  42  64  94 127 172 219 270 337 400
#     4  11  22  37  62  94 122 159 211 271 323 375
#     4  11  24  42  67  97 133 174 224 279 336 406
#     4   9  22  42  65  92 127 175 223 269 333 408
#
# _framework density 27.757854999999999
#
# number of rings (size 3 to 8) (size 9 to 14) (size 15 to 20)
#    0.000    1.600    0.000    3.600    0.000   16.000 
#    0.000    0.000    0.000    0.000    0.000    0.000 
#    0.000    0.000    0.000    0.000    0.000    0.000 
#
# Total GULP energy -111833.272347 kJ/mol
# GULP energy per Si atom -5591.663617 kJ/mol
# Density = 2.769468 g / cm^3
# Si number density = 27.757855 Si / 1000 Ang^3
#
#
#
# Elastic Constant Matrix: (Units=GPa)
#
#
# Indices 1 2 3 4 5 6 
#
# 1 62.9432 39.8947 20.9312 0.0000 4.0188 0.0000
# 2 39.8947 173.1549 36.1381 0.0000 22.6948 0.0000
# 3 20.9312 36.1381 143.7761 0.0000 14.5219 0.0000
# 4 0.0000 0.0000 0.0000 52.2694 0.0000 0.0739
# 5 4.0188 22.6948 14.5219 0.0000 31.8035 0.0000
# 6 0.0000 0.0000 0.0000 0.0739 0.0000 55.2222
#
#
#
# Elastic Compliance Matrix: (Units=1/GPa)
#
#
# Indices 1 2 3 4 5 6 
#
# 1 0.019074 -0.004193 -0.001868 0.000000 0.001435 0.000000
# 2 -0.004193 0.007496 -0.000825 0.000000 -0.004442 0.000000
# 3 -0.001868 -0.000825 0.007707 0.000000 -0.002694 0.000000
# 4 0.000000 0.000000 0.000000 0.019132 0.000000 -0.000026
# 5 0.001435 -0.004442 -0.002694 0.000000 0.035662 0.000000
# 6 0.000000 0.000000 0.000000 -0.000026 0.000000 0.018109
#
#
# Mechanical properties :
#
#
# Convention : Reuss Voigt Hill
#
# Bulk Modulus (GPa) = 48.76799 63.75580 56.26189
# Shear Modulus (GPa) = 39.12799 46.71970 42.92385
#
# Velocity S-wave (km/s) = 3.75856 4.10703 3.93665
# Velocity P-wave (km/s) = 6.03680 6.74601 6.40124
#
# Compressibility (1/GPa) = 0.02050525
#
# Stress axis : x y z
#
# Youngs Moduli (GPa) = 52.42609 133.41117 129.75779
#
# Poissons Ratio (x) = 0.55938 0.24237
# Poissons Ratio (y) = 0.21982 0.10704
# Poissons Ratio (z) = 0.09793 0.11005
#
# Static dielectric constant tensor:
#      x y z
#    x 2.315080 0.000000 -0.112310 
#    y 0.000000 2.232730 0.000000 
#    z -0.112310 0.000000 2.143040 
# 
# From -- ./inp_files/10841.got.cif
#   From: 2010.05.17/outbox.cif.g08.bks.cpg/sg14_6_cif.got.tgz:10841.got - 2010.06.03 17:49:19.
