data_PCOD9248706
_publ_section_title
;
Structure prediction by ZEFSAII (Michael W. Deem and Ramdas Pophale) SiO2 
 PCOD9248706
Probable space group: P 21/C
;
_chemical_formula_sum "Si O2"
_cell_formula_units_Z 32
_cell_length_a 12.080109
_cell_length_b 16.788691
_cell_length_c 9.313413
_cell_angle_alpha 90.000000
_cell_angle_beta 128.054205
_cell_angle_gamma 90.000000
_cell_volume 1487.330136
_symmetry_space_group_name_H-M "P 21/C"
_symmetry_group_IT_number 14
_symmetry_cell_setting 'monoclinic'
loop_
_space_group_symop_operation_xyz
x,y,z
-x,1/2+y,1/2-z
-x,-y,-z
x,1/2-y,1/2+z
loop_
_atom_site_type_symbol
_atom_site_label
_atom_site_fract_x
_atom_site_fract_y
_atom_site_fract_z
Si Si1 0.661513 0.837537 0.291139
Si Si2 0.037017 0.728089 0.925344
Si Si3 0.082777 0.012866 0.210337
Si Si4 0.662005 0.568001 0.244204
Si Si5 0.563374 0.387093 0.156998
Si Si6 0.263429 0.312748 0.457746
Si Si7 0.966962 0.582436 0.050063
Si Si8 0.156291 0.832851 0.248536
O O1 0.529776 0.866307 0.279159
O O2 0.637985 0.821188 0.103420
O O3 0.702547 0.756212 0.403224
O O4 0.800432 0.894621 0.408470
O O5 0.145211 0.723097 0.879634
O O6 0.887671 0.710942 0.729322
O O7 0.046400 0.803407 0.038558
O O8 0.051756 0.653600 0.045657
O O9 0.126099 0.922163 0.284659
O O10 0.218784 0.064196 0.281432
O O11 0.997778 0.062362 0.258283
O O12 0.000000 0.000000 0.000000
O O13 0.617672 0.476675 0.229051
O O14 0.723050 0.607680 0.436289
O O15 0.533163 0.611978 0.063835
O O16 0.697252 0.334692 0.219779
O O17 0.000000 0.500000 0.000000
#
# Coordination Sequence:
#
# PCOD9248706 Si02
#       8
#     4   4   4   4   4   4   4   4
#     4  11  24  41  69  98 141 178 236 282 345 411
#     4  11  24  43  65  98 139 172 227 292 353 411
#     4  11  23  38  68  97 128 167 224 283 338 407
#     4  10  22  43  70  96 133 181 230 277 346 408
#     4  10  23  45  68  98 135 184 232 281 337 418
#     4  11  24  42  69 100 132 183 228 293 345 410
#     4  11  23  41  65  99 132 175 219 286 349 402
#     4  11  25  42  63  95 133 178 217 277 348 406
#
# _framework density 21.515060999999999
#
# number of rings (size 3 to 8) (size 9 to 14) (size 15 to 20)
#    0.000    1.250    2.500    3.000    5.250    2.500 
#    0.000    0.000    0.000    0.000    0.000    0.000 
#    0.000    0.000    0.000    0.000    0.000    0.000 
#
# Total GULP energy -178695.174436 kJ/mol
# GULP energy per Si atom -5584.224201 kJ/mol
# Density = 2.146609 g / cm^3
# Si number density = 21.515061 Si / 1000 Ang^3
#
#
#
# Elastic Constant Matrix: (Units=GPa)
#
#
# Indices 1 2 3 4 5 6 
#
# 1 112.4761 36.8583 28.5504 0.0000 -28.2448 0.0000
# 2 36.8583 57.3482 34.1948 0.0000 -17.8867 0.0000
# 3 28.5504 34.1948 93.7524 0.0000 -26.2630 0.0000
# 4 0.0000 0.0000 0.0000 40.7673 0.0000 -5.1079
# 5 -28.2448 -17.8867 -26.2630 0.0000 40.5192 0.0000
# 6 0.0000 0.0000 0.0000 -5.1079 0.0000 27.7542
#
#
#
# Elastic Compliance Matrix: (Units=1/GPa)
#
#
# Indices 1 2 3 4 5 6 
#
# 1 0.012385 -0.006185 0.000169 0.000000 0.006012 0.000000
# 2 -0.006185 0.026456 -0.006967 0.000000 0.002851 0.000000
# 3 0.000169 -0.006967 0.015062 0.000000 0.006805 0.000000
# 4 0.000000 0.000000 0.000000 0.025108 0.000000 0.004621
# 5 0.006012 0.002851 0.006805 0.000000 0.034540 0.000000
# 6 0.000000 0.000000 0.000000 0.004621 0.000000 0.036881
#
#
# Mechanical properties :
#
#
# Convention : Reuss Voigt Hill
#
# Bulk Modulus (GPa) = 35.79635 51.42042 43.60839
# Shear Modulus (GPa) = 26.92344 32.73968 29.83156
#
# Velocity S-wave (km/s) = 3.54132 3.90514 3.72767
# Velocity P-wave (km/s) = 5.77886 6.65471 6.23219
#
# Compressibility (1/GPa) = 0.02793581
#
# Stress axis : x y z
#
# Youngs Moduli (GPa) = 80.74603 37.79832 66.39007
#
# Poissons Ratio (x) = 0.23379 -0.01119
# Poissons Ratio (y) = 0.49942 0.46255
# Poissons Ratio (z) = -0.01361 0.26335
#
# Static dielectric constant tensor:
#      x y z
#    x 2.031410 0.000000 0.071000 
#    y 0.000000 1.840440 0.000000 
#    z 0.071000 0.000000 1.823580 
# 
# From -- ./inp_files/13903.got.cif
#   From: 2010.05.17/outbox.cif.g08.bks.cpg/sg14_7_cif.got.tgz:13903.got - 2010.06.03 17:49:19.
