data_PCOD9248837
_publ_section_title
;
Structure prediction by ZEFSAII (Michael W. Deem and Ramdas Pophale) SiO2 
 PCOD9248837
Probable space group: P 21/C
;
_chemical_formula_sum "Si O2"
_cell_formula_units_Z 28
_cell_length_a 7.396417
_cell_length_b 28.122578
_cell_length_c 7.546651
_cell_angle_alpha 90.000000
_cell_angle_beta 128.077303
_cell_angle_gamma 90.000000
_cell_volume 1235.675682
_symmetry_space_group_name_H-M "P 21/C"
_symmetry_group_IT_number 14
_symmetry_cell_setting 'monoclinic'
loop_
_space_group_symop_operation_xyz
x,y,z
-x,1/2+y,1/2-z
-x,-y,-z
x,1/2-y,1/2+z
loop_
_atom_site_type_symbol
_atom_site_label
_atom_site_fract_x
_atom_site_fract_y
_atom_site_fract_z
Si Si1 0.853294 0.313823 0.540008
Si Si2 0.418211 0.554084 0.943501
Si Si3 0.420087 0.414157 0.592904
Si Si4 0.639170 0.810473 0.064301
Si Si5 0.214447 0.580315 0.474314
Si Si6 0.048484 0.013997 0.734272
Si Si7 0.106559 0.241433 0.487788
O O1 0.601754 0.309298 0.476503
O O2 0.894916 0.369710 0.537367
O O3 0.903409 0.279330 0.404951
O O4 0.035758 0.293473 0.789186
O O5 0.416506 0.572192 0.741581
O O6 0.150229 0.550088 0.829318
O O7 0.500000 0.500000 0.000000
O O8 0.547979 0.581417 0.177298
O O9 0.318873 0.363476 0.477867
O O10 0.668000 0.415276 0.646824
O O11 0.281199 0.458270 0.424821
O O12 0.836698 0.792444 0.314672
O O13 0.668848 0.772923 0.922845
O O14 0.053167 0.534357 0.354561
O O15 0.000000 0.000000 0.500000
#
# Coordination Sequence:
#
# PCOD9248837 Si02
#       7
#     4   4   4   4   4   4   4
#     4  10  23  43  67  98 130 171 219 278 333 400
#     4  12  25  43  65  95 136 178 221 270 320 400
#     4  11  25  45  64  98 134 175 219 272 333 393
#     4  10  23  42  66  98 127 172 220 272 338 397
#     4  11  24  45  66 100 131 174 225 267 333 394
#     4  12  24  41  69  94 137 177 215 272 327 391
#     4  10  22  44  68  92 133 168 221 276 338 399
#
# _framework density 22.659666999999999
#
# number of rings (size 3 to 8) (size 9 to 14) (size 15 to 20)
#    0.000    1.143    2.857    2.571    4.000    0.000 
#   18.000    0.000    0.000    0.000    0.000    0.000 
#    0.000    0.000    0.000    0.000    0.000    0.000 
#
# Total GULP energy -156427.594794 kJ/mol
# GULP energy per Si atom -5586.699814 kJ/mol
# Density = 2.260809 g / cm^3
# Si number density = 22.659667 Si / 1000 Ang^3
#
#
#
# Elastic Constant Matrix: (Units=GPa)
#
#
# Indices 1 2 3 4 5 6 
#
# 1 58.7619 6.7854 0.6985 0.0000 -0.1820 0.0000
# 2 6.7854 155.5679 49.1781 0.0000 -6.5883 0.0000
# 3 0.6985 49.1781 79.9207 0.0000 -26.7207 0.0000
# 4 0.0000 0.0000 0.0000 32.4864 0.0000 -1.4902
# 5 -0.1820 -6.5883 -26.7207 0.0000 36.9341 0.0000
# 6 0.0000 0.0000 0.0000 -1.4902 0.0000 16.1047
#
#
#
# Elastic Compliance Matrix: (Units=1/GPa)
#
#
# Indices 1 2 3 4 5 6 
#
# 1 0.017116 -0.000890 0.000492 0.000000 0.000282 0.000000
# 2 -0.000890 0.008254 -0.006042 0.000000 -0.002903 0.000000
# 3 0.000492 -0.006042 0.020929 0.000000 0.014066 0.000000
# 4 0.000000 0.000000 0.000000 0.030913 0.000000 0.002860
# 5 0.000282 -0.002903 0.014066 0.000000 0.036735 0.000000
# 6 0.000000 0.000000 0.000000 0.002860 0.000000 0.062358
#
#
# Mechanical properties :
#
#
# Convention : Reuss Voigt Hill
#
# Bulk Modulus (GPa) = 29.92316 45.28608 37.60462
# Shear Modulus (GPa) = 24.95963 32.94428 28.95195
#
# Velocity S-wave (km/s) = 3.32249 3.81711 3.57835
# Velocity P-wave (km/s) = 5.28703 6.28138 5.80553
#
# Compressibility (1/GPa) = 0.03341893
#
# Stress axis : x y z
#
# Youngs Moduli (GPa) = 58.42609 121.15537 47.78156
#
# Poissons Ratio (x) = 0.10786 -0.02353
# Poissons Ratio (y) = 0.05201 0.28868
# Poissons Ratio (z) = -0.02877 0.73199
#
# Static dielectric constant tensor:
#      x y z
#    x 1.969990 0.000000 -0.015590 
#    y 0.000000 1.814850 0.000000 
#    z -0.015590 0.000000 1.869540 
# 
# From -- ./inp_files/11201.got.cif
#   From: 2010.05.17/outbox.cif.g08.bks.cpg/sg14_6_cif.got.tgz:11201.got - 2010.06.03 17:49:19.
