data_PCOD9248010
_publ_section_title
;
Structure prediction by ZEFSAII (Michael W. Deem and Ramdas Pophale) SiO2 
 PCOD9248010
Probable space group: P 21/C
;
_chemical_formula_sum "Si O2"
_cell_formula_units_Z 20
_cell_length_a 15.433491
_cell_length_b 6.577687
_cell_length_c 10.282362
_cell_angle_alpha 90.000000
_cell_angle_beta 121.673911
_cell_angle_gamma 90.000000
_cell_volume 888.352829
_symmetry_space_group_name_H-M "P 21/C"
_symmetry_group_IT_number 14
_symmetry_cell_setting 'monoclinic'
loop_
_space_group_symop_operation_xyz
x,y,z
-x,1/2+y,1/2-z
-x,-y,-z
x,1/2-y,1/2+z
loop_
_atom_site_type_symbol
_atom_site_label
_atom_site_fract_x
_atom_site_fract_y
_atom_site_fract_z
Si Si1 0.755296 0.812234 0.110120
Si Si2 0.082211 0.925128 0.666008
Si Si3 0.382196 0.550043 0.927234
Si Si4 0.898204 0.443050 0.166509
Si Si5 0.714465 0.200976 0.911932
O O1 0.670382 0.670730 0.104598
O O2 0.836778 0.650669 0.121942
O O3 0.815486 0.948140 0.261479
O O4 0.720368 0.972782 0.974899
O O5 0.104098 0.689239 0.703729
O O6 0.000000 0.000000 0.500000
O O7 0.015598 0.996374 0.739201
O O8 0.334975 0.677790 0.769147
O O9 0.500000 0.500000 0.000000
O O10 0.353273 0.667833 0.038620
O O11 0.828455 0.300588 0.015639
#
# Coordination Sequence:
#
# PCOD9248010 Si02
#       5
#     4   4   4   4   4
#     4  10  24  43  65  98 139 184 230 288 340 419
#     4  11  23  36  64  94 137 184 224 277 338 412
#     4  11  27  48  75 102 136 182 238 293 357 420
#     4  10  22  41  60  98 136 178 230 275 340 408
#     4  10  26  46  71 102 139 180 231 289 352 420
#
# _framework density 22.513576
#
# number of rings (size 3 to 8) (size 9 to 14) (size 15 to 20)
#    0.000    1.600    2.000    0.000   14.000    3.200 
#    0.000    0.000    0.000    0.000    0.000    0.000 
#    0.000    0.000    0.000    0.000    0.000    0.000 
#
# Total GULP energy -111616.579135 kJ/mol
# GULP energy per Si atom -5580.828957 kJ/mol
# Density = 2.246233 g / cm^3
# Si number density = 22.513576 Si / 1000 Ang^3
#
#
#
# Elastic Constant Matrix: (Units=GPa)
#
#
# Indices 1 2 3 4 5 6 
#
# 1 90.6043 41.6176 19.1042 0.0000 31.0484 0.0000
# 2 41.6176 111.0659 9.3275 0.0000 8.3641 0.0000
# 3 19.1042 9.3275 69.1070 0.0000 2.4055 0.0000
# 4 0.0000 0.0000 0.0000 23.3064 0.0000 1.8567
# 5 31.0484 8.3641 2.4055 0.0000 37.7272 0.0000
# 6 0.0000 0.0000 0.0000 1.8567 0.0000 46.3170
#
#
#
# Elastic Compliance Matrix: (Units=1/GPa)
#
#
# Indices 1 2 3 4 5 6 
#
# 1 0.019609 -0.005905 -0.004117 0.000000 -0.014566 0.000000
# 2 -0.005905 0.011030 0.000060 0.000000 0.002411 0.000000
# 3 -0.004117 0.000060 0.015517 0.000000 0.002385 0.000000
# 4 0.000000 0.000000 0.000000 0.043044 0.000000 -0.001726
# 5 -0.014566 0.002411 0.002385 0.000000 0.037807 0.000000
# 6 0.000000 0.000000 0.000000 -0.001726 0.000000 0.021660
#
#
# Mechanical properties :
#
#
# Convention : Reuss Voigt Hill
#
# Bulk Modulus (GPa) = 38.12135 45.65286 41.88711
# Shear Modulus (GPa) = 28.19530 34.85196 31.52363
#
# Velocity S-wave (km/s) = 3.54272 3.93878 3.74599
# Velocity P-wave (km/s) = 5.80550 6.40370 6.11192
#
# Compressibility (1/GPa) = 0.02623202
#
# Stress axis : x y z
#
# Youngs Moduli (GPa) = 50.99727 90.66358 64.44432
#
# Poissons Ratio (x) = 0.53537 0.26530
# Poissons Ratio (y) = 0.30114 -0.00385
# Poissons Ratio (z) = 0.20994 -0.00542
#
# Static dielectric constant tensor:
#      x y z
#    x 2.138350 0.000000 -0.106740 
#    y 0.000000 1.869740 0.000000 
#    z -0.106740 0.000000 1.891700 
# 
# From -- ./inp_files/33306.got.cif
#   From: 2010.05.17/outbox.cif.g08.bks.cpg/sg14_17_cif.got.tgz:33306.got - 2010.06.03 17:49:19.
