data_PCOD9248327
_publ_section_title
;
Structure prediction by ZEFSAII (Michael W. Deem and Ramdas Pophale) SiO2 
 PCOD9248327
Probable space group: P 21/C
;
_chemical_formula_sum "Si O2"
_cell_formula_units_Z 20
_cell_length_a 9.755459
_cell_length_b 13.729274
_cell_length_c 10.162372
_cell_angle_alpha 90.000000
_cell_angle_beta 42.951514
_cell_angle_gamma 90.000000
_cell_volume 927.425965
_symmetry_space_group_name_H-M "P 21/C"
_symmetry_group_IT_number 14
_symmetry_cell_setting 'monoclinic'
loop_
_space_group_symop_operation_xyz
x,y,z
-x,1/2+y,1/2-z
-x,-y,-z
x,1/2-y,1/2+z
loop_
_atom_site_type_symbol
_atom_site_label
_atom_site_fract_x
_atom_site_fract_y
_atom_site_fract_z
Si Si1 0.251565 0.524322 0.543418
Si Si2 0.574564 0.223254 0.183927
Si Si3 0.680560 0.070435 0.703357
Si Si4 0.447501 0.340926 0.035116
Si Si5 0.190340 0.520133 0.170739
O O1 0.295526 0.629554 0.447560
O O2 0.238721 0.542067 0.710169
O O3 0.444322 0.457845 0.376300
O O4 0.045213 0.477313 0.639818
O O5 0.697863 0.315373 0.154974
O O6 0.421432 0.197748 0.407444
O O7 0.455720 0.258754 0.138750
O O8 0.772096 0.014935 0.513614
O O9 0.670168 0.390272 0.882549
O O10 0.288818 0.426007 0.169563
#
# Coordination Sequence:
#
# PCOD9248327 Si02
#       5
#     4   4   4   4   4
#     4  11  22  41  69  95 129 174 215 259 331 378
#     4  11  21  43  62  93 132 169 206 272 320 373
#     4  10  22  42  65  94 135 165 212 273 313 381
#     4  10  22  43  63  91 136 164 216 271 319 375
#     4  10  22  43  66  92 125 178 214 266 316 388
#
# _framework density 21.565062999999999
#
# number of rings (size 3 to 8) (size 9 to 14) (size 15 to 20)
#    0.000    1.600    4.000    0.600    0.000    0.800 
#   10.800    0.000    0.000    0.000    0.000    0.000 
#    0.000    0.000    0.000    0.000    0.000    0.000 
#
# Total GULP energy -111741.178387 kJ/mol
# GULP energy per Si atom -5587.058919 kJ/mol
# Density = 2.151598 g / cm^3
# Si number density = 21.565063 Si / 1000 Ang^3
#
#
#
# Elastic Constant Matrix: (Units=GPa)
#
#
# Indices 1 2 3 4 5 6 
#
# 1 74.1350 22.2842 46.6121 0.0000 5.5362 0.0000
# 2 22.2842 48.7674 20.5533 0.0000 -4.6508 0.0000
# 3 46.6121 20.5533 58.2243 0.0000 8.7288 0.0000
# 4 0.0000 0.0000 0.0000 4.2695 0.0000 3.3530
# 5 5.5362 -4.6508 8.7288 0.0000 50.6078 0.0000
# 6 0.0000 0.0000 0.0000 3.3530 0.0000 4.8836
#
#
#
# Elastic Compliance Matrix: (Units=1/GPa)
#
#
# Indices 1 2 3 4 5 6 
#
# 1 0.027780 -0.003862 -0.020908 0.000000 0.000212 0.000000
# 2 -0.003862 0.025351 -0.006436 0.000000 0.003862 0.000000
# 3 -0.020908 -0.006436 0.036885 0.000000 -0.004666 0.000000
# 4 0.000000 0.000000 0.000000 0.508272 0.000000 -0.348966
# 5 0.000212 0.003862 -0.004666 0.000000 0.020896 0.000000
# 6 0.000000 0.000000 0.000000 -0.348966 0.000000 0.444358
#
#
# Mechanical properties :
#
#
# Convention : Reuss Voigt Hill
#
# Bulk Modulus (GPa) = 36.22779 40.00289 38.11534
# Shear Modulus (GPa) = 4.40469 18.06400 11.23434
#
# Velocity S-wave (km/s) = 1.43071 2.89736 2.28491
# Velocity P-wave (km/s) = 4.42324 5.45739 4.96730
#
# Compressibility (1/GPa) = 0.02760312
#
# Stress axis : x y z
#
# Youngs Moduli (GPa) = 35.99762 39.44586 27.11162
#
# Poissons Ratio (x) = 0.15234 0.56685
# Poissons Ratio (y) = 0.13902 0.17450
# Poissons Ratio (z) = 0.75263 0.25389
#
# Static dielectric constant tensor:
#      x y z
#    x 1.797810 0.000000 0.050210 
#    y 0.000000 1.792900 0.000000 
#    z 0.050210 0.000000 1.765740 
# 
# From -- ./inp_files/20749.got.cif
#   From: 2010.05.17/outbox.cif.g08.bks.cpg/sg14_11_cif.got.tgz:20749.got - 2010.06.03 17:49:19.
