data_PCOD9248241
_publ_section_title
;
Structure prediction by ZEFSAII (Michael W. Deem and Ramdas Pophale) SiO2 
 PCOD9248241
Probable space group: P 21/C
;
_chemical_formula_sum "Si O2"
_cell_formula_units_Z 24
_cell_length_a 13.508264
_cell_length_b 14.589612
_cell_length_c 11.442458
_cell_angle_alpha 90.000000
_cell_angle_beta 150.180240
_cell_angle_gamma 90.000000
_cell_volume 1121.392550
_symmetry_space_group_name_H-M "P 21/C"
_symmetry_group_IT_number 14
_symmetry_cell_setting 'monoclinic'
loop_
_space_group_symop_operation_xyz
x,y,z
-x,1/2+y,1/2-z
-x,-y,-z
x,1/2-y,1/2+z
loop_
_atom_site_type_symbol
_atom_site_label
_atom_site_fract_x
_atom_site_fract_y
_atom_site_fract_z
Si Si1 0.802828 0.004332 0.147452
Si Si2 0.924384 0.068477 0.023512
Si Si3 0.894975 0.139744 0.433181
Si Si4 0.773571 0.784140 0.683615
Si Si5 0.479654 0.639806 0.288592
Si Si6 0.547951 0.395496 0.009574
O O1 0.813260 0.099499 0.227840
O O2 0.833395 0.017372 0.041153
O O3 0.983736 0.942115 0.378961
O O4 0.599490 0.948636 0.960169
O O5 0.749700 0.126938 0.784983
O O6 0.104739 0.132728 0.249518
O O7 0.000000 0.000000 0.000000
O O8 0.710522 0.162346 0.327860
O O9 0.059350 0.218617 0.589126
O O10 0.637476 0.723087 0.459222
O O11 0.629534 0.830389 0.630530
O O12 0.422166 0.616321 0.097357
O O13 0.500000 0.500000 0.000000
#
# Coordination Sequence:
#
# PCOD9248241 Si02
#       6
#     4   4   4   4   4   4
#     4  10  22  41  72  98 135 182 227 283 346 421
#     4  12  23  43  70 100 134 183 234 284 351 409
#     4  10  23  44  67 102 139 179 230 285 353 408
#     4  11  26  44  65 105 134 182 231 286 349 412
#     4  11  23  46  70 101 141 176 234 288 347 423
#     4  12  24  45  70 103 136 183 236 290 353 417
#
# _framework density 21.401959999999999
#
# number of rings (size 3 to 8) (size 9 to 14) (size 15 to 20)
#    0.000    1.000    3.333    2.500    2.333    1.333 
#    9.000    0.000    0.000    0.000    0.000    0.000 
#    0.000    0.000    0.000    0.000    0.000    0.000 
#
# Total GULP energy -134184.501835 kJ/mol
# GULP energy per Si atom -5591.020910 kJ/mol
# Density = 2.135325 g / cm^3
# Si number density = 21.401960 Si / 1000 Ang^3
#
#
#
# Elastic Constant Matrix: (Units=GPa)
#
#
# Indices 1 2 3 4 5 6 
#
# 1 115.2306 49.4386 50.6953 0.0000 7.5862 0.0000
# 2 49.4386 94.2341 32.0077 0.0000 4.7706 0.0000
# 3 50.6953 32.0077 95.5924 0.0000 9.5118 0.0000
# 4 0.0000 0.0000 0.0000 22.4407 0.0000 10.1419
# 5 7.5862 4.7706 9.5118 0.0000 40.3021 0.0000
# 6 0.0000 0.0000 0.0000 10.1419 0.0000 28.1221
#
#
#
# Elastic Compliance Matrix: (Units=1/GPa)
#
#
# Indices 1 2 3 4 5 6 
#
# 1 0.013222 -0.005127 -0.005231 0.000000 -0.000647 0.000000
# 2 -0.005127 0.013971 -0.001936 0.000000 -0.000232 0.000000
# 3 -0.005231 -0.001936 0.014093 0.000000 -0.002112 0.000000
# 4 0.000000 0.000000 0.000000 0.053239 0.000000 -0.019200
# 5 -0.000647 -0.000232 -0.002112 0.000000 0.025460 0.000000
# 6 0.000000 0.000000 0.000000 -0.019200 0.000000 0.042483
#
#
# Mechanical properties :
#
#
# Convention : Reuss Voigt Hill
#
# Bulk Modulus (GPa) = 59.88445 63.26003 61.57224
# Shear Modulus (GPa) = 25.95738 29.70069 27.82904
#
# Velocity S-wave (km/s) = 3.48638 3.72930 3.60988
# Velocity P-wave (km/s) = 6.65192 6.94016 6.79757
#
# Compressibility (1/GPa) = 0.01669883
#
# Stress axis : x y z
#
# Youngs Moduli (GPa) = 75.63202 71.57650 70.95482
#
# Poissons Ratio (x) = 0.36699 0.37115
# Poissons Ratio (y) = 0.38778 0.13736
# Poissons Ratio (z) = 0.39561 0.13856
#
# Static dielectric constant tensor:
#      x y z
#    x 1.722350 0.000000 0.022590 
#    y 0.000000 1.815970 0.000000 
#    z 0.022590 0.000000 1.782190 
# 
# From -- ./inp_files/32804.got.cif
#   From: 2010.05.17/outbox.cif.g08.bks.cpg/sg14_17_cif.got.tgz:32804.got - 2010.06.03 17:49:19.
