data_PCOD9248473
_publ_section_title
;
Structure prediction by ZEFSAII (Michael W. Deem and Ramdas Pophale) SiO2 
 PCOD9248473
Probable space group: P 21/C
;
_chemical_formula_sum "Si O2"
_cell_formula_units_Z 20
_cell_length_a 13.569799
_cell_length_b 6.355897
_cell_length_c 9.769851
_cell_angle_alpha 90.000000
_cell_angle_beta 80.248531
_cell_angle_gamma 90.000000
_cell_volume 830.457907
_symmetry_space_group_name_H-M "P 21/C"
_symmetry_group_IT_number 14
_symmetry_cell_setting 'monoclinic'
loop_
_space_group_symop_operation_xyz
x,y,z
-x,1/2+y,1/2-z
-x,-y,-z
x,1/2-y,1/2+z
loop_
_atom_site_type_symbol
_atom_site_label
_atom_site_fract_x
_atom_site_fract_y
_atom_site_fract_z
Si Si1 0.314351 0.293159 0.749737
Si Si2 0.608912 0.540337 0.533553
Si Si3 0.074832 0.389300 0.086449
Si Si4 0.111974 0.051362 0.868958
Si Si5 0.758404 0.326379 0.070620
O O1 0.339941 0.301727 0.585678
O O2 0.207194 0.193812 0.804668
O O3 0.303505 0.529025 0.810087
O O4 0.390940 0.153237 0.819467
O O5 0.500000 0.500000 0.500000
O O6 0.679509 0.335003 0.523205
O O7 0.043904 0.411555 0.251519
O O8 0.080612 0.154003 0.021480
O O9 0.178450 0.520068 0.042991
O O10 0.000000 0.500000 0.000000
O O11 0.157273 0.820132 0.877537
#
# Coordination Sequence:
#
# PCOD9248473 Si02
#       5
#     4   4   4   4   4
#     4  10  22  43  65  92 128 167 216 265 327 388
#     4  11  25  41  66  98 131 169 219 269 322 399
#     4  11  25  41  66  98 131 169 219 269 322 399
#     4  10  22  43  65  92 128 167 216 265 327 388
#     4  10  22  42  70  90 130 172 210 274 332 378
#
# _framework density 24.083096999999999
#
# number of rings (size 3 to 8) (size 9 to 14) (size 15 to 20)
#    0.000    1.600    0.000    4.800    5.600    4.800 
#    0.000    0.000    0.000    0.000    0.000    0.000 
#    0.000    0.000    0.000    0.000    0.000    0.000 
#
# Total GULP energy -111907.082526 kJ/mol
# GULP energy per Si atom -5595.354126 kJ/mol
# Density = 2.402828 g / cm^3
# Si number density = 24.083097 Si / 1000 Ang^3
#
#
#
# Elastic Constant Matrix: (Units=GPa)
#
#
# Indices 1 2 3 4 5 6 
#
# 1 82.4194 31.8636 21.7012 0.0000 27.6313 0.0000
# 2 31.8636 108.1176 35.6948 0.0000 18.8683 0.0000
# 3 21.7012 35.6948 107.1423 0.0000 20.3920 0.0000
# 4 0.0000 0.0000 0.0000 39.7421 0.0000 5.6392
# 5 27.6313 18.8683 20.3920 0.0000 34.9677 0.0000
# 6 0.0000 0.0000 0.0000 5.6392 0.0000 25.9058
#
#
#
# Elastic Compliance Matrix: (Units=1/GPa)
#
#
# Indices 1 2 3 4 5 6 
#
# 1 0.017352 -0.002939 -0.000256 0.000000 -0.011976 0.000000
# 2 -0.002939 0.011423 -0.002789 0.000000 -0.002215 0.000000
# 3 -0.000256 -0.002789 0.011237 0.000000 -0.004846 0.000000
# 4 0.000000 0.000000 0.000000 0.025964 0.000000 -0.005652
# 5 -0.011976 -0.002215 -0.004846 0.000000 0.042082 0.000000
# 6 0.000000 0.000000 0.000000 -0.005652 0.000000 0.039832
#
#
# Mechanical properties :
#
#
# Convention : Reuss Voigt Hill
#
# Bulk Modulus (GPa) = 35.65925 52.91095 44.28510
# Shear Modulus (GPa) = 29.55008 34.01779 31.78393
#
# Velocity S-wave (km/s) = 3.50666 3.76242 3.63679
# Velocity P-wave (km/s) = 5.58878 6.39471 6.00528
#
# Compressibility (1/GPa) = 0.02804322
#
# Stress axis : x y z
#
# Youngs Moduli (GPa) = 57.63099 87.54588 88.99537
#
# Poissons Ratio (x) = 0.25732 0.02278
# Poissons Ratio (y) = 0.16939 0.24817
# Poissons Ratio (z) = 0.01475 0.24413
#
# Static dielectric constant tensor:
#      x y z
#    x 1.958480 0.000000 -0.014600 
#    y 0.000000 1.939230 0.000000 
#    z -0.014600 0.000000 1.960070 
# 
# From -- ./inp_files/17263.got.cif
#   From: 2010.05.17/outbox.cif.g08.bks.cpg/sg14_9_cif.got.tgz:17263.got - 2010.06.03 17:49:19.
