data_PCOD9248835
_publ_section_title
;
Structure prediction by ZEFSAII (Michael W. Deem and Ramdas Pophale) SiO2 
 PCOD9248835
Probable space group: P 21/C
;
_chemical_formula_sum "Si O2"
_cell_formula_units_Z 24
_cell_length_a 11.718935
_cell_length_b 7.694984
_cell_length_c 9.857921
_cell_angle_alpha 90.000000
_cell_angle_beta 86.445317
_cell_angle_gamma 90.000000
_cell_volume 887.247628
_symmetry_space_group_name_H-M "P 21/C"
_symmetry_group_IT_number 14
_symmetry_cell_setting 'monoclinic'
loop_
_space_group_symop_operation_xyz
x,y,z
-x,1/2+y,1/2-z
-x,-y,-z
x,1/2-y,1/2+z
loop_
_atom_site_type_symbol
_atom_site_label
_atom_site_fract_x
_atom_site_fract_y
_atom_site_fract_z
Si Si1 0.128063 0.918336 0.053817
Si Si2 0.725438 0.830442 0.376016
Si Si3 0.918858 0.771807 0.153721
Si Si4 0.366987 0.806337 0.984810
Si Si5 0.417939 0.324326 0.372504
Si Si6 0.817762 0.419442 0.054163
O O1 0.261449 0.896698 0.074571
O O2 0.106172 0.751376 0.958380
O O3 0.113302 0.084382 0.959420
O O4 0.042250 0.858498 0.178268
O O5 0.836084 0.759271 0.289573
O O6 0.622908 0.802746 0.277737
O O7 0.677905 0.760994 0.522324
O O8 0.771240 0.022611 0.407607
O O9 0.891953 0.581907 0.095624
O O10 0.305859 0.663276 0.892165
O O11 0.417842 0.967983 0.897030
O O12 0.464106 0.746287 0.081012
#
# Coordination Sequence:
#
# PCOD9248835 Si02
#       6
#     4   4   4   4   4   4
#     4   9  21  45  72 101 139 190 231 304 353 436
#     4  12  23  45  70 102 142 189 237 294 361 428
#     4  11  21  46  72 102 146 180 239 299 365 423
#     4   9  22  46  65 106 139 189 237 299 359 430
#     4  11  24  47  70 101 150 185 241 304 356 437
#     4  10  22  44  68 104 134 187 241 286 357 431
#
# _framework density 27.049944
#
# number of rings (size 3 to 8) (size 9 to 14) (size 15 to 20)
#    1.000    0.667    3.333    0.500    0.000    3.333 
#   21.000    0.000    0.000    0.000    0.000    0.000 
#    0.000    0.000    0.000    0.000    0.000    0.000 
#
# Total GULP energy -133665.928229 kJ/mol
# GULP energy per Si atom -5569.413676 kJ/mol
# Density = 2.698838 g / cm^3
# Si number density = 27.049944 Si / 1000 Ang^3
#
#
#
# Elastic Constant Matrix: (Units=GPa)
#
#
# Indices 1 2 3 4 5 6 
#
# 1 117.3080 21.7630 10.9785 0.0000 -15.7588 0.0000
# 2 21.7630 148.6841 35.0398 0.0000 8.7327 0.0000
# 3 10.9785 35.0398 102.5387 0.0000 18.6554 0.0000
# 4 0.0000 0.0000 0.0000 23.0227 0.0000 -3.0475
# 5 -15.7588 8.7327 18.6554 0.0000 20.1626 0.0000
# 6 0.0000 0.0000 0.0000 -3.0475 0.0000 41.9255
#
#
#
# Elastic Compliance Matrix: (Units=1/GPa)
#
#
# Indices 1 2 3 4 5 6 
#
# 1 0.010610 -0.001596 -0.002676 0.000000 0.011460 0.000000
# 2 -0.001596 0.007572 -0.001916 0.000000 -0.002754 0.000000
# 3 -0.002676 -0.001916 0.013134 0.000000 -0.013414 0.000000
# 4 0.000000 0.000000 0.000000 0.043857 0.000000 0.003188
# 5 0.011460 -0.002754 -0.013414 0.000000 0.072157 0.000000
# 6 0.000000 0.000000 0.000000 0.003188 0.000000 0.024084
#
#
# Mechanical properties :
#
#
# Convention : Reuss Voigt Hill
#
# Bulk Modulus (GPa) = 52.79038 56.01037 54.40038
# Shear Modulus (GPa) = 26.30143 37.07212 31.68678
#
# Velocity S-wave (km/s) = 3.12160 3.70605 3.42631
# Velocity P-wave (km/s) = 5.70533 6.25015 5.98394
#
# Compressibility (1/GPa) = 0.01894284
#
# Stress axis : x y z
#
# Youngs Moduli (GPa) = 94.24664 132.05754 76.13830
#
# Poissons Ratio (x) = 0.21070 0.20373
# Poissons Ratio (y) = 0.15038 0.14586
# Poissons Ratio (z) = 0.25218 0.25299
#
# Static dielectric constant tensor:
#      x y z
#    x 2.385480 0.000000 -0.100720 
#    y 0.000000 2.239360 0.000000 
#    z -0.100720 0.000000 2.197820 
# 
# From -- ./inp_files/31237.got.cif
#   From: 2010.05.17/outbox.cif.g08.bks.cpg/sg14_16_cif.got.tgz:31237.got - 2010.06.03 17:49:19.
