data_PCOD9248553
_publ_section_title
;
Structure prediction by ZEFSAII (Michael W. Deem and Ramdas Pophale) SiO2 
 PCOD9248553
Probable space group: P 21/C
;
_chemical_formula_sum "Si O2"
_cell_formula_units_Z 28
_cell_length_a 10.947361
_cell_length_b 10.894452
_cell_length_c 16.757266
_cell_angle_alpha 90.000000
_cell_angle_beta 137.210772
_cell_angle_gamma 90.000000
_cell_volume 1357.631002
_symmetry_space_group_name_H-M "P 21/C"
_symmetry_group_IT_number 14
_symmetry_cell_setting 'monoclinic'
loop_
_space_group_symop_operation_xyz
x,y,z
-x,1/2+y,1/2-z
-x,-y,-z
x,1/2-y,1/2+z
loop_
_atom_site_type_symbol
_atom_site_label
_atom_site_fract_x
_atom_site_fract_y
_atom_site_fract_z
Si Si1 0.481720 0.759668 0.667572
Si Si2 0.414942 0.630489 0.476307
Si Si3 0.190562 0.354501 0.596630
Si Si4 0.344794 0.527826 0.991573
Si Si5 0.727194 0.753786 0.533703
Si Si6 0.797731 0.359183 0.358847
Si Si7 0.889777 0.210941 0.721688
O O1 0.434946 0.659394 0.578782
O O2 0.689643 0.769933 0.789419
O O3 0.366924 0.721365 0.689123
O O4 0.422497 0.888371 0.599652
O O5 0.500000 0.500000 0.500000
O O6 0.543372 0.724513 0.490678
O O7 0.213903 0.663414 0.352032
O O8 0.252419 0.328574 0.535426
O O9 0.225464 0.495425 0.638014
O O10 0.978539 0.327738 0.495339
O O11 0.273729 0.397351 0.987743
O O12 0.188363 0.607745 0.874785
O O13 0.500000 0.500000 0.000000
O O14 0.896501 0.726842 0.672379
O O15 0.833837 0.329447 0.284072
#
# Coordination Sequence:
#
# PCOD9248553 Si02
#       7
#     4   4   4   4   4   4   4
#     4  11  23  37  67  91 122 165 203 257 306 368
#     4  11  24  41  59  94 124 158 210 258 309 356
#     4  10  23  40  65  91 121 168 201 253 311 369
#     4  11  22  43  64  92 123 167 210 249 307 371
#     4  11  23  42  65  91 125 161 209 254 305 369
#     4  10  22  43  62  92 126 159 211 247 310 376
#     4  10  23  41  66  91 123 168 202 258 307 366
#
# _framework density 20.624161000000001
#
# number of rings (size 3 to 8) (size 9 to 14) (size 15 to 20)
#    0.000    1.429    2.857    2.571    4.000    2.286 
#    2.571    1.429    0.000    0.000    0.000    0.000 
#    0.000    0.000    0.000    0.000    0.000    0.000 
#
# Total GULP energy -156485.219709 kJ/mol
# GULP energy per Si atom -5588.757847 kJ/mol
# Density = 2.057722 g / cm^3
# Si number density = 20.624161 Si / 1000 Ang^3
#
#
#
# Elastic Constant Matrix: (Units=GPa)
#
#
# Indices 1 2 3 4 5 6 
#
# 1 17.4167 -17.1825 -16.6315 0.0000 1.9109 0.0000
# 2 -17.1825 62.1481 7.6507 0.0000 2.5088 0.0000
# 3 -16.6315 7.6507 107.1345 0.0000 6.6299 0.0000
# 4 0.0000 0.0000 0.0000 11.8169 0.0000 7.4039
# 5 1.9109 2.5088 6.6299 0.0000 21.5951 0.0000
# 6 0.0000 0.0000 0.0000 7.4039 0.0000 24.1182
#
#
#
# Elastic Compliance Matrix: (Units=1/GPa)
#
#
# Indices 1 2 3 4 5 6 
#
# 1 0.098892 0.026214 0.014485 0.000000 -0.016243 0.000000
# 2 0.026214 0.023234 0.002774 0.000000 -0.005870 0.000000
# 3 0.014485 0.002774 0.011706 0.000000 -0.005198 0.000000
# 4 0.000000 0.000000 0.000000 0.104778 0.000000 -0.032165
# 5 -0.016243 -0.005870 -0.005198 0.000000 0.050022 0.000000
# 6 0.000000 0.000000 0.000000 -0.032165 0.000000 0.051337
#
#
# Mechanical properties :
#
#
# Convention : Reuss Voigt Hill
#
# Bulk Modulus (GPa) = 4.52944 14.93028 9.72986
# Shear Modulus (GPa) = 15.30852 25.69688 20.50270
#
# Velocity S-wave (km/s) = 2.72740 3.53365 3.15637
# Velocity P-wave (km/s) = 3.48127 4.88915 4.24400
#
# Compressibility (1/GPa) = 0.22077765
#
# Stress axis : x y z
#
# Youngs Moduli (GPa) = 10.11202 43.04097 85.42376
#
# Poissons Ratio (x) = -1.12827 -1.23738
# Poissons Ratio (y) = -0.26508 -0.23693
# Poissons Ratio (z) = -0.14647 -0.11938
#
# Static dielectric constant tensor:
#      x y z
#    x 1.713570 0.000000 -0.003670 
#    y 0.000000 1.739940 0.000000 
#    z -0.003670 0.000000 1.740810 
# 
# From -- ./inp_files/57608.got.cif
#   From: 2010.05.17/outbox.cif.g08.bks.cpg/sg14_29_cif.got.tgz:57608.got - 2010.06.03 17:49:19.
