data_PCOD9248155
_publ_section_title
;
Structure prediction by ZEFSAII (Michael W. Deem and Ramdas Pophale) SiO2 
 PCOD9248155
Probable space group: P 21/C
;
_chemical_formula_sum "Si O2"
_cell_formula_units_Z 30
_cell_length_a 22.995052
_cell_length_b 5.090361
_cell_length_c 24.017286
_cell_angle_alpha 90.000000
_cell_angle_beta 155.123348
_cell_angle_gamma 90.000000
_cell_volume 1182.617998
_symmetry_space_group_name_H-M "P 21/C"
_symmetry_group_IT_number 14
_symmetry_cell_setting 'monoclinic'
loop_
_space_group_symop_operation_xyz
x,y,z
-x,1/2+y,1/2-z
-x,-y,-z
x,1/2-y,1/2+z
loop_
_atom_site_type_symbol
_atom_site_label
_atom_site_fract_x
_atom_site_fract_y
_atom_site_fract_z
Si Si1 0.933332 0.455862 0.852767
Si Si2 0.693130 0.738117 0.018450
Si Si3 0.434988 0.052342 0.827693
Si Si4 0.000000 0.500000 0.500000
Si Si5 0.676519 0.133597 0.596093
Si Si6 0.951910 0.054385 0.242312
Si Si7 0.759101 0.806913 0.765315
Si Si8 0.585252 0.694172 0.813027
O O1 0.997231 0.470954 0.846605
O O2 0.910030 0.729311 0.867072
O O3 0.774992 0.365511 0.702712
O O4 0.994652 0.240599 0.946313
O O5 0.689416 0.625339 0.953126
O O6 0.536843 0.809051 0.902706
O O7 0.753342 0.542678 0.116444
O O8 0.787484 0.994372 0.098957
O O9 0.310698 0.071540 0.762919
O O10 0.379118 0.148716 0.719735
O O11 0.542128 0.254308 0.949962
O O12 0.827414 0.470585 0.362082
O O13 0.661340 0.935004 0.634455
O O14 0.987939 0.324130 0.244010
O O15 0.457959 0.494959 0.714068
#
# Coordination Sequence:
#
# PCOD9248155 Si02
#       8
#     4   4   4   2   4   4   4   4
#     4  11  24  47  71 102 142 188 246 305 366 432
#     4  11  23  43  68 101 145 183 237 305 357 435
#     4  11  23  40  68 107 138 187 236 290 370 437
#     4  10  26  46  70  92 146 188 240 298 362 434
#     4  11  20  41  70  99 147 177 232 295 362 426
#     4  12  27  45  75 107 140 193 253 302 372 438
#     4  11  24  43  70 104 140 188 236 298 367 434
#     4  10  22  41  66  95 142 185 228 289 356 425
#
# _framework density 25.367448
#
# number of rings (size 3 to 8) (size 9 to 14) (size 15 to 20)
#    0.000    1.067    4.000    1.600    1.867    5.333 
#    0.000    2.667    0.000    0.000    0.000    0.000 
#    0.000    0.000    0.000    0.000    0.000    0.000 
#
# Total GULP energy -167264.813004 kJ/mol
# GULP energy per Si atom -5575.493767 kJ/mol
# Density = 2.530971 g / cm^3
# Si number density = 25.367448 Si / 1000 Ang^3
#
#
#
# Elastic Constant Matrix: (Units=GPa)
#
#
# Indices 1 2 3 4 5 6 
#
# 1 122.8552 14.9515 32.3063 0.0000 -8.7769 0.0000
# 2 14.9515 81.4273 11.0661 0.0000 10.6727 0.0000
# 3 32.3063 11.0661 73.1969 0.0000 -19.3472 0.0000
# 4 0.0000 0.0000 0.0000 31.3176 0.0000 -5.5848
# 5 -8.7769 10.6727 -19.3472 0.0000 42.4533 0.0000
# 6 0.0000 0.0000 0.0000 -5.5848 0.0000 29.6843
#
#
#
# Elastic Compliance Matrix: (Units=1/GPa)
#
#
# Indices 1 2 3 4 5 6 
#
# 1 0.009327 -0.001266 -0.003788 0.000000 0.000520 0.000000
# 2 -0.001266 0.013540 -0.002794 0.000000 -0.004939 0.000000
# 3 -0.003788 -0.002794 0.017889 0.000000 0.008072 0.000000
# 4 0.000000 0.000000 0.000000 0.033039 0.000000 0.006216
# 5 0.000520 -0.004939 0.008072 0.000000 0.028583 0.000000
# 6 0.000000 0.000000 0.000000 0.006216 0.000000 0.034857
#
#
# Mechanical properties :
#
#
# Convention : Reuss Voigt Hill
#
# Bulk Modulus (GPa) = 39.90107 43.79189 41.84648
# Shear Modulus (GPa) = 31.00094 35.30140 33.15117
#
# Velocity S-wave (km/s) = 3.49961 3.73447 3.61894
# Velocity P-wave (km/s) = 5.66508 5.99128 5.83046
#
# Compressibility (1/GPa) = 0.02506199
#
# Stress axis : x y z
#
# Youngs Moduli (GPa) = 107.21659 73.85316 55.89900
#
# Poissons Ratio (x) = 0.09350 0.21172
# Poissons Ratio (y) = 0.13574 0.15617
# Poissons Ratio (z) = 0.40609 0.20633
#
# Static dielectric constant tensor:
#      x y z
#    x 1.922730 0.000000 0.287880 
#    y 0.000000 1.230820 0.000000 
#    z 0.287880 0.000000 1.477300 
# 
# From -- ./inp_files/74520.got.cif
#   From: 2010.05.17/outbox.cif.g08.bks.cpg/sg14_38_cif.got.tgz:74520.got - 2010.06.03 17:49:19.
