data_PCOD9248919
_publ_section_title
;
Structure prediction by ZEFSAII (Michael W. Deem and Ramdas Pophale) SiO2 
 PCOD9248919
Probable space group: P 21/C
;
_chemical_formula_sum "Si O2"
_cell_formula_units_Z 22
_cell_length_a 4.883684
_cell_length_b 13.282334
_cell_length_c 13.857189
_cell_angle_alpha 90.000000
_cell_angle_beta 113.081462
_cell_angle_gamma 90.000000
_cell_volume 826.914402
_symmetry_space_group_name_H-M "P 21/C"
_symmetry_group_IT_number 14
_symmetry_cell_setting 'monoclinic'
loop_
_space_group_symop_operation_xyz
x,y,z
-x,1/2+y,1/2-z
-x,-y,-z
x,1/2-y,1/2+z
loop_
_atom_site_type_symbol
_atom_site_label
_atom_site_fract_x
_atom_site_fract_y
_atom_site_fract_z
Si Si1 0.466597 0.255228 0.306927
Si Si2 0.708694 0.079985 0.220974
Si Si3 0.161964 0.977617 0.424213
Si Si4 0.500000 0.500000 0.500000
Si Si5 0.622881 0.281681 0.123742
Si Si6 0.105332 0.192741 0.932849
O O1 0.510621 0.140816 0.273070
O O2 0.513977 0.316251 0.214470
O O3 0.184445 0.278261 0.333120
O O4 0.763727 0.284517 0.408189
O O5 0.773346 0.171508 0.154176
O O6 0.546936 0.003358 0.126987
O O7 0.990959 0.037105 0.316004
O O8 0.167464 0.862229 0.393948
O O9 0.500000 0.000000 0.500000
O O10 0.000000 0.000000 0.500000
O O11 0.778337 0.581100 0.530569
O O12 0.324519 0.264718 0.022109
#
# Coordination Sequence:
#
# PCOD9248919 Si02
#       6
#     4   4   4   2   4   4
#     4  10  23  41  67  94 138 180 226 281 356 407
#     4   9  22  45  68 108 139 194 234 295 358 423
#     4  12  25  45  73 105 140 187 243 295 355 434
#     4  10  22  44  72 102 146 180 250 290 352 432
#     4   9  23  43  66 103 135 184 229 288 354 410
#     4  11  22  43  66  99 136 183 225 294 343 416
#
# _framework density 26.604928999999998
#
# number of rings (size 3 to 8) (size 9 to 14) (size 15 to 20)
#    1.091    0.727    0.000    3.273    0.000    5.091 
#    0.000    3.636    0.000    0.000    0.000    0.000 
#    0.000    0.000    0.000    0.000    0.000    0.000 
#
# Total GULP energy -122689.610987 kJ/mol
# GULP energy per Si atom -5576.800499 kJ/mol
# Density = 2.654438 g / cm^3
# Si number density = 26.604929 Si / 1000 Ang^3
#
#
#
# Elastic Constant Matrix: (Units=GPa)
#
#
# Indices 1 2 3 4 5 6 
#
# 1 128.8924 26.0207 35.0599 0.0000 11.1872 0.0000
# 2 26.0207 68.2146 12.2131 0.0000 -9.5103 0.0000
# 3 35.0599 12.2131 161.2063 0.0000 6.9699 0.0000
# 4 0.0000 0.0000 0.0000 57.8077 0.0000 0.0802
# 5 11.1872 -9.5103 6.9699 0.0000 32.2722 0.0000
# 6 0.0000 0.0000 0.0000 0.0802 0.0000 24.2619
#
#
#
# Elastic Compliance Matrix: (Units=1/GPa)
#
#
# Indices 1 2 3 4 5 6 
#
# 1 0.009305 -0.003830 -0.001560 0.000000 -0.004017 0.000000
# 2 -0.003830 0.017168 -0.000751 0.000000 0.006549 0.000000
# 3 -0.001560 -0.000751 0.006648 0.000000 -0.001116 0.000000
# 4 0.000000 0.000000 0.000000 0.017299 0.000000 -0.000057
# 5 -0.004017 0.006549 -0.001116 0.000000 0.034550 0.000000
# 6 0.000000 0.000000 0.000000 -0.000057 0.000000 0.041217
#
#
# Mechanical properties :
#
#
# Convention : Reuss Voigt Hill
#
# Bulk Modulus (GPa) = 47.98708 56.10008 52.04358
# Shear Modulus (GPa) = 34.38465 41.86968 38.12716
#
# Velocity S-wave (km/s) = 3.59892 3.97136 3.78972
# Velocity P-wave (km/s) = 5.94522 6.49316 6.22522
#
# Compressibility (1/GPa) = 0.02083894
#
# Stress axis : x y z
#
# Youngs Moduli (GPa) = 107.47417 58.24757 150.43029
#
# Poissons Ratio (x) = 0.22309 0.23463
# Poissons Ratio (y) = 0.41163 0.11295
# Poissons Ratio (z) = 0.16763 0.04373
#
# Static dielectric constant tensor:
#      x y z
#    x 2.035800 0.000000 -0.001810 
#    y 0.000000 2.223720 0.000000 
#    z -0.001810 0.000000 2.141380 
# 
# From -- ./inp_files/37404.got.cif
#   From: 2010.05.17/outbox.cif.g08.bks.cpg/sg14_19_cif.got.tgz:37404.got - 2010.06.03 17:49:19.
