data_PCOD9248814
_publ_section_title
;
Structure prediction by ZEFSAII (Michael W. Deem and Ramdas Pophale) SiO2 
 PCOD9248814
Probable space group: P 21/C
;
_chemical_formula_sum "Si O2"
_cell_formula_units_Z 32
_cell_length_a 9.495856
_cell_length_b 19.085795
_cell_length_c 10.714854
_cell_angle_alpha 90.000000
_cell_angle_beta 54.182122
_cell_angle_gamma 90.000000
_cell_volume 1574.663982
_symmetry_space_group_name_H-M "P 21/C"
_symmetry_group_IT_number 14
_symmetry_cell_setting 'monoclinic'
loop_
_space_group_symop_operation_xyz
x,y,z
-x,1/2+y,1/2-z
-x,-y,-z
x,1/2-y,1/2+z
loop_
_atom_site_type_symbol
_atom_site_label
_atom_site_fract_x
_atom_site_fract_y
_atom_site_fract_z
Si Si1 0.547522 0.573801 0.040227
Si Si2 0.573364 0.073545 0.118924
Si Si3 0.855258 0.187632 0.936425
Si Si4 0.881353 0.654780 0.904317
Si Si5 0.233439 0.837954 0.602444
Si Si6 0.013115 0.429379 0.915593
Si Si7 0.294958 0.428320 0.555881
Si Si8 0.907208 0.691541 0.454685
O O1 0.530393 0.566031 0.198590
O O2 0.408342 0.632442 0.070516
O O3 0.500000 0.500000 0.000000
O O4 0.739350 0.604279 0.915375
O O5 0.451906 0.094539 0.065186
O O6 0.723091 0.130685 0.057400
O O7 0.653218 0.998688 0.041460
O O8 0.759137 0.261485 0.964298
O O9 0.939660 0.157274 0.765862
O O10 0.016554 0.199422 0.946520
O O11 0.828996 0.736025 0.943682
O O12 0.911527 0.627688 0.028366
O O13 0.165735 0.897199 0.542019
O O14 0.077070 0.827689 0.783372
O O15 0.137305 0.441961 0.733548
O O16 0.000000 0.500000 0.000000
O O17 0.231491 0.369399 0.493353
#
# Coordination Sequence:
#
# PCOD9248814 Si02
#       8
#     4   4   4   4   4   4   4   4
#     4  12  26  44  64 100 135 171 214 276 327 384
#     4  11  24  45  66  93 133 170 220 265 324 390
#     4  11  23  44  68  96 128 174 218 266 325 391
#     4  11  24  41  66  96 129 172 217 265 329 387
#     4  10  23  42  65  96 129 168 218 265 323 382
#     4  11  20  40  65  92 129 169 210 267 321 382
#     4  10  24  42  64  95 127 173 213 265 320 390
#     4  10  22  44  67  94 128 169 221 266 322 389
#
# _framework density 20.321795999999999
#
# number of rings (size 3 to 8) (size 9 to 14) (size 15 to 20)
#    0.000    1.250    3.750    1.500    3.500    1.500 
#    0.000    0.000    0.000    0.000    0.000    0.000 
#    0.000    0.000    0.000    0.000    0.000    0.000 
#
# Total GULP energy -178771.889705 kJ/mol
# GULP energy per Si atom -5586.621553 kJ/mol
# Density = 2.027554 g / cm^3
# Si number density = 20.321796 Si / 1000 Ang^3
#
#
#
# Elastic Constant Matrix: (Units=GPa)
#
#
# Indices 1 2 3 4 5 6 
#
# 1 57.7177 28.4366 -10.6759 0.0000 10.8907 0.0000
# 2 28.4366 87.1622 19.6651 0.0000 3.7659 0.0000
# 3 -10.6759 19.6651 45.4965 0.0000 4.6870 0.0000
# 4 0.0000 0.0000 0.0000 20.0919 0.0000 0.6427
# 5 10.8907 3.7659 4.6870 0.0000 24.5073 0.0000
# 6 0.0000 0.0000 0.0000 0.6427 0.0000 38.7391
#
#
#
# Elastic Compliance Matrix: (Units=1/GPa)
#
#
# Indices 1 2 3 4 5 6 
#
# 1 0.027747 -0.011370 0.012767 0.000000 -0.013025 0.000000
# 2 -0.011370 0.017392 -0.010640 0.000000 0.004415 0.000000
# 3 0.012767 -0.010640 0.030594 0.000000 -0.009890 0.000000
# 4 0.000000 0.000000 0.000000 0.049798 0.000000 -0.000826
# 5 -0.013025 0.004415 -0.009890 0.000000 0.047805 0.000000
# 6 0.000000 0.000000 0.000000 -0.000826 0.000000 0.025827
#
#
# Mechanical properties :
#
#
# Convention : Reuss Voigt Hill
#
# Bulk Modulus (GPa) = 17.46848 29.46978 23.46913
# Shear Modulus (GPa) = 21.12100 26.86436 23.99268
#
# Velocity S-wave (km/s) = 3.22736 3.63981 3.43977
# Velocity P-wave (km/s) = 4.74367 5.67427 5.22971
#
# Compressibility (1/GPa) = 0.05724596
#
# Stress axis : x y z
#
# Youngs Moduli (GPa) = 36.04027 57.49698 32.68664
#
# Poissons Ratio (x) = 0.65375 -0.41732
# Poissons Ratio (y) = 0.40978 0.34780
# Poissons Ratio (z) = -0.46013 0.61179
#
# Static dielectric constant tensor:
#      x y z
#    x 1.724380 0.000000 0.011170 
#    y 0.000000 1.710490 0.000000 
#    z 0.011170 0.000000 1.712400 
# 
# From -- ./inp_files/26047.got.cif
#   From: 2010.05.17/outbox.cif.g08.bks.cpg/sg14_14_cif.got.tgz:26047.got - 2010.06.03 17:49:19.
