data_PCOD9248758
_publ_section_title
;
Structure prediction by ZEFSAII (Michael W. Deem and Ramdas Pophale) SiO2 
 PCOD9248758
Probable space group: P 21/C
;
_chemical_formula_sum "Si O2"
_cell_formula_units_Z 20
_cell_length_a 7.134510
_cell_length_b 13.914967
_cell_length_c 7.842366
_cell_angle_alpha 90.000000
_cell_angle_beta 76.455214
_cell_angle_gamma 90.000000
_cell_volume 756.908381
_symmetry_space_group_name_H-M "P 21/C"
_symmetry_group_IT_number 14
_symmetry_cell_setting 'monoclinic'
loop_
_space_group_symop_operation_xyz
x,y,z
-x,1/2+y,1/2-z
-x,-y,-z
x,1/2-y,1/2+z
loop_
_atom_site_type_symbol
_atom_site_label
_atom_site_fract_x
_atom_site_fract_y
_atom_site_fract_z
Si Si1 0.798477 0.349282 0.535532
Si Si2 0.730376 0.926458 0.520369
Si Si3 0.592839 0.520964 0.698238
Si Si4 0.439684 0.281255 0.181827
Si Si5 0.030937 0.311994 0.807653
O O1 0.694410 0.452784 0.538979
O O2 0.629915 0.279503 0.637324
O O3 0.951253 0.358959 0.655275
O O4 0.909753 0.284675 0.373412
O O5 0.612804 0.983141 0.688916
O O6 0.585763 0.840791 0.489258
O O7 0.934119 0.884379 0.540471
O O8 0.728724 0.983036 0.341246
O O9 0.570025 0.634576 0.673610
O O10 0.248589 0.219987 0.231087
#
# Coordination Sequence:
#
# PCOD9248758 Si02
#       5
#     4   4   4   4   4
#     4  12  24  40  69  94 128 174 214 258 336 366
#     4   9  19  43  65  90 126 171 215 257 306 384
#     4   9  20  41  68  91 126 177 211 256 322 379
#     4  10  22  44  60  94 133 160 217 271 301 382
#     4  12  24  40  66 100 128 169 210 274 312 384
#
# _framework density 26.423279000000001
#
# number of rings (size 3 to 8) (size 9 to 14) (size 15 to 20)
#    1.200    0.400    4.000    1.200    0.000    1.600 
#    3.600    1.000    0.000    0.000    0.000    0.000 
#    0.000    0.000    0.000    0.000    0.000    0.000 
#
# Total GULP energy -111809.332406 kJ/mol
# GULP energy per Si atom -5590.466620 kJ/mol
# Density = 2.636314 g / cm^3
# Si number density = 26.423279 Si / 1000 Ang^3
#
#
#
# Elastic Constant Matrix: (Units=GPa)
#
#
# Indices 1 2 3 4 5 6 
#
# 1 86.0130 22.5439 7.4106 0.0000 -7.5602 0.0000
# 2 22.5439 91.0804 -1.8528 0.0000 -0.4925 0.0000
# 3 7.4106 -1.8528 63.1815 0.0000 11.0238 0.0000
# 4 0.0000 0.0000 0.0000 34.9137 0.0000 -6.3025
# 5 -7.5602 -0.4925 11.0238 0.0000 27.0719 0.0000
# 6 0.0000 0.0000 0.0000 -6.3025 0.0000 37.6873
#
#
#
# Elastic Compliance Matrix: (Units=1/GPa)
#
#
# Indices 1 2 3 4 5 6 
#
# 1 0.013095 -0.003266 -0.002432 0.000000 0.004588 0.000000
# 2 -0.003266 0.011801 0.000916 0.000000 -0.001070 0.000000
# 3 -0.002432 0.000916 0.017498 0.000000 -0.007788 0.000000
# 4 0.000000 0.000000 0.000000 0.029534 0.000000 0.004939
# 5 0.004588 -0.001070 -0.007788 0.000000 0.041372 0.000000
# 6 0.000000 0.000000 0.000000 0.004939 0.000000 0.027360
#
#
# Mechanical properties :
#
#
# Convention : Reuss Voigt Hill
#
# Bulk Modulus (GPa) = 30.46045 32.94201 31.70123
# Shear Modulus (GPa) = 31.02376 34.07946 32.55161
#
# Velocity S-wave (km/s) = 3.43024 3.59521 3.51369
# Velocity P-wave (km/s) = 5.21935 5.45235 5.33712
#
# Compressibility (1/GPa) = 0.03282946
#
# Stress axis : x y z
#
# Youngs Moduli (GPa) = 76.36543 84.74206 57.14811
#
# Poissons Ratio (x) = 0.27676 0.13899
# Poissons Ratio (y) = 0.24940 -0.05234
# Poissons Ratio (z) = 0.18573 -0.07761
#
# Static dielectric constant tensor:
#      x y z
#    x 1.995130 0.000000 0.071790 
#    y 0.000000 2.208370 0.000000 
#    z 0.071790 0.000000 2.136180 
# 
# From -- ./inp_files/20757.got.cif
#   From: 2010.05.17/outbox.cif.g08.bks.cpg/sg14_11_cif.got.tgz:20757.got - 2010.06.03 17:49:19.
