data_PCOD9248899
_publ_section_title
;
Structure prediction by ZEFSAII (Michael W. Deem and Ramdas Pophale) SiO2 
 PCOD9248899
Probable space group: P 21/C
;
_chemical_formula_sum "Si O2"
_cell_formula_units_Z 32
_cell_length_a 8.900372
_cell_length_b 5.435477
_cell_length_c 26.075876
_cell_angle_alpha 90.000000
_cell_angle_beta 87.050969
_cell_angle_gamma 90.000000
_cell_volume 1259.822062
_symmetry_space_group_name_H-M "P 21/C"
_symmetry_group_IT_number 14
_symmetry_cell_setting 'monoclinic'
loop_
_space_group_symop_operation_xyz
x,y,z
-x,1/2+y,1/2-z
-x,-y,-z
x,1/2-y,1/2+z
loop_
_atom_site_type_symbol
_atom_site_label
_atom_site_fract_x
_atom_site_fract_y
_atom_site_fract_z
Si Si1 0.449541 0.610913 0.947139
Si Si2 0.857652 0.589000 0.035159
Si Si3 0.881228 0.382181 0.802250
Si Si4 0.379438 0.742820 0.123199
Si Si5 0.532695 0.612457 0.717355
Si Si6 0.854511 0.987764 0.188173
Si Si7 0.253248 0.090912 0.051763
Si Si8 0.021528 0.666901 0.880023
O O1 0.271547 0.620203 0.958673
O O2 0.485846 0.416534 0.901977
O O3 0.574422 0.822345 0.939216
O O4 0.500000 0.500000 0.000000
O O5 0.922058 0.577160 0.091618
O O6 0.788924 0.823723 0.005669
O O7 0.000000 0.500000 0.000000
O O8 0.733763 0.406570 0.839134
O O9 0.846341 0.381358 0.743758
O O10 0.974577 0.608282 0.822866
O O11 0.986414 0.152324 0.813573
O O12 0.440764 0.927808 0.165640
O O13 0.274560 0.823385 0.076555
O O14 0.516160 0.357582 0.749912
O O15 0.702829 0.670270 0.696049
O O16 0.847944 0.139705 0.135430
O O17 0.118878 0.217207 0.086720
#
# Coordination Sequence:
#
# PCOD9248899 Si02
#       8
#     4   4   4   4   4   4   4   4
#     4  10  23  44  71  99 138 190 242 310 374 455
#     4   9  22  43  68  99 138 187 245 316 377 453
#     4  12  25  44  71 104 141 198 253 310 377 467
#     4  12  26  45  74 106 147 200 251 314 389 456
#     4  12  32  50  75 113 160 204 260 321 385 460
#     4  12  27  44  71 106 147 200 253 315 379 459
#     4  10  22  44  70  99 142 187 249 304 381 457
#     4  11  23  43  70 101 143 189 244 313 378 446
#
# _framework density 25.400414000000001
#
# number of rings (size 3 to 8) (size 9 to 14) (size 15 to 20)
#    0.000    1.000    5.000    0.000   10.500    2.000 
#    0.000    3.125    0.000    0.000    0.000    0.000 
#    0.000    0.000    0.000    0.000    0.000    0.000 
#
# Total GULP energy -178280.107197 kJ/mol
# GULP energy per Si atom -5571.253350 kJ/mol
# Density = 2.534260 g / cm^3
# Si number density = 25.400414 Si / 1000 Ang^3
#
#
#
# Elastic Constant Matrix: (Units=GPa)
#
#
# Indices 1 2 3 4 5 6 
#
# 1 99.3900 12.5509 54.3716 0.0000 -7.5573 0.0000
# 2 12.5509 55.5811 31.4684 0.0000 -9.3395 0.0000
# 3 54.3716 31.4684 102.6986 0.0000 -23.8159 0.0000
# 4 0.0000 0.0000 0.0000 34.1838 0.0000 -1.0168
# 5 -7.5573 -9.3395 -23.8159 0.0000 38.1984 0.0000
# 6 0.0000 0.0000 0.0000 -1.0168 0.0000 22.1344
#
#
#
# Elastic Compliance Matrix: (Units=1/GPa)
#
#
# Indices 1 2 3 4 5 6 
#
# 1 0.014387 0.001191 -0.008480 0.000000 -0.002150 0.000000
# 2 0.001191 0.021927 -0.007075 0.000000 0.001186 0.000000
# 3 -0.008480 -0.007075 0.018242 0.000000 0.007966 0.000000
# 4 0.000000 0.000000 0.000000 0.029294 0.000000 0.001346
# 5 -0.002150 0.001186 0.007966 0.000000 0.031010 0.000000
# 6 0.000000 0.000000 0.000000 0.001346 0.000000 0.045240
#
#
# Mechanical properties :
#
#
# Convention : Reuss Voigt Hill
#
# Bulk Modulus (GPa) = 38.71595 50.49459 44.60527
# Shear Modulus (GPa) = 25.32449 29.52188 27.42319
#
# Velocity S-wave (km/s) = 3.16097 3.41289 3.28935
# Velocity P-wave (km/s) = 5.34768 5.95425 5.65910
#
# Compressibility (1/GPa) = 0.02582915
#
# Stress axis : x y z
#
# Youngs Moduli (GPa) = 69.50902 45.60493 54.81852
#
# Poissons Ratio (x) = -0.05433 0.46488
# Poissons Ratio (y) = -0.08281 0.38782
# Poissons Ratio (z) = 0.58945 0.32264
#
# Static dielectric constant tensor:
#      x y z
#    x 2.126450 0.000000 0.100800 
#    y 0.000000 2.207430 0.000000 
#    z 0.100800 0.000000 2.004890 
# 
# From -- ./inp_files/79110.got.cif
#   From: 2010.05.17/outbox.cif.g08.bks.cpg/sg14_40_cif.got.tgz:79110.got - 2010.06.03 17:49:19.
