data_PCOD9248667
_publ_section_title
;
Structure prediction by ZEFSAII (Michael W. Deem and Ramdas Pophale) SiO2 
 PCOD9248667
Probable space group: P 21/C
;
_chemical_formula_sum "Si O2"
_cell_formula_units_Z 20
_cell_length_a 7.197396
_cell_length_b 11.530832
_cell_length_c 11.816061
_cell_angle_alpha 90.000000
_cell_angle_beta 68.821936
_cell_angle_gamma 90.000000
_cell_volume 914.407953
_symmetry_space_group_name_H-M "P 21/C"
_symmetry_group_IT_number 14
_symmetry_cell_setting 'monoclinic'
loop_
_space_group_symop_operation_xyz
x,y,z
-x,1/2+y,1/2-z
-x,-y,-z
x,1/2-y,1/2+z
loop_
_atom_site_type_symbol
_atom_site_label
_atom_site_fract_x
_atom_site_fract_y
_atom_site_fract_z
Si Si1 0.176929 0.723991 0.621798
Si Si2 0.239174 0.190972 0.694285
Si Si3 0.499552 0.893323 0.913365
Si Si4 0.736841 0.021333 0.457347
Si Si5 0.374283 0.576840 0.781242
O O1 0.296657 0.676021 0.485809
O O2 0.214407 0.861046 0.619336
O O3 0.269663 0.652589 0.706830
O O4 0.940810 0.707967 0.679559
O O5 0.314416 0.306091 0.613353
O O6 0.437503 0.149360 0.715086
O O7 0.175120 0.091971 0.620124
O O8 0.534923 0.956688 0.786888
O O9 0.500000 0.000000 0.000000
O O10 0.769005 0.044388 0.582927
O O11 0.500000 0.000000 0.500000
#
# Coordination Sequence:
#
# PCOD9248667 Si02
#       5
#     4   4   4   4   4
#     4  11  24  45  66  99 134 171 227 276 330 400
#     4  11  25  43  69 100 132 175 226 272 330 398
#     4  10  23  44  65  98 134 173 221 277 325 398
#     4  10  22  43  68  97 134 174 220 277 326 397
#     4  10  24  44  71  92 139 176 219 277 339 383
#
# _framework density 21.872074999999999
#
# number of rings (size 3 to 8) (size 9 to 14) (size 15 to 20)
#    0.000    1.600    4.000    0.000   11.200    1.600 
#    7.200    0.000    0.000    0.000    0.000    0.000 
#    0.000    0.000    0.000    0.000    0.000    0.000 
#
# Total GULP energy -111675.787903 kJ/mol
# GULP energy per Si atom -5583.789395 kJ/mol
# Density = 2.182229 g / cm^3
# Si number density = 21.872075 Si / 1000 Ang^3
#
#
#
# Elastic Constant Matrix: (Units=GPa)
#
#
# Indices 1 2 3 4 5 6 
#
# 1 53.9654 14.9759 24.7564 0.0000 -16.5625 0.0000
# 2 14.9759 147.9140 52.2324 0.0000 -12.9741 0.0000
# 3 24.7564 52.2324 101.0799 0.0000 -22.6099 0.0000
# 4 0.0000 0.0000 0.0000 41.7300 0.0000 5.3891
# 5 -16.5625 -12.9741 -22.6099 0.0000 41.1275 0.0000
# 6 0.0000 0.0000 0.0000 5.3891 0.0000 9.7923
#
#
#
# Elastic Compliance Matrix: (Units=1/GPa)
#
#
# Indices 1 2 3 4 5 6 
#
# 1 0.022469 -0.000332 -0.003798 0.000000 0.006856 0.000000
# 2 -0.000332 0.008278 -0.004153 0.000000 0.000195 0.000000
# 3 -0.003798 -0.004153 0.014063 0.000000 0.004892 0.000000
# 4 0.000000 0.000000 0.000000 0.025797 0.000000 -0.014197
# 5 0.006856 0.000195 0.004892 0.000000 0.029826 0.000000
# 6 0.000000 0.000000 0.000000 -0.014197 0.000000 0.109934
#
#
# Mechanical properties :
#
#
# Convention : Reuss Voigt Hill
#
# Bulk Modulus (GPa) = 35.40502 54.09874 44.75188
# Shear Modulus (GPa) = 21.15523 32.59626 26.87574
#
# Velocity S-wave (km/s) = 3.11340 3.86465 3.50918
# Velocity P-wave (km/s) = 5.39878 6.68594 6.07654
#
# Compressibility (1/GPa) = 0.02824458
#
# Stress axis : x y z
#
# Youngs Moduli (GPa) = 44.50579 120.80524 71.10677
#
# Poissons Ratio (x) = 0.04017 0.27005
# Poissons Ratio (y) = 0.01480 0.29527
# Poissons Ratio (z) = 0.16902 0.50165
#
# Static dielectric constant tensor:
#      x y z
#    x 1.802980 0.000000 0.032480 
#    y 0.000000 1.826740 0.000000 
#    z 0.032480 0.000000 1.845460 
# 
# From -- ./inp_files/23760.got.cif
#   From: 2010.05.17/outbox.cif.g08.bks.cpg/sg14_12_cif.got.tgz:23760.got - 2010.06.03 17:49:19.
