data_PCOD9248869
_publ_section_title
;
Structure prediction by ZEFSAII (Michael W. Deem and Ramdas Pophale) SiO2 
 PCOD9248869
Probable space group: P 21/C
;
_chemical_formula_sum "Si O2"
_cell_formula_units_Z 20
_cell_length_a 9.900639
_cell_length_b 8.243219
_cell_length_c 12.987176
_cell_angle_alpha 90.000000
_cell_angle_beta 130.824503
_cell_angle_gamma 90.000000
_cell_volume 802.061085
_symmetry_space_group_name_H-M "P 21/C"
_symmetry_group_IT_number 14
_symmetry_cell_setting 'monoclinic'
loop_
_space_group_symop_operation_xyz
x,y,z
-x,1/2+y,1/2-z
-x,-y,-z
x,1/2-y,1/2+z
loop_
_atom_site_type_symbol
_atom_site_label
_atom_site_fract_x
_atom_site_fract_y
_atom_site_fract_z
Si Si1 0.901521 0.955351 0.845885
Si Si2 0.556172 0.999108 0.785961
Si Si3 0.327393 0.326387 0.034446
Si Si4 0.575083 0.174246 0.001431
Si Si5 0.018359 0.757241 0.249805
O O1 0.932815 0.774542 0.819877
O O2 0.703321 0.010258 0.770440
O O3 0.979021 0.059677 0.790425
O O4 0.000000 0.000000 0.000000
O O5 0.374244 0.024614 0.632394
O O6 0.608272 0.833728 0.870356
O O7 0.575833 0.144143 0.879183
O O8 0.442830 0.305833 0.986718
O O9 0.121479 0.319539 0.901180
O O10 0.775614 0.203433 0.141045
O O11 0.500000 0.000000 0.000000
#
# Coordination Sequence:
#
# PCOD9248869 Si02
#       5
#     4   4   4   4   4
#     4  12  24  48  73 106 147 190 243 307 361 433
#     4  11  24  46  70 101 148 189 235 304 367 421
#     4  11  25  43  70 107 140 188 244 298 360 435
#     4  10  22  44  69  98 142 186 233 294 357 422
#     4  12  25  45  76 107 141 196 245 299 368 436
#
# _framework density 24.935756999999999
#
# number of rings (size 3 to 8) (size 9 to 14) (size 15 to 20)
#    0.000    0.800    6.000    1.200    2.800    2.400 
#    0.000    5.000    0.000    0.000    0.000    0.000 
#    0.000    0.000    0.000    0.000    0.000    0.000 
#
# Total GULP energy -111713.964364 kJ/mol
# GULP energy per Si atom -5585.698218 kJ/mol
# Density = 2.487900 g / cm^3
# Si number density = 24.935757 Si / 1000 Ang^3
#
#
#
# Elastic Constant Matrix: (Units=GPa)
#
#
# Indices 1 2 3 4 5 6 
#
# 1 77.0639 9.9440 35.8946 0.0000 -4.2644 0.0000
# 2 9.9440 62.8395 49.4217 0.0000 -23.3441 0.0000
# 3 35.8946 49.4217 147.7384 0.0000 9.4509 0.0000
# 4 0.0000 0.0000 0.0000 51.9250 0.0000 -6.9632
# 5 -4.2644 -23.3441 9.4509 0.0000 54.1322 0.0000
# 6 0.0000 0.0000 0.0000 -6.9632 0.0000 19.4069
#
#
#
# Elastic Compliance Matrix: (Units=1/GPa)
#
#
# Indices 1 2 3 4 5 6 
#
# 1 0.014995 0.002401 -0.004640 0.000000 0.003027 0.000000
# 2 0.002401 0.030521 -0.011779 0.000000 0.015408 0.000000
# 3 -0.004640 -0.011779 0.012322 0.000000 -0.007596 0.000000
# 4 0.000000 0.000000 0.000000 0.020232 0.000000 0.007259
# 5 0.003027 0.015408 -0.007596 0.000000 0.026682 0.000000
# 6 0.000000 0.000000 0.000000 0.007259 0.000000 0.054133
#
#
# Mechanical properties :
#
#
# Convention : Reuss Voigt Hill
#
# Bulk Modulus (GPa) = 33.55453 53.12917 43.34185
# Shear Modulus (GPa) = 25.39928 37.91826 31.65877
#
# Velocity S-wave (km/s) = 3.19500 3.90377 3.56703
# Velocity P-wave (km/s) = 5.20541 6.45537 5.86379
#
# Compressibility (1/GPa) = 0.02980224
#
# Stress axis : x y z
#
# Youngs Moduli (GPa) = 66.68837 32.76411 81.15382
#
# Poissons Ratio (x) = -0.07865 0.37655
# Poissons Ratio (y) = -0.16009 0.95590
# Poissons Ratio (z) = 0.30943 0.38593
#
# Static dielectric constant tensor:
#      x y z
#    x 1.998960 0.000000 -0.051750 
#    y 0.000000 2.103740 0.000000 
#    z -0.051750 0.000000 2.013560 
# 
# From -- ./inp_files/27896.got.cif
#   From: 2010.05.17/outbox.cif.g08.bks.cpg/sg14_14_cif.got.tgz:27896.got - 2010.06.03 17:49:19.
