data_PCOD9248739
_publ_section_title
;
Structure prediction by ZEFSAII (Michael W. Deem and Ramdas Pophale) SiO2 
 PCOD9248739
Probable space group: P 21/C
;
_chemical_formula_sum "Si O2"
_cell_formula_units_Z 20
_cell_length_a 4.821056
_cell_length_b 8.131767
_cell_length_c 20.426877
_cell_angle_alpha 90.000000
_cell_angle_beta 69.544529
_cell_angle_gamma 90.000000
_cell_volume 750.313478
_symmetry_space_group_name_H-M "P 21/C"
_symmetry_group_IT_number 14
_symmetry_cell_setting 'monoclinic'
loop_
_space_group_symop_operation_xyz
x,y,z
-x,1/2+y,1/2-z
-x,-y,-z
x,1/2-y,1/2+z
loop_
_atom_site_type_symbol
_atom_site_label
_atom_site_fract_x
_atom_site_fract_y
_atom_site_fract_z
Si Si1 0.275013 0.825508 0.211144
Si Si2 0.311434 0.092579 0.596194
Si Si3 0.082797 0.267394 0.878043
Si Si4 0.116214 0.753739 0.965224
Si Si5 0.482041 0.673175 0.320889
O O1 0.014446 0.821776 0.180296
O O2 0.271019 0.734913 0.280932
O O3 0.562221 0.739430 0.152082
O O4 0.343816 0.016356 0.217412
O O5 0.662972 0.092036 0.549310
O O6 0.330509 0.173307 0.666797
O O7 0.171567 0.213166 0.553394
O O8 0.090305 0.940382 0.613931
O O9 0.959799 0.194091 0.955891
O O10 0.305492 0.871613 0.902123
#
# Coordination Sequence:
#
# PCOD9248739 Si02
#       5
#     4   4   4   4   4
#     4  12  28  43  70  99 139 181 232 284 349 410
#     4  10  22  43  72  97 138 175 228 274 343 412
#     4  12  25  43  72 104 135 180 232 283 344 413
#     4  10  23  43  73  99 139 176 231 280 345 410
#     4  10  28  45  70  97 142 183 230 284 351 409
#
# _framework density 26.655525000000001
#
# number of rings (size 3 to 8) (size 9 to 14) (size 15 to 20)
#    1.200    0.000    0.000    4.800    8.400    1.600 
#    0.000    0.000    0.000    0.000    0.000    0.000 
#    0.000    0.000    0.000    0.000    0.000    0.000 
#
# Total GULP energy -111899.858265 kJ/mol
# GULP energy per Si atom -5594.992913 kJ/mol
# Density = 2.659486 g / cm^3
# Si number density = 26.655525 Si / 1000 Ang^3
#
#
#
# Elastic Constant Matrix: (Units=GPa)
#
#
# Indices 1 2 3 4 5 6 
#
# 1 117.2585 -19.0848 16.6995 0.0000 12.3021 0.0000
# 2 -19.0848 55.7297 21.4300 0.0000 3.1138 0.0000
# 3 16.6995 21.4300 140.0773 0.0000 7.0234 0.0000
# 4 0.0000 0.0000 0.0000 29.7213 0.0000 0.3137
# 5 12.3021 3.1138 7.0234 0.0000 46.9001 0.0000
# 6 0.0000 0.0000 0.0000 0.3137 0.0000 34.3834
#
#
#
# Elastic Compliance Matrix: (Units=1/GPa)
#
#
# Indices 1 2 3 4 5 6 
#
# 1 0.009701 0.004102 -0.001655 0.000000 -0.002569 0.000000
# 2 0.004102 0.020833 -0.003580 0.000000 -0.001923 0.000000
# 3 -0.001655 -0.003580 0.007910 0.000000 -0.000513 0.000000
# 4 0.000000 0.000000 0.000000 0.033649 0.000000 -0.000307
# 5 -0.002569 -0.001923 -0.000513 0.000000 0.022200 0.000000
# 6 0.000000 0.000000 0.000000 -0.000307 0.000000 0.029087
#
#
# Mechanical properties :
#
#
# Convention : Reuss Voigt Hill
#
# Bulk Modulus (GPa) = 27.64134 39.01722 33.32928
# Shear Modulus (GPa) = 36.30971 41.80233 39.05602
#
# Velocity S-wave (km/s) = 3.69478 3.96440 3.83196
# Velocity P-wave (km/s) = 5.34736 5.96864 5.66652
#
# Compressibility (1/GPa) = 0.03617770
#
# Stress axis : x y z
#
# Youngs Moduli (GPa) = 103.08085 48.00174 126.42844
#
# Poissons Ratio (x) = -0.19692 0.20928
# Poissons Ratio (y) = -0.42286 0.45258
# Poissons Ratio (z) = 0.17063 0.17183
#
# Static dielectric constant tensor:
#      x y z
#    x 2.051950 0.000000 -0.098020 
#    y 0.000000 2.181280 0.000000 
#    z -0.098020 0.000000 2.087590 
# 
# From -- ./inp_files/63056.got.cif
#   From: 2010.05.17/outbox.cif.g08.bks.cpg/sg14_32_cif.got.tgz:63056.got - 2010.06.03 17:49:19.
