data_PCOD9248307
_publ_section_title
;
Structure prediction by ZEFSAII (Michael W. Deem and Ramdas Pophale) SiO2 
 PCOD9248307
Probable space group: P 21/C
;
_chemical_formula_sum "Si O2"
_cell_formula_units_Z 28
_cell_length_a 15.430695
_cell_length_b 8.643982
_cell_length_c 8.881966
_cell_angle_alpha 90.000000
_cell_angle_beta 78.751747
_cell_angle_gamma 90.000000
_cell_volume 1161.943526
_symmetry_space_group_name_H-M "P 21/C"
_symmetry_group_IT_number 14
_symmetry_cell_setting 'monoclinic'
loop_
_space_group_symop_operation_xyz
x,y,z
-x,1/2+y,1/2-z
-x,-y,-z
x,1/2-y,1/2+z
loop_
_atom_site_type_symbol
_atom_site_label
_atom_site_fract_x
_atom_site_fract_y
_atom_site_fract_z
Si Si1 0.699132 0.324826 0.497422
Si Si2 0.986326 0.852663 0.900561
Si Si3 0.180449 0.748564 0.766739
Si Si4 0.424510 0.051526 0.410022
Si Si5 0.768983 0.926311 0.412082
Si Si6 0.422590 0.765113 0.732547
Si Si7 0.864173 0.831192 0.671745
O O1 0.764073 0.250064 0.599140
O O2 0.774979 0.382638 0.356066
O O3 0.625813 0.388779 0.639204
O O4 0.632260 0.239436 0.404224
O O5 0.933405 0.899711 0.768398
O O6 0.076525 0.761780 0.829980
O O7 0.926446 0.750240 0.027926
O O8 0.000000 0.000000 0.000000
O O9 0.203619 0.913609 0.678041
O O10 0.335294 0.093564 0.526092
O O11 0.474814 0.193483 0.312788
O O12 0.500000 0.000000 0.500000
O O13 0.410203 0.907542 0.302606
O O14 0.806061 0.924481 0.570962
O O15 0.807111 0.790964 0.290494
#
# Coordination Sequence:
#
# PCOD9248307 Si02
#       7
#     4   4   4   4   4   4   4
#     4  10  22  42  64  96 134 172 223 277 346 404
#     4  11  22  43  67 101 132 176 225 270 336 407
#     4  11  21  42  69  95 134 176 219 285 329 406
#     4  12  25  46  71 101 138 182 236 293 353 417
#     4  11  24  46  67  95 138 180 226 280 351 410
#     4  11  23  44  68 101 137 178 232 291 347 421
#     4  10  25  45  66  99 140 180 224 276 348 420
#
# _framework density 24.097556999999998
#
# number of rings (size 3 to 8) (size 9 to 14) (size 15 to 20)
#    0.000    1.143    4.286    1.714    2.000    2.286 
#    2.571    0.000    0.000    0.000    0.000    0.000 
#    0.000    0.000    0.000    0.000    0.000    0.000 
#
# Total GULP energy -156053.676089 kJ/mol
# GULP energy per Si atom -5573.345575 kJ/mol
# Density = 2.404271 g / cm^3
# Si number density = 24.097557 Si / 1000 Ang^3
#
#
#
# Elastic Constant Matrix: (Units=GPa)
#
#
# Indices 1 2 3 4 5 6 
#
# 1 171.8970 32.4209 74.9654 0.0000 -14.5036 0.0000
# 2 32.4209 61.4635 31.4878 0.0000 0.8610 0.0000
# 3 74.9654 31.4878 170.8205 0.0000 1.2675 0.0000
# 4 0.0000 0.0000 0.0000 26.8077 0.0000 -2.5444
# 5 -14.5036 0.8610 1.2675 0.0000 78.1531 0.0000
# 6 0.0000 0.0000 0.0000 -2.5444 0.0000 28.5852
#
#
#
# Elastic Compliance Matrix: (Units=1/GPa)
#
#
# Indices 1 2 3 4 5 6 
#
# 1 0.007704 -0.002592 -0.002914 0.000000 0.001506 0.000000
# 2 -0.002592 0.018840 -0.002331 0.000000 -0.000651 0.000000
# 3 -0.002914 -0.002331 0.007567 0.000000 -0.000638 0.000000
# 4 0.000000 0.000000 0.000000 0.037621 0.000000 0.003349
# 5 0.001506 -0.000651 -0.000638 0.000000 0.013092 0.000000
# 6 0.000000 0.000000 0.000000 0.003349 0.000000 0.035281
#
#
# Mechanical properties :
#
#
# Convention : Reuss Voigt Hill
#
# Bulk Modulus (GPa) = 54.23580 75.76991 65.00285
# Shear Modulus (GPa) = 35.22968 44.39633 39.81300
#
# Velocity S-wave (km/s) = 3.82771 4.29693 4.06909
# Velocity P-wave (km/s) = 6.48774 7.49195 7.00786
#
# Compressibility (1/GPa) = 0.01843801
#
# Stress axis : x y z
#
# Youngs Moduli (GPa) = 129.79681 53.07841 132.14463
#
# Poissons Ratio (x) = 0.13757 0.38513
# Poissons Ratio (y) = 0.33642 0.30797
# Poissons Ratio (z) = 0.37829 0.12370
#
# Static dielectric constant tensor:
#      x y z
#    x 1.879060 0.000000 -0.077950 
#    y 0.000000 2.011130 0.000000 
#    z -0.077950 0.000000 1.998790 
# 
# From -- ./inp_files/15508.got.cif
#   From: 2010.05.17/outbox.cif.g08.bks.cpg/sg14_8_cif.got.tgz:15508.got - 2010.06.03 17:49:19.
