data_PCOD9248708
_publ_section_title
;
Structure prediction by ZEFSAII (Michael W. Deem and Ramdas Pophale) SiO2 
 PCOD9248708
Probable space group: P 21/C
;
_chemical_formula_sum "Si O2"
_cell_formula_units_Z 24
_cell_length_a 10.457489
_cell_length_b 9.645724
_cell_length_c 9.914618
_cell_angle_alpha 90.000000
_cell_angle_beta 83.809158
_cell_angle_gamma 90.000000
_cell_volume 994.255740
_symmetry_space_group_name_H-M "P 21/C"
_symmetry_group_IT_number 14
_symmetry_cell_setting 'monoclinic'
loop_
_space_group_symop_operation_xyz
x,y,z
-x,1/2+y,1/2-z
-x,-y,-z
x,1/2-y,1/2+z
loop_
_atom_site_type_symbol
_atom_site_label
_atom_site_fract_x
_atom_site_fract_y
_atom_site_fract_z
Si Si1 0.079170 0.010327 0.828632
Si Si2 0.304976 0.416149 0.510642
Si Si3 0.671961 0.132901 0.537592
Si Si4 0.045766 0.764358 0.002655
Si Si5 0.799955 0.626515 0.949674
Si Si6 0.432580 0.838723 0.159856
O O1 0.190492 0.034959 0.926811
O O2 0.142726 0.039177 0.679969
O O3 0.029495 0.857424 0.868162
O O4 0.971528 0.125018 0.874593
O O5 0.261524 0.273015 0.584907
O O6 0.424344 0.380705 0.399419
O O7 0.345524 0.536527 0.608323
O O8 0.816859 0.194110 0.524100
O O9 0.606303 0.199245 0.414398
O O10 0.594485 0.175601 0.679400
O O11 0.692419 0.968512 0.529893
O O12 0.924301 0.662304 0.026340
#
# Coordination Sequence:
#
# PCOD9248708 Si02
#       6
#     4   4   4   4   4   4
#     4  10  22  43  70  97 139 182 229 289 350 417
#     4  10  25  48  68 102 136 191 231 290 356 414
#     4  12  26  45  69 109 136 187 234 292 352 419
#     4  10  23  42  64 100 137 180 225 287 351 412
#     4  11  26  40  73 102 138 181 237 292 348 423
#     4  11  27  46  75  96 147 185 237 292 348 425
#
# _framework density 24.138658
#
# number of rings (size 3 to 8) (size 9 to 14) (size 15 to 20)
#    0.000    1.333    1.667    1.500   11.667    2.000 
#    0.000    0.000    0.000    0.000    0.000    0.000 
#    0.000    0.000    0.000    0.000    0.000    0.000 
#
# Total GULP energy -134436.828916 kJ/mol
# GULP energy per Si atom -5601.534538 kJ/mol
# Density = 2.408372 g / cm^3
# Si number density = 24.138658 Si / 1000 Ang^3
#
#
#
# Elastic Constant Matrix: (Units=GPa)
#
#
# Indices 1 2 3 4 5 6 
#
# 1 61.6466 20.3003 0.8876 0.0000 -18.4797 0.0000
# 2 20.3003 90.2451 5.2609 0.0000 0.0629 0.0000
# 3 0.8876 5.2609 93.5511 0.0000 -12.7367 0.0000
# 4 0.0000 0.0000 0.0000 35.6131 0.0000 -14.8104
# 5 -18.4797 0.0629 -12.7367 0.0000 18.9504 0.0000
# 6 0.0000 0.0000 0.0000 -14.8104 0.0000 28.8964
#
#
#
# Elastic Compliance Matrix: (Units=1/GPa)
#
#
# Indices 1 2 3 4 5 6 
#
# 1 0.026941 -0.006317 0.004050 0.000000 0.029015 0.000000
# 2 -0.006317 0.012603 -0.001644 0.000000 -0.007306 0.000000
# 3 0.004050 -0.001644 0.012418 0.000000 0.012301 0.000000
# 4 0.000000 0.000000 0.000000 0.035686 0.000000 0.018290
# 5 0.029015 -0.007306 0.012301 0.000000 0.089355 0.000000
# 6 0.000000 0.000000 0.000000 0.018290 0.000000 0.043981
#
#
# Mechanical properties :
#
#
# Convention : Reuss Voigt Hill
#
# Bulk Modulus (GPa) = 22.65452 33.14893 27.90172
# Shear Modulus (GPa) = 20.53240 31.29158 25.91199
#
# Velocity S-wave (km/s) = 2.91967 3.60436 3.27993
# Velocity P-wave (km/s) = 4.55758 5.57534 5.09195
#
# Compressibility (1/GPa) = 0.04414130
#
# Stress axis : x y z
#
# Youngs Moduli (GPa) = 37.11825 79.34792 80.52773
#
# Poissons Ratio (x) = 0.50121 -0.32613
# Poissons Ratio (y) = 0.23446 0.13235
# Poissons Ratio (z) = -0.15032 0.13041
#
# Static dielectric constant tensor:
#      x y z
#    x 1.899570 0.000000 0.001030 
#    y 0.000000 1.985630 0.000000 
#    z 0.001030 0.000000 1.886960 
# 
# From -- ./inp_files/28046.got.cif
#   From: 2010.05.17/outbox.cif.g08.bks.cpg/sg14_15_cif.got.tgz:28046.got - 2010.06.03 17:49:19.
