data_PCOD9248281
_publ_section_title
;
Structure prediction by ZEFSAII (Michael W. Deem and Ramdas Pophale) SiO2 
 PCOD9248281
Probable space group: P 21/C
;
_chemical_formula_sum "Si O2"
_cell_formula_units_Z 20
_cell_length_a 7.449415
_cell_length_b 12.638889
_cell_length_c 11.348277
_cell_angle_alpha 90.000000
_cell_angle_beta 63.814602
_cell_angle_gamma 90.000000
_cell_volume 958.810893
_symmetry_space_group_name_H-M "P 21/C"
_symmetry_group_IT_number 14
_symmetry_cell_setting 'monoclinic'
loop_
_space_group_symop_operation_xyz
x,y,z
-x,1/2+y,1/2-z
-x,-y,-z
x,1/2-y,1/2+z
loop_
_atom_site_type_symbol
_atom_site_label
_atom_site_fract_x
_atom_site_fract_y
_atom_site_fract_z
Si Si1 0.453792 0.108248 0.289728
Si Si2 0.201345 0.962713 0.507190
Si Si3 0.116971 0.918472 0.805279
Si Si4 0.279796 0.701866 0.790480
Si Si5 0.712866 0.001766 0.875969
O O1 0.668501 0.051690 0.199966
O O2 0.518285 0.229469 0.284032
O O3 0.308519 0.084046 0.223604
O O4 0.359747 0.055386 0.432481
O O5 0.158618 0.940156 0.654807
O O6 0.274512 0.858715 0.415949
O O7 0.000000 0.000000 0.500000
O O8 0.909523 0.974482 0.893697
O O9 0.889661 0.292327 0.669161
O O10 0.258145 0.614119 0.696665
O O11 0.500000 0.000000 0.000000
#
# Coordination Sequence:
#
# PCOD9248281 Si02
#       5
#     4   4   4   4   4
#     4   9  22  40  60  95 118 159 211 241 316 361
#     4  11  19  41  68  87 128 157 211 262 290 375
#     4  10  22  42  63  90 123 165 204 250 314 360
#     4   9  23  39  59  97 117 163 212 236 319 371
#     4  11  23  44  59  91 132 154 204 269 292 362
#
# _framework density 20.859172999999998
#
# number of rings (size 3 to 8) (size 9 to 14) (size 15 to 20)
#    1.200    0.800    4.000    0.600    2.800    2.400 
#    7.200    0.000    0.000    0.000    0.000    0.000 
#    0.000    0.000    0.000    0.000    0.000    0.000 
#
# Total GULP energy -111426.192418 kJ/mol
# GULP energy per Si atom -5571.309621 kJ/mol
# Density = 2.081170 g / cm^3
# Si number density = 20.859173 Si / 1000 Ang^3
#
#
#
# Elastic Constant Matrix: (Units=GPa)
#
#
# Indices 1 2 3 4 5 6 
#
# 1 85.2071 8.0330 1.1972 0.0000 -18.9909 0.0000
# 2 8.0330 86.2600 8.6163 0.0000 -8.8190 0.0000
# 3 1.1972 8.6163 72.6337 0.0000 -17.5932 0.0000
# 4 0.0000 0.0000 0.0000 5.5288 0.0000 -7.6658
# 5 -18.9909 -8.8190 -17.5932 0.0000 36.9857 0.0000
# 6 0.0000 0.0000 0.0000 -7.6658 0.0000 29.9378
#
#
#
# Elastic Compliance Matrix: (Units=1/GPa)
#
#
# Indices 1 2 3 4 5 6 
#
# 1 0.013458 -0.000649 0.001686 0.000000 0.007557 0.000000
# 2 -0.000649 0.011957 -0.000902 0.000000 0.002089 0.000000
# 3 0.001686 -0.000902 0.015828 0.000000 0.008180 0.000000
# 4 0.000000 0.000000 0.000000 0.280434 0.000000 0.071807
# 5 0.007557 0.002089 0.008180 0.000000 0.035307 0.000000
# 6 0.000000 0.000000 0.000000 0.071807 0.000000 0.051789
#
#
# Mechanical properties :
#
#
# Convention : Reuss Voigt Hill
#
# Bulk Modulus (GPa) = 24.08890 31.08818 27.58854
# Shear Modulus (GPa) = 11.83876 29.57405 20.70641
#
# Velocity S-wave (km/s) = 2.38493 3.76945 3.15409
# Velocity P-wave (km/s) = 4.37690 5.82075 5.14968
#
# Compressibility (1/GPa) = 0.04151290
#
# Stress axis : x y z
#
# Youngs Moduli (GPa) = 74.30533 83.63345 63.17859
#
# Poissons Ratio (x) = 0.05428 -0.10650
# Poissons Ratio (y) = 0.04823 0.05697
# Poissons Ratio (z) = -0.12526 0.07542
#
# Static dielectric constant tensor:
#      x y z
#    x 1.764070 0.000000 -0.017520 
#    y 0.000000 1.732660 0.000000 
#    z -0.017520 0.000000 1.774310 
# 
# From -- ./inp_files/39514.got.cif
#   From: 2010.05.17/outbox.cif.g08.bks.cpg/sg14_20_cif.got.tgz:39514.got - 2010.06.03 17:49:19.
