data_PCOD9248754
_publ_section_title
;
Structure prediction by ZEFSAII (Michael W. Deem and Ramdas Pophale) SiO2 
 PCOD9248754
Probable space group: P 21/C
;
_chemical_formula_sum "Si O2"
_cell_formula_units_Z 26
_cell_length_a 11.589879
_cell_length_b 13.099593
_cell_length_c 6.974753
_cell_angle_alpha 90.000000
_cell_angle_beta 61.243008
_cell_angle_gamma 90.000000
_cell_volume 928.326434
_symmetry_space_group_name_H-M "P 21/C"
_symmetry_group_IT_number 14
_symmetry_cell_setting 'monoclinic'
loop_
_space_group_symop_operation_xyz
x,y,z
-x,1/2+y,1/2-z
-x,-y,-z
x,1/2-y,1/2+z
loop_
_atom_site_type_symbol
_atom_site_label
_atom_site_fract_x
_atom_site_fract_y
_atom_site_fract_z
Si Si1 0.050286 0.321573 0.741844
Si Si2 0.000000 0.000000 0.000000
Si Si3 0.470982 0.641849 0.340975
Si Si4 0.403249 0.412537 0.397531
Si Si5 0.821100 0.515734 0.129734
Si Si6 0.273712 0.149676 0.606660
Si Si7 0.822453 0.341517 0.398329
O O1 0.060950 0.407920 0.900159
O O2 0.168867 0.241135 0.673937
O O3 0.055615 0.394016 0.553652
O O4 0.920103 0.253689 0.822996
O O5 0.111246 0.931121 0.028660
O O6 0.464684 0.521426 0.293880
O O7 0.493164 0.647025 0.552879
O O8 0.601617 0.676612 0.127553
O O9 0.325358 0.683107 0.415281
O O10 0.293338 0.437974 0.644477
O O11 0.338724 0.369504 0.258834
O O12 0.796792 0.547119 0.927380
O O13 0.812033 0.398804 0.200081
#
# Coordination Sequence:
#
# PCOD9248754 Si02
#       7
#     4   2   4   4   4   4   4
#     4  11  24  42  78 109 144 208 267 319 407 479
#     4  10  24  48  78 108 162 214 264 352 404 484
#     4   9  20  41  68 110 156 196 247 332 393 466
#     4   9  19  39  71 104 152 203 251 317 397 466
#     4   9  22  42  67 106 146 194 252 327 377 474
#     4  11  22  38  75 112 145 203 270 313 389 494
#     4  10  22  43  75 104 153 203 251 320 419 469
#
# _framework density 28.007389
#
# number of rings (size 3 to 8) (size 9 to 14) (size 15 to 20)
#    0.000    2.154    0.000    2.308    8.615    0.615 
#    0.000    3.077    6.769    6.462    0.000    0.000 
#    0.000    0.000    0.000    0.000    0.000    0.000 
#
# Total GULP energy -145247.069040 kJ/mol
# GULP energy per Si atom -5586.425732 kJ/mol
# Density = 2.794364 g / cm^3
# Si number density = 28.007389 Si / 1000 Ang^3
#
#
#
# Elastic Constant Matrix: (Units=GPa)
#
#
# Indices 1 2 3 4 5 6 
#
# 1 196.4054 71.6683 66.2025 0.0000 16.3162 0.0000
# 2 71.6683 175.9931 55.6905 0.0000 11.3607 0.0000
# 3 66.2025 55.6905 97.9162 0.0000 0.3005 0.0000
# 4 0.0000 0.0000 0.0000 35.4337 0.0000 13.0534
# 5 16.3162 11.3607 0.3005 0.0000 65.8288 0.0000
# 6 0.0000 0.0000 0.0000 13.0534 0.0000 41.8653
#
#
#
# Elastic Compliance Matrix: (Units=1/GPa)
#
#
# Indices 1 2 3 4 5 6 
#
# 1 0.007101 -0.001559 -0.003909 0.000000 -0.001473 0.000000
# 2 -0.001559 0.007364 -0.003131 0.000000 -0.000870 0.000000
# 3 -0.003909 -0.003131 0.014633 0.000000 0.001443 0.000000
# 4 0.000000 0.000000 0.000000 0.031884 0.000000 -0.009941
# 5 -0.001473 -0.000870 0.001443 0.000000 0.015700 0.000000
# 6 0.000000 0.000000 0.000000 -0.009941 0.000000 0.026986
#
#
# Mechanical properties :
#
#
# Convention : Reuss Voigt Hill
#
# Bulk Modulus (GPa) = 84.05505 95.27083 89.66294
# Shear Modulus (GPa) = 40.05359 47.07578 43.56469
#
# Velocity S-wave (km/s) = 3.78578 4.10425 3.94822
# Velocity P-wave (km/s) = 7.01330 7.51997 7.27105
#
# Compressibility (1/GPa) = 0.01189697
#
# Stress axis : x y z
#
# Youngs Moduli (GPa) = 140.83230 135.79373 68.34054
#
# Poissons Ratio (x) = 0.21175 0.26717
# Poissons Ratio (y) = 0.21961 0.21400
# Poissons Ratio (z) = 0.55057 0.42522
#
# Static dielectric constant tensor:
#      x y z
#    x 2.321250 0.000000 -0.233190 
#    y 0.000000 2.227360 0.000000 
#    z -0.233190 0.000000 2.945860 
# 
# From -- ./inp_files/28539.got.cif
#   From: 2010.05.17/outbox.cif.g08.bks.cpg/sg14_15_cif.got.tgz:28539.got - 2010.06.03 17:49:19.
