data_PCOD9248438
_publ_section_title
;
Structure prediction by ZEFSAII (Michael W. Deem and Ramdas Pophale) SiO2 
 PCOD9248438
Probable space group: P 21/C
;
_chemical_formula_sum "Si O2"
_cell_formula_units_Z 28
_cell_length_a 21.033559
_cell_length_b 4.919673
_cell_length_c 13.487596
_cell_angle_alpha 90.000000
_cell_angle_beta 52.919709
_cell_angle_gamma 90.000000
_cell_volume 1113.455560
_symmetry_space_group_name_H-M "P 21/C"
_symmetry_group_IT_number 14
_symmetry_cell_setting 'monoclinic'
loop_
_space_group_symop_operation_xyz
x,y,z
-x,1/2+y,1/2-z
-x,-y,-z
x,1/2-y,1/2+z
loop_
_atom_site_type_symbol
_atom_site_label
_atom_site_fract_x
_atom_site_fract_y
_atom_site_fract_z
Si Si1 0.682921 0.653717 0.197744
Si Si2 0.833745 0.825199 0.181148
Si Si3 0.374395 0.987316 0.052341
Si Si4 0.286010 0.997895 0.552119
Si Si5 0.062082 0.571633 0.800582
Si Si6 0.516125 0.744768 0.300958
Si Si7 0.050201 0.927473 0.087760
O O1 0.756653 0.779480 0.185537
O O2 0.645581 0.446298 0.313558
O O3 0.604473 0.833148 0.249291
O O4 0.714365 0.546614 0.064108
O O5 0.797927 0.960370 0.314023
O O6 0.874336 0.547811 0.182440
O O7 0.892626 0.987716 0.054292
O O8 0.314203 0.804372 0.046446
O O9 0.350004 0.293355 0.043454
O O10 0.460831 0.880096 0.938850
O O11 0.088348 0.537638 0.661078
O O12 0.026002 0.871061 0.844226
O O13 0.985294 0.373400 0.886623
O O14 0.524395 0.496540 0.215790
#
# Coordination Sequence:
#
# PCOD9248438 Si02
#       7
#     4   4   4   4   4   4   4
#     4  11  25  44  71  99 139 182 226 287 349 397
#     4  11  24  42  66 102 136 177 224 280 341 406
#     4  11  24  45  68  99 130 181 233 282 341 404
#     4  11  25  44  66  98 140 177 226 285 339 405
#     4  10  22  42  68  98 131 174 224 273 328 405
#     4  12  23  45  73  95 135 181 232 289 335 405
#     4  10  22  42  69  95 132 177 220 271 334 399
#
# _framework density 25.146941999999999
#
# number of rings (size 3 to 8) (size 9 to 14) (size 15 to 20)
#    0.000    1.143    2.857    2.143    0.000    9.143 
#    0.000   10.714    0.000    0.000    0.000    0.000 
#    0.000    0.000    0.000    0.000    0.000    0.000 
#
# Total GULP energy -156855.623427 kJ/mol
# GULP energy per Si atom -5601.986551 kJ/mol
# Density = 2.508971 g / cm^3
# Si number density = 25.146942 Si / 1000 Ang^3
#
#
#
# Elastic Constant Matrix: (Units=GPa)
#
#
# Indices 1 2 3 4 5 6 
#
# 1 103.8532 8.3135 53.3195 0.0000 15.0945 0.0000
# 2 8.3135 51.3020 8.1402 0.0000 8.3491 0.0000
# 3 53.3195 8.1402 224.1720 0.0000 27.4321 0.0000
# 4 0.0000 0.0000 0.0000 24.2073 0.0000 2.0445
# 5 15.0945 8.3491 27.4321 0.0000 42.3805 0.0000
# 6 0.0000 0.0000 0.0000 2.0445 0.0000 12.0433
#
#
#
# Elastic Compliance Matrix: (Units=1/GPa)
#
#
# Indices 1 2 3 4 5 6 
#
# 1 0.011257 -0.001080 -0.002361 0.000000 -0.002269 0.000000
# 2 -0.001080 0.020256 -0.000041 0.000000 -0.003580 0.000000
# 3 -0.002361 -0.000041 0.005343 0.000000 -0.002610 0.000000
# 4 0.000000 0.000000 0.000000 0.041911 0.000000 -0.007115
# 5 -0.002269 -0.003580 -0.002610 0.000000 0.026798 0.000000
# 6 0.000000 0.000000 0.000000 -0.007115 0.000000 0.084242
#
#
# Mechanical properties :
#
#
# Convention : Reuss Voigt Hill
#
# Bulk Modulus (GPa) = 33.45213 57.65261 45.55237
# Shear Modulus (GPa) = 24.18550 36.36313 30.27432
#
# Velocity S-wave (km/s) = 3.10460 3.80679 3.47349
# Velocity P-wave (km/s) = 5.11693 6.50371 5.85155
#
# Compressibility (1/GPa) = 0.02989346
#
# Stress axis : x y z
#
# Youngs Moduli (GPa) = 88.83207 49.36692 187.15429
#
# Poissons Ratio (x) = 0.05334 0.44181
# Poissons Ratio (y) = 0.09598 0.00759
# Poissons Ratio (z) = 0.20971 0.00200
#
# Static dielectric constant tensor:
#      x y z
#    x 2.044330 0.000000 -0.004910 
#    y 0.000000 1.941280 0.000000 
#    z -0.004910 0.000000 1.987120 
# 
# From -- ./inp_files/49654.got.cif
#   From: 2010.05.17/outbox.cif.g08.bks.cpg/sg14_25_cif.got.tgz:49654.got - 2010.06.03 17:49:19.
