data_PCOD9248100
_publ_section_title
;
Structure prediction by ZEFSAII (Michael W. Deem and Ramdas Pophale) SiO2 
 PCOD9248100
Probable space group: P 21/C
;
_chemical_formula_sum "Si O2"
_cell_formula_units_Z 28
_cell_length_a 9.253254
_cell_length_b 5.662273
_cell_length_c 28.108982
_cell_angle_alpha 90.000000
_cell_angle_beta 116.795418
_cell_angle_gamma 90.000000
_cell_volume 1314.613023
_symmetry_space_group_name_H-M "P 21/C"
_symmetry_group_IT_number 14
_symmetry_cell_setting 'monoclinic'
loop_
_space_group_symop_operation_xyz
x,y,z
-x,1/2+y,1/2-z
-x,-y,-z
x,1/2-y,1/2+z
loop_
_atom_site_type_symbol
_atom_site_label
_atom_site_fract_x
_atom_site_fract_y
_atom_site_fract_z
Si Si1 0.301490 0.078277 0.914424
Si Si2 0.369647 0.998742 0.388258
Si Si3 0.601753 0.320909 0.210697
Si Si4 0.936103 0.750025 0.468597
Si Si5 0.611218 0.761274 0.471355
Si Si6 0.288073 0.177281 0.729755
Si Si7 0.039833 0.772845 0.374634
O O1 0.345727 0.227235 0.874691
O O2 0.448016 0.893231 0.942280
O O3 0.122893 0.981113 0.880388
O O4 0.305697 0.209341 0.966307
O O5 0.402820 0.849076 0.346717
O O6 0.524502 0.008332 0.447108
O O7 0.197721 0.930836 0.386337
O O8 0.681547 0.069997 0.237574
O O9 0.424124 0.323974 0.208220
O O10 0.687050 0.566073 0.241257
O O11 0.745779 0.731818 0.451290
O O12 0.000000 0.500000 0.500000
O O13 0.983145 0.775128 0.420622
O O14 0.000000 0.000000 0.500000
O O15 0.109194 0.173082 0.681171
#
# Coordination Sequence:
#
# PCOD9248100 Si02
#       7
#     4   4   4   4   4   4   4
#     4  10  22  41  65 100 137 182 226 279 336 417
#     4  11  24  40  69  97 137 184 226 281 346 406
#     4  10  24  46  71  99 132 175 232 278 349 410
#     4  12  26  43  67  99 138 182 228 281 334 401
#     4  10  22  41  65  96 139 183 229 273 338 404
#     4  10  24  46  71 100 132 174 225 290 340 408
#     4  11  25  42  66 103 137 178 228 285 343 406
#
# _framework density 21.299043999999999
#
# number of rings (size 3 to 8) (size 9 to 14) (size 15 to 20)
#    0.000    1.429    1.429    2.143    8.000    1.143 
#    2.571    0.000    0.000    0.000    0.000    0.000 
#    0.000    0.000    0.000    0.000    0.000    0.000 
#
# Total GULP energy -155900.873742 kJ/mol
# GULP energy per Si atom -5567.888348 kJ/mol
# Density = 2.125057 g / cm^3
# Si number density = 21.299044 Si / 1000 Ang^3
#
#
#
# Elastic Constant Matrix: (Units=GPa)
#
#
# Indices 1 2 3 4 5 6 
#
# 1 71.9505 26.1148 26.7486 0.0000 13.5135 0.0000
# 2 26.1148 106.0315 40.5341 0.0000 3.9067 0.0000
# 3 26.7486 40.5341 67.6335 0.0000 13.3242 0.0000
# 4 0.0000 0.0000 0.0000 20.4888 0.0000 -5.0388
# 5 13.5135 3.9067 13.3242 0.0000 39.9522 0.0000
# 6 0.0000 0.0000 0.0000 -5.0388 0.0000 28.7514
#
#
#
# Elastic Compliance Matrix: (Units=1/GPa)
#
#
# Indices 1 2 3 4 5 6 
#
# 1 0.017222 -0.002327 -0.004617 0.000000 -0.004058 0.000000
# 2 -0.002327 0.012616 -0.007013 0.000000 0.001892 0.000000
# 3 -0.004617 -0.007013 0.021805 0.000000 -0.005024 0.000000
# 4 0.000000 0.000000 0.000000 0.051005 0.000000 0.008939
# 5 -0.004058 0.001892 -0.005024 0.000000 0.027893 0.000000
# 6 0.000000 0.000000 0.000000 0.008939 0.000000 0.036348
#
#
# Mechanical properties :
#
#
# Convention : Reuss Voigt Hill
#
# Bulk Modulus (GPa) = 42.14574 48.04560 45.09567
# Shear Modulus (GPa) = 24.66560 27.98636 26.32598
#
# Velocity S-wave (km/s) = 3.40672 3.62881 3.51952
# Velocity P-wave (km/s) = 5.94179 6.33753 6.14285
#
# Compressibility (1/GPa) = 0.02372719
#
# Stress axis : x y z
#
# Youngs Moduli (GPa) = 58.06661 79.26670 45.86192
#
# Poissons Ratio (x) = 0.18446 0.21174
# Poissons Ratio (y) = 0.13512 0.32164
# Poissons Ratio (z) = 0.26809 0.55592
#
# Static dielectric constant tensor:
#      x y z
#    x 1.734320 0.000000 -0.028870 
#    y 0.000000 2.051990 0.000000 
#    z -0.028870 0.000000 1.800530 
# 
# From -- ./inp_files/79170.got.cif
#   From: 2010.05.17/outbox.cif.g08.bks.cpg/sg14_40_cif.got.tgz:79170.got - 2010.06.03 17:49:19.
