data_PCOD9248756
_publ_section_title
;
Structure prediction by ZEFSAII (Michael W. Deem and Ramdas Pophale) SiO2 
 PCOD9248756
Probable space group: P 21/C
;
_chemical_formula_sum "Si O2"
_cell_formula_units_Z 20
_cell_length_a 10.498602
_cell_length_b 7.362529
_cell_length_c 14.571357
_cell_angle_alpha 90.000000
_cell_angle_beta 39.912893
_cell_angle_gamma 90.000000
_cell_volume 722.666466
_symmetry_space_group_name_H-M "P 21/C"
_symmetry_group_IT_number 14
_symmetry_cell_setting 'monoclinic'
loop_
_space_group_symop_operation_xyz
x,y,z
-x,1/2+y,1/2-z
-x,-y,-z
x,1/2-y,1/2+z
loop_
_atom_site_type_symbol
_atom_site_label
_atom_site_fract_x
_atom_site_fract_y
_atom_site_fract_z
Si Si1 0.586532 0.798870 0.935733
Si Si2 0.021309 0.002644 0.265402
Si Si3 0.203789 0.471345 0.941969
Si Si4 0.617098 0.618921 0.717986
Si Si5 0.769090 0.149985 0.260948
O O1 0.580833 0.724532 0.834852
O O2 0.813879 0.841401 0.833741
O O3 0.452486 0.671519 0.074426
O O4 0.500000 0.000000 0.000000
O O5 0.843631 0.052882 0.432764
O O6 0.127086 0.835407 0.260423
O O7 0.912658 0.000766 0.228270
O O8 0.595980 0.434863 0.205945
O O9 0.000000 0.500000 0.000000
O O10 0.256930 0.257865 0.911926
O O11 0.732275 0.433220 0.680566
#
# Coordination Sequence:
#
# PCOD9248756 Si02
#       5
#     4   4   4   4   4
#     4  10  22  43  75 109 139 182 244 312 368 432
#     4  11  24  46  78 110 145 192 243 307 378 449
#     4  12  29  50  72 105 156 200 253 303 378 453
#     4  12  27  49  73 106 152 201 247 311 371 449
#     4  11  25  45  76 112 145 187 250 309 375 440
#
# _framework density 27.675284000000001
#
# number of rings (size 3 to 8) (size 9 to 14) (size 15 to 20)
#    0.000    0.800    4.000    1.800    5.600    0.800 
#    3.600    0.000    0.000    0.000    0.000    0.000 
#    0.000    0.000    0.000    0.000    0.000    0.000 
#
# Total GULP energy -111891.740919 kJ/mol
# GULP energy per Si atom -5594.587046 kJ/mol
# Density = 2.761229 g / cm^3
# Si number density = 27.675284 Si / 1000 Ang^3
#
#
#
# Elastic Constant Matrix: (Units=GPa)
#
#
# Indices 1 2 3 4 5 6 
#
# 1 103.5128 25.3988 49.5866 0.0000 -41.6973 0.0000
# 2 25.3988 139.7870 39.6723 0.0000 -32.5773 0.0000
# 3 49.5866 39.6723 142.5682 0.0000 -39.4901 0.0000
# 4 0.0000 0.0000 0.0000 49.8151 0.0000 -5.8299
# 5 -41.6973 -32.5773 -39.4901 0.0000 62.7574 0.0000
# 6 0.0000 0.0000 0.0000 -5.8299 0.0000 46.2201
#
#
#
# Elastic Compliance Matrix: (Units=1/GPa)
#
#
# Indices 1 2 3 4 5 6 
#
# 1 0.014049 0.000006 -0.002788 0.000000 0.007584 0.000000
# 2 0.000006 0.008350 -0.001361 0.000000 0.003482 0.000000
# 3 -0.002788 -0.001361 0.009269 0.000000 0.003274 0.000000
# 4 0.000000 0.000000 0.000000 0.020375 0.000000 0.002570
# 5 0.007584 0.003482 0.003274 0.000000 0.024841 0.000000
# 6 0.000000 0.000000 0.000000 0.002570 0.000000 0.021960
#
#
# Mechanical properties :
#
#
# Convention : Reuss Voigt Hill
#
# Bulk Modulus (GPa) = 42.76546 68.35372 55.55959
# Shear Modulus (GPa) = 43.50653 49.83921 46.67287
#
# Velocity S-wave (km/s) = 3.96919 4.24825 4.11109
# Velocity P-wave (km/s) = 6.04087 6.98682 6.53099
#
# Compressibility (1/GPa) = 0.02338336
#
# Stress axis : x y z
#
# Youngs Moduli (GPa) = 71.17726 119.75341 107.88207
#
# Poissons Ratio (x) = -0.00069 0.30072
# Poissons Ratio (y) = -0.00041 0.14685
# Poissons Ratio (z) = 0.19841 0.16301
#
# Static dielectric constant tensor:
#      x y z
#    x 2.110850 0.000000 -0.015150 
#    y 0.000000 2.279610 0.000000 
#    z -0.015150 0.000000 2.176840 
# 
# From -- ./inp_files/64463.got.cif
#   From: 2010.05.17/outbox.cif.g08.bks.cpg/sg14_33_cif.got.tgz:64463.got - 2010.06.03 17:49:19.
