data_PCOD9248343
_publ_section_title
;
Structure prediction by ZEFSAII (Michael W. Deem and Ramdas Pophale) SiO2 
 PCOD9248343
Probable space group: P 21/C
;
_chemical_formula_sum "Si O2"
_cell_formula_units_Z 30
_cell_length_a 17.608734
_cell_length_b 7.991258
_cell_length_c 12.730628
_cell_angle_alpha 90.000000
_cell_angle_beta 134.285463
_cell_angle_gamma 90.000000
_cell_volume 1282.410964
_symmetry_space_group_name_H-M "P 21/C"
_symmetry_group_IT_number 14
_symmetry_cell_setting 'monoclinic'
loop_
_space_group_symop_operation_xyz
x,y,z
-x,1/2+y,1/2-z
-x,-y,-z
x,1/2-y,1/2+z
loop_
_atom_site_type_symbol
_atom_site_label
_atom_site_fract_x
_atom_site_fract_y
_atom_site_fract_z
Si Si1 0.172417 0.321332 0.831101
Si Si2 0.064167 0.348408 0.921948
Si Si3 0.404102 0.191443 0.613968
Si Si4 0.847879 0.462585 0.793936
Si Si5 0.526669 0.022637 0.147201
Si Si6 0.879348 0.511764 0.427927
Si Si7 0.301152 0.766944 0.248409
Si Si8 0.500000 0.500000 0.000000
O O1 0.078623 0.388589 0.814150
O O2 0.181933 0.425693 0.734601
O O3 0.156542 0.130992 0.777966
O O4 0.279663 0.335569 0.999082
O O5 0.942920 0.351026 0.841049
O O6 0.120995 0.474704 0.058184
O O7 0.115093 0.165797 0.986714
O O8 0.431356 0.380065 0.609776
O O9 0.453136 0.149204 0.774163
O O10 0.452164 0.080164 0.566165
O O11 0.742471 0.354251 0.701504
O O12 0.631147 0.140181 0.259589
O O13 0.500000 0.000000 0.000000
O O14 0.806866 0.357678 0.397246
O O15 0.000000 0.500000 0.500000
O O16 0.387713 0.900115 0.369626
#
# Coordination Sequence:
#
# PCOD9248343 Si02
#       8
#     4   4   4   4   4   4   4   2
#     4  11  24  42  69 100 141 186 238 295 370 433
#     4  10  23  41  64 100 143 178 239 289 365 435
#     4  11  25  46  72 105 149 192 250 311 374 447
#     4  10  22  42  66 101 140 185 227 301 356 437
#     4  11  27  46  76 112 147 197 251 309 378 452
#     4  11  23  43  68 101 140 189 235 304 363 431
#     4  11  22  46  73  95 145 186 243 299 366 438
#     4  10  24  44  70 102 138 196 244 310 364 442
#
# _framework density 23.393438
#
# number of rings (size 3 to 8) (size 9 to 14) (size 15 to 20)
#    0.000    1.333    2.667    1.600    5.600    3.200 
#    2.400    0.000    0.000    0.000    0.000    0.000 
#    0.000    0.000    0.000    0.000    0.000    0.000 
#
# Total GULP energy -167143.170103 kJ/mol
# GULP energy per Si atom -5571.439003 kJ/mol
# Density = 2.334019 g / cm^3
# Si number density = 23.393438 Si / 1000 Ang^3
#
#
#
# Elastic Constant Matrix: (Units=GPa)
#
#
# Indices 1 2 3 4 5 6 
#
# 1 93.3737 14.5534 2.2885 0.0000 21.1233 0.0000
# 2 14.5534 54.5745 6.3640 0.0000 8.3344 0.0000
# 3 2.2885 6.3640 49.0332 0.0000 0.0523 0.0000
# 4 0.0000 0.0000 0.0000 21.2293 0.0000 7.8537
# 5 21.1233 8.3344 0.0523 0.0000 39.4107 0.0000
# 6 0.0000 0.0000 0.0000 7.8537 0.0000 41.0265
#
#
#
# Elastic Compliance Matrix: (Units=1/GPa)
#
#
# Indices 1 2 3 4 5 6 
#
# 1 0.012484 -0.002352 -0.000271 0.000000 -0.006193 0.000000
# 2 -0.002352 0.019678 -0.002441 0.000000 -0.002898 0.000000
# 3 -0.000271 -0.002441 0.020723 0.000000 0.000634 0.000000
# 4 0.000000 0.000000 0.000000 0.050695 0.000000 -0.009705
# 5 -0.006193 -0.002898 0.000634 0.000000 0.029305 0.000000
# 6 0.000000 0.000000 0.000000 -0.009705 0.000000 0.026232
#
#
# Mechanical properties :
#
#
# Convention : Reuss Voigt Hill
#
# Bulk Modulus (GPa) = 23.38760 27.04368 25.21564
# Shear Modulus (GPa) = 27.24838 31.91833 29.58335
#
# Velocity S-wave (km/s) = 3.41660 3.69780 3.55998
# Velocity P-wave (km/s) = 5.05801 5.46051 5.26311
#
# Compressibility (1/GPa) = 0.04275771
#
# Stress axis : x y z
#
# Youngs Moduli (GPa) = 80.10309 50.81842 48.25528
#
# Poissons Ratio (x) = 0.11951 0.01307
# Poissons Ratio (y) = 0.18838 0.11780
# Poissons Ratio (z) = 0.02169 0.12405
#
# Static dielectric constant tensor:
#      x y z
#    x 1.848430 0.000000 0.015730 
#    y 0.000000 1.871630 0.000000 
#    z 0.015730 0.000000 1.856350 
# 
# From -- ./inp_files/31911.got.cif
#   From: 2010.05.17/outbox.cif.g08.bks.cpg/sg14_16_cif.got.tgz:31911.got - 2010.06.03 17:49:19.
