data_PCOD9248051
_publ_section_title
;
Structure prediction by ZEFSAII (Michael W. Deem and Ramdas Pophale) SiO2 
 PCOD9248051
Probable space group: P 21/C
;
_chemical_formula_sum "Si O2"
_cell_formula_units_Z 32
_cell_length_a 11.425317
_cell_length_b 8.294442
_cell_length_c 15.091197
_cell_angle_alpha 90.000000
_cell_angle_beta 94.968337
_cell_angle_gamma 90.000000
_cell_volume 1424.768413
_symmetry_space_group_name_H-M "P 21/C"
_symmetry_group_IT_number 14
_symmetry_cell_setting 'monoclinic'
loop_
_space_group_symop_operation_xyz
x,y,z
-x,1/2+y,1/2-z
-x,-y,-z
x,1/2-y,1/2+z
loop_
_atom_site_type_symbol
_atom_site_label
_atom_site_fract_x
_atom_site_fract_y
_atom_site_fract_z
Si Si1 0.695206 0.002584 0.543372
Si Si2 0.239719 0.077436 0.261294
Si Si3 0.634257 0.593494 0.739520
Si Si4 0.047675 0.862832 0.178517
Si Si5 0.409303 0.948844 0.134258
Si Si6 0.193567 0.787638 0.019580
Si Si7 0.843808 0.093375 0.183135
Si Si8 0.534815 0.684876 0.911952
O O1 0.777885 0.098022 0.481583
O O2 0.592698 0.128150 0.565158
O O3 0.763369 0.950850 0.634918
O O4 0.628586 0.856229 0.493753
O O5 0.280796 0.255464 0.242789
O O6 0.120582 0.022858 0.209086
O O7 0.337874 0.964779 0.221466
O O8 0.531099 0.640244 0.663438
O O9 0.713951 0.446239 0.712346
O O10 0.571945 0.575068 0.830195
O O11 0.089334 0.821238 0.081962
O O12 0.093333 0.722238 0.247455
O O13 0.915620 0.924774 0.181107
O O14 0.312888 0.876183 0.061710
O O15 0.451594 0.127814 0.109859
O O16 0.164933 0.839836 0.917453
#
# Coordination Sequence:
#
# PCOD9248051 Si02
#       8
#     4   4   4   4   4   4   4   4
#     4  11  21  38  61  95 131 175 215 267 323 389
#     4  10  22  41  63  91 131 174 214 272 321 386
#     4  11  23  40  65  95 137 181 218 269 327 393
#     4  11  25  48  70  97 128 170 227 282 330 392
#     4  10  23  39  62  96 135 173 216 263 327 393
#     4  11  25  43  70  99 133 173 220 274 330 397
#     4  12  25  45  72  95 129 174 224 274 340 388
#     4  10  23  36  59  96 139 175 219 262 322 392
#
# _framework density 22.459790999999999
#
# number of rings (size 3 to 8) (size 9 to 14) (size 15 to 20)
#    0.000    1.250    2.500    2.625    5.250    2.000 
#    0.000    0.625    0.000    0.000    0.000    0.000 
#    0.000    0.000    0.000    0.000    0.000    0.000 
#
# Total GULP energy -178910.639565 kJ/mol
# GULP energy per Si atom -5590.957486 kJ/mol
# Density = 2.240867 g / cm^3
# Si number density = 22.459791 Si / 1000 Ang^3
#
#
#
# Elastic Constant Matrix: (Units=GPa)
#
#
# Indices 1 2 3 4 5 6 
#
# 1 59.7848 4.8518 6.5891 0.0000 -19.8561 0.0000
# 2 4.8518 24.4123 17.7214 0.0000 -14.2393 0.0000
# 3 6.5891 17.7214 102.5843 0.0000 -6.7968 0.0000
# 4 0.0000 0.0000 0.0000 32.5504 0.0000 -1.3246
# 5 -19.8561 -14.2393 -6.7968 0.0000 17.0293 0.0000
# 6 0.0000 0.0000 0.0000 -1.3246 0.0000 25.3341
#
#
#
# Elastic Compliance Matrix: (Units=1/GPa)
#
#
# Indices 1 2 3 4 5 6 
#
# 1 0.040877 0.042856 -0.004619 0.000000 0.081654 0.000000
# 2 0.042856 0.135389 -0.015746 0.000000 0.156893 0.000000
# 3 -0.004619 -0.015746 0.011849 0.000000 -0.013823 0.000000
# 4 0.000000 0.000000 0.000000 0.030787 0.000000 0.001610
# 5 0.081654 0.156893 -0.013823 0.000000 0.279601 0.000000
# 6 0.000000 0.000000 0.000000 0.001610 0.000000 0.039557
#
#
# Mechanical properties :
#
#
# Convention : Reuss Voigt Hill
#
# Bulk Modulus (GPa) = 4.29005 27.23401 15.76203
# Shear Modulus (GPa) = 8.75998 25.49069 17.12533
#
# Velocity S-wave (km/s) = 1.97706 3.37255 2.76432
# Velocity P-wave (km/s) = 2.66944 5.22661 4.14990
#
# Compressibility (1/GPa) = 0.23309770
#
# Stress axis : x y z
#
# Youngs Moduli (GPa) = 24.46353 7.38611 84.39470
#
# Poissons Ratio (x) = -0.31654 0.38982
# Poissons Ratio (y) = -1.04842 1.32890
# Poissons Ratio (z) = 0.11300 0.11630
#
# Static dielectric constant tensor:
#      x y z
#    x 1.834820 0.000000 -0.002830 
#    y 0.000000 1.834460 0.000000 
#    z -0.002830 0.000000 1.824490 
# 
# From -- ./inp_files/43725.got.cif
#   From: 2010.05.17/outbox.cif.g08.bks.cpg/sg14_22_cif.got.tgz:43725.got - 2010.06.03 17:49:19.
