data_PCOD9248781
_publ_section_title
;
Structure prediction by ZEFSAII (Michael W. Deem and Ramdas Pophale) SiO2 
 PCOD9248781
Probable space group: P 21/C
;
_chemical_formula_sum "Si O2"
_cell_formula_units_Z 28
_cell_length_a 9.089703
_cell_length_b 16.237105
_cell_length_c 9.589688
_cell_angle_alpha 90.000000
_cell_angle_beta 69.029426
_cell_angle_gamma 90.000000
_cell_volume 1321.600094
_symmetry_space_group_name_H-M "P 21/C"
_symmetry_group_IT_number 14
_symmetry_cell_setting 'monoclinic'
loop_
_space_group_symop_operation_xyz
x,y,z
-x,1/2+y,1/2-z
-x,-y,-z
x,1/2-y,1/2+z
loop_
_atom_site_type_symbol
_atom_site_label
_atom_site_fract_x
_atom_site_fract_y
_atom_site_fract_z
Si Si1 0.732247 0.390069 0.890276
Si Si2 0.503019 0.803932 0.729810
Si Si3 0.424791 0.586069 0.487679
Si Si4 0.008325 0.748100 0.264758
Si Si5 0.178047 0.499844 0.384339
Si Si6 0.275771 0.840448 0.312924
Si Si7 0.798315 0.812406 0.082367
O O1 0.572062 0.357345 0.870589
O O2 0.797587 0.467255 0.780803
O O3 0.859138 0.316163 0.831349
O O4 0.713721 0.402319 0.061317
O O5 0.538629 0.861188 0.850200
O O6 0.363488 0.743330 0.829198
O O7 0.649833 0.748486 0.637547
O O8 0.500000 0.500000 0.500000
O O9 0.272950 0.565476 0.444928
O O10 0.368822 0.630449 0.645436
O O11 0.915788 0.787408 0.167793
O O12 0.890459 0.700816 0.407316
O O13 0.100788 0.817143 0.322998
O O14 0.244763 0.407997 0.381888
O O15 0.000000 0.500000 0.500000
#
# Coordination Sequence:
#
# PCOD9248781 Si02
#       7
#     4   4   4   4   4   4   4
#     4  10  22  44  65  97 130 181 219 269 335 408
#     4  10  24  41  68  94 133 176 226 274 328 395
#     4  11  25  45  67  95 134 181 219 275 346 398
#     4  11  23  41  68  97 132 170 223 274 331 392
#     4  11  23  43  68  94 137 176 214 273 349 398
#     4  11  22  43  68  93 127 179 227 267 326 406
#     4  12  25  42  67 104 133 170 227 283 330 396
#
# _framework density 21.186437999999999
#
# number of rings (size 3 to 8) (size 9 to 14) (size 15 to 20)
#    0.000    1.143    2.857    3.429    8.000    0.000 
#    2.571    3.571    0.000    0.000    0.000    0.000 
#    0.000    0.000    0.000    0.000    0.000    0.000 
#
# Total GULP energy -156647.821599 kJ/mol
# GULP energy per Si atom -5594.565057 kJ/mol
# Density = 2.113822 g / cm^3
# Si number density = 21.186438 Si / 1000 Ang^3
#
#
#
# Elastic Constant Matrix: (Units=GPa)
#
#
# Indices 1 2 3 4 5 6 
#
# 1 70.1367 2.7290 6.5182 0.0000 -2.4237 0.0000
# 2 2.7290 72.3542 12.5714 0.0000 0.6561 0.0000
# 3 6.5182 12.5714 88.7402 0.0000 17.2811 0.0000
# 4 0.0000 0.0000 0.0000 34.6258 0.0000 -0.0987
# 5 -2.4237 0.6561 17.2811 0.0000 19.5371 0.0000
# 6 0.0000 0.0000 0.0000 -0.0987 0.0000 29.8968
#
#
#
# Elastic Compliance Matrix: (Units=1/GPa)
#
#
# Indices 1 2 3 4 5 6 
#
# 1 0.014538 -0.000288 -0.001667 0.000000 0.003288 0.000000
# 2 -0.000288 0.014215 -0.002287 0.000000 0.001509 0.000000
# 3 -0.001667 -0.002287 0.014184 0.000000 -0.012676 0.000000
# 4 0.000000 0.000000 0.000000 0.028881 0.000000 0.000095
# 5 0.003288 0.001509 -0.012676 0.000000 0.062754 0.000000
# 6 0.000000 0.000000 0.000000 0.000095 0.000000 0.033449
#
#
# Mechanical properties :
#
#
# Convention : Reuss Voigt Hill
#
# Bulk Modulus (GPa) = 29.02568 30.54091 29.78329
# Shear Modulus (GPa) = 26.59734 30.77276 28.68505
#
# Velocity S-wave (km/s) = 3.54700 3.81527 3.68358
# Velocity P-wave (km/s) = 5.52311 5.81850 5.67273
#
# Compressibility (1/GPa) = 0.03445225
#
# Stress axis : x y z
#
# Youngs Moduli (GPa) = 68.78683 70.34636 70.50332
#
# Poissons Ratio (x) = 0.02029 0.11755
# Poissons Ratio (y) = 0.01984 0.16121
# Poissons Ratio (z) = 0.11468 0.16085
#
# Static dielectric constant tensor:
#      x y z
#    x 1.771910 0.000000 0.025520 
#    y 0.000000 1.761380 0.000000 
#    z 0.025520 0.000000 1.787030 
# 
# From -- ./inp_files/9395.got.cif
#   From: 2010.05.17/outbox.cif.g08.bks.cpg/sg14_5_cif.got.tgz:9395.got - 2010.06.03 17:49:19.
