data_PCOD9248210
_publ_section_title
;
Structure prediction by ZEFSAII (Michael W. Deem and Ramdas Pophale) SiO2 
 PCOD9248210
Probable space group: P 21/C
;
_chemical_formula_sum "Si O2"
_cell_formula_units_Z 22
_cell_length_a 10.666784
_cell_length_b 8.064745
_cell_length_c 14.728387
_cell_angle_alpha 90.000000
_cell_angle_beta 45.369060
_cell_angle_gamma 90.000000
_cell_volume 901.662098
_symmetry_space_group_name_H-M "P 21/C"
_symmetry_group_IT_number 14
_symmetry_cell_setting 'monoclinic'
loop_
_space_group_symop_operation_xyz
x,y,z
-x,1/2+y,1/2-z
-x,-y,-z
x,1/2-y,1/2+z
loop_
_atom_site_type_symbol
_atom_site_label
_atom_site_fract_x
_atom_site_fract_y
_atom_site_fract_z
Si Si1 0.880791 0.427223 0.743592
Si Si2 0.681299 0.356852 0.577047
Si Si3 0.646923 0.869633 0.247025
Si Si4 0.989920 0.762315 0.491442
Si Si5 0.500000 0.500000 0.500000
Si Si6 0.153959 0.557579 0.749233
O O1 0.735501 0.563903 0.794600
O O2 0.987403 0.385338 0.596408
O O3 0.796482 0.247578 0.805535
O O4 0.007336 0.482653 0.758800
O O5 0.543586 0.206369 0.644355
O O6 0.637923 0.468966 0.686866
O O7 0.874112 0.279481 0.497113
O O8 0.647237 0.468415 0.505991
O O9 0.790774 0.749932 0.126125
O O10 0.063687 0.913612 0.393079
O O11 0.338446 0.464955 0.654193
#
# Coordination Sequence:
#
# PCOD9248210 Si02
#       6
#     4   4   4   4   2   4
#     4   9  21  39  65  96 127 178 220 271 331 400
#     4  11  24  41  67  97 130 180 222 277 342 395
#     4  11  22  44  65  95 137 172 232 280 331 402
#     4   9  21  43  69  92 131 177 219 277 331 390
#     4  12  24  42  66  94 132 178 214 272 344 394
#     4  10  22  41  69  96 129 176 227 264 337 396
#
# _framework density 24.399384000000001
#
# number of rings (size 3 to 8) (size 9 to 14) (size 15 to 20)
#    1.091    0.727    0.000    5.455    2.545    0.000 
#    3.273    2.727    0.000    0.000    0.000    0.000 
#    0.000    0.000    0.000    0.000    0.000    0.000 
#
# Total GULP energy -122541.582891 kJ/mol
# GULP energy per Si atom -5570.071950 kJ/mol
# Density = 2.434385 g / cm^3
# Si number density = 24.399384 Si / 1000 Ang^3
#
#
#
# Elastic Constant Matrix: (Units=GPa)
#
#
# Indices 1 2 3 4 5 6 
#
# 1 138.6421 2.3995 36.6839 0.0000 7.0082 0.0000
# 2 2.3995 37.9015 6.8921 0.0000 4.5654 0.0000
# 3 36.6839 6.8921 62.9234 0.0000 -7.4369 0.0000
# 4 0.0000 0.0000 0.0000 37.3801 0.0000 4.1901
# 5 7.0082 4.5654 -7.4369 0.0000 25.6154 0.0000
# 6 0.0000 0.0000 0.0000 4.1901 0.0000 36.7577
#
#
#
# Elastic Compliance Matrix: (Units=1/GPa)
#
#
# Indices 1 2 3 4 5 6 
#
# 1 0.008961 0.001018 -0.005848 0.000000 -0.004331 0.000000
# 2 0.001018 0.027912 -0.004423 0.000000 -0.006537 0.000000
# 3 -0.005848 -0.004423 0.020781 0.000000 0.008422 0.000000
# 4 0.000000 0.000000 0.000000 0.027099 0.000000 -0.003089
# 5 -0.004331 -0.006537 0.008422 0.000000 0.043834 0.000000
# 6 0.000000 0.000000 0.000000 -0.003089 0.000000 0.027557
#
#
# Mechanical properties :
#
#
# Convention : Reuss Voigt Hill
#
# Bulk Modulus (GPa) = 25.54418 36.82423 31.18420
# Shear Modulus (GPa) = 26.63826 32.85007 29.74417
#
# Velocity S-wave (km/s) = 3.30776 3.67324 3.49528
# Velocity P-wave (km/s) = 5.00802 5.75459 5.39424
#
# Compressibility (1/GPa) = 0.03914786
#
# Stress axis : x y z
#
# Youngs Moduli (GPa) = 111.58956 35.82752 48.11999
#
# Poissons Ratio (x) = -0.03646 0.28140
# Poissons Ratio (y) = -0.11357 0.21284
# Poissons Ratio (z) = 0.65255 0.15847
#
# Static dielectric constant tensor:
#      x y z
#    x 1.942740 0.000000 0.153040 
#    y 0.000000 2.147170 0.000000 
#    z 0.153040 0.000000 2.145120 
# 
# From -- ./inp_files/56949.got.cif
#   From: 2010.05.17/outbox.cif.g08.bks.cpg/sg14_29_cif.got.tgz:56949.got - 2010.06.03 17:49:19.
