data_PCOD9248896
_publ_section_title
;
Structure prediction by ZEFSAII (Michael W. Deem and Ramdas Pophale) SiO2 
 PCOD9248896
Probable space group: P 21/C
;
_chemical_formula_sum "Si O2"
_cell_formula_units_Z 24
_cell_length_a 7.406715
_cell_length_b 28.971995
_cell_length_c 7.964433
_cell_angle_alpha 90.000000
_cell_angle_beta 142.346986
_cell_angle_gamma 90.000000
_cell_volume 1044.030946
_symmetry_space_group_name_H-M "P 21/C"
_symmetry_group_IT_number 14
_symmetry_cell_setting 'monoclinic'
loop_
_space_group_symop_operation_xyz
x,y,z
-x,1/2+y,1/2-z
-x,-y,-z
x,1/2-y,1/2+z
loop_
_atom_site_type_symbol
_atom_site_label
_atom_site_fract_x
_atom_site_fract_y
_atom_site_fract_z
Si Si1 0.256754 0.466511 0.245792
Si Si2 0.271043 0.653723 0.913403
Si Si3 0.423595 0.380460 0.183217
Si Si4 0.593235 0.257900 0.814800
Si Si5 0.007443 0.702028 0.180691
Si Si6 0.641434 0.622398 0.494747
O O1 0.500000 0.500000 0.500000
O O2 0.346200 0.434172 0.153272
O O3 0.211783 0.427582 0.357473
O O4 0.000000 0.500000 0.000000
O O5 0.350186 0.629571 0.797448
O O6 0.405978 0.705028 0.031366
O O7 0.919070 0.656009 0.674871
O O8 0.425254 0.625009 0.178440
O O9 0.142127 0.348095 0.936280
O O10 0.511662 0.367161 0.439072
O O11 0.822127 0.217202 0.026941
O O12 0.751261 0.287594 0.786263
O O13 0.272045 0.236705 0.551112
#
# Coordination Sequence:
#
# PCOD9248896 Si02
#       6
#     4   4   4   4   4   4
#     4  10  22  44  70  98 135 174 221 286 347 405
#     4  12  23  46  67 102 133 185 225 273 345 403
#     4  10  26  44  73  95 139 179 226 282 350 405
#     4  12  25  41  66  96 140 172 235 279 323 411
#     4  12  25  43  63 100 132 183 222 285 337 391
#     4  10  25  42  72  95 139 174 224 282 336 409
#
# _framework density 22.987826999999999
#
# number of rings (size 3 to 8) (size 9 to 14) (size 15 to 20)
#    1.000    0.000    1.667    5.000    2.333    5.333 
#    0.000    5.000    0.000    0.000    0.000    0.000 
#    0.000    0.000    0.000    0.000    0.000    0.000 
#
# Total GULP energy -134191.298711 kJ/mol
# GULP energy per Si atom -5591.304113 kJ/mol
# Density = 2.293551 g / cm^3
# Si number density = 22.987827 Si / 1000 Ang^3
#
#
#
# Elastic Constant Matrix: (Units=GPa)
#
#
# Indices 1 2 3 4 5 6 
#
# 1 94.0087 -5.7169 27.0239 0.0000 -9.6269 0.0000
# 2 -5.7169 122.4849 36.9732 0.0000 -1.1559 0.0000
# 3 27.0239 36.9732 128.8657 0.0000 5.0374 0.0000
# 4 0.0000 0.0000 0.0000 43.1194 0.0000 0.8478
# 5 -9.6269 -1.1559 5.0374 0.0000 34.5182 0.0000
# 6 0.0000 0.0000 0.0000 0.8478 0.0000 32.4938
#
#
#
# Elastic Compliance Matrix: (Units=1/GPa)
#
#
# Indices 1 2 3 4 5 6 
#
# 1 0.012021 0.001537 -0.003113 0.000000 0.003858 0.000000
# 2 0.001537 0.009151 -0.002994 0.000000 0.001172 0.000000
# 3 -0.003113 -0.002994 0.009363 0.000000 -0.002335 0.000000
# 4 0.000000 0.000000 0.000000 0.023203 0.000000 -0.000605
# 5 0.003858 0.001172 -0.002335 0.000000 0.030426 0.000000
# 6 0.000000 0.000000 0.000000 -0.000605 0.000000 0.030791
#
#
# Mechanical properties :
#
#
# Convention : Reuss Voigt Hill
#
# Bulk Modulus (GPa) = 46.73787 51.32442 49.03115
# Shear Modulus (GPa) = 38.10250 41.16489 39.63369
#
# Velocity S-wave (km/s) = 4.07567 4.23629 4.15675
# Velocity P-wave (km/s) = 6.52103 6.80466 6.66435
#
# Compressibility (1/GPa) = 0.02139592
#
# Stress axis : x y z
#
# Youngs Moduli (GPa) = 83.19029 109.28104 106.80427
#
# Poissons Ratio (x) = -0.16797 0.33244
# Poissons Ratio (y) = -0.12787 0.31973
# Poissons Ratio (z) = 0.25894 0.32714
#
# Static dielectric constant tensor:
#      x y z
#    x 1.915260 0.000000 -0.050380 
#    y 0.000000 1.978380 0.000000 
#    z -0.050380 0.000000 1.847490 
# 
# From -- ./inp_files/11352.got.cif
#   From: 2010.05.17/outbox.cif.g08.bks.cpg/sg14_6_cif.got.tgz:11352.got - 2010.06.03 17:49:19.
