data_PCOD9248903
_publ_section_title
;
Structure prediction by ZEFSAII (Michael W. Deem and Ramdas Pophale) SiO2 
 PCOD9248903
Probable space group: P 21/C
;
_chemical_formula_sum "Si O2"
_cell_formula_units_Z 20
_cell_length_a 9.583541
_cell_length_b 6.305900
_cell_length_c 13.254002
_cell_angle_alpha 90.000000
_cell_angle_beta 88.677217
_cell_angle_gamma 90.000000
_cell_volume 800.763677
_symmetry_space_group_name_H-M "P 21/C"
_symmetry_group_IT_number 14
_symmetry_cell_setting 'monoclinic'
loop_
_space_group_symop_operation_xyz
x,y,z
-x,1/2+y,1/2-z
-x,-y,-z
x,1/2-y,1/2+z
loop_
_atom_site_type_symbol
_atom_site_label
_atom_site_fract_x
_atom_site_fract_y
_atom_site_fract_z
Si Si1 0.596084 0.207126 0.488471
Si Si2 0.897918 0.810727 0.533638
Si Si3 0.567889 0.497470 0.669708
Si Si4 0.854062 0.078862 0.884725
Si Si5 0.297359 0.385029 0.795702
O O1 0.502502 0.355233 0.415087
O O2 0.745858 0.248066 0.432437
O O3 0.500000 0.000000 0.500000
O O4 0.763713 0.904953 0.591562
O O5 0.851044 0.639233 0.450730
O O6 0.992049 0.673192 0.609389
O O7 0.000000 0.000000 0.500000
O O8 0.451688 0.445769 0.754293
O O9 0.611678 0.299843 0.601544
O O10 0.692975 0.628387 0.717174
O O11 0.805022 0.010838 0.775699
#
# Coordination Sequence:
#
# PCOD9248903 Si02
#       5
#     4   4   4   4   4
#     4  10  22  44  71 101 147 193 242 313 378 443
#     4  11  26  48  76 103 151 204 246 314 386 455
#     4  10  24  43  68 105 142 188 248 311 379 450
#     4  10  25  49  72 111 148 194 260 308 378 469
#     4  11  25  48  69 110 148 188 253 313 371 460
#
# _framework density 24.976154999999999
#
# number of rings (size 3 to 8) (size 9 to 14) (size 15 to 20)
#    0.000    1.600    2.000    0.000    8.400    0.000 
#    3.600    1.000    0.000    0.000    0.000    0.000 
#    0.000    0.000    0.000    0.000    0.000    0.000 
#
# Total GULP energy -111801.443986 kJ/mol
# GULP energy per Si atom -5590.072199 kJ/mol
# Density = 2.491931 g / cm^3
# Si number density = 24.976155 Si / 1000 Ang^3
#
#
#
# Elastic Constant Matrix: (Units=GPa)
#
#
# Indices 1 2 3 4 5 6 
#
# 1 112.6160 32.0483 20.6911 0.0000 -24.1615 0.0000
# 2 32.0483 112.4851 24.7499 0.0000 -20.2595 0.0000
# 3 20.6911 24.7499 63.4566 0.0000 -18.6856 0.0000
# 4 0.0000 0.0000 0.0000 47.4247 0.0000 -10.2007
# 5 -24.1615 -20.2595 -18.6856 0.0000 41.5676 0.0000
# 6 0.0000 0.0000 0.0000 -10.2007 0.0000 39.0336
#
#
#
# Elastic Compliance Matrix: (Units=1/GPa)
#
#
# Indices 1 2 3 4 5 6 
#
# 1 0.010672 -0.001900 -0.001365 0.000000 0.004663 0.000000
# 2 -0.001900 0.010525 -0.002651 0.000000 0.002834 0.000000
# 3 -0.001365 -0.002651 0.019160 0.000000 0.006527 0.000000
# 4 0.000000 0.000000 0.000000 0.022342 0.000000 0.005839
# 5 0.004663 0.002834 0.006527 0.000000 0.031083 0.000000
# 6 0.000000 0.000000 0.000000 0.005839 0.000000 0.027145
#
#
# Mechanical properties :
#
#
# Convention : Reuss Voigt Hill
#
# Bulk Modulus (GPa) = 35.05900 49.28180 42.17040
# Shear Modulus (GPa) = 35.14497 39.67641 37.41069
#
# Velocity S-wave (km/s) = 3.75526 3.99001 3.87441
# Velocity P-wave (km/s) = 5.73324 6.40323 6.07747
#
# Compressibility (1/GPa) = 0.02852335
#
# Stress axis : x y z
#
# Youngs Moduli (GPa) = 93.70450 95.01074 52.19199
#
# Poissons Ratio (x) = 0.18054 0.07127
# Poissons Ratio (y) = 0.17806 0.13837
# Poissons Ratio (z) = 0.12795 0.25189
#
# Static dielectric constant tensor:
#      x y z
#    x 1.913280 0.000000 0.032650 
#    y 0.000000 2.088320 0.000000 
#    z 0.032650 0.000000 1.969600 
# 
# From -- ./inp_files/54016.got.cif
#   From: 2010.05.17/outbox.cif.g08.bks.cpg/sg14_28_cif.got.tgz:54016.got - 2010.06.03 17:49:19.
