data_PCOD9248664
_publ_section_title
;
Structure prediction by ZEFSAII (Michael W. Deem and Ramdas Pophale) SiO2 
 PCOD9248664
Probable space group: P 21/C
;
_chemical_formula_sum "Si O2"
_cell_formula_units_Z 28
_cell_length_a 32.382926
_cell_length_b 4.941313
_cell_length_c 8.829778
_cell_angle_alpha 90.000000
_cell_angle_beta 46.613013
_cell_angle_gamma 90.000000
_cell_volume 1026.790272
_symmetry_space_group_name_H-M "P 21/C"
_symmetry_group_IT_number 14
_symmetry_cell_setting 'monoclinic'
loop_
_space_group_symop_operation_xyz
x,y,z
-x,1/2+y,1/2-z
-x,-y,-z
x,1/2-y,1/2+z
loop_
_atom_site_type_symbol
_atom_site_label
_atom_site_fract_x
_atom_site_fract_y
_atom_site_fract_z
Si Si1 0.713781 0.610046 0.937074
Si Si2 0.888704 0.629656 0.814181
Si Si3 0.291722 0.748780 0.814332
Si Si4 0.813166 0.955169 0.763482
Si Si5 0.389425 0.424128 0.233702
Si Si6 0.038820 0.995010 0.144904
Si Si7 0.537726 0.539979 0.668431
O O1 0.709110 0.557521 0.129247
O O2 0.657456 0.771353 0.046491
O O3 0.711334 0.335371 0.849754
O O4 0.772771 0.754615 0.769486
O O5 0.856476 0.449133 0.023118
O O6 0.847203 0.793640 0.805406
O O7 0.926151 0.465791 0.598866
O O8 0.924428 0.851837 0.819312
O O9 0.350374 0.874758 0.732565
O O10 0.232583 0.855417 0.037954
O O11 0.430612 0.543942 0.257272
O O12 0.422824 0.204143 0.048700
O O13 0.988145 0.210468 0.241653
O O14 0.509878 0.267689 0.673787
#
# Coordination Sequence:
#
# PCOD9248664 Si02
#       7
#     4   4   4   4   4   4   4
#     4  11  25  42  70  99 140 184 233 290 347 444
#     4  10  22  43  68  96 140 183 228 302 352 416
#     4  11  25  42  70  99 140 184 233 290 347 444
#     4  10  22  46  60 102 142 172 236 284 360 418
#     4  11  26  45  70  98 140 187 234 287 360 424
#     4  11  24  47  70 102 138 187 246 293 350 416
#     4  12  28  47  72 104 142 183 238 300 352 418
#
# _framework density 27.269442999999999
#
# number of rings (size 3 to 8) (size 9 to 14) (size 15 to 20)
#    0.000    1.143    2.857    1.714    8.000    0.000 
#   15.429    0.000    0.000    0.000    0.000    0.000 
#    0.000    0.000    0.000    0.000    0.000    0.000 
#
# Total GULP energy -156969.277143 kJ/mol
# GULP energy per Si atom -5606.045612 kJ/mol
# Density = 2.720738 g / cm^3
# Si number density = 27.269443 Si / 1000 Ang^3
#
#
#
# Elastic Constant Matrix: (Units=GPa)
#
#
# Indices 1 2 3 4 5 6 
#
# 1 137.4844 3.7945 42.5617 0.0000 -2.0376 0.0000
# 2 3.7945 62.1725 11.0815 0.0000 -8.0286 0.0000
# 3 42.5617 11.0815 159.9334 0.0000 7.2900 0.0000
# 4 0.0000 0.0000 0.0000 31.0538 0.0000 12.2607
# 5 -2.0376 -8.0286 7.2900 0.0000 36.6762 0.0000
# 6 0.0000 0.0000 0.0000 12.2607 0.0000 25.3544
#
#
#
# Elastic Compliance Matrix: (Units=1/GPa)
#
#
# Indices 1 2 3 4 5 6 
#
# 1 0.007954 0.000012 -0.002157 0.000000 0.000873 0.000000
# 2 0.000012 0.016835 -0.001350 0.000000 0.003954 0.000000
# 3 -0.002157 -0.001350 0.007003 0.000000 -0.001807 0.000000
# 4 0.000000 0.000000 0.000000 0.039801 0.000000 -0.019247
# 5 0.000873 0.003954 -0.001807 0.000000 0.028539 0.000000
# 6 0.000000 0.000000 0.000000 -0.019247 0.000000 0.048748
#
#
# Mechanical properties :
#
#
# Convention : Reuss Voigt Hill
#
# Bulk Modulus (GPa) = 40.32140 52.71840 46.51990
# Shear Modulus (GPa) = 30.46231 38.76038 34.61135
#
# Velocity S-wave (km/s) = 3.34591 3.77422 3.56650
# Velocity P-wave (km/s) = 5.45392 6.19414 5.83577
#
# Compressibility (1/GPa) = 0.02480072
#
# Stress axis : x y z
#
# Youngs Moduli (GPa) = 125.72238 59.40085 142.80348
#
# Poissons Ratio (x) = -0.00070 0.30808
# Poissons Ratio (y) = -0.00149 0.19276
# Poissons Ratio (z) = 0.27123 0.08018
#
# Static dielectric constant tensor:
#      x y z
#    x 2.097370 0.000000 -0.068100 
#    y 0.000000 2.079650 0.000000 
#    z -0.068100 0.000000 2.113090 
# 
# From -- ./inp_files/19876.got.cif
#   From: 2010.05.17/outbox.cif.g08.bks.cpg/sg14_10_cif.got.tgz:19876.got - 2010.06.03 17:49:19.
