data_PCOD9248085
_publ_section_title
;
Structure prediction by ZEFSAII (Michael W. Deem and Ramdas Pophale) SiO2 
 PCOD9248085
Probable space group: P 21/C
;
_chemical_formula_sum "Si O2"
_cell_formula_units_Z 28
_cell_length_a 6.472409
_cell_length_b 8.869267
_cell_length_c 25.574379
_cell_angle_alpha 90.000000
_cell_angle_beta 52.662049
_cell_angle_gamma 90.000000
_cell_volume 1167.253523
_symmetry_space_group_name_H-M "P 21/C"
_symmetry_group_IT_number 14
_symmetry_cell_setting 'monoclinic'
loop_
_space_group_symop_operation_xyz
x,y,z
-x,1/2+y,1/2-z
-x,-y,-z
x,1/2-y,1/2+z
loop_
_atom_site_type_symbol
_atom_site_label
_atom_site_fract_x
_atom_site_fract_y
_atom_site_fract_z
Si Si1 0.363535 0.821396 0.709707
Si Si2 0.124955 0.996874 0.243458
Si Si3 0.151793 0.999325 0.365020
Si Si4 0.469342 0.739341 0.509497
Si Si5 0.733945 0.004641 0.510504
Si Si6 0.065873 0.496694 0.552125
Si Si7 0.606233 0.317393 0.669640
O O1 0.239143 0.665253 0.708314
O O2 0.391965 0.808341 0.767879
O O3 0.651188 0.868892 0.647457
O O4 0.161388 0.956944 0.730280
O O5 0.132903 0.996905 0.305336
O O6 0.323797 0.128142 0.194645
O O7 0.284736 0.844053 0.364206
O O8 0.866760 0.008236 0.432314
O O9 0.563244 0.855314 0.539845
O O10 0.201278 0.647384 0.553545
O O11 0.710526 0.626225 0.470099
O O12 0.426274 0.841486 0.464223
O O13 0.000000 0.000000 0.500000
O O14 0.000000 0.500000 0.500000
O O15 0.807384 0.445536 0.620888
#
# Coordination Sequence:
#
# PCOD9248085 Si02
#       7
#     4   4   4   4   4   4   4
#     4  10  22  41  64  94 122 161 206 256 317 376
#     4  10  22  41  64  94 122 161 206 256 317 376
#     4  10  22  42  64  88 127 162 206 260 308 376
#     4  10  24  40  62  94 126 166 220 254 308 386
#     4  11  23  44  65  93 131 169 211 266 318 373
#     4  11  23  44  65  93 131 169 211 266 318 373
#     4  10  22  42  64  88 127 162 206 260 308 376
#
# _framework density 23.987932000000001
#
# number of rings (size 3 to 8) (size 9 to 14) (size 15 to 20)
#    0.000    1.714    1.429    1.714    2.000    5.714 
#    5.143    0.000    0.000    0.000    0.000    0.000 
#    0.000    0.000    0.000    0.000    0.000    0.000 
#
# Total GULP energy -156390.033641 kJ/mol
# GULP energy per Si atom -5585.358344 kJ/mol
# Density = 2.393333 g / cm^3
# Si number density = 23.987932 Si / 1000 Ang^3
#
#
#
# Elastic Constant Matrix: (Units=GPa)
#
#
# Indices 1 2 3 4 5 6 
#
# 1 110.4842 20.4056 -2.5970 0.0000 -13.8420 0.0000
# 2 20.4056 95.5180 -10.3865 0.0000 1.9026 0.0000
# 3 -2.5970 -10.3865 41.9566 0.0000 -10.7807 0.0000
# 4 0.0000 0.0000 0.0000 21.6007 0.0000 -16.4504
# 5 -13.8420 1.9026 -10.7807 0.0000 30.2147 0.0000
# 6 0.0000 0.0000 0.0000 -16.4504 0.0000 37.4475
#
#
#
# Elastic Compliance Matrix: (Units=1/GPa)
#
#
# Indices 1 2 3 4 5 6 
#
# 1 0.010140 -0.002112 0.001467 0.000000 0.005302 0.000000
# 2 -0.002112 0.011201 0.002436 0.000000 -0.000804 0.000000
# 3 0.001467 0.002436 0.027150 0.000000 0.010206 0.000000
# 4 0.000000 0.000000 0.000000 0.069569 0.000000 0.030561
# 5 0.005302 -0.000804 0.010206 0.000000 0.039218 0.000000
# 6 0.000000 0.000000 0.000000 0.030561 0.000000 0.040129
#
#
# Mechanical properties :
#
#
# Convention : Reuss Voigt Hill
#
# Bulk Modulus (GPa) = 19.20411 29.20036 24.20224
# Shear Modulus (GPa) = 23.67600 33.88835 28.78218
#
# Velocity S-wave (km/s) = 3.14506 3.76270 3.46766
# Velocity P-wave (km/s) = 4.60561 5.57464 5.11313
#
# Compressibility (1/GPa) = 0.05207218
#
# Stress axis : x y z
#
# Youngs Moduli (GPa) = 98.62031 89.27506 36.83194
#
# Poissons Ratio (x) = 0.18857 -0.05403
# Poissons Ratio (y) = 0.20831 -0.08971
# Poissons Ratio (z) = -0.14468 -0.21744
#
# Static dielectric constant tensor:
#      x y z
#    x 1.905410 0.000000 0.061460 
#    y 0.000000 2.023300 0.000000 
#    z 0.061460 0.000000 1.924340 
# 
# From -- ./inp_files/78756.got.cif
#   From: 2010.05.17/outbox.cif.g08.bks.cpg/sg14_40_cif.got.tgz:78756.got - 2010.06.03 17:49:19.
