data_PCOD9248881
_publ_section_title
;
Structure prediction by ZEFSAII (Michael W. Deem and Ramdas Pophale) SiO2 
 PCOD9248881
Probable space group: P 21/C
;
_chemical_formula_sum "Si O2"
_cell_formula_units_Z 22
_cell_length_a 5.088015
_cell_length_b 4.850538
_cell_length_c 30.408483
_cell_angle_alpha 90.000000
_cell_angle_beta 90.754265
_cell_angle_gamma 90.000000
_cell_volume 750.404476
_symmetry_space_group_name_H-M "P 21/C"
_symmetry_group_IT_number 14
_symmetry_cell_setting 'monoclinic'
loop_
_space_group_symop_operation_xyz
x,y,z
-x,1/2+y,1/2-z
-x,-y,-z
x,1/2-y,1/2+z
loop_
_atom_site_type_symbol
_atom_site_label
_atom_site_fract_x
_atom_site_fract_y
_atom_site_fract_z
Si Si1 0.635343 0.361246 0.832337
Si Si2 0.500000 0.500000 0.500000
Si Si3 0.170000 0.964722 0.758037
Si Si4 0.146201 0.722927 0.848465
Si Si5 0.232246 0.909394 0.439952
Si Si6 0.736321 0.301661 0.424251
O O1 0.651479 0.327784 0.779586
O O2 0.352443 0.474473 0.843402
O O3 0.719089 0.149927 0.871187
O O4 0.859473 0.595974 0.840174
O O5 0.283071 0.725374 0.482296
O O6 0.683001 0.559953 0.455542
O O7 0.232581 0.923097 0.809297
O O8 0.907806 0.777006 0.751292
O O9 0.191194 0.800726 0.898853
O O10 0.012303 0.882484 0.564275
O O11 0.476267 0.121802 0.436362
#
# Coordination Sequence:
#
# PCOD9248881 Si02
#       6
#     4   2   4   4   4   4
#     4   9  20  42  64  94 132 178 221 282 349 414
#     4  12  24  42  68 104 120 194 228 286 360 418
#     4  10  22  44  70 104 140 186 232 286 354 428
#     4   9  20  42  64  94 132 178 221 282 349 414
#     4  10  23  44  65  94 138 172 230 293 348 421
#     4  10  23  44  65  94 138 172 230 293 348 421
#
# _framework density 29.317519000000001
#
# number of rings (size 3 to 8) (size 9 to 14) (size 15 to 20)
#    0.000    2.182    0.000    1.091    0.000    8.727 
#   36.000    0.000    0.000    0.000    0.000    0.000 
#    0.000    0.000    0.000    0.000    0.000    0.000 
#
# Total GULP energy -122852.761163 kJ/mol
# GULP energy per Si atom -5584.216416 kJ/mol
# Density = 2.925079 g / cm^3
# Si number density = 29.317519 Si / 1000 Ang^3
#
#
#
# Elastic Constant Matrix: (Units=GPa)
#
#
# Indices 1 2 3 4 5 6 
#
# 1 137.4656 59.2074 38.8457 0.0000 15.8989 0.0000
# 2 59.2074 75.6797 10.5108 0.0000 1.9969 0.0000
# 3 38.8457 10.5108 190.5311 0.0000 -4.4799 0.0000
# 4 0.0000 0.0000 0.0000 30.6849 0.0000 -8.1453
# 5 15.8989 1.9969 -4.4799 0.0000 47.4289 0.0000
# 6 0.0000 0.0000 0.0000 -8.1453 0.0000 22.8482
#
#
#
# Elastic Compliance Matrix: (Units=1/GPa)
#
#
# Indices 1 2 3 4 5 6 
#
# 1 0.012292 -0.009222 -0.002090 0.000000 -0.003929 0.000000
# 2 -0.009222 0.020254 0.000817 0.000000 0.002316 0.000000
# 3 -0.002090 0.000817 0.005658 0.000000 0.001200 0.000000
# 4 0.000000 0.000000 0.000000 0.035996 0.000000 0.012832
# 5 -0.003929 0.002316 0.001200 0.000000 0.022417 0.000000
# 6 0.000000 0.000000 0.000000 0.012832 0.000000 0.048342
#
#
# Mechanical properties :
#
#
# Convention : Reuss Voigt Hill
#
# Bulk Modulus (GPa) = 58.09217 68.97825 63.53521
# Shear Modulus (GPa) = 29.12306 39.86659 34.49482
#
# Velocity S-wave (km/s) = 3.15519 3.69158 3.43387
# Velocity P-wave (km/s) = 5.75600 6.46138 6.11886
#
# Compressibility (1/GPa) = 0.01721402
#
# Stress axis : x y z
#
# Youngs Moduli (GPa) = 81.35597 49.37297 176.75145
#
# Poissons Ratio (x) = 0.45534 0.36935
# Poissons Ratio (y) = 0.75030 -0.14448
# Poissons Ratio (z) = 0.17001 -0.04036
#
# Static dielectric constant tensor:
#      x y z
#    x 2.345580 0.000000 0.071710 
#    y 0.000000 2.498040 0.000000 
#    z 0.071710 0.000000 2.822520 
# 
# From -- ./inp_files/78532.got.cif
#   From: 2010.05.17/outbox.cif.g08.bks.cpg/sg14_40_cif.got.tgz:78532.got - 2010.06.03 17:49:19.
