data_PCOD9248066
_publ_section_title
;
Structure prediction by ZEFSAII (Michael W. Deem and Ramdas Pophale) SiO2 
 PCOD9248066
Probable space group: P 21/C
;
_chemical_formula_sum "Si O2"
_cell_formula_units_Z 16
_cell_length_a 5.060310
_cell_length_b 4.791769
_cell_length_c 22.566775
_cell_angle_alpha 90.000000
_cell_angle_beta 91.990941
_cell_angle_gamma 90.000000
_cell_volume 546.865148
_symmetry_space_group_name_H-M "P 21/C"
_symmetry_group_IT_number 14
_symmetry_cell_setting 'monoclinic'
loop_
_space_group_symop_operation_xyz
x,y,z
-x,1/2+y,1/2-z
-x,-y,-z
x,1/2-y,1/2+z
loop_
_atom_site_type_symbol
_atom_site_label
_atom_site_fract_x
_atom_site_fract_y
_atom_site_fract_z
Si Si1 0.178204 0.426195 0.321332
Si Si2 0.327310 0.884774 0.720009
Si Si3 0.511129 0.952595 0.599401
Si Si4 0.246088 0.804474 0.992794
O O1 0.402258 0.325319 0.270483
O O2 0.152708 0.699439 0.281800
O O3 0.896025 0.287731 0.321555
O O4 0.341486 0.331934 0.378873
O O5 0.412449 0.070968 0.660955
O O6 0.288998 0.905842 0.548265
O O7 0.730143 0.136785 0.567985
O O8 0.500000 0.000000 0.000000
O O9 0.000000 0.000000 0.000000
#
# Coordination Sequence:
#
# PCOD9248066 Si02
#       4
#     4   4   4   4
#     4  10  22  41  63  96 133 179 219 281 353 413
#     4  10  22  41  63  96 133 179 219 281 353 413
#     4   9  26  46  68 100 148 171 244 300 340 431
#     4  11  26  45  72 102 134 191 238 289 361 415
#
# _framework density 29.257670999999998
#
# number of rings (size 3 to 8) (size 9 to 14) (size 15 to 20)
#    1.500    0.500    0.000    1.500    7.000    4.000 
#    0.000    0.000    0.000    0.000    0.000    0.000 
#    0.000    0.000    0.000    0.000    0.000    0.000 
#
# Total GULP energy -89178.882697 kJ/mol
# GULP energy per Si atom -5573.680169 kJ/mol
# Density = 2.919108 g / cm^3
# Si number density = 29.257671 Si / 1000 Ang^3
#
#
#
# Elastic Constant Matrix: (Units=GPa)
#
#
# Indices 1 2 3 4 5 6 
#
# 1 146.0295 22.2223 35.6020 0.0000 -38.8809 0.0000
# 2 22.2223 87.6753 45.8330 0.0000 -7.9403 0.0000
# 3 35.6020 45.8330 197.2932 0.0000 1.3649 0.0000
# 4 0.0000 0.0000 0.0000 59.5000 0.0000 -5.1286
# 5 -38.8809 -7.9403 1.3649 0.0000 36.2617 0.0000
# 6 0.0000 0.0000 0.0000 -5.1286 0.0000 55.8612
#
#
#
# Elastic Compliance Matrix: (Units=1/GPa)
#
#
# Indices 1 2 3 4 5 6 
#
# 1 0.010305 -0.000691 -0.001775 0.000000 0.010965 0.000000
# 2 -0.000691 0.013354 -0.002993 0.000000 0.002296 0.000000
# 3 -0.001775 -0.002993 0.006104 0.000000 -0.002788 0.000000
# 4 0.000000 0.000000 0.000000 0.016941 0.000000 0.001555
# 5 0.010965 0.002296 -0.002788 0.000000 0.039942 0.000000
# 6 0.000000 0.000000 0.000000 0.001555 0.000000 0.018044
#
#
# Mechanical properties :
#
#
# Convention : Reuss Voigt Hill
#
# Bulk Modulus (GPa) = 53.06790 70.92363 61.99576
# Shear Modulus (GPa) = 41.02067 52.14729 46.58398
#
# Velocity S-wave (km/s) = 3.74846 4.22636 3.99456
# Velocity P-wave (km/s) = 6.07553 6.93613 6.52004
#
# Compressibility (1/GPa) = 0.01884378
#
# Stress axis : x y z
#
# Youngs Moduli (GPa) = 97.03689 74.88622 163.83879
#
# Poissons Ratio (x) = 0.05175 0.29080
# Poissons Ratio (y) = 0.06706 0.49042
# Poissons Ratio (z) = 0.17223 0.22416
#
# Static dielectric constant tensor:
#      x y z
#    x 2.242070 0.000000 -0.052300 
#    y 0.000000 2.563350 0.000000 
#    z -0.052300 0.000000 2.328700 
# 
# From -- ./inp_files/75369.got.cif
#   From: 2010.05.17/outbox.cif.g08.bks.cpg/sg14_38_cif.got.tgz:75369.got - 2010.06.03 17:49:19.
