data_PCOD9248543
_publ_section_title
;
Structure prediction by ZEFSAII (Michael W. Deem and Ramdas Pophale) SiO2 
 PCOD9248543
Probable space group: P 21/C
;
_chemical_formula_sum "Si O2"
_cell_formula_units_Z 30
_cell_length_a 13.876402
_cell_length_b 7.493677
_cell_length_c 13.530503
_cell_angle_alpha 90.000000
_cell_angle_beta 126.559650
_cell_angle_gamma 90.000000
_cell_volume 1130.133054
_symmetry_space_group_name_H-M "P 21/C"
_symmetry_group_IT_number 14
_symmetry_cell_setting 'monoclinic'
loop_
_space_group_symop_operation_xyz
x,y,z
-x,1/2+y,1/2-z
-x,-y,-z
x,1/2-y,1/2+z
loop_
_atom_site_type_symbol
_atom_site_label
_atom_site_fract_x
_atom_site_fract_y
_atom_site_fract_z
Si Si1 0.597098 0.341078 0.483503
Si Si2 0.315854 0.284946 0.443522
Si Si3 0.359782 0.548590 0.833636
Si Si4 0.079188 0.330894 0.852190
Si Si5 0.000000 0.500000 0.000000
Si Si6 0.216242 0.636208 0.154022
Si Si7 0.859938 0.281230 0.093245
Si Si8 0.437763 0.082516 0.699559
O O1 0.381023 0.467028 0.452755
O O2 0.577151 0.179850 0.547358
O O3 0.666560 0.448184 0.826179
O O4 0.503464 0.353604 0.338301
O O5 0.178123 0.315148 0.388455
O O6 0.375144 0.216900 0.583492
O O7 0.324236 0.134307 0.364365
O O8 0.254960 0.684077 0.731696
O O9 0.450512 0.516070 0.798914
O O10 0.143473 0.519131 0.867016
O O11 0.964435 0.313399 0.713846
O O12 0.049966 0.346956 0.949217
O O13 0.131938 0.488497 0.150592
O O14 0.270737 0.699081 0.480911
O O15 0.112368 0.679470 0.006082
#
# Coordination Sequence:
#
# PCOD9248543 Si02
#       8
#     4   4   4   4   2   4   4   4
#     4  12  27  50  83 119 167 222 270 346 420 494
#     4  12  27  49  79 123 159 219 282 335 421 505
#     4  12  27  54  82 118 170 221 273 346 419 503
#     4  11  23  45  80 112 161 208 276 340 413 489
#     4  10  22  42  80 112 148 218 264 336 406 488
#     4  11  24  50  80 117 166 213 276 343 414 495
#     4  11  22  48  76 111 160 215 258 346 405 479
#     4  12  26  50  81 120 169 212 275 341 409 505
#
# _framework density 26.545546000000002
#
# number of rings (size 3 to 8) (size 9 to 14) (size 15 to 20)
#    0.000    0.533    5.333    2.800    1.867    3.200 
#    4.800    3.333    0.000    0.000    0.000    0.000 
#    0.000    0.000    0.000    0.000    0.000    0.000 
#
# Total GULP energy -167668.855820 kJ/mol
# GULP energy per Si atom -5588.961861 kJ/mol
# Density = 2.648513 g / cm^3
# Si number density = 26.545546 Si / 1000 Ang^3
#
#
#
# Elastic Constant Matrix: (Units=GPa)
#
#
# Indices 1 2 3 4 5 6 
#
# 1 178.2107 51.3985 65.1394 0.0000 3.2586 0.0000
# 2 51.3985 129.2452 41.6439 0.0000 -4.9340 0.0000
# 3 65.1394 41.6439 158.8700 0.0000 7.4919 0.0000
# 4 0.0000 0.0000 0.0000 47.4222 0.0000 4.7326
# 5 3.2586 -4.9340 7.4919 0.0000 55.5273 0.0000
# 6 0.0000 0.0000 0.0000 4.7326 0.0000 37.6720
#
#
#
# Elastic Compliance Matrix: (Units=1/GPa)
#
#
# Indices 1 2 3 4 5 6 
#
# 1 0.007069 -0.002067 -0.002343 0.000000 -0.000282 0.000000
# 2 -0.002067 0.009117 -0.001596 0.000000 0.001147 0.000000
# 3 -0.002343 -0.001596 0.007723 0.000000 -0.001046 0.000000
# 4 0.000000 0.000000 0.000000 0.021355 0.000000 -0.002683
# 5 -0.000282 0.001147 -0.001046 0.000000 0.018269 0.000000
# 6 0.000000 0.000000 0.000000 -0.002683 0.000000 0.026882
#
#
# Mechanical properties :
#
#
# Convention : Reuss Voigt Hill
#
# Bulk Modulus (GPa) = 84.06188 86.96552 85.51370
# Shear Modulus (GPa) = 46.99493 48.66722 47.83108
#
# Velocity S-wave (km/s) = 4.21212 4.28641 4.24942
# Velocity P-wave (km/s) = 7.44256 7.57164 7.50738
#
# Compressibility (1/GPa) = 0.01189600
#
# Stress axis : x y z
#
# Youngs Moduli (GPa) = 141.45878 109.68007 129.48173
#
# Poissons Ratio (x) = 0.22671 0.30342
# Poissons Ratio (y) = 0.29240 0.20672
# Poissons Ratio (z) = 0.33149 0.17510
#
# Static dielectric constant tensor:
#      x y z
#    x 5.386070 0.000000 -0.397840 
#    y 0.000000 2.498760 0.000000 
#    z -0.397840 0.000000 2.140190 
# 
# From -- ./inp_files/31932.got.cif
#   From: 2010.05.17/outbox.cif.g08.bks.cpg/sg14_16_cif.got.tgz:31932.got - 2010.06.03 17:49:19.
