data_PCOD9248934
_publ_section_title
;
Structure prediction by ZEFSAII (Michael W. Deem and Ramdas Pophale) SiO2 
 PCOD9248934
Probable space group: P 21/C
;
_chemical_formula_sum "Si O2"
_cell_formula_units_Z 32
_cell_length_a 6.049421
_cell_length_b 7.943234
_cell_length_c 32.222488
_cell_angle_alpha 90.000000
_cell_angle_beta 93.768259
_cell_angle_gamma 90.000000
_cell_volume 1545.006421
_symmetry_space_group_name_H-M "P 21/C"
_symmetry_group_IT_number 14
_symmetry_cell_setting 'monoclinic'
loop_
_space_group_symop_operation_xyz
x,y,z
-x,1/2+y,1/2-z
-x,-y,-z
x,1/2-y,1/2+z
loop_
_atom_site_type_symbol
_atom_site_label
_atom_site_fract_x
_atom_site_fract_y
_atom_site_fract_z
Si Si1 0.056750 0.316834 0.814685
Si Si2 0.751492 0.089869 0.999863
Si Si3 0.634403 0.044682 0.285388
Si Si4 0.607186 0.523045 0.131346
Si Si5 0.983751 0.994892 0.849189
Si Si6 0.639016 0.349673 0.407851
Si Si7 0.260002 0.325570 0.729431
Si Si8 0.674663 0.319458 0.590175
O O1 0.138395 0.434091 0.853182
O O2 0.136508 0.372910 0.770409
O O3 0.795829 0.314077 0.805165
O O4 0.137574 0.130402 0.827169
O O5 0.727679 0.182268 0.955509
O O6 0.755380 0.187332 0.043586
O O7 0.500000 0.000000 0.000000
O O8 0.000000 0.000000 0.000000
O O9 0.490639 0.996563 0.323828
O O10 0.756035 0.874004 0.275056
O O11 0.506997 0.116842 0.244221
O O12 0.496294 0.687880 0.109704
O O13 0.575728 0.357760 0.103614
O O14 0.841090 0.101679 0.880325
O O15 0.833265 0.909268 0.812648
O O16 0.124400 0.861151 0.876387
O O17 0.488517 0.519563 0.407432
#
# Coordination Sequence:
#
# PCOD9248934 Si02
#       8
#     4   4   4   4   4   4   4   4
#     4  11  23  40  61  90 131 170 220 284 335 401
#     4  10  22  44  73 106 142 182 232 291 354 424
#     4  11  23  41  56  89 130 167 225 280 339 403
#     4  11  24  41  65  97 130 175 226 278 337 419
#     4  12  22  40  67  90 128 180 220 277 350 413
#     4  11  23  43  70  94 136 175 224 281 350 411
#     4  11  25  36  61  89 124 174 221 278 337 402
#     4  11  24  42  69  99 131 174 228 275 349 417
#
# _framework density 20.711887999999998
#
# number of rings (size 3 to 8) (size 9 to 14) (size 15 to 20)
#    0.000    1.000    3.750    3.000    1.750    5.500 
#    0.000    0.000    0.000    3.750    0.000    0.000 
#    0.000    0.000    0.000    0.000    0.000    0.000 
#
# Total GULP energy -178347.753807 kJ/mol
# GULP energy per Si atom -5573.367306 kJ/mol
# Density = 2.066475 g / cm^3
# Si number density = 20.711888 Si / 1000 Ang^3
#
#
#
# Elastic Constant Matrix: (Units=GPa)
#
#
# Indices 1 2 3 4 5 6 
#
# 1 55.1858 12.8510 19.0623 0.0000 11.1533 0.0000
# 2 12.8510 95.9091 28.8283 0.0000 14.1113 0.0000
# 3 19.0623 28.8283 124.8705 0.0000 14.9891 0.0000
# 4 0.0000 0.0000 0.0000 23.0168 0.0000 3.7690
# 5 11.1533 14.1113 14.9891 0.0000 30.2693 0.0000
# 6 0.0000 0.0000 0.0000 3.7690 0.0000 22.1820
#
#
#
# Elastic Compliance Matrix: (Units=1/GPa)
#
#
# Indices 1 2 3 4 5 6 
#
# 1 0.020323 -0.001224 -0.002115 0.000000 -0.005870 0.000000
# 2 -0.001224 0.011801 -0.002053 0.000000 -0.004034 0.000000
# 3 -0.002115 -0.002053 0.009140 0.000000 -0.002789 0.000000
# 4 0.000000 0.000000 0.000000 0.044690 0.000000 -0.007593
# 5 -0.005870 -0.004034 -0.002789 0.000000 0.038462 0.000000
# 6 0.000000 0.000000 0.000000 -0.007593 0.000000 0.046372
#
#
# Mechanical properties :
#
#
# Convention : Reuss Voigt Hill
#
# Bulk Modulus (GPa) = 32.80905 44.16095 38.48500
# Shear Modulus (GPa) = 26.07811 29.44189 27.76000
#
# Velocity S-wave (km/s) = 3.55221 3.77436 3.66497
# Velocity P-wave (km/s) = 5.71834 6.35313 6.04407
#
# Compressibility (1/GPa) = 0.03047940
#
# Stress axis : x y z
#
# Youngs Moduli (GPa) = 49.20631 84.73689 109.40787
#
# Poissons Ratio (x) = 0.10368 0.23142
# Poissons Ratio (y) = 0.06021 0.22467
# Poissons Ratio (z) = 0.10408 0.17401
#
# Static dielectric constant tensor:
#      x y z
#    x 1.958020 0.000000 -0.025680 
#    y 0.000000 1.748530 0.000000 
#    z -0.025680 0.000000 1.716690 
# 
# From -- ./inp_files/78834.got.cif
#   From: 2010.05.17/outbox.cif.g08.bks.cpg/sg14_40_cif.got.tgz:78834.got - 2010.06.03 17:49:19.
