data_PCOD9248983
_publ_section_title
;
Structure prediction by ZEFSAII (Michael W. Deem and Ramdas Pophale) SiO2 
 PCOD9248983
Probable space group: P 21/C
;
_chemical_formula_sum "Si O2"
_cell_formula_units_Z 28
_cell_length_a 19.237283
_cell_length_b 9.552827
_cell_length_c 13.746427
_cell_angle_alpha 90.000000
_cell_angle_beta 30.024483
_cell_angle_gamma 90.000000
_cell_volume 1264.028171
_symmetry_space_group_name_H-M "P 21/C"
_symmetry_group_IT_number 14
_symmetry_cell_setting 'monoclinic'
loop_
_space_group_symop_operation_xyz
x,y,z
-x,1/2+y,1/2-z
-x,-y,-z
x,1/2-y,1/2+z
loop_
_atom_site_type_symbol
_atom_site_label
_atom_site_fract_x
_atom_site_fract_y
_atom_site_fract_z
Si Si1 0.805041 0.423452 0.464530
Si Si2 0.013121 0.395893 0.894142
Si Si3 0.025071 0.418993 0.369409
Si Si4 0.693230 0.406537 0.228771
Si Si5 0.464020 0.432414 0.242091
Si Si6 0.251898 0.862118 0.545394
Si Si7 0.519094 0.634053 0.353269
O O1 0.881304 0.546090 0.313408
O O2 0.649908 0.477658 0.677949
O O3 0.812673 0.292921 0.377194
O O4 0.895610 0.402942 0.452092
O O5 0.062038 0.238447 0.855262
O O6 0.000000 0.500000 0.000000
O O7 0.855424 0.395255 0.047620
O O8 0.140638 0.514003 0.175788
O O9 0.000000 0.500000 0.500000
O O10 0.637451 0.563845 0.277266
O O11 0.605992 0.337999 0.420358
O O12 0.667749 0.339930 0.154389
O O13 0.460986 0.518429 0.347716
O O14 0.427341 0.268251 0.271196
O O15 0.630727 0.417020 0.022555
#
# Coordination Sequence:
#
# PCOD9248983 Si02
#       7
#     4   4   4   4   4   4   4
#     4  12  24  46  72 106 143 193 240 302 368 432
#     4  12  26  42  75 104 144 187 246 297 368 433
#     4  12  27  46  71 105 145 192 246 300 363 434
#     4  10  22  45  67  97 138 186 229 288 358 422
#     4  11  24  42  74 104 141 184 239 294 368 427
#     4  11  24  47  72  99 147 189 234 301 361 432
#     4  10  23  42  73  98 142 184 236 287 361 433
#
# _framework density 22.151403999999999
#
# number of rings (size 3 to 8) (size 9 to 14) (size 15 to 20)
#    0.000    0.857    4.286    1.714    6.000    2.286 
#    0.000    2.857    0.000    0.000    0.000    0.000 
#    0.000    0.000    0.000    0.000    0.000    0.000 
#
# Total GULP energy -155887.724335 kJ/mol
# GULP energy per Si atom -5567.418726 kJ/mol
# Density = 2.210099 g / cm^3
# Si number density = 22.151404 Si / 1000 Ang^3
#
#
#
# Elastic Constant Matrix: (Units=GPa)
#
#
# Indices 1 2 3 4 5 6 
#
# 1 69.1931 50.2861 29.5263 0.0000 -11.9301 0.0000
# 2 50.2861 167.3031 55.1894 0.0000 1.9656 0.0000
# 3 29.5263 55.1894 61.6281 0.0000 -8.8056 0.0000
# 4 0.0000 0.0000 0.0000 21.7964 0.0000 4.5993
# 5 -11.9301 1.9656 -8.8056 0.0000 48.9780 0.0000
# 6 0.0000 0.0000 0.0000 4.5993 0.0000 26.1759
#
#
#
# Elastic Compliance Matrix: (Units=1/GPa)
#
#
# Indices 1 2 3 4 5 6 
#
# 1 0.020740 -0.004554 -0.005245 0.000000 0.004292 0.000000
# 2 -0.004554 0.009632 -0.006833 0.000000 -0.002724 0.000000
# 3 -0.005245 -0.006833 0.025367 0.000000 0.003557 0.000000
# 4 0.000000 0.000000 0.000000 0.047646 0.000000 -0.008372
# 5 0.004292 -0.002724 0.003557 0.000000 0.022212 0.000000
# 6 0.000000 0.000000 0.000000 -0.008372 0.000000 0.039674
#
#
# Mechanical properties :
#
#
# Convention : Reuss Voigt Hill
#
# Bulk Modulus (GPa) = 44.49534 63.12533 53.81034
# Shear Modulus (GPa) = 24.26868 30.26489 27.26678
#
# Velocity S-wave (km/s) = 3.31355 3.70032 3.51226
# Velocity P-wave (km/s) = 5.89661 6.84219 6.38692
#
# Compressibility (1/GPa) = 0.02247426
#
# Stress axis : x y z
#
# Youngs Moduli (GPa) = 48.21557 103.81986 39.42132
#
# Poissons Ratio (x) = 0.47279 0.20678
# Poissons Ratio (y) = 0.21957 0.26937
# Poissons Ratio (z) = 0.25291 0.70942
#
# Static dielectric constant tensor:
#      x y z
#    x 1.997650 0.000000 -0.049650 
#    y 0.000000 1.825820 0.000000 
#    z -0.049650 0.000000 1.869040 
# 
# From -- ./inp_files/50025.got.cif
#   From: 2010.05.17/outbox.cif.g08.bks.cpg/sg14_26_cif.got.tgz:50025.got - 2010.06.03 17:49:19.
