data_PCOD9248551
_publ_section_title
;
Structure prediction by ZEFSAII (Michael W. Deem and Ramdas Pophale) SiO2 
 PCOD9248551
Probable space group: P 21/C
;
_chemical_formula_sum "Si O2"
_cell_formula_units_Z 20
_cell_length_a 11.956297
_cell_length_b 7.499831
_cell_length_c 18.254715
_cell_angle_alpha 90.000000
_cell_angle_beta 34.361282
_cell_angle_gamma 90.000000
_cell_volume 923.883878
_symmetry_space_group_name_H-M "P 21/C"
_symmetry_group_IT_number 14
_symmetry_cell_setting 'monoclinic'
loop_
_space_group_symop_operation_xyz
x,y,z
-x,1/2+y,1/2-z
-x,-y,-z
x,1/2-y,1/2+z
loop_
_atom_site_type_symbol
_atom_site_label
_atom_site_fract_x
_atom_site_fract_y
_atom_site_fract_z
Si Si1 0.128352 0.275176 0.915160
Si Si2 0.194617 0.902048 0.804889
Si Si3 0.042393 0.584531 0.136846
Si Si4 0.359769 0.202665 0.430966
Si Si5 0.131193 0.509373 0.625095
O O1 0.300538 0.329190 0.878099
O O2 0.049718 0.406459 0.894926
O O3 0.206779 0.100263 0.831104
O O4 0.943122 0.208771 0.064724
O O5 0.411244 0.825903 0.679138
O O6 0.072764 0.923384 0.795988
O O7 0.874200 0.531430 0.286171
O O8 0.124159 0.782520 0.109774
O O9 0.216906 0.439608 0.048447
O O10 0.296043 0.399219 0.491999
#
# Coordination Sequence:
#
# PCOD9248551 Si02
#       5
#     4   4   4   4   4
#     4   9  21  41  61  92 128 154 201 261 301 357
#     4   9  21  41  63  91 127 158 199 259 307 353
#     4  11  21  41  64  88 127 165 198 254 307 355
#     4  11  22  40  68  90 117 170 206 243 310 372
#     4  10  22  43  62  89 129 159 203 256 304 356
#
# _framework density 21.647739999999999
#
# number of rings (size 3 to 8) (size 9 to 14) (size 15 to 20)
#    0.000    2.000    2.000    1.800    2.800    0.800 
#    0.000    5.000    0.000    0.000    0.000    0.000 
#    0.000    0.000    0.000    0.000    0.000    0.000 
#
# Total GULP energy -111815.359680 kJ/mol
# GULP energy per Si atom -5590.767984 kJ/mol
# Density = 2.159847 g / cm^3
# Si number density = 21.647740 Si / 1000 Ang^3
#
#
#
# Elastic Constant Matrix: (Units=GPa)
#
#
# Indices 1 2 3 4 5 6 
#
# 1 37.0655 -9.9009 6.9511 0.0000 12.3527 0.0000
# 2 -9.9009 90.9214 0.1991 0.0000 -2.7692 0.0000
# 3 6.9511 0.1991 21.8889 0.0000 -6.4429 0.0000
# 4 0.0000 0.0000 0.0000 11.7195 0.0000 13.7977
# 5 12.3527 -2.7692 -6.4429 0.0000 40.7759 0.0000
# 6 0.0000 0.0000 0.0000 13.7977 0.0000 26.0459
#
#
#
# Elastic Compliance Matrix: (Units=1/GPa)
#
#
# Indices 1 2 3 4 5 6 
#
# 1 0.034915 0.003448 -0.014855 0.000000 -0.012690 0.000000
# 2 0.003448 0.011362 -0.001341 0.000000 -0.000485 0.000000
# 3 -0.014855 -0.001341 0.054235 0.000000 0.012979 0.000000
# 4 0.000000 0.000000 0.000000 0.226744 0.000000 -0.120116
# 5 -0.012690 -0.000485 0.012979 0.000000 0.030386 0.000000
# 6 0.000000 0.000000 0.000000 -0.120116 0.000000 0.102025
#
#
# Mechanical properties :
#
#
# Convention : Reuss Voigt Hill
#
# Bulk Modulus (GPa) = 13.33021 16.04159 14.68590
# Shear Modulus (GPa) = 9.80069 25.88337 17.84203
#
# Velocity S-wave (km/s) = 2.13007 3.46159 2.87400
# Velocity P-wave (km/s) = 3.49582 4.83768 4.22042
#
# Compressibility (1/GPa) = 0.07501758
#
# Stress axis : x y z
#
# Youngs Moduli (GPa) = 28.64070 88.01137 18.43829
#
# Poissons Ratio (x) = -0.30348 0.27389
# Poissons Ratio (y) = -0.09876 0.02473
# Poissons Ratio (z) = 0.42544 0.11803
#
# Static dielectric constant tensor:
#      x y z
#    x 1.797440 0.000000 0.040000 
#    y 0.000000 1.815530 0.000000 
#    z 0.040000 0.000000 1.749300 
# 
# From -- ./inp_files/23133.got.cif
#   From: 2010.05.17/outbox.cif.g08.bks.cpg/sg14_12_cif.got.tgz:23133.got - 2010.06.03 17:49:19.
