data_PCOD9248994
_publ_section_title
;
Structure prediction by ZEFSAII (Michael W. Deem and Ramdas Pophale) SiO2 
 PCOD9248994
Probable space group: P 21/C
;
_chemical_formula_sum "Si O2"
_cell_formula_units_Z 32
_cell_length_a 27.776641
_cell_length_b 9.212214
_cell_length_c 9.757026
_cell_angle_alpha 90.000000
_cell_angle_beta 146.432841
_cell_angle_gamma 90.000000
_cell_volume 1380.444102
_symmetry_space_group_name_H-M "P 21/C"
_symmetry_group_IT_number 14
_symmetry_cell_setting 'monoclinic'
loop_
_space_group_symop_operation_xyz
x,y,z
-x,1/2+y,1/2-z
-x,-y,-z
x,1/2-y,1/2+z
loop_
_atom_site_type_symbol
_atom_site_label
_atom_site_fract_x
_atom_site_fract_y
_atom_site_fract_z
Si Si1 0.976492 0.167235 0.955213
Si Si2 0.593951 0.742771 0.657612
Si Si3 0.680365 0.179311 0.013012
Si Si4 0.608655 0.012853 0.396516
Si Si5 0.912554 0.925465 0.238747
Si Si6 0.267139 0.044184 0.079177
Si Si7 0.447842 0.431938 0.701739
Si Si8 0.129072 0.692215 0.531091
O O1 0.897734 0.198973 0.874241
O O2 0.059159 0.259007 0.207054
O O3 0.943287 0.223752 0.729868
O O4 0.000000 0.000000 0.000000
O O5 0.688326 0.818280 0.886919
O O6 0.538612 0.857439 0.617280
O O7 0.577140 0.698980 0.461169
O O8 0.588478 0.591957 0.724241
O O9 0.621833 0.323046 0.876403
O O10 0.777320 0.236670 0.282244
O O11 0.697634 0.101184 0.909102
O O12 0.628218 0.054103 0.973173
O O13 0.534779 0.008806 0.337843
O O14 0.695893 0.961086 0.679608
O O15 0.880836 0.023450 0.036731
O O16 0.835530 0.943427 0.165197
O O17 0.000000 0.000000 0.500000
#
# Coordination Sequence:
#
# PCOD9248994 Si02
#       8
#     4   4   4   4   4   4   4   4
#     4  11  25  44  73 106 137 184 233 288 351 423
#     4  11  25  47  67 101 140 182 240 290 364 425
#     4  11  26  41  73 100 143 184 240 293 359 431
#     4  12  25  44  71 103 140 186 243 296 362 422
#     4  10  22  45  68  96 140 177 224 284 345 417
#     4  11  25  46  68 104 139 189 232 302 354 429
#     4  11  26  45  71 102 141 190 238 301 357 435
#     4  11  23  45  69 104 141 181 230 286 353 422
#
# _framework density 23.180945999999999
#
# number of rings (size 3 to 8) (size 9 to 14) (size 15 to 20)
#    0.000    1.000    2.500    3.375    3.500    4.000 
#    4.500    0.000    0.000    0.000    0.000    0.000 
#    0.000    0.000    0.000    0.000    0.000    0.000 
#
# Total GULP energy -178892.897008 kJ/mol
# GULP energy per Si atom -5590.403032 kJ/mol
# Density = 2.312819 g / cm^3
# Si number density = 23.180946 Si / 1000 Ang^3
#
#
#
# Elastic Constant Matrix: (Units=GPa)
#
#
# Indices 1 2 3 4 5 6 
#
# 1 99.0763 40.3284 28.6292 0.0000 18.0655 0.0000
# 2 40.3284 180.6707 35.1867 0.0000 9.3121 0.0000
# 3 28.6292 35.1867 80.5195 0.0000 21.5791 0.0000
# 4 0.0000 0.0000 0.0000 41.3987 0.0000 0.3668
# 5 18.0655 9.3121 21.5791 0.0000 42.3753 0.0000
# 6 0.0000 0.0000 0.0000 0.3668 0.0000 34.4086
#
#
#
# Elastic Compliance Matrix: (Units=1/GPa)
#
#
# Indices 1 2 3 4 5 6 
#
# 1 0.012307 -0.002074 -0.002531 0.000000 -0.003502 0.000000
# 2 -0.002074 0.006399 -0.002222 0.000000 0.000610 0.000000
# 3 -0.002531 -0.002222 0.016063 0.000000 -0.006612 0.000000
# 4 0.000000 0.000000 0.000000 0.024158 0.000000 -0.000258
# 5 -0.003502 0.000610 -0.006612 0.000000 0.028325 0.000000
# 6 0.000000 0.000000 0.000000 -0.000258 0.000000 0.029065
#
#
# Mechanical properties :
#
#
# Convention : Reuss Voigt Hill
#
# Bulk Modulus (GPa) = 47.36093 63.17277 55.26685
# Shear Modulus (GPa) = 36.49375 40.71135 38.60255
#
# Velocity S-wave (km/s) = 3.97205 4.19530 4.08520
# Velocity P-wave (km/s) = 6.44295 7.12591 6.79302
#
# Compressibility (1/GPa) = 0.02111445
#
# Stress axis : x y z
#
# Youngs Moduli (GPa) = 81.25253 156.26866 62.25651
#
# Poissons Ratio (x) = 0.32406 0.15758
# Poissons Ratio (y) = 0.16849 0.13836
# Poissons Ratio (z) = 0.20566 0.34731
#
# Static dielectric constant tensor:
#      x y z
#    x 1.872100 0.000000 0.006590 
#    y 0.000000 1.903660 0.000000 
#    z 0.006590 0.000000 1.879810 
# 
# From -- ./inp_files/36506.got.cif
#   From: 2010.05.17/outbox.cif.g08.bks.cpg/sg14_19_cif.got.tgz:36506.got - 2010.06.03 17:49:19.
