data_PCOD9248857
_publ_section_title
;
Structure prediction by ZEFSAII (Michael W. Deem and Ramdas Pophale) SiO2 
 PCOD9248857
Probable space group: P 21/C
;
_chemical_formula_sum "Si O2"
_cell_formula_units_Z 32
_cell_length_a 19.718443
_cell_length_b 6.109002
_cell_length_c 23.025465
_cell_angle_alpha 90.000000
_cell_angle_beta 147.690529
_cell_angle_gamma 90.000000
_cell_volume 1482.492680
_symmetry_space_group_name_H-M "P 21/C"
_symmetry_group_IT_number 14
_symmetry_cell_setting 'monoclinic'
loop_
_space_group_symop_operation_xyz
x,y,z
-x,1/2+y,1/2-z
-x,-y,-z
x,1/2-y,1/2+z
loop_
_atom_site_type_symbol
_atom_site_label
_atom_site_fract_x
_atom_site_fract_y
_atom_site_fract_z
Si Si1 0.785324 0.783977 0.947737
Si Si2 0.119433 0.205360 0.220787
Si Si3 0.518244 0.837694 0.791025
Si Si4 0.069175 0.994752 0.357160
Si Si5 0.830812 0.191336 0.681002
Si Si6 0.349280 0.992623 0.885731
Si Si7 0.936563 0.338457 0.498915
Si Si8 0.709374 0.462545 0.793443
O O1 0.669522 0.840263 0.906881
O O2 0.733805 0.686255 0.848758
O O3 0.864189 0.001919 0.991783
O O4 0.862480 0.595484 0.037075
O O5 0.256462 0.304099 0.333774
O O6 0.007480 0.275587 0.182989
O O7 0.135739 0.948905 0.237876
O O8 0.056981 0.280655 0.115512
O O9 0.500026 0.582414 0.753724
O O10 0.416403 0.856872 0.768491
O O11 0.950062 0.150788 0.258213
O O12 0.166188 0.956291 0.374635
O O13 0.703545 0.313195 0.607024
O O14 0.315995 0.966083 0.793454
O O15 0.500000 0.000000 0.000000
O O16 0.832761 0.182338 0.396244
O O17 0.000000 0.500000 0.500000
#
# Coordination Sequence:
#
# PCOD9248857 Si02
#       8
#     4   4   4   4   4   4   4   4
#     4  11  23  41  68 106 139 180 239 306 374 433
#     4  11  23  42  69 101 137 176 236 293 364 438
#     4  10  22  44  69 105 147 193 246 301 373 452
#     4  11  22  40  67 101 137 177 228 301 364 425
#     4  11  23  44  70  99 140 182 238 295 363 442
#     4  11  28  50  67  99 141 198 248 290 359 452
#     4  12  23  38  69 106 140 180 223 295 377 441
#     4  11  24  45  68  99 147 187 239 304 367 442
#
# _framework density 21.585266000000001
#
# number of rings (size 3 to 8) (size 9 to 14) (size 15 to 20)
#    0.000    1.000    5.000    1.500    1.750    2.500 
#   11.250    0.000    0.000    0.000    0.000    0.000 
#    0.000    0.000    0.000    0.000    0.000    0.000 
#
# Total GULP energy -178155.765716 kJ/mol
# GULP energy per Si atom -5567.367679 kJ/mol
# Density = 2.153614 g / cm^3
# Si number density = 21.585266 Si / 1000 Ang^3
#
#
#
# Elastic Constant Matrix: (Units=GPa)
#
#
# Indices 1 2 3 4 5 6 
#
# 1 101.5914 25.1629 50.4457 0.0000 14.0550 0.0000
# 2 25.1629 69.9159 30.6256 0.0000 9.0194 0.0000
# 3 50.4457 30.6256 120.1735 0.0000 18.6676 0.0000
# 4 0.0000 0.0000 0.0000 24.9093 0.0000 3.5412
# 5 14.0550 9.0194 18.6676 0.0000 37.9935 0.0000
# 6 0.0000 0.0000 0.0000 3.5412 0.0000 28.6252
#
#
#
# Elastic Compliance Matrix: (Units=1/GPa)
#
#
# Indices 1 2 3 4 5 6 
#
# 1 0.012962 -0.002431 -0.004511 0.000000 -0.002002 0.000000
# 2 -0.002431 0.016691 -0.002985 0.000000 -0.001596 0.000000
# 3 -0.004511 -0.002985 0.011483 0.000000 -0.003265 0.000000
# 4 0.000000 0.000000 0.000000 0.040864 0.000000 -0.005055
# 5 -0.002002 -0.001596 -0.003265 0.000000 0.029044 0.000000
# 6 0.000000 0.000000 0.000000 -0.005055 0.000000 0.035560
#
#
# Mechanical properties :
#
#
# Convention : Reuss Voigt Hill
#
# Bulk Modulus (GPa) = 46.98750 56.01661 51.50205
# Shear Modulus (GPa) = 28.80977 30.66871 29.73924
#
# Velocity S-wave (km/s) = 3.65731 3.77346 3.71584
# Velocity P-wave (km/s) = 6.29684 6.70768 6.50550
#
# Compressibility (1/GPa) = 0.02128226
#
# Stress axis : x y z
#
# Youngs Moduli (GPa) = 77.14702 59.91101 87.08778
#
# Poissons Ratio (x) = 0.14565 0.39283
# Poissons Ratio (y) = 0.18755 0.25998
# Poissons Ratio (z) = 0.34799 0.17885
#
# Static dielectric constant tensor:
#      x y z
#    x 1.864820 0.000000 -0.050400 
#    y 0.000000 1.884140 0.000000 
#    z -0.050400 0.000000 1.783400 
# 
# From -- ./inp_files/74541.got.cif
#   From: 2010.05.17/outbox.cif.g08.bks.cpg/sg14_38_cif.got.tgz:74541.got - 2010.06.03 17:49:19.
