data_PCOD9248712
_publ_section_title
;
Structure prediction by ZEFSAII (Michael W. Deem and Ramdas Pophale) SiO2 
 PCOD9248712
Probable space group: P 21/C
;
_chemical_formula_sum "Si O2"
_cell_formula_units_Z 24
_cell_length_a 25.366047
_cell_length_b 5.692867
_cell_length_c 13.477807
_cell_angle_alpha 90.000000
_cell_angle_beta 32.657125
_cell_angle_gamma 90.000000
_cell_volume 1050.227587
_symmetry_space_group_name_H-M "P 21/C"
_symmetry_group_IT_number 14
_symmetry_cell_setting 'monoclinic'
loop_
_space_group_symop_operation_xyz
x,y,z
-x,1/2+y,1/2-z
-x,-y,-z
x,1/2-y,1/2+z
loop_
_atom_site_type_symbol
_atom_site_label
_atom_site_fract_x
_atom_site_fract_y
_atom_site_fract_z
Si Si1 0.911908 0.169326 0.670112
Si Si2 0.798020 0.498407 0.719119
Si Si3 0.267859 0.366956 0.521006
Si Si4 0.024677 0.146150 0.162441
Si Si5 0.384648 0.756081 0.951635
Si Si6 0.558684 0.587665 0.311280
O O1 0.865089 0.280496 0.646212
O O2 0.961014 0.360478 0.662763
O O3 0.820480 0.039198 0.868892
O O4 0.000000 0.000000 0.500000
O O5 0.784066 0.654899 0.839172
O O6 0.859799 0.641127 0.542687
O O7 0.691951 0.398302 0.863939
O O8 0.331785 0.503669 0.503444
O O9 0.347379 0.255922 0.320309
O O10 0.999889 0.404534 0.243056
O O11 0.404464 0.627612 0.815500
O O12 0.481470 0.785066 0.861387
O O13 0.500000 0.500000 0.500000
#
# Coordination Sequence:
#
# PCOD9248712 Si02
#       6
#     4   4   4   4   4   4
#     4  11  22  44  73  94 136 195 245 286 363 454
#     4  10  23  44  70  97 134 194 237 287 376 438
#     4  10  22  43  70  98 136 185 245 295 370 443
#     4  12  27  44  67 108 151 186 241 312 366 432
#     4  10  22  45  70  99 142 186 237 309 367 446
#     4  11  23  45  72 103 140 189 246 304 379 446
#
# _framework density 22.852188000000002
#
# number of rings (size 3 to 8) (size 9 to 14) (size 15 to 20)
#    0.000    1.333    3.333    1.500    4.667    0.667 
#   12.000    0.000    0.000    0.000    0.000    0.000 
#    0.000    0.000    0.000    0.000    0.000    0.000 
#
# Total GULP energy -134062.087675 kJ/mol
# GULP energy per Si atom -5585.920320 kJ/mol
# Density = 2.280018 g / cm^3
# Si number density = 22.852188 Si / 1000 Ang^3
#
#
#
# Elastic Constant Matrix: (Units=GPa)
#
#
# Indices 1 2 3 4 5 6 
#
# 1 39.0746 14.1829 25.9630 0.0000 -8.5786 0.0000
# 2 14.1829 70.4755 44.4157 0.0000 -9.5326 0.0000
# 3 25.9630 44.4157 158.7229 0.0000 -13.1934 0.0000
# 4 0.0000 0.0000 0.0000 43.1804 0.0000 -15.9471
# 5 -8.5786 -9.5326 -13.1934 0.0000 28.7873 0.0000
# 6 0.0000 0.0000 0.0000 -15.9471 0.0000 35.8789
#
#
#
# Elastic Compliance Matrix: (Units=1/GPa)
#
#
# Indices 1 2 3 4 5 6 
#
# 1 0.030493 -0.002986 -0.003617 0.000000 0.006440 0.000000
# 2 -0.002986 0.017893 -0.004263 0.000000 0.003082 0.000000
# 3 -0.003617 -0.004263 0.008190 0.000000 0.001264 0.000000
# 4 0.000000 0.000000 0.000000 0.027707 0.000000 0.012315
# 5 0.006440 0.003082 0.001264 0.000000 0.038257 0.000000
# 6 0.000000 0.000000 0.000000 0.012315 0.000000 0.033345
#
#
# Mechanical properties :
#
#
# Convention : Reuss Voigt Hill
#
# Bulk Modulus (GPa) = 28.69817 48.59957 38.64887
# Shear Modulus (GPa) = 26.42273 33.81675 30.11974
#
# Velocity S-wave (km/s) = 3.40405 3.85099 3.63440
# Velocity P-wave (km/s) = 5.29486 6.40989 5.87887
#
# Compressibility (1/GPa) = 0.03484543
#
# Stress axis : x y z
#
# Youngs Moduli (GPa) = 32.79425 55.88623 122.10297
#
# Poissons Ratio (x) = 0.16687 0.44165
# Poissons Ratio (y) = 0.09792 0.52047
# Poissons Ratio (z) = 0.11862 0.23822
#
# Static dielectric constant tensor:
#      x y z
#    x 1.848750 0.000000 0.033890 
#    y 0.000000 1.914510 0.000000 
#    z 0.033890 0.000000 1.898900 
# 
# From -- ./inp_files/52106.got.cif
#   From: 2010.05.17/outbox.cif.g08.bks.cpg/sg14_27_cif.got.tgz:52106.got - 2010.06.03 17:49:19.
