data_PCOD9248254
_publ_section_title
;
Structure prediction by ZEFSAII (Michael W. Deem and Ramdas Pophale) SiO2 
 PCOD9248254
Probable space group: P 21/C
;
_chemical_formula_sum "Si O2"
_cell_formula_units_Z 32
_cell_length_a 6.526426
_cell_length_b 25.364648
_cell_length_c 10.776727
_cell_angle_alpha 90.000000
_cell_angle_beta 117.574475
_cell_angle_gamma 90.000000
_cell_volume 1581.341727
_symmetry_space_group_name_H-M "P 21/C"
_symmetry_group_IT_number 14
_symmetry_cell_setting 'monoclinic'
loop_
_space_group_symop_operation_xyz
x,y,z
-x,1/2+y,1/2-z
-x,-y,-z
x,1/2-y,1/2+z
loop_
_atom_site_type_symbol
_atom_site_label
_atom_site_fract_x
_atom_site_fract_y
_atom_site_fract_z
Si Si1 0.532700 0.847554 0.080149
Si Si2 0.746448 0.112308 0.775843
Si Si3 0.331729 0.443001 0.043272
Si Si4 0.175588 0.403862 0.541455
Si Si5 0.070679 0.679792 0.340352
Si Si6 0.110418 0.630273 0.077665
Si Si7 0.515868 0.954100 0.684303
Si Si8 0.996472 0.198092 0.688826
O O1 0.631455 0.877393 0.989672
O O2 0.324315 0.812651 0.970953
O O3 0.413605 0.883807 0.148754
O O4 0.745478 0.820794 0.208150
O O5 0.578146 0.086414 0.629379
O O6 0.837507 0.168580 0.748411
O O7 0.972155 0.081781 0.887804
O O8 0.109931 0.407712 0.009742
O O9 0.353133 0.494643 0.134410
O O10 0.333072 0.457381 0.898757
O O11 0.302410 0.449108 0.653614
O O12 0.071549 0.359848 0.608473
O O13 0.985091 0.739227 0.304006
O O14 0.084020 0.653798 0.208260
O O15 0.093135 0.675252 0.967510
O O16 0.346979 0.596677 0.138096
#
# Coordination Sequence:
#
# PCOD9248254 Si02
#       8
#     4   4   4   4   4   4   4   4
#     4  10  22  42  61  82 132 162 201 260 306 360
#     4  10  22  42  62  90 126 163 209 258 305 376
#     4  11  23  42  66  92 125 167 208 264 318 365
#     4  10  22  42  62  90 126 163 209 258 305 376
#     4  11  25  39  64  93 125 169 210 253 316 372
#     4  12  23  42  64  96 128 164 211 258 312 376
#     4  11  23  42  66  92 125 167 208 264 318 365
#     4  11  25  39  64  93 125 169 210 253 316 372
#
# _framework density 20.235977999999999
#
# number of rings (size 3 to 8) (size 9 to 14) (size 15 to 20)
#    0.000    1.250    5.000    0.375    5.250    3.500 
#    0.000    0.625    0.000    0.000    0.000    0.000 
#    0.000    0.000    0.000    0.000    0.000    0.000 
#
# Total GULP energy -178530.250991 kJ/mol
# GULP energy per Si atom -5579.070343 kJ/mol
# Density = 2.018992 g / cm^3
# Si number density = 20.235978 Si / 1000 Ang^3
#
#
#
# Elastic Constant Matrix: (Units=GPa)
#
#
# Indices 1 2 3 4 5 6 
#
# 1 61.7405 -3.0314 3.6360 0.0000 -8.7783 0.0000
# 2 -3.0314 35.6480 -14.6453 0.0000 -0.8927 0.0000
# 3 3.6360 -14.6453 59.0197 0.0000 -2.1377 0.0000
# 4 0.0000 0.0000 0.0000 16.6264 0.0000 0.0635
# 5 -8.7783 -0.8927 -2.1377 0.0000 35.8911 0.0000
# 6 0.0000 0.0000 0.0000 0.0635 0.0000 8.2873
#
#
#
# Elastic Compliance Matrix: (Units=1/GPa)
#
#
# Indices 1 2 3 4 5 6 
#
# 1 0.016881 0.001306 -0.000566 0.000000 0.004128 0.000000
# 2 0.001306 0.031393 0.007766 0.000000 0.001563 0.000000
# 3 -0.000566 0.007766 0.018948 0.000000 0.001183 0.000000
# 4 0.000000 0.000000 0.000000 0.060147 0.000000 -0.000461
# 5 0.004128 0.001563 0.001183 0.000000 0.028981 0.000000
# 6 0.000000 0.000000 0.000000 -0.000461 0.000000 0.120670
#
#
# Mechanical properties :
#
#
# Convention : Reuss Voigt Hill
#
# Bulk Modulus (GPa) = 11.87171 14.25855 13.06513
# Shear Modulus (GPa) = 17.35588 23.52422 20.44005
#
# Velocity S-wave (km/s) = 2.93178 3.41324 3.18163
# Velocity P-wave (km/s) = 4.16411 4.75342 4.46849
#
# Compressibility (1/GPa) = 0.08423388
#
# Stress axis : x y z
#
# Youngs Moduli (GPa) = 59.23764 31.85446 52.77511
#
# Poissons Ratio (x) = -0.04161 0.02989
# Poissons Ratio (y) = -0.07737 -0.40985
# Poissons Ratio (z) = 0.03355 -0.24738
#
# Static dielectric constant tensor:
#      x y z
#    x 1.702450 0.000000 0.016510 
#    y 0.000000 1.731170 0.000000 
#    z 0.016510 0.000000 1.769960 
# 
# From -- ./inp_files/22187.got.cif
#   From: 2010.05.17/outbox.cif.g08.bks.cpg/sg14_12_cif.got.tgz:22187.got - 2010.06.03 17:49:19.
