data_PCOD9248140
_publ_section_title
;
Structure prediction by ZEFSAII (Michael W. Deem and Ramdas Pophale) SiO2 
 PCOD9248140
Probable space group: P 21/C
;
_chemical_formula_sum "Si O2"
_cell_formula_units_Z 16
_cell_length_a 7.510984
_cell_length_b 12.997036
_cell_length_c 8.180615
_cell_angle_alpha 90.000000
_cell_angle_beta 127.186152
_cell_angle_gamma 90.000000
_cell_volume 636.222259
_symmetry_space_group_name_H-M "P 21/C"
_symmetry_group_IT_number 14
_symmetry_cell_setting 'monoclinic'
loop_
_space_group_symop_operation_xyz
x,y,z
-x,1/2+y,1/2-z
-x,-y,-z
x,1/2-y,1/2+z
loop_
_atom_site_type_symbol
_atom_site_label
_atom_site_fract_x
_atom_site_fract_y
_atom_site_fract_z
Si Si1 0.915212 0.210127 0.940743
Si Si2 0.277307 0.407226 0.444371
Si Si3 0.010446 0.097887 0.332417
Si Si4 0.506174 0.915626 0.261509
O O1 0.686894 0.152782 0.764927
O O2 0.123627 0.174852 0.946174
O O3 0.906930 0.332355 0.919376
O O4 0.967391 0.164773 0.146778
O O5 0.429995 0.366794 0.381500
O O6 0.411033 0.473056 0.654569
O O7 0.119689 0.492606 0.270279
O O8 0.270635 0.079745 0.509544
#
# Coordination Sequence:
#
# PCOD9248140 Si02
#       4
#     4   4   4   4
#     4  11  25  42  63  98 132 167 221 266 315 389
#     4  10  23  44  66  96 129 167 220 264 318 388
#     4  11  23  41  66  96 131 171 216 265 319 384
#     4  10  22  41  66  89 126 171 204 265 324 368
#
# _framework density 25.148444000000001
#
# number of rings (size 3 to 8) (size 9 to 14) (size 15 to 20)
#    0.000    1.500    0.000    5.250    0.000   14.000 
#    0.000    2.500    0.000    0.000    0.000    0.000 
#    0.000    0.000    0.000    0.000    0.000    0.000 
#
# Total GULP energy -89697.292684 kJ/mol
# GULP energy per Si atom -5606.080793 kJ/mol
# Density = 2.509120 g / cm^3
# Si number density = 25.148444 Si / 1000 Ang^3
#
#
#
# Elastic Constant Matrix: (Units=GPa)
#
#
# Indices 1 2 3 4 5 6 
#
# 1 72.7232 1.5123 1.8251 0.0000 11.1879 0.0000
# 2 1.5123 66.9585 28.9535 0.0000 1.0899 0.0000
# 3 1.8251 28.9535 101.4693 0.0000 41.6461 0.0000
# 4 0.0000 0.0000 0.0000 12.6325 0.0000 -15.1398
# 5 11.1879 1.0899 41.6461 0.0000 51.2820 0.0000
# 6 0.0000 0.0000 0.0000 -15.1398 0.0000 32.8131
#
#
#
# Elastic Compliance Matrix: (Units=1/GPa)
#
#
# Indices 1 2 3 4 5 6 
#
# 1 0.014457 -0.001121 0.002017 0.000000 -0.004768 0.000000
# 2 -0.001121 0.018174 -0.007661 0.000000 0.006080 0.000000
# 3 0.002017 -0.007661 0.018177 0.000000 -0.015039 0.000000
# 4 0.000000 0.000000 0.000000 0.177084 0.000000 0.081705
# 5 -0.004768 0.006080 -0.015039 0.000000 0.032624 0.000000
# 6 0.000000 0.000000 0.000000 0.081705 0.000000 0.068174
#
#
# Mechanical properties :
#
#
# Convention : Reuss Voigt Hill
#
# Bulk Modulus (GPa) = 26.82560 33.97032 30.39796
# Shear Modulus (GPa) = 14.09857 33.26950 23.68404
#
# Velocity S-wave (km/s) = 2.37030 3.64115 3.07216
# Velocity P-wave (km/s) = 4.26394 5.58700 4.96969
#
# Compressibility (1/GPa) = 0.03727782
#
# Stress axis : x y z
#
# Youngs Moduli (GPa) = 69.17071 55.02487 55.01353
#
# Poissons Ratio (x) = 0.06168 -0.11095
# Poissons Ratio (y) = 0.07754 0.42145
# Poissons Ratio (z) = -0.13950 0.42154
#
# Static dielectric constant tensor:
#      x y z
#    x 1.992450 0.000000 -0.012730 
#    y 0.000000 1.953440 0.000000 
#    z -0.012730 0.000000 2.013240 
# 
# From -- ./inp_files/8232.got.cif
#   From: 2010.05.17/outbox.cif.g08.bks.cpg/sg14_5_cif.got.tgz:8232.got - 2010.06.03 17:49:19.
