data_PCOD9248101
_publ_section_title
;
Structure prediction by ZEFSAII (Michael W. Deem and Ramdas Pophale) SiO2 
 PCOD9248101
Probable space group: P 21/C
;
_chemical_formula_sum "Si O2"
_cell_formula_units_Z 12
_cell_length_a 9.745648
_cell_length_b 5.461422
_cell_length_c 15.610810
_cell_angle_alpha 90.000000
_cell_angle_beta 29.798096
_cell_angle_gamma 90.000000
_cell_volume 412.905177
_symmetry_space_group_name_H-M "P 21/C"
_symmetry_group_IT_number 14
_symmetry_cell_setting 'monoclinic'
loop_
_space_group_symop_operation_xyz
x,y,z
-x,1/2+y,1/2-z
-x,-y,-z
x,1/2-y,1/2+z
loop_
_atom_site_type_symbol
_atom_site_label
_atom_site_fract_x
_atom_site_fract_y
_atom_site_fract_z
Si Si1 0.361804 0.020318 0.258432
Si Si2 0.095547 0.222320 0.056828
Si Si3 0.331704 0.252762 0.105949
O O1 0.256309 0.080771 0.409762
O O2 0.253912 0.220438 0.247664
O O3 0.213521 0.770541 0.307081
O O4 0.692322 0.000561 0.073691
O O5 0.104488 0.260392 0.154013
O O6 0.500000 0.500000 0.000000
O O7 0.500000 0.000000 0.000000
#
# Coordination Sequence:
#
# PCOD9248101 Si02
#       3
#     4   4   4
#     4  10  22  41  69 102 141 186 237 295 354 422
#     4  10  22  41  65 101 140 185 238 291 355 420
#     4  10  22  42  68  99 139 184 230 284 348 418
#
# _framework density 29.062362
#
# number of rings (size 3 to 8) (size 9 to 14) (size 15 to 20)
#    0.000    2.000    0.000    2.000    0.000    6.667 
#    0.000   16.667    0.000    0.000    0.000    0.000 
#    0.000    0.000    0.000    0.000    0.000    0.000 
#
# Total GULP energy -67135.923228 kJ/mol
# GULP energy per Si atom -5594.660269 kJ/mol
# Density = 2.899621 g / cm^3
# Si number density = 29.062362 Si / 1000 Ang^3
#
#
#
# Elastic Constant Matrix: (Units=GPa)
#
#
# Indices 1 2 3 4 5 6 
#
# 1 191.5837 84.5362 41.4682 0.0000 4.8352 0.0000
# 2 84.5362 126.9851 71.4294 0.0000 11.5551 0.0000
# 3 41.4682 71.4294 134.6327 0.0000 -0.7083 0.0000
# 4 0.0000 0.0000 0.0000 52.0550 0.0000 18.5523
# 5 4.8352 11.5551 -0.7083 0.0000 39.3954 0.0000
# 6 0.0000 0.0000 0.0000 18.5523 0.0000 52.8962
#
#
#
# Elastic Compliance Matrix: (Units=1/GPa)
#
#
# Indices 1 2 3 4 5 6 
#
# 1 0.007428 -0.005302 0.000528 0.000000 0.000653 0.000000
# 2 -0.005302 0.015483 -0.006603 0.000000 -0.004009 0.000000
# 3 0.000528 -0.006603 0.010779 0.000000 0.002066 0.000000
# 4 0.000000 0.000000 0.000000 0.021955 0.000000 -0.007700
# 5 0.000653 -0.004009 0.002066 0.000000 0.026517 0.000000
# 6 0.000000 0.000000 0.000000 -0.007700 0.000000 0.021606
#
#
# Mechanical properties :
#
#
# Convention : Reuss Voigt Hill
#
# Bulk Modulus (GPa) = 91.42426 94.22990 92.82708
# Shear Modulus (GPa) = 38.41258 45.92050 42.16654
#
# Velocity S-wave (km/s) = 3.63950 3.97932 3.81320
# Velocity P-wave (km/s) = 7.01339 7.32168 7.16919
#
# Compressibility (1/GPa) = 0.01093802
#
# Stress axis : x y z
#
# Youngs Moduli (GPa) = 134.62285 64.58604 92.77400
#
# Poissons Ratio (x) = 0.34241 -0.04901
# Poissons Ratio (y) = 0.71372 0.61257
# Poissons Ratio (z) = -0.07112 0.42645
#
# Static dielectric constant tensor:
#      x y z
#    x 2.300550 0.000000 0.078040 
#    y 0.000000 2.296680 0.000000 
#    z 0.078040 0.000000 2.245100 
# 
# From -- ./inp_files/7097.got.cif
#   From: 2010.05.17/outbox.cif.g08.bks.cpg/sg14_4_cif.got.tgz:7097.got - 2010.06.03 17:49:19.
