data_PCOD9248082
_publ_section_title
;
Structure prediction by ZEFSAII (Michael W. Deem and Ramdas Pophale) SiO2 
 PCOD9248082
Probable space group: P 21/C
;
_chemical_formula_sum "Si O2"
_cell_formula_units_Z 28
_cell_length_a 17.028772
_cell_length_b 9.040094
_cell_length_c 10.980227
_cell_angle_alpha 90.000000
_cell_angle_beta 45.651749
_cell_angle_gamma 90.000000
_cell_volume 1208.751416
_symmetry_space_group_name_H-M "P 21/C"
_symmetry_group_IT_number 14
_symmetry_cell_setting 'monoclinic'
loop_
_space_group_symop_operation_xyz
x,y,z
-x,1/2+y,1/2-z
-x,-y,-z
x,1/2-y,1/2+z
loop_
_atom_site_type_symbol
_atom_site_label
_atom_site_fract_x
_atom_site_fract_y
_atom_site_fract_z
Si Si1 0.145906 0.637570 0.640038
Si Si2 0.988601 0.848235 0.707609
Si Si3 0.300204 0.459504 0.290951
Si Si4 0.922582 0.644057 0.557241
Si Si5 0.436079 0.935431 0.183695
Si Si6 0.314310 0.756792 0.144497
Si Si7 0.463112 0.233872 0.243134
O O1 0.045933 0.520198 0.770298
O O2 0.236964 0.535265 0.474513
O O3 0.200731 0.711912 0.698806
O O4 0.107566 0.771034 0.593882
O O5 0.940797 0.762580 0.643245
O O6 0.946186 0.812279 0.891291
O O7 0.205537 0.392583 0.308710
O O8 0.342041 0.596763 0.167950
O O9 0.387489 0.340554 0.243145
O O10 0.000000 0.500000 0.500000
O O11 0.328404 0.865731 0.243285
O O12 0.516134 0.813489 0.152777
O O13 0.415093 0.069144 0.298729
O O14 0.500000 0.000000 0.000000
O O15 0.413419 0.783260 0.942504
#
# Coordination Sequence:
#
# PCOD9248082 Si02
#       7
#     4   4   4   4   4   4   4
#     4  11  25  44  70 102 143 183 237 294 361 419
#     4  11  24  46  74 101 144 186 235 300 359 428
#     4  11  23  43  68  94 146 179 231 293 355 414
#     4  11  23  48  68 106 142 184 232 301 355 427
#     4  10  22  41  64  92 135 172 231 287 341 407
#     4  11  23  42  66 102 135 185 233 290 350 421
#     4  11  23  43  67  98 134 188 233 285 350 425
#
# _framework density 23.164399
#
# number of rings (size 3 to 8) (size 9 to 14) (size 15 to 20)
#    0.000    1.143    2.857    4.714    2.000    1.714 
#    7.714    0.000    0.000    0.000    0.000    0.000 
#    0.000    0.000    0.000    0.000    0.000    0.000 
#
# Total GULP energy -156288.585738 kJ/mol
# GULP energy per Si atom -5581.735205 kJ/mol
# Density = 2.311168 g / cm^3
# Si number density = 23.164399 Si / 1000 Ang^3
#
#
#
# Elastic Constant Matrix: (Units=GPa)
#
#
# Indices 1 2 3 4 5 6 
#
# 1 266.8119 478.3848 8.7802 0.0000 179.7875 0.0000
# 2 478.3848 1775.6934 18.8008 0.0000 680.8253 0.0000
# 3 8.7802 18.8008 45.7779 0.0000 8.0021 0.0000
# 4 0.0000 0.0000 0.0000 22.9646 0.0000 7.1762
# 5 179.7875 680.8253 8.0021 0.0000 309.4975 0.0000
# 6 0.0000 0.0000 0.0000 7.1762 0.0000 34.6579
#
#
#
# Elastic Compliance Matrix: (Units=1/GPa)
#
#
# Indices 1 2 3 4 5 6 
#
# 1 0.007281 -0.002168 -0.000603 0.000000 0.000556 0.000000
# 2 -0.002168 0.004243 0.000085 0.000000 -0.008076 0.000000
# 3 -0.000603 0.000085 0.021996 0.000000 -0.000405 0.000000
# 4 0.000000 0.000000 0.000000 0.046558 0.000000 -0.009640
# 5 0.000556 -0.008076 -0.000405 0.000000 0.020684 0.000000
# 6 0.000000 0.000000 0.000000 -0.009640 0.000000 0.030850
#
#
# Mechanical properties :
#
#
# Convention : Reuss Voigt Hill
#
# Bulk Modulus (GPa) = 35.52721 344.46832 189.99776
# Shear Modulus (GPa) = 34.16094 178.91183 106.53638
#
# Velocity S-wave (km/s) = 3.84437 8.79792 6.78906
# Velocity P-wave (km/s) = 5.92249 15.88185 11.98560
#
# Compressibility (1/GPa) = 0.02814744
#
# Stress axis : x y z
#
# Youngs Moduli (GPa) = 137.34667 235.69450 45.46232
#
# Poissons Ratio (x) = 0.51102 0.02742
# Poissons Ratio (y) = 0.29779 -0.00387
# Poissons Ratio (z) = 0.08284 -0.02005
#
# Static dielectric constant tensor:
#      x y z
#    x 1.878150 0.000000 -0.009430 
#    y 0.000000 1.958650 0.000000 
#    z -0.009430 0.000000 1.964490 
# 
# From -- ./inp_files/31461.got.cif
#   From: 2010.05.17/outbox.cif.g08.bks.cpg/sg14_16_cif.got.tgz:31461.got - 2010.06.03 17:49:19.
