data_PCOD9248764
_publ_section_title
;
Structure prediction by ZEFSAII (Michael W. Deem and Ramdas Pophale) SiO2 
 PCOD9248764
Probable space group: P 21/C
;
_chemical_formula_sum "Si O2"
_cell_formula_units_Z 16
_cell_length_a 12.418938
_cell_length_b 5.657165
_cell_length_c 23.399401
_cell_angle_alpha 90.000000
_cell_angle_beta 156.899773
_cell_angle_gamma 90.000000
_cell_volume 644.987762
_symmetry_space_group_name_H-M "P 21/C"
_symmetry_group_IT_number 14
_symmetry_cell_setting 'monoclinic'
loop_
_space_group_symop_operation_xyz
x,y,z
-x,1/2+y,1/2-z
-x,-y,-z
x,1/2-y,1/2+z
loop_
_atom_site_type_symbol
_atom_site_label
_atom_site_fract_x
_atom_site_fract_y
_atom_site_fract_z
Si Si1 0.302750 0.707407 0.924417
Si Si2 0.779577 0.504180 0.718619
Si Si3 0.251877 0.926387 0.583200
Si Si4 0.415123 0.078705 0.143127
O O1 0.051310 0.655142 0.843504
O O2 0.166035 0.789140 0.798009
O O3 0.500000 0.500000 0.000000
O O4 0.508452 0.881774 0.057643
O O5 0.686492 0.455920 0.737213
O O6 0.510653 0.903175 0.753470
O O7 0.696638 0.837894 0.429383
O O8 0.234898 0.660668 0.549775
O O9 0.000000 0.000000 0.500000
#
# Coordination Sequence:
#
# PCOD9248764 Si02
#       4
#     4   4   4   4
#     4  11  24  45  64  98 137 172 231 279 334 412
#     4  11  25  42  69  97 134 183 222 283 343 403
#     4  10  22  44  63  98 132 167 224 275 328 405
#     4  10  24  40  67  97 128 175 221 272 339 394
#
# _framework density 24.806674999999998
#
# number of rings (size 3 to 8) (size 9 to 14) (size 15 to 20)
#    0.000    1.500    2.500    0.750    7.000    0.000 
#    0.000    0.000    0.000    0.000    0.000    0.000 
#    0.000    0.000    0.000    0.000    0.000    0.000 
#
# Total GULP energy -89322.988956 kJ/mol
# GULP energy per Si atom -5582.686810 kJ/mol
# Density = 2.475021 g / cm^3
# Si number density = 24.806675 Si / 1000 Ang^3
#
#
#
# Elastic Constant Matrix: (Units=GPa)
#
#
# Indices 1 2 3 4 5 6 
#
# 1 108.4897 6.6663 17.6300 0.0000 16.9403 0.0000
# 2 6.6663 100.2014 9.0804 0.0000 -3.7522 0.0000
# 3 17.6300 9.0804 66.7033 0.0000 11.2117 0.0000
# 4 0.0000 0.0000 0.0000 25.4972 0.0000 9.5388
# 5 16.9403 -3.7522 11.2117 0.0000 54.5985 0.0000
# 6 0.0000 0.0000 0.0000 9.5388 0.0000 33.6649
#
#
#
# Elastic Compliance Matrix: (Units=1/GPa)
#
#
# Indices 1 2 3 4 5 6 
#
# 1 0.010020 -0.000577 -0.002114 0.000000 -0.002715 0.000000
# 2 -0.000577 0.010192 -0.001432 0.000000 0.001173 0.000000
# 3 -0.002114 -0.001432 0.016211 0.000000 -0.002772 0.000000
# 4 0.000000 0.000000 0.000000 0.043870 0.000000 -0.012430
# 5 -0.002715 0.001173 -0.002772 0.000000 0.019808 0.000000
# 6 0.000000 0.000000 0.000000 -0.012430 0.000000 0.033227
#
#
# Mechanical properties :
#
#
# Convention : Reuss Voigt Hill
#
# Bulk Modulus (GPa) = 35.48837 38.01642 36.75240
# Shear Modulus (GPa) = 33.12005 38.88664 36.00335
#
# Velocity S-wave (km/s) = 3.65790 3.96357 3.81380
# Velocity P-wave (km/s) = 5.67251 6.02535 5.85159
#
# Compressibility (1/GPa) = 0.02817825
#
# Stress axis : x y z
#
# Youngs Moduli (GPa) = 99.79788 98.11615 61.68566
#
# Poissons Ratio (x) = 0.05659 0.13038
# Poissons Ratio (y) = 0.05756 0.08835
# Poissons Ratio (z) = 0.21093 0.14053
#
# Static dielectric constant tensor:
#      x y z
#    x 2.756100 0.000000 0.841640 
#    y 0.000000 2.085460 0.000000 
#    z 0.841640 0.000000 3.025830 
# 
# From -- ./inp_files/17117.got.cif
#   From: 2010.05.17/outbox.cif.g08.bks.cpg/sg14_9_cif.got.tgz:17117.got - 2010.06.03 17:49:19.
