data_PCOD9248276
_publ_section_title
;
Structure prediction by ZEFSAII (Michael W. Deem and Ramdas Pophale) SiO2 
 PCOD9248276
Probable space group: P 21/C
;
_chemical_formula_sum "Si O2"
_cell_formula_units_Z 28
_cell_length_a 13.568923
_cell_length_b 9.034559
_cell_length_c 10.265406
_cell_angle_alpha 90.000000
_cell_angle_beta 118.821680
_cell_angle_gamma 90.000000
_cell_volume 1102.539625
_symmetry_space_group_name_H-M "P 21/C"
_symmetry_group_IT_number 14
_symmetry_cell_setting 'monoclinic'
loop_
_space_group_symop_operation_xyz
x,y,z
-x,1/2+y,1/2-z
-x,-y,-z
x,1/2-y,1/2+z
loop_
_atom_site_type_symbol
_atom_site_label
_atom_site_fract_x
_atom_site_fract_y
_atom_site_fract_z
Si Si1 0.534906 0.501588 0.238066
Si Si2 0.353253 0.847725 0.426673
Si Si3 0.360489 0.291198 0.224348
Si Si4 0.939534 0.222877 0.483112
Si Si5 0.161943 0.288165 0.255597
Si Si6 0.825101 0.374305 0.649040
Si Si7 0.171479 0.041915 0.442896
O O1 0.601329 0.386349 0.187603
O O2 0.464873 0.403271 0.294315
O O3 0.610731 0.638969 0.332004
O O4 0.448379 0.592212 0.087032
O O5 0.304379 0.683524 0.419943
O O6 0.243317 0.943854 0.388555
O O7 0.292478 0.246560 0.310105
O O8 0.264976 0.388733 0.095653
O O9 0.873785 0.336918 0.536897
O O10 0.889661 0.211732 0.307475
O O11 0.073267 0.238308 0.582199
O O12 0.909472 0.066786 0.532786
O O13 0.162240 0.453679 0.309594
O O14 0.115394 0.172805 0.329777
#
# Coordination Sequence:
#
# PCOD9248276 Si02
#       7
#     4   4   4   4   4   4   4
#     4  10  22  42  62  95 128 182 222 289 336 403
#     4   9  21  42  66  89 137 173 226 277 353 389
#     4  11  24  39  70  93 135 175 232 280 348 402
#     4  11  25  46  72 100 145 182 226 283 353 404
#     4  12  24  42  68 102 136 180 232 282 339 419
#     4  11  25  45  73 104 136 187 229 285 337 428
#     4  10  22  44  65  98 137 180 217 289 343 406
#
# _framework density 25.395913
#
# number of rings (size 3 to 8) (size 9 to 14) (size 15 to 20)
#    0.000    1.429    2.857    1.286    4.000    2.286 
#    0.000    5.000    0.000    0.000    0.000    0.000 
#    0.000    0.000    0.000    0.000    0.000    0.000 
#
# Total GULP energy -156626.911259 kJ/mol
# GULP energy per Si atom -5593.818259 kJ/mol
# Density = 2.533811 g / cm^3
# Si number density = 25.395913 Si / 1000 Ang^3
#
#
#
# Elastic Constant Matrix: (Units=GPa)
#
#
# Indices 1 2 3 4 5 6 
#
# 1 126.1683 -14.3197 16.0848 0.0000 15.7591 0.0000
# 2 -14.3197 26.5145 -8.5596 0.0000 20.1483 0.0000
# 3 16.0848 -8.5596 54.6061 0.0000 1.0587 0.0000
# 4 0.0000 0.0000 0.0000 34.4826 0.0000 -4.2864
# 5 15.7591 20.1483 1.0587 0.0000 21.6252 0.0000
# 6 0.0000 0.0000 0.0000 -4.2864 0.0000 -5.8253
#
#
#
# Elastic Compliance Matrix: (Units=1/GPa)
#
#
# Indices 1 2 3 4 5 6 
#
# 1 -0.267964 -1.161694 -0.128058 0.000000 1.283903 0.000000
# 2 -1.161694 -4.871559 -0.526345 0.000000 5.411204 0.000000
# 3 -0.128058 -0.526345 -0.037825 0.000000 0.585572 0.000000
# 4 0.000000 0.000000 0.000000 0.026570 0.000000 -0.019551
# 5 1.283903 5.411204 0.585572 0.000000 -5.959710 0.000000
# 6 0.000000 0.000000 0.000000 -0.019551 0.000000 -0.157280
#
#
# Mechanical properties :
#
#
# Convention : Reuss Voigt Hill
#
# Bulk Modulus (GPa) = -0.11351 21.52222 10.70435
# Shear Modulus (GPa) = -0.47294 24.32871 11.92788
#
# Velocity S-wave (km/s) = -0.43201 3.09848 2.16956
# Velocity P-wave (km/s) = 0.54188 4.61452 3.24039
#
# Compressibility (1/GPa) = -8.80954049
#
# Stress axis : x y z
#
# Youngs Moduli (GPa) = -3.73185 -0.20527 -26.43786
#
# Poissons Ratio (x) = -0.23846 -3.38557
# Poissons Ratio (y) = -4.33527 -13.91544
# Poissons Ratio (z) = -0.47789 -0.10804
#
# Static dielectric constant tensor:
#      x y z
#    x 2.074650 0.000000 -0.040630 
#    y 0.000000 2.002530 0.000000 
#    z -0.040630 0.000000 2.045430 
# 
# From -- ./inp_files/31648.got.cif
#   From: 2010.05.17/outbox.cif.g08.bks.cpg/sg14_16_cif.got.tgz:31648.got - 2010.06.03 17:49:19.
