data_PCOD9248291
_publ_section_title
;
Structure prediction by ZEFSAII (Michael W. Deem and Ramdas Pophale) SiO2 
 PCOD9248291
Probable space group: P 21/C
;
_chemical_formula_sum "Si O2"
_cell_formula_units_Z 16
_cell_length_a 4.752494
_cell_length_b 9.757290
_cell_length_c 12.791715
_cell_angle_alpha 90.000000
_cell_angle_beta 113.443822
_cell_angle_gamma 90.000000
_cell_volume 544.204659
_symmetry_space_group_name_H-M "P 21/C"
_symmetry_group_IT_number 14
_symmetry_cell_setting 'monoclinic'
loop_
_space_group_symop_operation_xyz
x,y,z
-x,1/2+y,1/2-z
-x,-y,-z
x,1/2-y,1/2+z
loop_
_atom_site_type_symbol
_atom_site_label
_atom_site_fract_x
_atom_site_fract_y
_atom_site_fract_z
Si Si1 0.000000 0.000000 0.000000
Si Si2 0.469635 0.874119 0.772554
Si Si3 0.500000 0.500000 0.500000
Si Si4 0.185045 0.431025 0.873990
Si Si5 0.027572 0.206270 0.568298
O O1 0.822193 0.925089 0.074318
O O2 0.172041 0.848838 0.974621
O O3 0.534681 0.913826 0.663210
O O4 0.664605 0.739228 0.821271
O O5 0.111333 0.878471 0.733889
O O6 0.622427 0.967087 0.889592
O O7 0.154261 0.590012 0.898656
O O8 0.150784 0.353590 0.977989
#
# Coordination Sequence:
#
# PCOD9248291 Si02
#       5
#     2   4   2   4   4
#     4  10  22  42  68  94 134 182 220 284 354 404
#     4  11  25  44  72 103 142 193 236 293 365 431
#     4  10  22  42  64 100 138 176 236 286 340 422
#     4  11  27  46  72 106 145 189 242 299 368 431
#     4  10  26  48  72 107 147 186 242 306 356 438
#
# _framework density 29.400703
#
# number of rings (size 3 to 8) (size 9 to 14) (size 15 to 20)
#    0.000    1.500    0.000    3.000    0.000   28.000 
#    0.000    0.000    0.000    0.000    0.000    0.000 
#    0.000    0.000    0.000    0.000    0.000    0.000 
#
# Total GULP energy -89205.785699 kJ/mol
# GULP energy per Si atom -5575.361606 kJ/mol
# Density = 2.933379 g / cm^3
# Si number density = 29.400703 Si / 1000 Ang^3
#
#
#
# Elastic Constant Matrix: (Units=GPa)
#
#
# Indices 1 2 3 4 5 6 
#
# 1 226.8395 -8.7846 31.0470 0.0000 -29.8445 0.0000
# 2 -8.7846 156.7722 21.5145 0.0000 -8.0670 0.0000
# 3 31.0470 21.5145 152.0479 0.0000 -19.2612 0.0000
# 4 0.0000 0.0000 0.0000 51.9309 0.0000 -4.1399
# 5 -29.8445 -8.0670 -19.2612 0.0000 66.3354 0.0000
# 6 0.0000 0.0000 0.0000 -4.1399 0.0000 17.2277
#
#
#
# Elastic Compliance Matrix: (Units=1/GPa)
#
#
# Indices 1 2 3 4 5 6 
#
# 1 0.004797 0.000480 -0.000796 0.000000 0.001986 0.000000
# 2 0.000480 0.006572 -0.000934 0.000000 0.000744 0.000000
# 3 -0.000796 -0.000934 0.007072 0.000000 0.001582 0.000000
# 4 0.000000 0.000000 0.000000 0.019632 0.000000 0.004718
# 5 0.001986 0.000744 0.001582 0.000000 0.016518 0.000000
# 6 0.000000 0.000000 0.000000 0.004718 0.000000 0.059180
#
#
# Mechanical properties :
#
#
# Convention : Reuss Voigt Hill
#
# Bulk Modulus (GPa) = 62.72683 69.24591 65.98637
# Shear Modulus (GPa) = 41.12376 59.89098 50.50737
#
# Velocity S-wave (km/s) = 3.74402 4.51828 4.14925
# Velocity P-wave (km/s) = 6.33022 7.12905 6.74148
#
# Compressibility (1/GPa) = 0.01594214
#
# Stress axis : x y z
#
# Youngs Moduli (GPa) = 208.45614 152.16020 141.40484
#
# Poissons Ratio (x) = -0.07307 0.11255
# Poissons Ratio (y) = -0.10010 0.13203
# Poissons Ratio (z) = 0.16592 0.14207
#
# Static dielectric constant tensor:
#      x y z
#    x 1.930260 0.000000 0.020900 
#    y 0.000000 2.185340 0.000000 
#    z 0.020900 0.000000 2.241040 
# 
# From -- ./inp_files/20344.got.cif
#   From: 2010.05.17/outbox.cif.g08.bks.cpg/sg14_11_cif.got.tgz:20344.got - 2010.06.03 17:49:19.
