data_PCOD9248807
_publ_section_title
;
Structure prediction by ZEFSAII (Michael W. Deem and Ramdas Pophale) SiO2 
 PCOD9248807
Probable space group: P 21/C
;
_chemical_formula_sum "Si O2"
_cell_formula_units_Z 24
_cell_length_a 5.142928
_cell_length_b 21.868241
_cell_length_c 9.377417
_cell_angle_alpha 90.000000
_cell_angle_beta 113.493987
_cell_angle_gamma 90.000000
_cell_volume 967.219683
_symmetry_space_group_name_H-M "P 21/C"
_symmetry_group_IT_number 14
_symmetry_cell_setting 'monoclinic'
loop_
_space_group_symop_operation_xyz
x,y,z
-x,1/2+y,1/2-z
-x,-y,-z
x,1/2-y,1/2+z
loop_
_atom_site_type_symbol
_atom_site_label
_atom_site_fract_x
_atom_site_fract_y
_atom_site_fract_z
Si Si1 0.481184 0.786360 0.998564
Si Si2 0.649332 0.609661 0.340148
Si Si3 0.804483 0.333130 0.075445
Si Si4 0.332405 0.997175 0.612151
Si Si5 0.824679 0.831340 0.616030
Si Si6 0.692032 0.897835 0.167144
O O1 0.536936 0.823528 0.866064
O O2 0.225207 0.740275 0.917476
O O3 0.736243 0.740539 0.100596
O O4 0.470675 0.840717 0.111169
O O5 0.438896 0.562749 0.219154
O O6 0.878742 0.630768 0.272107
O O7 0.727218 0.580974 0.510541
O O8 0.010207 0.367603 0.225306
O O9 0.481415 0.355773 0.008158
O O10 0.943754 0.341460 0.951630
O O11 0.387064 0.051442 0.737021
O O12 0.500000 0.000000 0.500000
O O13 0.000000 0.000000 0.500000
#
# Coordination Sequence:
#
# PCOD9248807 Si02
#       6
#     4   4   4   4   4   4
#     4   8  24  41  72 102 154 186 244 296 374 445
#     4  10  23  48  75 115 148 198 252 315 374 450
#     4  10  22  45  67 101 148 193 236 289 374 435
#     4  12  27  54  79 108 149 204 261 316 383 450
#     4  10  22  44  67 104 145 194 232 296 367 444
#     4  10  23  47  77 111 150 198 252 313 373 449
#
# _framework density 24.813390999999999
#
# number of rings (size 3 to 8) (size 9 to 14) (size 15 to 20)
#    2.000    0.000    0.000    2.500    2.333    1.333 
#    9.000   10.000    0.000    0.000    0.000    0.000 
#    0.000    0.000    0.000    0.000    0.000    0.000 
#
# Total GULP energy -134023.459006 kJ/mol
# GULP energy per Si atom -5584.310792 kJ/mol
# Density = 2.475691 g / cm^3
# Si number density = 24.813391 Si / 1000 Ang^3
#
#
#
# Elastic Constant Matrix: (Units=GPa)
#
#
# Indices 1 2 3 4 5 6 
#
# 1 78.3410 14.9035 32.9004 0.0000 -18.8860 0.0000
# 2 14.9035 125.2279 58.5027 0.0000 -5.3029 0.0000
# 3 32.9004 58.5027 155.4323 0.0000 -17.0012 0.0000
# 4 0.0000 0.0000 0.0000 64.9133 0.0000 -1.3254
# 5 -18.8860 -5.3029 -17.0012 0.0000 36.8986 0.0000
# 6 0.0000 0.0000 0.0000 -1.3254 0.0000 22.4038
#
#
#
# Elastic Compliance Matrix: (Units=1/GPa)
#
#
# Indices 1 2 3 4 5 6 
#
# 1 0.015475 -0.000450 -0.002366 0.000000 0.006766 0.000000
# 2 -0.000450 0.009705 -0.003612 0.000000 -0.000500 0.000000
# 3 -0.002366 -0.003612 0.008535 0.000000 0.002202 0.000000
# 4 0.000000 0.000000 0.000000 0.015424 0.000000 0.000912
# 5 0.006766 -0.000500 0.002202 0.000000 0.031507 0.000000
# 6 0.000000 0.000000 0.000000 0.000912 0.000000 0.044689
#
#
# Mechanical properties :
#
#
# Convention : Reuss Voigt Hill
#
# Bulk Modulus (GPa) = 47.94183 63.51271 55.72727
# Shear Modulus (GPa) = 34.44815 41.68945 38.06880
#
# Velocity S-wave (km/s) = 3.73002 4.10337 3.92114
# Velocity P-wave (km/s) = 6.15740 6.93556 6.55803
#
# Compressibility (1/GPa) = 0.02085861
#
# Stress axis : x y z
#
# Youngs Moduli (GPa) = 64.62000 103.03498 117.16300
#
# Poissons Ratio (x) = 0.04634 0.27724
# Poissons Ratio (y) = 0.02906 0.42325
# Poissons Ratio (z) = 0.15291 0.37221
#
# Static dielectric constant tensor:
#      x y z
#    x 1.959100 0.000000 0.036550 
#    y 0.000000 2.050820 0.000000 
#    z 0.036550 0.000000 2.000430 
# 
# From -- ./inp_files/6325.got.cif
#   From: 2010.05.17/outbox.cif.g08.bks.cpg/sg14_4_cif.got.tgz:6325.got - 2010.06.03 17:49:19.
