data_PCOD9248282
_publ_section_title
;
Structure prediction by ZEFSAII (Michael W. Deem and Ramdas Pophale) SiO2 
 PCOD9248282
Probable space group: P 21/C
;
_chemical_formula_sum "Si O2"
_cell_formula_units_Z 16
_cell_length_a 19.092627
_cell_length_b 8.672799
_cell_length_c 14.246945
_cell_angle_alpha 90.000000
_cell_angle_beta 158.976685
_cell_angle_gamma 90.000000
_cell_volume 846.322686
_symmetry_space_group_name_H-M "P 21/C"
_symmetry_group_IT_number 14
_symmetry_cell_setting 'monoclinic'
loop_
_space_group_symop_operation_xyz
x,y,z
-x,1/2+y,1/2-z
-x,-y,-z
x,1/2-y,1/2+z
loop_
_atom_site_type_symbol
_atom_site_label
_atom_site_fract_x
_atom_site_fract_y
_atom_site_fract_z
Si Si1 0.642380 0.342435 0.429256
Si Si2 0.617082 0.354639 0.187803
Si Si3 0.332208 0.337164 0.441573
Si Si4 0.074654 0.674872 0.587808
O O1 0.696938 0.394118 0.391759
O O2 0.644053 0.486387 0.500685
O O3 0.792296 0.217678 0.656763
O O4 0.431365 0.263973 0.149496
O O5 0.786270 0.309785 0.328449
O O6 0.500000 0.500000 0.000000
O O7 0.463368 0.217539 0.017411
O O8 0.110855 0.286712 0.150032
O O9 0.000000 0.500000 0.500000
#
# Coordination Sequence:
#
# PCOD9248282 Si02
#       4
#     4   4   4   4
#     4  10  23  43  63  99 129 177 217 276 329 390
#     4  10  22  42  65  93 128 171 214 268 333 385
#     4  10  22  42  63  91 136 163 225 274 319 405
#     4  12  22  41  66  92 133 174 217 273 330 390
#
# _framework density 18.905318000000001
#
# number of rings (size 3 to 8) (size 9 to 14) (size 15 to 20)
#    1.500    0.000    2.500    3.750    0.000    3.000 
#    4.500    0.000    0.000    0.000    0.000    0.000 
#    0.000    0.000    0.000    0.000    0.000    0.000 
#
# Total GULP energy -89187.602819 kJ/mol
# GULP energy per Si atom -5574.225176 kJ/mol
# Density = 1.886229 g / cm^3
# Si number density = 18.905318 Si / 1000 Ang^3
#
#
#
# Elastic Constant Matrix: (Units=GPa)
#
#
# Indices 1 2 3 4 5 6 
#
# 1 112.1108 27.4035 40.4477 0.0000 11.4119 0.0000
# 2 27.4035 49.3596 -15.1184 0.0000 -7.6047 0.0000
# 3 40.4477 -15.1184 66.1077 0.0000 -0.2598 0.0000
# 4 0.0000 0.0000 0.0000 40.3406 0.0000 -11.1293
# 5 11.4119 -7.6047 -0.2598 0.0000 38.8752 0.0000
# 6 0.0000 0.0000 0.0000 -11.1293 0.0000 31.9441
#
#
#
# Elastic Compliance Matrix: (Units=1/GPa)
#
#
# Indices 1 2 3 4 5 6 
#
# 1 0.020093 -0.017623 -0.016361 0.000000 -0.009455 0.000000
# 2 -0.017623 0.037984 0.019519 0.000000 0.012734 0.000000
# 3 -0.016361 0.019519 0.029636 0.000000 0.008819 0.000000
# 4 0.000000 0.000000 0.000000 0.027425 0.000000 0.009555
# 5 -0.009455 0.012734 0.008819 0.000000 0.031049 0.000000
# 6 0.000000 0.000000 0.000000 0.009555 0.000000 0.034634
#
#
# Mechanical properties :
#
#
# Convention : Reuss Voigt Hill
#
# Bulk Modulus (GPa) = 17.01177 37.00486 27.00831
# Shear Modulus (GPa) = 21.80142 33.88832 27.84487
#
# Velocity S-wave (km/s) = 3.39955 4.23842 3.84195
# Velocity P-wave (km/s) = 4.94239 6.60065 5.83077
#
# Compressibility (1/GPa) = 0.05878282
#
# Stress axis : x y z
#
# Youngs Moduli (GPa) = 49.76981 26.32703 33.74303
#
# Poissons Ratio (x) = 0.46396 0.55207
# Poissons Ratio (y) = 0.87709 -0.65864
# Poissons Ratio (z) = 0.81428 -0.51388
#
# Static dielectric constant tensor:
#      x y z
#    x 1.662250 0.000000 -0.011120 
#    y 0.000000 1.661640 0.000000 
#    z -0.011120 0.000000 1.645950 
# 
# From -- ./inp_files/38486.got.cif
#   From: 2010.05.17/outbox.cif.g08.bks.cpg/sg14_20_cif.got.tgz:38486.got - 2010.06.03 17:49:19.
