data_PCOD9248362
_publ_section_title
;
Structure prediction by ZEFSAII (Michael W. Deem and Ramdas Pophale) SiO2 
 PCOD9248362
Probable space group: P 21/C
;
_chemical_formula_sum "Si O2"
_cell_formula_units_Z 28
_cell_length_a 17.714709
_cell_length_b 7.911121
_cell_length_c 9.297256
_cell_angle_alpha 90.000000
_cell_angle_beta 57.446306
_cell_angle_gamma 90.000000
_cell_volume 1098.238032
_symmetry_space_group_name_H-M "P 21/C"
_symmetry_group_IT_number 14
_symmetry_cell_setting 'monoclinic'
loop_
_space_group_symop_operation_xyz
x,y,z
-x,1/2+y,1/2-z
-x,-y,-z
x,1/2-y,1/2+z
loop_
_atom_site_type_symbol
_atom_site_label
_atom_site_fract_x
_atom_site_fract_y
_atom_site_fract_z
Si Si1 0.126956 0.532640 0.115657
Si Si2 0.000000 0.000000 0.000000
Si Si3 0.665006 0.941930 0.059371
Si Si4 0.000000 0.000000 0.500000
Si Si5 0.324346 0.923786 0.521112
Si Si6 0.604910 0.754601 0.378852
Si Si7 0.403451 0.755107 0.191772
Si Si8 0.128159 0.378083 0.608554
O O1 0.227277 0.582793 0.048004
O O2 0.121621 0.326401 0.117177
O O3 0.060675 0.588774 0.310620
O O4 0.083053 0.586516 0.010692
O O5 0.090361 0.058575 0.995283
O O6 0.625869 0.784326 0.191887
O O7 0.615622 0.097780 0.182136
O O8 0.642707 0.910891 0.916758
O O9 0.770663 0.938742 0.975455
O O10 0.069196 0.052643 0.300211
O O11 0.393148 0.903911 0.317947
O O12 0.335252 0.777385 0.630171
O O13 0.343255 0.091759 0.593652
O O14 0.500523 0.759726 0.521586
#
# Coordination Sequence:
#
# PCOD9248362 Si02
#       8
#     4   2   4   2   4   4   4   4
#     4  11  23  47  68  98 134 179 231 270 353 421
#     4  10  22  42  66  96 128 174 220 290 334 406
#     4  11  24  41  71 101 136 188 231 293 342 423
#     4  10  26  42  66 102 126 168 226 292 326 416
#     4  11  24  45  67  98 143 190 228 296 348 423
#     4  11  22  43  71 101 138 189 237 287 354 415
#     4  11  24  43  65 106 145 181 238 292 350 408
#     4  11  23  45  70  98 135 171 233 274 355 413
#
# _framework density 25.495384000000001
#
# number of rings (size 3 to 8) (size 9 to 14) (size 15 to 20)
#    0.000    1.143    1.429    6.000    2.000    2.286 
#   25.714    2.857    0.000    0.000    0.000    0.000 
#    0.000    0.000    0.000    0.000    0.000    0.000 
#
# Total GULP energy -155879.171499 kJ/mol
# GULP energy per Si atom -5567.113268 kJ/mol
# Density = 2.543736 g / cm^3
# Si number density = 25.495384 Si / 1000 Ang^3
#
#
#
# Elastic Constant Matrix: (Units=GPa)
#
#
# Indices 1 2 3 4 5 6 
#
# 1 87.6384 10.6825 -0.0147 0.0000 -6.9131 0.0000
# 2 10.6825 71.1895 8.0126 0.0000 13.2327 0.0000
# 3 -0.0147 8.0126 73.7597 0.0000 9.1137 0.0000
# 4 0.0000 0.0000 0.0000 -79.2216 0.0000 72.9968
# 5 -6.9131 13.2327 9.1137 0.0000 61.4448 0.0000
# 6 0.0000 0.0000 0.0000 72.9968 0.0000 -4.2585
#
#
#
# Elastic Compliance Matrix: (Units=1/GPa)
#
#
# Indices 1 2 3 4 5 6 
#
# 1 0.011807 -0.002104 0.000011 0.000000 0.001780 0.000000
# 2 -0.002104 0.015117 -0.001234 0.000000 -0.003309 0.000000
# 3 0.000011 -0.001234 0.013914 0.000000 -0.001797 0.000000
# 4 0.000000 0.000000 0.000000 0.000853 0.000000 0.014625
# 5 0.001780 -0.003309 -0.001797 0.000000 0.017454 0.000000
# 6 0.000000 0.000000 0.000000 0.014625 0.000000 0.015872
#
#
# Mechanical properties :
#
#
# Convention : Reuss Voigt Hill
#
# Bulk Modulus (GPa) = 29.25305 29.99428 29.62367
# Shear Modulus (GPa) = 53.72568 9.85341 31.78955
#
# Velocity S-wave (km/s) = 4.59548 1.96804 3.53494
# Velocity P-wave (km/s) = 6.29736 4.11757 5.32029
#
# Compressibility (1/GPa) = 0.03418448
#
# Stress axis : x y z
#
# Youngs Moduli (GPa) = 84.69287 66.15206 71.87236
#
# Poissons Ratio (x) = 0.13917 -0.00079
# Poissons Ratio (y) = 0.17818 0.08867
# Poissons Ratio (z) = -0.00093 0.08161
#
# Static dielectric constant tensor:
#      x y z
#    x 1.942330 0.000000 0.019750 
#    y 0.000000 2.207790 0.000000 
#    z 0.019750 0.000000 1.939450 
# 
# From -- ./inp_files/15472.got.cif
#   From: 2010.05.17/outbox.cif.g08.bks.cpg/sg14_8_cif.got.tgz:15472.got - 2010.06.03 17:49:19.
