data_PCOD9248212
_publ_section_title
;
Structure prediction by ZEFSAII (Michael W. Deem and Ramdas Pophale) SiO2 
 PCOD9248212
Probable space group: P 21/C
;
_chemical_formula_sum "Si O2"
_cell_formula_units_Z 28
_cell_length_a 21.374982
_cell_length_b 5.068418
_cell_length_c 14.725039
_cell_angle_alpha 90.000000
_cell_angle_beta 133.062129
_cell_angle_gamma 90.000000
_cell_volume 1165.527361
_symmetry_space_group_name_H-M "P 21/C"
_symmetry_group_IT_number 14
_symmetry_cell_setting 'monoclinic'
loop_
_space_group_symop_operation_xyz
x,y,z
-x,1/2+y,1/2-z
-x,-y,-z
x,1/2-y,1/2+z
loop_
_atom_site_type_symbol
_atom_site_label
_atom_site_fract_x
_atom_site_fract_y
_atom_site_fract_z
Si Si1 0.821008 0.159218 0.931947
Si Si2 0.834769 0.206813 0.252653
Si Si3 0.638684 0.604346 0.196770
Si Si4 0.547306 0.343551 0.260549
Si Si5 0.304134 0.014056 0.603154
Si Si6 0.278948 0.216955 0.394604
Si Si7 0.945123 0.533060 0.701248
O O1 0.868570 0.249134 0.888022
O O2 0.731934 0.025259 0.811717
O O3 0.786997 0.404894 0.956736
O O4 0.877513 0.979635 0.052313
O O5 0.791286 0.481553 0.180125
O O6 0.901410 0.089936 0.247349
O O7 0.760801 0.984553 0.183179
O O8 0.565596 0.440336 0.175507
O O9 0.641982 0.640440 0.092386
O O10 0.646121 0.876730 0.259854
O O11 0.516111 0.598439 0.285302
O O12 0.638094 0.218883 0.381018
O O13 0.298028 0.231786 0.519668
O O14 0.980467 0.824966 0.750444
#
# Coordination Sequence:
#
# PCOD9248212 Si02
#       7
#     4   4   4   4   4   4   4
#     4  10  23  41  67  94 125 170 221 266 320 373
#     4  11  23  42  65  94 129 166 213 274 316 377
#     4  10  22  41  69  98 125 169 217 270 310 377
#     4  11  23  41  65  92 135 178 206 253 323 383
#     4  11  21  41  70  95 124 172 214 267 317 371
#     4  11  23  38  69 101 123 158 227 271 310 369
#     4  12  27  42  63  94 134 174 210 265 322 389
#
# _framework density 24.023461000000001
#
# number of rings (size 3 to 8) (size 9 to 14) (size 15 to 20)
#    0.000    1.143    4.286    1.714    4.000    1.143 
#    0.000    1.429    0.000    0.000    0.000    0.000 
#    0.000    0.000    0.000    0.000    0.000    0.000 
#
# Total GULP energy -156630.720521 kJ/mol
# GULP energy per Si atom -5593.954304 kJ/mol
# Density = 2.396878 g / cm^3
# Si number density = 24.023461 Si / 1000 Ang^3
#
#
#
# Elastic Constant Matrix: (Units=GPa)
#
#
# Indices 1 2 3 4 5 6 
#
# 1 102.8099 -1.4977 17.0041 0.0000 -17.3265 0.0000
# 2 -1.4977 106.3092 0.0113 0.0000 7.5381 0.0000
# 3 17.0041 0.0113 42.1225 0.0000 -7.8577 0.0000
# 4 0.0000 0.0000 0.0000 21.9119 0.0000 2.5262
# 5 -17.3265 7.5381 -7.8577 0.0000 24.1346 0.0000
# 6 0.0000 0.0000 0.0000 2.5262 0.0000 35.1125
#
#
#
# Elastic Compliance Matrix: (Units=1/GPa)
#
#
# Indices 1 2 3 4 5 6 
#
# 1 0.011493 -0.000355 -0.003279 0.000000 0.007294 0.000000
# 2 -0.000355 0.009645 -0.000499 0.000000 -0.003430 0.000000
# 3 -0.003279 -0.000499 0.026248 0.000000 0.006348 0.000000
# 4 0.000000 0.000000 0.000000 0.046019 0.000000 -0.003311
# 5 0.007294 -0.003430 0.006348 0.000000 0.049809 0.000000
# 6 0.000000 0.000000 0.000000 -0.003311 0.000000 0.028718
#
#
# Mechanical properties :
#
#
# Convention : Reuss Voigt Hill
#
# Bulk Modulus (GPa) = 25.56210 31.36412 28.46311
# Shear Modulus (GPa) = 25.87482 31.94671 28.91077
#
# Velocity S-wave (km/s) = 3.28543 3.65062 3.47283
# Velocity P-wave (km/s) = 5.00556 5.55457 5.28720
#
# Compressibility (1/GPa) = 0.03912042
#
# Stress axis : x y z
#
# Youngs Moduli (GPa) = 87.00846 103.68319 38.09791
#
# Poissons Ratio (x) = 0.03680 0.12491
# Poissons Ratio (y) = 0.03088 0.01901
# Poissons Ratio (z) = 0.28528 0.05175
#
# Static dielectric constant tensor:
#      x y z
#    x 1.955080 0.000000 0.010700 
#    y 0.000000 1.931180 0.000000 
#    z 0.010700 0.000000 1.939660 
# 
# From -- ./inp_files/48210.got.cif
#   From: 2010.05.17/outbox.cif.g08.bks.cpg/sg14_25_cif.got.tgz:48210.got - 2010.06.03 17:49:19.
