data_PCOD9248525
_publ_section_title
;
Structure prediction by ZEFSAII (Michael W. Deem and Ramdas Pophale) SiO2 
 PCOD9248525
Probable space group: P 21/C
;
_chemical_formula_sum "Si O2"
_cell_formula_units_Z 20
_cell_length_a 19.695823
_cell_length_b 9.000195
_cell_length_c 14.131481
_cell_angle_alpha 90.000000
_cell_angle_beta 161.139330
_cell_angle_gamma 90.000000
_cell_volume 809.797311
_symmetry_space_group_name_H-M "P 21/C"
_symmetry_group_IT_number 14
_symmetry_cell_setting 'monoclinic'
loop_
_space_group_symop_operation_xyz
x,y,z
-x,1/2+y,1/2-z
-x,-y,-z
x,1/2-y,1/2+z
loop_
_atom_site_type_symbol
_atom_site_label
_atom_site_fract_x
_atom_site_fract_y
_atom_site_fract_z
Si Si1 0.693887 0.455850 0.822052
Si Si2 0.408120 0.283863 0.196136
Si Si3 0.978119 0.860780 0.399437
Si Si4 0.270623 0.593806 0.763607
Si Si5 0.436098 0.640800 0.782856
O O1 0.500000 0.500000 0.500000
O O2 0.735938 0.593051 0.945224
O O3 0.609305 0.314420 0.765636
O O4 0.891611 0.412993 0.020385
O O5 0.532442 0.193865 0.439808
O O6 0.566742 0.369321 0.334593
O O7 0.259079 0.175183 0.941297
O O8 0.083230 0.696382 0.557233
O O9 0.000000 0.000000 0.500000
O O10 0.283960 0.581541 0.666787
O O11 0.337522 0.432519 0.891690
#
# Coordination Sequence:
#
# PCOD9248525 Si02
#       5
#     4   4   4   4   4
#     4  11  22  47  69 100 146 190 241 303 365 439
#     4  12  24  43  74 102 135 202 230 293 390 411
#     4  11  26  44  72 108 149 189 250 306 359 453
#     4  10  24  45  68 104 142 184 245 300 366 438
#     4  10  22  42  72  97 141 181 240 303 357 439
#
# _framework density 24.69754
#
# number of rings (size 3 to 8) (size 9 to 14) (size 15 to 20)
#    0.000    1.200    4.000    2.400    2.800    5.600 
#    3.600    0.000    0.000    0.000    0.000    0.000 
#    0.000    0.000    0.000    0.000    0.000    0.000 
#
# Total GULP energy -111561.284202 kJ/mol
# GULP energy per Si atom -5578.064210 kJ/mol
# Density = 2.464133 g / cm^3
# Si number density = 24.697540 Si / 1000 Ang^3
#
#
#
# Elastic Constant Matrix: (Units=GPa)
#
#
# Indices 1 2 3 4 5 6 
#
# 1 118.9974 44.8914 8.4490 0.0000 21.9383 0.0000
# 2 44.8914 115.0318 43.3010 0.0000 12.0077 0.0000
# 3 8.4490 43.3010 66.8356 0.0000 9.2511 0.0000
# 4 0.0000 0.0000 0.0000 41.7722 0.0000 4.1477
# 5 21.9383 12.0077 9.2511 0.0000 24.3559 0.0000
# 6 0.0000 0.0000 0.0000 4.1477 0.0000 50.2712
#
#
#
# Elastic Compliance Matrix: (Units=1/GPa)
#
#
# Indices 1 2 3 4 5 6 
#
# 1 0.011669 -0.004646 0.002821 0.000000 -0.009292 0.000000
# 2 -0.004646 0.013558 -0.008286 0.000000 0.000648 0.000000
# 3 0.002821 -0.008286 0.020857 0.000000 -0.006378 0.000000
# 4 0.000000 0.000000 0.000000 0.024137 0.000000 -0.001991
# 5 -0.009292 0.000648 -0.006378 0.000000 0.051530 0.000000
# 6 0.000000 0.000000 0.000000 -0.001991 0.000000 0.020056
#
#
# Mechanical properties :
#
#
# Convention : Reuss Voigt Hill
#
# Bulk Modulus (GPa) = 38.66782 54.90529 46.78655
# Shear Modulus (GPa) = 29.29985 36.89476 33.09731
#
# Velocity S-wave (km/s) = 3.44808 3.86925 3.66472
# Velocity P-wave (km/s) = 5.61630 6.49929 6.07386
#
# Compressibility (1/GPa) = 0.02586130
#
# Stress axis : x y z
#
# Youngs Moduli (GPa) = 85.69815 73.75869 47.94643
#
# Poissons Ratio (x) = 0.34266 -0.13525
# Poissons Ratio (y) = 0.39813 0.39729
# Poissons Ratio (z) = -0.24174 0.61117
#
# Static dielectric constant tensor:
#      x y z
#    x 2.239980 0.000000 0.009780 
#    y 0.000000 2.033590 0.000000 
#    z 0.009780 0.000000 1.971560 
# 
# From -- ./inp_files/50173.got.cif
#   From: 2010.05.17/outbox.cif.g08.bks.cpg/sg14_26_cif.got.tgz:50173.got - 2010.06.03 17:49:19.
