data_PCOD9248149
_publ_section_title
;
Structure prediction by ZEFSAII (Michael W. Deem and Ramdas Pophale) SiO2 
 PCOD9248149
Probable space group: P 21/C
;
_chemical_formula_sum "Si O2"
_cell_formula_units_Z 32
_cell_length_a 9.567971
_cell_length_b 11.154033
_cell_length_c 15.606459
_cell_angle_alpha 90.000000
_cell_angle_beta 115.548336
_cell_angle_gamma 90.000000
_cell_volume 1502.690204
_symmetry_space_group_name_H-M "P 21/C"
_symmetry_group_IT_number 14
_symmetry_cell_setting 'monoclinic'
loop_
_space_group_symop_operation_xyz
x,y,z
-x,1/2+y,1/2-z
-x,-y,-z
x,1/2-y,1/2+z
loop_
_atom_site_type_symbol
_atom_site_label
_atom_site_fract_x
_atom_site_fract_y
_atom_site_fract_z
Si Si1 0.454195 0.841734 0.776084
Si Si2 0.554063 0.639943 0.110900
Si Si3 0.389391 0.865296 0.393457
Si Si4 0.934568 0.193596 0.955243
Si Si5 0.946229 0.129970 0.616964
Si Si6 0.882675 0.098966 0.314844
Si Si7 0.883630 0.663600 0.255057
Si Si8 0.221234 0.445210 0.594684
O O1 0.494389 0.813260 0.687174
O O2 0.416364 0.725130 0.822851
O O3 0.299587 0.921765 0.735124
O O4 0.600754 0.907066 0.857960
O O5 0.538343 0.494915 0.109027
O O6 0.737218 0.665715 0.153710
O O7 0.466792 0.680868 0.002443
O O8 0.208609 0.883567 0.368040
O O9 0.909455 0.271768 0.864598
O O10 0.816582 0.083220 0.932396
O O11 0.911479 0.286607 0.026623
O O12 0.106263 0.135886 0.006704
O O13 0.074146 0.203538 0.703706
O O14 0.020885 0.003715 0.611972
O O15 0.962640 0.106758 0.243821
O O16 0.833888 0.585535 0.323369
#
# Coordination Sequence:
#
# PCOD9248149 Si02
#       8
#     4   4   4   4   4   4   4   4
#     4  11  25  41  70 107 138 182 234 290 350 416
#     4  10  24  44  69  97 135 187 227 286 354 408
#     4  11  23  44  70  98 142 176 236 290 348 417
#     4  10  23  43  73  94 136 181 237 286 348 419
#     4  11  23  44  66 101 134 174 236 286 345 419
#     4  12  24  39  70 103 133 181 229 291 346 415
#     4  10  22  41  66  94 135 180 221 276 349 420
#     4   9  23  46  67  97 136 187 225 285 353 418
#
# _framework density 21.295141999999998
#
# number of rings (size 3 to 8) (size 9 to 14) (size 15 to 20)
#    0.000    1.500    2.500    1.125    7.000    3.000 
#    2.250    0.625    0.000    0.000    0.000    0.000 
#    0.000    0.000    0.000    0.000    0.000    0.000 
#
# Total GULP energy -178860.989859 kJ/mol
# GULP energy per Si atom -5589.405933 kJ/mol
# Density = 2.124667 g / cm^3
# Si number density = 21.295142 Si / 1000 Ang^3
#
#
#
# Elastic Constant Matrix: (Units=GPa)
#
#
# Indices 1 2 3 4 5 6 
#
# 1 111.6924 24.0986 34.4572 0.0000 2.9629 0.0000
# 2 24.0986 77.0887 30.7311 0.0000 -6.3944 0.0000
# 3 34.4572 30.7311 85.2247 0.0000 13.2130 0.0000
# 4 0.0000 0.0000 0.0000 23.7640 0.0000 -0.9347
# 5 2.9629 -6.3944 13.2130 0.0000 21.4886 0.0000
# 6 0.0000 0.0000 0.0000 -0.9347 0.0000 22.2280
#
#
#
# Elastic Compliance Matrix: (Units=1/GPa)
#
#
# Indices 1 2 3 4 5 6 
#
# 1 0.010451 -0.001807 -0.003611 0.000000 0.000242 0.000000
# 2 -0.001807 0.017091 -0.006919 0.000000 0.009589 0.000000
# 3 -0.003611 -0.006919 0.017609 0.000000 -0.012388 0.000000
# 4 0.000000 0.000000 0.000000 0.042150 0.000000 0.001772
# 5 0.000242 0.009589 -0.012388 0.000000 0.056974 0.000000
# 6 0.000000 0.000000 0.000000 0.001772 0.000000 0.045063
#
#
# Mechanical properties :
#
#
# Convention : Reuss Voigt Hill
#
# Bulk Modulus (GPa) = 48.83692 50.28662 49.56177
# Shear Modulus (GPa) = 22.64116 25.81071 24.22593
#
# Velocity S-wave (km/s) = 3.26422 3.48522 3.37653
# Velocity P-wave (km/s) = 6.09836 6.31356 6.20690
#
# Compressibility (1/GPa) = 0.02047631
#
# Stress axis : x y z
#
# Youngs Moduli (GPa) = 95.68709 58.51193 56.78888
#
# Poissons Ratio (x) = 0.10576 0.20507
# Poissons Ratio (y) = 0.17295 0.39290
# Poissons Ratio (z) = 0.34553 0.40482
#
# Static dielectric constant tensor:
#      x y z
#    x 1.759180 0.000000 0.014710 
#    y 0.000000 1.765600 0.000000 
#    z 0.014710 0.000000 1.813090 
# 
# From -- ./inp_files/40366.got.cif
#   From: 2010.05.17/outbox.cif.g08.bks.cpg/sg14_21_cif.got.tgz:40366.got - 2010.06.03 17:49:19.
