data_PCOD9248972
_publ_section_title
;
Structure prediction by ZEFSAII (Michael W. Deem and Ramdas Pophale) SiO2 
 PCOD9248972
Probable space group: P 21/C
;
_chemical_formula_sum "Si O2"
_cell_formula_units_Z 20
_cell_length_a 13.522424
_cell_length_b 7.738758
_cell_length_c 22.291112
_cell_angle_alpha 90.000000
_cell_angle_beta 161.143079
_cell_angle_gamma 90.000000
_cell_volume 753.940294
_symmetry_space_group_name_H-M "P 21/C"
_symmetry_group_IT_number 14
_symmetry_cell_setting 'monoclinic'
loop_
_space_group_symop_operation_xyz
x,y,z
-x,1/2+y,1/2-z
-x,-y,-z
x,1/2-y,1/2+z
loop_
_atom_site_type_symbol
_atom_site_label
_atom_site_fract_x
_atom_site_fract_y
_atom_site_fract_z
Si Si1 0.317348 0.685148 0.358682
Si Si2 0.135810 0.176466 0.740403
Si Si3 0.423862 0.962377 0.216750
Si Si4 0.182911 0.469258 0.445592
Si Si5 0.880062 0.777229 0.409268
O O1 0.542614 0.721154 0.543404
O O2 0.090345 0.519755 0.237864
O O3 0.115189 0.849533 0.228474
O O4 0.552766 0.619645 0.442256
O O5 0.910985 0.334910 0.625554
O O6 0.140641 0.165729 0.671056
O O7 0.761746 0.903920 0.393362
O O8 0.364110 0.117795 0.227137
O O9 0.208622 0.803642 0.112761
O O10 0.286450 0.018884 0.073872
#
# Coordination Sequence:
#
# PCOD9248972 Si02
#       5
#     4   4   4   4   4
#     4  11  25  43  73 102 141 186 228 287 352 417
#     4  10  24  45  68 101 142 183 226 286 350 409
#     4  10  23  44  67  97 135 178 230 282 346 407
#     4  11  25  45  67 108 137 183 236 284 347 418
#     4  10  22  45  66  98 133 175 228 281 339 411
#
# _framework density 26.527301000000001
#
# number of rings (size 3 to 8) (size 9 to 14) (size 15 to 20)
#    0.000    1.600    2.000    0.600    5.600    7.200 
#   10.800    0.000    0.000    0.000    0.000    0.000 
#    0.000    0.000    0.000    0.000    0.000    0.000 
#
# Total GULP energy -112118.253328 kJ/mol
# GULP energy per Si atom -5605.912666 kJ/mol
# Density = 2.646692 g / cm^3
# Si number density = 26.527301 Si / 1000 Ang^3
#
#
#
# Elastic Constant Matrix: (Units=GPa)
#
#
# Indices 1 2 3 4 5 6 
#
# 1 112.8995 40.1227 53.9789 0.0000 18.7491 0.0000
# 2 40.1227 101.8927 65.2825 0.0000 -5.0690 0.0000
# 3 53.9789 65.2825 88.7660 0.0000 6.1766 0.0000
# 4 0.0000 0.0000 0.0000 62.7960 0.0000 7.8991
# 5 18.7491 -5.0690 6.1766 0.0000 43.1109 0.0000
# 6 0.0000 0.0000 0.0000 7.8991 0.0000 38.0226
#
#
#
# Elastic Compliance Matrix: (Units=1/GPa)
#
#
# Indices 1 2 3 4 5 6 
#
# 1 0.013418 -0.000986 -0.007091 0.000000 -0.004935 0.000000
# 2 -0.000986 0.019409 -0.014003 0.000000 0.004717 0.000000
# 3 -0.007091 -0.014003 0.026035 0.000000 -0.002293 0.000000
# 4 0.000000 0.000000 0.000000 0.016352 0.000000 -0.003397
# 5 -0.004935 0.004717 -0.002293 0.000000 0.026226 0.000000
# 6 0.000000 0.000000 0.000000 -0.003397 0.000000 0.027006
#
#
# Mechanical properties :
#
#
# Convention : Reuss Voigt Hill
#
# Bulk Modulus (GPa) = 68.01465 69.14738 68.58102
# Shear Modulus (GPa) = 28.16832 38.39750 33.28291
#
# Velocity S-wave (km/s) = 3.26216 3.80869 3.54597
# Velocity P-wave (km/s) = 6.31538 6.74274 6.53256
#
# Compressibility (1/GPa) = 0.01470271
#
# Stress axis : x y z
#
# Youngs Moduli (GPa) = 74.52870 51.52341 38.40966
#
# Poissons Ratio (x) = 0.05081 0.27235
# Poissons Ratio (y) = 0.07349 0.53784
# Poissons Ratio (z) = 0.52846 0.72146
#
# Static dielectric constant tensor:
#      x y z
#    x 2.066430 0.000000 0.070000 
#    y 0.000000 2.156450 0.000000 
#    z 0.070000 0.000000 2.037820 
# 
# From -- ./inp_files/73782.got.cif
#   From: 2010.05.17/outbox.cif.g08.bks.cpg/sg14_37_cif.got.tgz:73782.got - 2010.06.03 17:49:19.
