data_PCOD9248586
_publ_section_title
;
Structure prediction by ZEFSAII (Michael W. Deem and Ramdas Pophale) SiO2 
 PCOD9248586
Probable space group: P 21/C
;
_chemical_formula_sum "Si O2"
_cell_formula_units_Z 20
_cell_length_a 10.961026
_cell_length_b 12.075644
_cell_length_c 14.490419
_cell_angle_alpha 90.000000
_cell_angle_beta 30.940128
_cell_angle_gamma 90.000000
_cell_volume 986.110555
_symmetry_space_group_name_H-M "P 21/C"
_symmetry_group_IT_number 14
_symmetry_cell_setting 'monoclinic'
loop_
_space_group_symop_operation_xyz
x,y,z
-x,1/2+y,1/2-z
-x,-y,-z
x,1/2-y,1/2+z
loop_
_atom_site_type_symbol
_atom_site_label
_atom_site_fract_x
_atom_site_fract_y
_atom_site_fract_z
Si Si1 0.919596 0.070059 0.462790
Si Si2 0.663376 0.623619 0.026445
Si Si3 0.403932 0.162939 0.820946
Si Si4 0.190402 0.286674 0.258781
Si Si5 0.196583 0.945716 0.936569
O O1 0.686513 0.143188 0.640530
O O2 0.123200 0.156685 0.300088
O O3 0.832499 0.979227 0.443911
O O4 0.000000 0.000000 0.500000
O O5 0.716036 0.736239 0.047637
O O6 0.406107 0.593636 0.233954
O O7 0.668136 0.659779 0.917606
O O8 0.327849 0.184551 0.764106
O O9 0.301313 0.047329 0.925848
O O10 0.937053 0.350468 0.422531
O O11 0.000000 0.000000 0.000000
#
# Coordination Sequence:
#
# PCOD9248586 Si02
#       5
#     4   4   4   4   4
#     4  11  23  44  69  97 139 172 221 280 333 393
#     4  11  23  41  68 101 130 175 223 271 331 402
#     4  10  22  43  65  93 136 168 225 275 325 397
#     4  11  23  43  68  96 133 178 219 274 338 396
#     4   9  21  40  63  90 127 171 216 268 323 387
#
# _framework density 20.281701000000002
#
# number of rings (size 3 to 8) (size 9 to 14) (size 15 to 20)
#    0.000    1.600    4.000    0.000    2.800    7.200 
#    7.200    1.000    0.000    0.000    0.000    0.000 
#    0.000    0.000    0.000    0.000    0.000    0.000 
#
# Total GULP energy -111476.265140 kJ/mol
# GULP energy per Si atom -5573.813257 kJ/mol
# Density = 2.023554 g / cm^3
# Si number density = 20.281701 Si / 1000 Ang^3
#
#
#
# Elastic Constant Matrix: (Units=GPa)
#
#
# Indices 1 2 3 4 5 6 
#
# 1 41.4250 -1.6477 -3.1588 0.0000 7.7698 0.0000
# 2 -1.6477 108.4411 22.7122 0.0000 6.2609 0.0000
# 3 -3.1588 22.7122 40.4427 0.0000 -2.0971 0.0000
# 4 0.0000 0.0000 0.0000 1.4510 0.0000 -13.3821
# 5 7.7698 6.2609 -2.0971 0.0000 28.6680 0.0000
# 6 0.0000 0.0000 0.0000 -13.3821 0.0000 18.1031
#
#
#
# Elastic Compliance Matrix: (Units=1/GPa)
#
#
# Indices 1 2 3 4 5 6 
#
# 1 0.025565 0.000506 0.001353 0.000000 -0.006940 0.000000
# 2 0.000506 0.010677 -0.006108 0.000000 -0.002916 0.000000
# 3 0.001353 -0.006108 0.028420 0.000000 0.003046 0.000000
# 4 0.000000 0.000000 0.000000 -0.118465 0.000000 -0.087571
# 5 -0.006940 -0.002916 0.003046 0.000000 0.037623 0.000000
# 6 0.000000 0.000000 0.000000 -0.087571 0.000000 -0.009495
#
#
# Mechanical properties :
#
#
# Convention : Reuss Voigt Hill
#
# Bulk Modulus (GPa) = 17.80507 25.12447 21.46477
# Shear Modulus (GPa) = 3238.05270 21.13796 1629.59533
#
# Velocity S-wave (km/s) = 40.00006 3.23184 28.37649
# Velocity P-wave (km/s) = 46.28324 5.13235 32.92779
#
# Compressibility (1/GPa) = 0.05616378
#
# Stress axis : x y z
#
# Youngs Moduli (GPa) = 39.11594 93.66073 35.18648
#
# Poissons Ratio (x) = -0.04737 -0.04760
# Poissons Ratio (y) = -0.01979 0.21491
# Poissons Ratio (z) = -0.05292 0.57205
#
# Static dielectric constant tensor:
#      x y z
#    x 1.706960 0.000000 -0.019680 
#    y 0.000000 1.733780 0.000000 
#    z -0.019680 0.000000 1.716610 
# 
# From -- ./inp_files/24019.got.cif
#   From: 2010.05.17/outbox.cif.g08.bks.cpg/sg14_13_cif.got.tgz:24019.got - 2010.06.03 17:49:19.
