data_PCOD9248005
_publ_section_title
;
Structure prediction by ZEFSAII (Michael W. Deem and Ramdas Pophale) SiO2 
 PCOD9248005
Probable space group: P 21/C
;
_chemical_formula_sum "Si O2"
_cell_formula_units_Z 32
_cell_length_a 14.479976
_cell_length_b 7.772586
_cell_length_c 13.033829
_cell_angle_alpha 90.000000
_cell_angle_beta 82.745057
_cell_angle_gamma 90.000000
_cell_volume 1455.172464
_symmetry_space_group_name_H-M "P 21/C"
_symmetry_group_IT_number 14
_symmetry_cell_setting 'monoclinic'
loop_
_space_group_symop_operation_xyz
x,y,z
-x,1/2+y,1/2-z
-x,-y,-z
x,1/2-y,1/2+z
loop_
_atom_site_type_symbol
_atom_site_label
_atom_site_fract_x
_atom_site_fract_y
_atom_site_fract_z
Si Si1 0.670232 0.547511 0.499510
Si Si2 0.589909 0.857728 0.806941
Si Si3 0.118043 0.441818 0.596751
Si Si4 0.961246 0.234474 0.510218
Si Si5 0.911438 0.950918 0.657847
Si Si6 0.279795 0.130323 0.384392
Si Si7 0.454072 0.989373 0.664281
Si Si8 0.370935 0.842142 0.482693
O O1 0.594074 0.577667 0.421705
O O2 0.771580 0.578867 0.433120
O O3 0.666507 0.701342 0.582083
O O4 0.658767 0.351766 0.538225
O O5 0.670346 0.938485 0.725301
O O6 0.608954 0.654060 0.805382
O O7 0.495964 0.901140 0.758836
O O8 0.090250 0.604082 0.530872
O O9 0.090866 0.465150 0.719807
O O10 0.053464 0.291324 0.560023
O O11 0.995525 0.122901 0.407854
O O12 0.899721 0.131504 0.600631
O O13 0.825352 0.833557 0.632879
O O14 0.291637 0.982330 0.468038
O O15 0.540517 0.081044 0.591955
O O16 0.402672 0.857768 0.596535
#
# Coordination Sequence:
#
# PCOD9248005 Si02
#       8
#     4   4   4   4   4   4   4   4
#     4  12  23  41  66  91 127 171 202 260 326 368
#     4  11  23  40  64  91 124 165 210 263 310 381
#     4  11  22  41  62  95 127 161 215 257 310 389
#     4  10  23  39  65  92 125 167 207 259 317 370
#     4  11  21  41  65  90 128 169 205 260 317 373
#     4  11  23  42  62  94 131 161 211 259 314 377
#     4  10  22  41  60  92 123 164 217 261 311 376
#     4  10  23  41  62  89 128 164 210 265 310 374
#
# _framework density 21.990521000000001
#
# number of rings (size 3 to 8) (size 9 to 14) (size 15 to 20)
#    0.000    1.250    3.750    2.250    1.750    0.500 
#    0.000    0.000    0.000    0.000    0.000    0.000 
#    0.000    0.000    0.000    0.000    0.000    0.000 
#
# Total GULP energy -178706.812091 kJ/mol
# GULP energy per Si atom -5584.587878 kJ/mol
# Density = 2.194047 g / cm^3
# Si number density = 21.990521 Si / 1000 Ang^3
#
#
#
# Elastic Constant Matrix: (Units=GPa)
#
#
# Indices 1 2 3 4 5 6 
#
# 1 40.2551 -7.9317 21.0458 0.0000 11.8478 0.0000
# 2 -7.9317 97.9701 15.8166 0.0000 17.2348 0.0000
# 3 21.0458 15.8166 107.4345 0.0000 6.0343 0.0000
# 4 0.0000 0.0000 0.0000 106.5491 0.0000 129.6217
# 5 11.8478 17.2348 6.0343 0.0000 31.7221 0.0000
# 6 0.0000 0.0000 0.0000 129.6217 0.0000 232.6105
#
#
#
# Elastic Compliance Matrix: (Units=1/GPa)
#
#
# Indices 1 2 3 4 5 6 
#
# 1 0.034071 0.006486 -0.006789 0.000000 -0.014957 0.000000
# 2 0.006486 0.012712 -0.002646 0.000000 -0.008825 0.000000
# 3 -0.006789 -0.002646 0.010921 0.000000 0.001896 0.000000
# 4 0.000000 0.000000 0.000000 0.029139 0.000000 -0.016238
# 5 -0.014957 -0.008825 0.001896 0.000000 0.041544 0.000000
# 6 0.000000 0.000000 0.000000 -0.016238 0.000000 0.013348
#
#
# Mechanical properties :
#
#
# Convention : Reuss Voigt Hill
#
# Bulk Modulus (GPa) = 19.30316 33.72457 26.51386
# Shear Modulus (GPa) = 30.32082 88.62496 59.47289
#
# Velocity S-wave (km/s) = 3.71727 6.35523 5.20610
# Velocity P-wave (km/s) = 5.21738 8.31993 6.94414
#
# Compressibility (1/GPa) = 0.05180499
#
# Stress axis : x y z
#
# Youngs Moduli (GPa) = 29.35036 78.66540 91.56639
#
# Poissons Ratio (x) = -0.51020 0.62165
# Poissons Ratio (y) = -0.19036 0.24231
# Poissons Ratio (z) = 0.19926 0.20817
#
# Static dielectric constant tensor:
#      x y z
#    x 1.846440 0.000000 -0.006760 
#    y 0.000000 1.835430 0.000000 
#    z -0.006760 0.000000 1.783900 
# 
# From -- ./inp_files/31832.got.cif
#   From: 2010.05.17/outbox.cif.g08.bks.cpg/sg14_16_cif.got.tgz:31832.got - 2010.06.03 17:49:19.
