data_PCOD9248358
_publ_section_title
;
Structure prediction by ZEFSAII (Michael W. Deem and Ramdas Pophale) SiO2 
 PCOD9248358
Probable space group: P 21/C
;
_chemical_formula_sum "Si O2"
_cell_formula_units_Z 20
_cell_length_a 7.066995
_cell_length_b 10.144350
_cell_length_c 10.415959
_cell_angle_alpha 90.000000
_cell_angle_beta 91.311273
_cell_angle_gamma 90.000000
_cell_volume 746.525291
_symmetry_space_group_name_H-M "P 21/C"
_symmetry_group_IT_number 14
_symmetry_cell_setting 'monoclinic'
loop_
_space_group_symop_operation_xyz
x,y,z
-x,1/2+y,1/2-z
-x,-y,-z
x,1/2-y,1/2+z
loop_
_atom_site_type_symbol
_atom_site_label
_atom_site_fract_x
_atom_site_fract_y
_atom_site_fract_z
Si Si1 0.947681 0.400958 0.112529
Si Si2 0.716074 0.979356 0.233580
Si Si3 0.377998 0.812073 0.549529
Si Si4 0.789805 0.460956 0.453362
Si Si5 0.293630 0.230252 0.122110
O O1 0.054504 0.465505 0.235458
O O2 0.075675 0.271304 0.094834
O O3 0.000000 0.500000 0.000000
O O4 0.733585 0.365282 0.079788
O O5 0.635666 0.077966 0.340352
O O6 0.684515 0.026495 0.090252
O O7 0.648507 0.830425 0.263807
O O8 0.257411 0.685163 0.594273
O O9 0.000000 0.500000 0.500000
O O10 0.708255 0.574905 0.360094
O O11 0.418224 0.227460 0.501739
#
# Coordination Sequence:
#
# PCOD9248358 Si02
#       5
#     4   4   4   4   4
#     4   8  18  39  64  93 121 163 209 251 311 377
#     4   9  23  43  63  95 124 168 212 252 322 370
#     4  11  21  42  68  93 129 166 208 265 310 376
#     4  12  24  41  64  95 130 166 214 260 309 378
#     4  10  22  42  66  94 127 164 210 263 312 375
#
# _framework density 26.790783999999999
#
# number of rings (size 3 to 8) (size 9 to 14) (size 15 to 20)
#    1.200    0.800    2.000    1.200    0.000    4.800 
#    0.000    4.000    0.000    0.000    0.000    0.000 
#    0.000    0.000    0.000    0.000    0.000    0.000 
#
# Total GULP energy -111794.956619 kJ/mol
# GULP energy per Si atom -5589.747831 kJ/mol
# Density = 2.672981 g / cm^3
# Si number density = 26.790784 Si / 1000 Ang^3
#
#
#
# Elastic Constant Matrix: (Units=GPa)
#
#
# Indices 1 2 3 4 5 6 
#
# 1 88.6790 0.8330 34.3659 0.0000 -2.0509 0.0000
# 2 0.8330 128.7023 31.1142 0.0000 13.5944 0.0000
# 3 34.3659 31.1142 87.0710 0.0000 17.9348 0.0000
# 4 0.0000 0.0000 0.0000 16.8933 0.0000 -10.4728
# 5 -2.0509 13.5944 17.9348 0.0000 34.1549 0.0000
# 6 0.0000 0.0000 0.0000 -10.4728 0.0000 28.5167
#
#
#
# Elastic Compliance Matrix: (Units=1/GPa)
#
#
# Indices 1 2 3 4 5 6 
#
# 1 0.013960 0.001120 -0.006717 0.000000 0.003920 0.000000
# 2 0.001120 0.008719 -0.003203 0.000000 -0.001721 0.000000
# 3 -0.006717 -0.003203 0.016933 0.000000 -0.008020 0.000000
# 4 0.000000 0.000000 0.000000 0.076645 0.000000 0.028148
# 5 0.003920 -0.001721 -0.008020 0.000000 0.034410 0.000000
# 6 0.000000 0.000000 0.000000 0.028148 0.000000 0.045405
#
#
# Mechanical properties :
#
#
# Convention : Reuss Voigt Hill
#
# Bulk Modulus (GPa) = 45.43416 48.56427 46.99922
# Shear Modulus (GPa) = 22.62355 31.78893 27.20624
#
# Velocity S-wave (km/s) = 2.90910 3.44839 3.19016
# Velocity P-wave (km/s) = 5.31785 5.83282 5.58128
#
# Compressibility (1/GPa) = 0.02200987
#
# Stress axis : x y z
#
# Youngs Moduli (GPa) = 71.63362 114.69552 59.05776
#
# Poissons Ratio (x) = -0.12841 0.39671
# Poissons Ratio (y) = -0.08020 0.18916
# Poissons Ratio (z) = 0.48118 0.36736
#
# Static dielectric constant tensor:
#      x y z
#    x 2.153350 0.000000 -0.009480 
#    y 0.000000 2.070310 0.000000 
#    z -0.009480 0.000000 2.061410 
# 
# From -- ./inp_files/22981.got.cif
#   From: 2010.05.17/outbox.cif.g08.bks.cpg/sg14_12_cif.got.tgz:22981.got - 2010.06.03 17:49:19.
