data_PCOD9248640
_publ_section_title
;
Structure prediction by ZEFSAII (Michael W. Deem and Ramdas Pophale) SiO2 
 PCOD9248640
Probable space group: P 21/C
;
_chemical_formula_sum "Si O2"
_cell_formula_units_Z 30
_cell_length_a 24.279781
_cell_length_b 9.480869
_cell_length_c 8.191037
_cell_angle_alpha 90.000000
_cell_angle_beta 38.774377
_cell_angle_gamma 90.000000
_cell_volume 1180.818532
_symmetry_space_group_name_H-M "P 21/C"
_symmetry_group_IT_number 14
_symmetry_cell_setting 'monoclinic'
loop_
_space_group_symop_operation_xyz
x,y,z
-x,1/2+y,1/2-z
-x,-y,-z
x,1/2-y,1/2+z
loop_
_atom_site_type_symbol
_atom_site_label
_atom_site_fract_x
_atom_site_fract_y
_atom_site_fract_z
Si Si1 0.175056 0.317430 0.222399
Si Si2 0.530759 0.327590 0.590724
Si Si3 0.500000 0.000000 0.500000
Si Si4 0.830420 0.311667 0.260581
Si Si5 0.643376 0.946780 0.650211
Si Si6 0.349331 0.931858 0.717274
Si Si7 0.904703 0.057493 0.913485
Si Si8 0.106614 0.436982 0.051717
O O1 0.133141 0.401963 0.472733
O O2 0.164020 0.155119 0.292618
O O3 0.275401 0.363028 0.962955
O O4 0.118074 0.369511 0.201722
O O5 0.444075 0.357103 0.685212
O O6 0.609312 0.419629 0.331437
O O7 0.558975 0.161724 0.518533
O O8 0.513884 0.389838 0.807587
O O9 0.391194 0.035233 0.750830
O O10 0.729614 0.339423 0.536478
O O11 0.887102 0.376848 0.277218
O O12 0.856814 0.405302 0.043011
O O13 0.851897 0.153686 0.164483
O O14 0.673736 0.003397 0.402272
O O15 0.006384 0.065035 0.725357
#
# Coordination Sequence:
#
# PCOD9248640 Si02
#       8
#     4   4   2   4   4   4   4   4
#     4  12  25  47  71 103 146 190 240 302 356 445
#     4  10  22  43  67  98 136 178 225 292 342 422
#     4  10  24  38  68  94 132 166 224 274 340 408
#     4  12  26  43  75 107 143 187 244 303 355 444
#     4  10  23  44  66  98 141 184 230 288 360 416
#     4  11  23  42  66 102 133 183 234 286 352 413
#     4  12  24  47  73 106 143 188 241 303 364 437
#     4  12  27  46  72 104 144 192 240 300 377 427
#
# _framework density 25.406105
#
# number of rings (size 3 to 8) (size 9 to 14) (size 15 to 20)
#    0.000    0.800    1.333    5.600    3.733    1.067 
#    7.200    0.000    0.000    0.000    0.000    0.000 
#    0.000    0.000    0.000    0.000    0.000    0.000 
#
# Total GULP energy -167794.880230 kJ/mol
# GULP energy per Si atom -5593.162674 kJ/mol
# Density = 2.534828 g / cm^3
# Si number density = 25.406105 Si / 1000 Ang^3
#
#
#
# Elastic Constant Matrix: (Units=GPa)
#
#
# Indices 1 2 3 4 5 6 
#
# 1 69.0280 0.5689 13.5879 0.0000 -11.1328 0.0000
# 2 0.5689 77.8882 3.4481 0.0000 -6.0025 0.0000
# 3 13.5879 3.4481 76.2472 0.0000 -32.6070 0.0000
# 4 0.0000 0.0000 0.0000 39.1469 0.0000 5.5238
# 5 -11.1328 -6.0025 -32.6070 0.0000 56.4537 0.0000
# 6 0.0000 0.0000 0.0000 5.5238 0.0000 22.9214
#
#
#
# Elastic Compliance Matrix: (Units=1/GPa)
#
#
# Indices 1 2 3 4 5 6 
#
# 1 0.015166 0.000120 -0.001891 0.000000 0.001912 0.000000
# 2 0.000120 0.012946 -0.000011 0.000000 0.001394 0.000000
# 3 -0.001891 -0.000011 0.017653 0.000000 0.009822 0.000000
# 4 0.000000 0.000000 0.000000 0.026444 0.000000 -0.006373
# 5 0.001912 0.001394 0.009822 0.000000 0.023912 0.000000
# 6 0.000000 0.000000 0.000000 -0.006373 0.000000 0.045163
#
#
# Mechanical properties :
#
#
# Convention : Reuss Voigt Hill
#
# Bulk Modulus (GPa) = 23.69500 28.70813 26.20157
# Shear Modulus (GPa) = 31.46342 37.40829 34.43585
#
# Velocity S-wave (km/s) = 3.52294 3.84137 3.68559
# Velocity P-wave (km/s) = 5.08870 5.56768 5.33357
#
# Compressibility (1/GPa) = 0.04220299
#
# Stress axis : x y z
#
# Youngs Moduli (GPa) = 65.93538 77.24429 56.64714
#
# Poissons Ratio (x) = -0.00929 0.10710
# Poissons Ratio (y) = -0.00793 0.00061
# Poissons Ratio (z) = 0.12467 0.00083
#
# Static dielectric constant tensor:
#      x y z
#    x 1.776910 0.000000 0.002340 
#    y 0.000000 1.642980 0.000000 
#    z 0.002340 0.000000 1.972650 
# 
# From -- ./inp_files/19473.got.cif
#   From: 2010.05.17/outbox.cif.g08.bks.cpg/sg14_10_cif.got.tgz:19473.got - 2010.06.03 17:49:19.
