data_PCOD9248520
_publ_section_title
;
Structure prediction by ZEFSAII (Michael W. Deem and Ramdas Pophale) SiO2 
 PCOD9248520
Probable space group: P 21/C
;
_chemical_formula_sum "Si O2"
_cell_formula_units_Z 28
_cell_length_a 9.712113
_cell_length_b 24.878296
_cell_length_c 5.133162
_cell_angle_alpha 90.000000
_cell_angle_beta 123.588686
_cell_angle_gamma 90.000000
_cell_volume 1033.190088
_symmetry_space_group_name_H-M "P 21/C"
_symmetry_group_IT_number 14
_symmetry_cell_setting 'monoclinic'
loop_
_space_group_symop_operation_xyz
x,y,z
-x,1/2+y,1/2-z
-x,-y,-z
x,1/2-y,1/2+z
loop_
_atom_site_type_symbol
_atom_site_label
_atom_site_fract_x
_atom_site_fract_y
_atom_site_fract_z
Si Si1 0.252926 0.982398 0.291803
Si Si2 0.500000 0.500000 0.500000
Si Si3 0.562553 0.882511 0.206534
Si Si4 0.937962 0.269846 0.650347
Si Si5 0.569472 0.226141 0.144665
Si Si6 0.762199 0.593294 0.429771
Si Si7 0.929270 0.106320 0.122272
Si Si8 0.000000 0.000000 0.500000
O O1 0.407531 0.996627 0.623893
O O2 0.107308 0.996311 0.340428
O O3 0.240600 0.026041 0.034330
O O4 0.229718 0.922000 0.175850
O O5 0.530985 0.435352 0.486711
O O6 0.628080 0.889796 0.569216
O O7 0.460317 0.829952 0.027905
O O8 0.718117 0.882400 0.162672
O O9 0.029705 0.261148 0.474271
O O10 0.762737 0.240425 0.399062
O O11 0.912019 0.332166 0.680009
O O12 0.498335 0.231479 0.360057
O O13 0.929680 0.605470 0.453516
O O14 0.964875 0.064809 0.392849
#
# Coordination Sequence:
#
# PCOD9248520 Si02
#       8
#     4   2   4   4   4   4   4   2
#     4  10  24  40  68 108 145 196 232 311 375 459
#     4  10  26  40  68 106 148 182 248 302 386 430
#     4  11  24  45  66 102 146 186 241 305 363 454
#     4  10  25  45  68 108 142 188 254 307 364 437
#     4  10  22  43  70  96 135 186 244 292 366 440
#     4  10  24  43  68 104 143 188 238 291 378 443
#     4  11  25  42  77 104 152 199 251 315 372 460
#     4  10  22  42  72 106 140 202 248 302 398 444
#
# _framework density 27.100532000000001
#
# number of rings (size 3 to 8) (size 9 to 14) (size 15 to 20)
#    0.000    1.714    0.000    2.571   18.000    3.429 
#    0.000    4.286    0.000    0.000    0.000    0.000 
#    0.000    0.000    0.000    0.000    0.000    0.000 
#
# Total GULP energy -155917.311067 kJ/mol
# GULP energy per Si atom -5568.475395 kJ/mol
# Density = 2.703885 g / cm^3
# Si number density = 27.100532 Si / 1000 Ang^3
#
#
#
# Elastic Constant Matrix: (Units=GPa)
#
#
# Indices 1 2 3 4 5 6 
#
# 1 71.8658 5.7273 18.6634 0.0000 -2.7562 0.0000
# 2 5.7273 192.2993 23.9306 0.0000 -4.6892 0.0000
# 3 18.6634 23.9306 100.6929 0.0000 -39.5130 0.0000
# 4 0.0000 0.0000 0.0000 50.1072 0.0000 -4.4651
# 5 -2.7562 -4.6892 -39.5130 0.0000 37.5903 0.0000
# 6 0.0000 0.0000 0.0000 -4.4651 0.0000 31.6209
#
#
#
# Elastic Compliance Matrix: (Units=1/GPa)
#
#
# Indices 1 2 3 4 5 6 
#
# 1 0.014823 -0.000026 -0.003942 0.000000 -0.003060 0.000000
# 2 -0.000026 0.005388 -0.001724 0.000000 -0.001142 0.000000
# 3 -0.003942 -0.001724 0.018508 0.000000 0.018951 0.000000
# 4 0.000000 0.000000 0.000000 0.020212 0.000000 0.002854
# 5 -0.003060 -0.001142 0.018951 0.000000 0.046156 0.000000
# 6 0.000000 0.000000 0.000000 0.002854 0.000000 0.032028
#
#
# Mechanical properties :
#
#
# Convention : Reuss Voigt Hill
#
# Bulk Modulus (GPa) = 36.58201 51.27786 43.92994
# Shear Modulus (GPa) = 31.72413 44.96614 38.34513
#
# Velocity S-wave (km/s) = 3.42513 4.07779 3.76563
# Velocity P-wave (km/s) = 5.40092 6.41355 5.92889
#
# Compressibility (1/GPa) = 0.02733584
#
# Stress axis : x y z
#
# Youngs Moduli (GPa) = 67.46137 185.60961 54.03083
#
# Poissons Ratio (x) = 0.00474 0.21301
# Poissons Ratio (y) = 0.00172 0.09313
# Poissons Ratio (z) = 0.26596 0.31993
#
# Static dielectric constant tensor:
#      x y z
#    x 2.192700 0.000000 -0.211100 
#    y 0.000000 2.077390 0.000000 
#    z -0.211100 0.000000 2.046920 
# 
# From -- ./inp_files/2999.got.cif
#   From: 2010.05.17/outbox.cif.g08.bks.cpg/sg14_2_cif.got.tgz:2999.got - 2010.06.03 17:49:19.
