data_PCOD9248436
_publ_section_title
;
Structure prediction by ZEFSAII (Michael W. Deem and Ramdas Pophale) SiO2 
 PCOD9248436
Probable space group: P 21/C
;
_chemical_formula_sum "Si O2"
_cell_formula_units_Z 20
_cell_length_a 16.723200
_cell_length_b 5.120960
_cell_length_c 9.132930
_cell_angle_alpha 90.000000
_cell_angle_beta 106.989361
_cell_angle_gamma 90.000000
_cell_volume 748.000449
_symmetry_space_group_name_H-M "P 21/C"
_symmetry_group_IT_number 14
_symmetry_cell_setting 'monoclinic'
loop_
_space_group_symop_operation_xyz
x,y,z
-x,1/2+y,1/2-z
-x,-y,-z
x,1/2-y,1/2+z
loop_
_atom_site_type_symbol
_atom_site_label
_atom_site_fract_x
_atom_site_fract_y
_atom_site_fract_z
Si Si1 0.446057 0.990978 0.714891
Si Si2 0.339806 0.196502 0.394944
Si Si3 0.080169 0.220304 0.661962
Si Si4 0.101992 0.782137 0.376349
Si Si5 0.772779 0.535767 0.422076
O O1 0.523950 0.194606 0.750130
O O2 0.396879 0.030685 0.536414
O O3 0.392510 0.102618 0.822301
O O4 0.285878 0.029364 0.251144
O O5 0.278792 0.354717 0.469679
O O6 0.094517 0.460053 0.779272
O O7 0.147794 0.281208 0.574652
O O8 0.981918 0.232411 0.570474
O O9 0.097831 0.957923 0.760277
O O10 0.185821 0.737129 0.512010
#
# Coordination Sequence:
#
# PCOD9248436 Si02
#       5
#     4   4   4   4   4
#     4  11  24  50  75 103 140 178 230 273 348 440
#     4  10  24  44  74 110 136 190 216 298 350 412
#     4  10  22  42  68  97 137 193 242 289 343 403
#     4  10  22  42  68  97 137 193 242 289 343 403
#     4  11  21  46  67 105 150 172 242 283 358 398
#
# _framework density 26.737952
#
# number of rings (size 3 to 8) (size 9 to 14) (size 15 to 20)
#    0.000    1.600    2.000    1.800    0.000    1.600 
#   14.400    6.000    0.000    0.000    0.000    0.000 
#    0.000    0.000    0.000    0.000    0.000    0.000 
#
# Total GULP energy -112388.596224 kJ/mol
# GULP energy per Si atom -5619.429811 kJ/mol
# Density = 2.667709 g / cm^3
# Si number density = 26.737952 Si / 1000 Ang^3
#
#
#
# Elastic Constant Matrix: (Units=GPa)
#
#
# Indices 1 2 3 4 5 6 
#
# 1 137.5478 5.8057 70.0058 0.0000 -14.5325 0.0000
# 2 5.8057 122.8637 41.1543 0.0000 -0.7493 0.0000
# 3 70.0058 41.1543 190.0172 0.0000 10.7810 0.0000
# 4 0.0000 0.0000 0.0000 35.2359 0.0000 -3.7783
# 5 -14.5325 -0.7493 10.7810 0.0000 57.5075 0.0000
# 6 0.0000 0.0000 0.0000 -3.7783 0.0000 28.3380
#
#
#
# Elastic Compliance Matrix: (Units=1/GPa)
#
#
# Indices 1 2 3 4 5 6 
#
# 1 0.009542 0.000869 -0.003883 0.000000 0.003151 0.000000
# 2 0.000869 0.008868 -0.002284 0.000000 0.000763 0.000000
# 3 -0.003883 -0.002284 0.007323 0.000000 -0.002384 0.000000
# 4 0.000000 0.000000 0.000000 0.028792 0.000000 0.003839
# 5 0.003151 0.000763 -0.002384 0.000000 0.018642 0.000000
# 6 0.000000 0.000000 0.000000 0.003839 0.000000 0.035800
#
#
# Mechanical properties :
#
#
# Convention : Reuss Voigt Hill
#
# Bulk Modulus (GPa) = 66.06003 76.04003 71.05003
# Shear Modulus (GPa) = 40.12566 46.44714 43.28640
#
# Velocity S-wave (km/s) = 3.87809 4.17240 4.02794
# Velocity P-wave (km/s) = 6.69424 7.19115 6.94714
#
# Compressibility (1/GPa) = 0.01513775
#
# Stress axis : x y z
#
# Youngs Moduli (GPa) = 104.79490 112.76831 136.55618
#
# Poissons Ratio (x) = -0.09797 0.53018
# Poissons Ratio (y) = -0.09105 0.31189
# Poissons Ratio (z) = 0.40687 0.25756
#
# Static dielectric constant tensor:
#      x y z
#    x 2.125180 0.000000 -0.001630 
#    y 0.000000 2.064680 0.000000 
#    z -0.001630 0.000000 2.052340 
# 
# From -- ./inp_files/17233.got.cif
#   From: 2010.05.17/outbox.cif.g08.bks.cpg/sg14_9_cif.got.tgz:17233.got - 2010.06.03 17:49:19.
