data_PCOD9248047
_publ_section_title
;
Structure prediction by ZEFSAII (Michael W. Deem and Ramdas Pophale) SiO2 
 PCOD9248047
Probable space group: P 21/C
;
_chemical_formula_sum "Si O2"
_cell_formula_units_Z 32
_cell_length_a 8.893551
_cell_length_b 9.650393
_cell_length_c 20.521049
_cell_angle_alpha 90.000000
_cell_angle_beta 81.231128
_cell_angle_gamma 90.000000
_cell_volume 1740.658360
_symmetry_space_group_name_H-M "P 21/C"
_symmetry_group_IT_number 14
_symmetry_cell_setting 'monoclinic'
loop_
_space_group_symop_operation_xyz
x,y,z
-x,1/2+y,1/2-z
-x,-y,-z
x,1/2-y,1/2+z
loop_
_atom_site_type_symbol
_atom_site_label
_atom_site_fract_x
_atom_site_fract_y
_atom_site_fract_z
Si Si1 0.667948 0.981753 0.787541
Si Si2 0.176727 0.192353 0.730932
Si Si3 0.357253 0.393596 0.343485
Si Si4 0.918550 0.886385 0.049502
Si Si5 0.729722 0.492546 0.881066
Si Si6 0.607054 0.935696 0.642732
Si Si7 0.841420 0.581021 0.012019
Si Si8 0.889571 0.205740 0.836973
O O1 0.728502 0.827553 0.794536
O O2 0.651622 0.995545 0.710323
O O3 0.503193 0.010567 0.828636
O O4 0.783190 0.090427 0.811618
O O5 0.267125 0.108310 0.781034
O O6 0.020439 0.239136 0.775266
O O7 0.167296 0.093975 0.669715
O O8 0.240424 0.434785 0.407854
O O9 0.405402 0.232287 0.349947
O O10 0.880280 0.744175 0.014177
O O11 0.025559 0.848272 0.103898
O O12 0.000000 0.000000 0.000000
O O13 0.554190 0.495309 0.870066
O O14 0.793644 0.339290 0.863867
O O15 0.748622 0.539133 0.954034
O O16 0.741156 0.957479 0.581821
O O17 0.000000 0.500000 0.000000
#
# Coordination Sequence:
#
# PCOD9248047 Si02
#       8
#     4   4   4   4   4   4   4   4
#     4  11  21  40  65  94 124 161 207 258 316 368
#     4  10  23  37  60  98 125 156 212 259 300 370
#     4   9  19  41  64  87 127 163 197 254 315 362
#     4  10  23  45  63  89 125 164 205 256 306 369
#     4  12  22  41  64  91 127 165 208 252 313 369
#     4  10  22  41  63  90 128 163 201 258 310 369
#     4  11  24  42  63  90 123 167 210 250 303 372
#     4  11  23  40  66  89 126 167 200 255 323 364
#
# _framework density 18.383849000000001
#
# number of rings (size 3 to 8) (size 9 to 14) (size 15 to 20)
#    0.000    1.500    3.750    1.875    3.500    0.000 
#    2.250    0.625    0.000    0.000    0.000    0.000 
#    0.000    0.000    0.000    0.000    0.000    0.000 
#
# Total GULP energy -178720.588592 kJ/mol
# GULP energy per Si atom -5585.018393 kJ/mol
# Density = 1.834201 g / cm^3
# Si number density = 18.383849 Si / 1000 Ang^3
#
#
#
# Elastic Constant Matrix: (Units=GPa)
#
#
# Indices 1 2 3 4 5 6 
#
# 1 63.0635 20.8959 13.2926 0.0000 -8.4503 0.0000
# 2 20.8959 60.9476 37.3849 0.0000 -10.9912 0.0000
# 3 13.2926 37.3849 81.9317 0.0000 -7.4230 0.0000
# 4 0.0000 0.0000 0.0000 30.0717 0.0000 -3.7349
# 5 -8.4503 -10.9912 -7.4230 0.0000 38.7841 0.0000
# 6 0.0000 0.0000 0.0000 -3.7349 0.0000 26.1951
#
#
#
# Elastic Compliance Matrix: (Units=1/GPa)
#
#
# Indices 1 2 3 4 5 6 
#
# 1 0.018083 -0.005712 -0.000119 0.000000 0.002298 0.000000
# 2 -0.005712 0.025405 -0.010305 0.000000 0.003983 0.000000
# 3 -0.000119 -0.010305 0.016954 0.000000 0.000299 0.000000
# 4 0.000000 0.000000 0.000000 0.033853 0.000000 0.004827
# 5 0.002298 0.003983 0.000299 0.000000 0.027470 0.000000
# 6 0.000000 0.000000 0.000000 0.004827 0.000000 0.038863
#
#
# Mechanical properties :
#
#
# Convention : Reuss Voigt Hill
#
# Bulk Modulus (GPa) = 35.49912 38.78773 37.14343
# Shear Modulus (GPa) = 24.71701 27.96812 26.34257
#
# Velocity S-wave (km/s) = 3.67071 3.90467 3.78950
# Velocity P-wave (km/s) = 6.10880 6.43997 6.27657
#
# Compressibility (1/GPa) = 0.02816971
#
# Stress axis : x y z
#
# Youngs Moduli (GPa) = 55.30119 39.36242 58.98469
#
# Poissons Ratio (x) = 0.22484 0.00703
# Poissons Ratio (y) = 0.31589 0.60781
# Poissons Ratio (z) = 0.00659 0.40561
#
# Static dielectric constant tensor:
#      x y z
#    x 1.627390 0.000000 0.001150 
#    y 0.000000 1.611170 0.000000 
#    z 0.001150 0.000000 1.615830 
# 
# From -- ./inp_files/64819.got.cif
#   From: 2010.05.17/outbox.cif.g08.bks.cpg/sg14_33_cif.got.tgz:64819.got - 2010.06.03 17:49:19.
