data_PCOD9248103
_publ_section_title
;
Structure prediction by ZEFSAII (Michael W. Deem and Ramdas Pophale) SiO2 
 PCOD9248103
Probable space group: P 21/C
;
_chemical_formula_sum "Si O2"
_cell_formula_units_Z 20
_cell_length_a 8.577109
_cell_length_b 4.978920
_cell_length_c 21.906488
_cell_angle_alpha 90.000000
_cell_angle_beta 105.347724
_cell_angle_gamma 90.000000
_cell_volume 902.148015
_symmetry_space_group_name_H-M "P 21/C"
_symmetry_group_IT_number 14
_symmetry_cell_setting 'monoclinic'
loop_
_space_group_symop_operation_xyz
x,y,z
-x,1/2+y,1/2-z
-x,-y,-z
x,1/2-y,1/2+z
loop_
_atom_site_type_symbol
_atom_site_label
_atom_site_fract_x
_atom_site_fract_y
_atom_site_fract_z
Si Si1 0.468774 0.103626 0.707972
Si Si2 0.071435 0.551917 0.416466
Si Si3 0.845758 0.060557 0.394816
Si Si4 0.697566 0.692571 0.992495
Si Si5 0.628206 0.186474 0.598926
O O1 0.473467 0.405421 0.733055
O O2 0.290061 0.020227 0.667916
O O3 0.584196 0.082475 0.661007
O O4 0.165807 0.415169 0.482835
O O5 0.219469 0.614801 0.385758
O O6 0.983822 0.834861 0.414350
O O7 0.933060 0.336475 0.387031
O O8 0.756927 0.033818 0.450983
O O9 0.663436 0.548831 0.053405
O O10 0.536450 0.815237 0.945525
#
# Coordination Sequence:
#
# PCOD9248103 Si02
#       5
#     4   4   4   4   4
#     4  11  26  50  71  89 127 182 237 277 324 397
#     4  12  22  41  64 105 137 168 208 273 339 398
#     4  11  25  40  69 101 132 175 215 270 342 396
#     4  10  22  41  65 103 140 173 209 264 336 416
#     4  10  24  41  69  99 133 177 222 266 332 398
#
# _framework density 22.169312000000001
#
# number of rings (size 3 to 8) (size 9 to 14) (size 15 to 20)
#    0.000    1.200    2.000    3.000    5.600    0.000 
#    0.000    4.000    0.000    0.000    0.000    0.000 
#    0.000    0.000    0.000    0.000    0.000    0.000 
#
# Total GULP energy -111849.922060 kJ/mol
# GULP energy per Si atom -5592.496103 kJ/mol
# Density = 2.211885 g / cm^3
# Si number density = 22.169312 Si / 1000 Ang^3
#
#
#
# Elastic Constant Matrix: (Units=GPa)
#
#
# Indices 1 2 3 4 5 6 
#
# 1 118.6345 7.3265 28.6874 0.0000 -9.0961 0.0000
# 2 7.3265 52.3396 -7.8440 0.0000 -12.5007 0.0000
# 3 28.6874 -7.8440 60.6779 0.0000 -7.0043 0.0000
# 4 0.0000 0.0000 0.0000 30.7924 0.0000 6.5904
# 5 -9.0961 -12.5007 -7.0043 0.0000 13.4365 0.0000
# 6 0.0000 0.0000 0.0000 6.5904 0.0000 37.6240
#
#
#
# Elastic Compliance Matrix: (Units=1/GPa)
#
#
# Indices 1 2 3 4 5 6 
#
# 1 0.009825 -0.001296 -0.004452 0.000000 0.003125 0.000000
# 2 -0.001296 0.027130 0.007376 0.000000 0.028208 0.000000
# 3 -0.004452 0.007376 0.021263 0.000000 0.014932 0.000000
# 4 0.000000 0.000000 0.000000 0.033740 0.000000 -0.005910
# 5 0.003125 0.028208 0.014932 0.000000 0.110567 0.000000
# 6 0.000000 0.000000 0.000000 -0.005910 0.000000 0.027614
#
#
# Mechanical properties :
#
#
# Convention : Reuss Voigt Hill
#
# Bulk Modulus (GPa) = 16.26713 31.99909 24.13311
# Shear Modulus (GPa) = 20.21219 29.93605 25.07412
#
# Velocity S-wave (km/s) = 3.02274 3.67868 3.36673
# Velocity P-wave (km/s) = 4.41998 5.70166 5.10123
#
# Compressibility (1/GPa) = 0.06147367
#
# Stress axis : x y z
#
# Youngs Moduli (GPa) = 101.77615 36.85936 47.03087
#
# Poissons Ratio (x) = 0.04778 0.20939
# Poissons Ratio (y) = 0.13194 -0.34691
# Poissons Ratio (z) = 0.45313 -0.27188
#
# Static dielectric constant tensor:
#      x y z
#    x 1.887260 0.000000 -0.005420 
#    y 0.000000 1.826450 0.000000 
#    z -0.005420 0.000000 1.785140 
# 
# From -- ./inp_files/64039.got.cif
#   From: 2010.05.17/outbox.cif.g08.bks.cpg/sg14_33_cif.got.tgz:64039.got - 2010.06.03 17:49:19.
