data_PCOD9248505
_publ_section_title
;
Structure prediction by ZEFSAII (Michael W. Deem and Ramdas Pophale) SiO2 
 PCOD9248505
Probable space group: P 21/C
;
_chemical_formula_sum "Si O2"
_cell_formula_units_Z 20
_cell_length_a 8.242438
_cell_length_b 12.347367
_cell_length_c 7.185688
_cell_angle_alpha 90.000000
_cell_angle_beta 80.998730
_cell_angle_gamma 90.000000
_cell_volume 722.298652
_symmetry_space_group_name_H-M "P 21/C"
_symmetry_group_IT_number 14
_symmetry_cell_setting 'monoclinic'
loop_
_space_group_symop_operation_xyz
x,y,z
-x,1/2+y,1/2-z
-x,-y,-z
x,1/2-y,1/2+z
loop_
_atom_site_type_symbol
_atom_site_label
_atom_site_fract_x
_atom_site_fract_y
_atom_site_fract_z
Si Si1 0.029771 0.141249 0.878847
Si Si2 0.224378 0.154262 0.489273
Si Si3 0.418921 0.817244 0.451499
Si Si4 0.247290 0.598735 0.334562
Si Si5 0.709814 0.462313 0.303782
O O1 0.162330 0.106138 0.698446
O O2 0.098262 0.256731 0.933462
O O3 0.949375 0.096949 0.089539
O O4 0.866732 0.119680 0.783309
O O5 0.402640 0.205129 0.498173
O O6 0.251177 0.065330 0.326630
O O7 0.323981 0.709797 0.409502
O O8 0.429786 0.894552 0.272034
O O9 0.312334 0.888218 0.616676
O O10 0.312406 0.512551 0.474804
#
# Coordination Sequence:
#
# PCOD9248505 Si02
#       5
#     4   4   4   4   4
#     4  10  24  43  69  93 144 177 220 282 339 391
#     4  12  24  45  68 108 131 176 235 289 323 408
#     4  12  21  42  73  97 139 179 225 276 345 394
#     4  10  22  42  71  94 138 186 218 269 349 409
#     4  10  25  45  72  95 143 180 226 271 352 407
#
# _framework density 27.689377
#
# number of rings (size 3 to 8) (size 9 to 14) (size 15 to 20)
#    1.200    0.000    2.000    4.800    0.000    0.800 
#    3.600    2.000    0.000    0.000    0.000    0.000 
#    0.000    0.000    0.000    0.000    0.000    0.000 
#
# Total GULP energy -111764.184047 kJ/mol
# GULP energy per Si atom -5588.209202 kJ/mol
# Density = 2.762636 g / cm^3
# Si number density = 27.689377 Si / 1000 Ang^3
#
#
#
# Elastic Constant Matrix: (Units=GPa)
#
#
# Indices 1 2 3 4 5 6 
#
# 1 106.9240 62.9627 10.9798 0.0000 1.5134 0.0000
# 2 62.9627 55.7030 37.8655 0.0000 -0.8922 0.0000
# 3 10.9798 37.8655 154.3572 0.0000 -8.1431 0.0000
# 4 0.0000 0.0000 0.0000 40.2816 0.0000 7.0183
# 5 1.5134 -0.8922 -8.1431 0.0000 55.7371 0.0000
# 6 0.0000 0.0000 0.0000 7.0183 0.0000 35.6903
#
#
#
# Elastic Compliance Matrix: (Units=1/GPa)
#
#
# Indices 1 2 3 4 5 6 
#
# 1 0.035875 -0.046573 0.008851 0.000000 -0.000426 0.000000
# 2 -0.046573 0.082018 -0.016801 0.000000 0.000123 0.000000
# 3 0.008851 -0.016801 0.010021 0.000000 0.000955 0.000000
# 4 0.000000 0.000000 0.000000 0.025706 0.000000 -0.005055
# 5 -0.000426 0.000123 0.000955 0.000000 0.018094 0.000000
# 6 0.000000 0.000000 0.000000 -0.005055 0.000000 0.029013
#
#
# Mechanical properties :
#
#
# Convention : Reuss Voigt Hill
#
# Bulk Modulus (GPa) = 53.00333 60.06670 56.53502
# Shear Modulus (GPa) = 15.81968 40.02020 27.91994
#
# Velocity S-wave (km/s) = 2.39284 3.80587 3.17886
# Velocity P-wave (km/s) = 5.17860 6.40726 5.82541
#
# Compressibility (1/GPa) = 0.01886674
#
# Stress axis : x y z
#
# Youngs Moduli (GPa) = 27.87493 12.19242 99.79390
#
# Poissons Ratio (x) = 0.56784 -0.88324
# Poissons Ratio (y) = 1.29823 1.67660
# Poissons Ratio (z) = -0.24671 0.20484
#
# Static dielectric constant tensor:
#      x y z
#    x 2.131960 0.000000 -0.057340 
#    y 0.000000 2.231670 0.000000 
#    z -0.057340 0.000000 2.181120 
# 
# From -- ./inp_files/8252.got.cif
#   From: 2010.05.17/outbox.cif.g08.bks.cpg/sg14_5_cif.got.tgz:8252.got - 2010.06.03 17:49:19.
