data_PCOD9248965
_publ_section_title
;
Structure prediction by ZEFSAII (Michael W. Deem and Ramdas Pophale) SiO2 
 PCOD9248965
Probable space group: P 21/C
;
_chemical_formula_sum "Si O2"
_cell_formula_units_Z 24
_cell_length_a 11.076051
_cell_length_b 9.356748
_cell_length_c 10.944318
_cell_angle_alpha 90.000000
_cell_angle_beta 100.376137
_cell_angle_gamma 90.000000
_cell_volume 1115.674906
_symmetry_space_group_name_H-M "P 21/C"
_symmetry_group_IT_number 14
_symmetry_cell_setting 'monoclinic'
loop_
_space_group_symop_operation_xyz
x,y,z
-x,1/2+y,1/2-z
-x,-y,-z
x,1/2-y,1/2+z
loop_
_atom_site_type_symbol
_atom_site_label
_atom_site_fract_x
_atom_site_fract_y
_atom_site_fract_z
Si Si1 0.877408 0.710166 0.740847
Si Si2 0.273482 0.787194 0.160684
Si Si3 0.342325 0.368895 0.421606
Si Si4 0.413134 0.687702 0.424069
Si Si5 0.047171 0.923874 0.630233
Si Si6 0.128310 0.057117 0.070165
O O1 0.729806 0.711970 0.697431
O O2 0.928995 0.550629 0.767488
O O3 0.900835 0.797325 0.867528
O O4 0.949436 0.806301 0.656382
O O5 0.359509 0.767739 0.295813
O O6 0.175624 0.658596 0.138912
O O7 0.196460 0.933895 0.160235
O O8 0.341321 0.789587 0.040422
O O9 0.401300 0.518438 0.390244
O O10 0.445210 0.285154 0.515557
O O11 0.226291 0.410016 0.483270
O O12 0.000000 0.000000 0.500000
O O13 0.000000 0.000000 0.000000
#
# Coordination Sequence:
#
# PCOD9248965 Si02
#       6
#     4   4   4   4   4   4
#     4  12  24  42  69  97 138 179 235 292 363 424
#     4  11  24  45  71 103 138 186 236 294 359 427
#     4  10  22  45  65  99 138 189 225 283 358 428
#     4  10  24  44  73  97 143 185 233 288 355 422
#     4  12  26  41  68 103 138 181 238 300 359 440
#     4  11  24  43  69 100 141 184 234 292 362 418
#
# _framework density 21.511642999999999
#
# number of rings (size 3 to 8) (size 9 to 14) (size 15 to 20)
#    0.000    1.000    1.667    5.000    9.333    0.000 
#    0.000    0.833    0.000    0.000    0.000    0.000 
#    0.000    0.000    0.000    0.000    0.000    0.000 
#
# Total GULP energy -134074.177142 kJ/mol
# GULP energy per Si atom -5586.424048 kJ/mol
# Density = 2.146268 g / cm^3
# Si number density = 21.511643 Si / 1000 Ang^3
#
#
#
# Elastic Constant Matrix: (Units=GPa)
#
#
# Indices 1 2 3 4 5 6 
#
# 1 92.9041 23.7468 37.9543 0.0000 31.1929 0.0000
# 2 23.7468 97.1950 33.5818 0.0000 15.5043 0.0000
# 3 37.9543 33.5818 112.2732 0.0000 23.4948 0.0000
# 4 0.0000 0.0000 0.0000 46.6762 0.0000 7.2015
# 5 31.1929 15.5043 23.4948 0.0000 42.3634 0.0000
# 6 0.0000 0.0000 0.0000 7.2015 0.0000 27.0836
#
#
#
# Elastic Compliance Matrix: (Units=1/GPa)
#
#
# Indices 1 2 3 4 5 6 
#
# 1 0.015375 -0.001286 -0.002876 0.000000 -0.009255 0.000000
# 2 -0.001286 0.011840 -0.002713 0.000000 -0.001882 0.000000
# 3 -0.002876 -0.002713 0.011358 0.000000 -0.003189 0.000000
# 4 0.000000 0.000000 0.000000 0.022341 0.000000 -0.005940
# 5 -0.009255 -0.001882 -0.003189 0.000000 0.032877 0.000000
# 6 0.000000 0.000000 0.000000 -0.005940 0.000000 0.038502
#
#
# Mechanical properties :
#
#
# Convention : Reuss Voigt Hill
#
# Bulk Modulus (GPa) = 40.28619 54.77089 47.52854
# Shear Modulus (GPa) = 32.40066 37.03059 34.71563
#
# Velocity S-wave (km/s) = 3.88518 4.15350 4.02158
# Velocity P-wave (km/s) = 6.23654 6.96552 6.61108
#
# Compressibility (1/GPa) = 0.02482240
#
# Stress axis : x y z
#
# Youngs Moduli (GPa) = 65.04083 84.45673 88.04524
#
# Poissons Ratio (x) = 0.10865 0.25322
# Poissons Ratio (y) = 0.08367 0.23886
# Poissons Ratio (z) = 0.18706 0.22913
#
# Static dielectric constant tensor:
#      x y z
#    x 1.782690 0.000000 -0.000780 
#    y 0.000000 1.788610 0.000000 
#    z -0.000780 0.000000 1.937360 
# 
# From -- ./inp_files/28203.got.cif
#   From: 2010.05.17/outbox.cif.g08.bks.cpg/sg14_15_cif.got.tgz:28203.got - 2010.06.03 17:49:19.
