data_PCOD9248715
_publ_section_title
;
Structure prediction by ZEFSAII (Michael W. Deem and Ramdas Pophale) SiO2 
 PCOD9248715
Probable space group: P 21/C
;
_chemical_formula_sum "Si O2"
_cell_formula_units_Z 24
_cell_length_a 10.533457
_cell_length_b 14.918341
_cell_length_c 13.244753
_cell_angle_alpha 90.000000
_cell_angle_beta 31.175759
_cell_angle_gamma 90.000000
_cell_volume 1077.417890
_symmetry_space_group_name_H-M "P 21/C"
_symmetry_group_IT_number 14
_symmetry_cell_setting 'monoclinic'
loop_
_space_group_symop_operation_xyz
x,y,z
-x,1/2+y,1/2-z
-x,-y,-z
x,1/2-y,1/2+z
loop_
_atom_site_type_symbol
_atom_site_label
_atom_site_fract_x
_atom_site_fract_y
_atom_site_fract_z
Si Si1 0.499736 0.013462 0.826282
Si Si2 0.079707 0.403105 0.486725
Si Si3 0.614267 0.733904 0.801181
Si Si4 0.301065 0.879360 0.121136
Si Si5 0.588553 0.397387 0.932865
Si Si6 0.265067 0.357479 0.964131
O O1 0.645971 0.068666 0.810949
O O2 0.666787 0.951595 0.639318
O O3 0.324187 0.078100 0.883144
O O4 0.323183 0.947945 0.012070
O O5 0.132733 0.324626 0.369409
O O6 0.000000 0.500000 0.500000
O O7 0.857041 0.380110 0.709675
O O8 0.630185 0.783348 0.683784
O O9 0.517035 0.808158 0.947065
O O10 0.427698 0.653465 0.950548
O O11 0.023637 0.844808 0.320132
O O12 0.405658 0.356340 0.974070
O O13 0.500000 0.500000 0.000000
#
# Coordination Sequence:
#
# PCOD9248715 Si02
#       6
#     4   4   4   4   4   4
#     4  10  22  43  70  99 131 183 227 279 346 417
#     4  12  23  44  69  99 136 178 239 282 347 420
#     4  11  26  42  64 103 134 183 225 287 347 402
#     4  10  23  44  67 100 136 173 232 282 352 411
#     4  12  24  44  71 100 136 184 233 282 354 415
#     4  11  23  44  69  99 140 177 230 291 344 419
#
# _framework density 22.275479000000001
#
# number of rings (size 3 to 8) (size 9 to 14) (size 15 to 20)
#    0.000    1.000    3.333    2.500    2.333    0.000 
#    6.000    0.000    0.000    0.000    0.000    0.000 
#    0.000    0.000    0.000    0.000    0.000    0.000 
#
# Total GULP energy -133891.687548 kJ/mol
# GULP energy per Si atom -5578.820315 kJ/mol
# Density = 2.222478 g / cm^3
# Si number density = 22.275479 Si / 1000 Ang^3
#
#
#
# Elastic Constant Matrix: (Units=GPa)
#
#
# Indices 1 2 3 4 5 6 
#
# 1 67.0283 36.8444 38.2114 0.0000 15.4045 0.0000
# 2 36.8444 116.8161 59.8821 0.0000 7.8167 0.0000
# 3 38.2114 59.8821 174.7732 0.0000 11.9183 0.0000
# 4 0.0000 0.0000 0.0000 40.7986 0.0000 20.8242
# 5 15.4045 7.8167 11.9183 0.0000 17.8181 0.0000
# 6 0.0000 0.0000 0.0000 20.8242 0.0000 25.5659
#
#
#
# Elastic Compliance Matrix: (Units=1/GPa)
#
#
# Indices 1 2 3 4 5 6 
#
# 1 0.022498 -0.004935 -0.002147 0.000000 -0.015850 0.000000
# 2 -0.004935 0.011556 -0.002961 0.000000 0.001177 0.000000
# 3 -0.002147 -0.002961 0.007325 0.000000 -0.001744 0.000000
# 4 0.000000 0.000000 0.000000 0.041952 0.000000 -0.034171
# 5 -0.015850 0.001177 -0.001744 0.000000 0.070475 0.000000
# 6 0.000000 0.000000 0.000000 -0.034171 0.000000 0.066948
#
#
# Mechanical properties :
#
#
# Convention : Reuss Voigt Hill
#
# Bulk Modulus (GPa) = 46.96345 69.83262 58.39803
# Shear Modulus (GPa) = 20.16631 31.74849 25.95740
#
# Velocity S-wave (km/s) = 3.01211 3.77937 3.41734
# Velocity P-wave (km/s) = 5.76419 7.10369 6.46870
#
# Compressibility (1/GPa) = 0.02129316
#
# Stress axis : x y z
#
# Youngs Moduli (GPa) = 44.44768 86.53609 136.52763
#
# Poissons Ratio (x) = 0.42704 0.29316
# Poissons Ratio (y) = 0.21934 0.40422
# Poissons Ratio (z) = 0.09544 0.25621
#
# Static dielectric constant tensor:
#      x y z
#    x 1.781950 0.000000 0.040940 
#    y 0.000000 1.806350 0.000000 
#    z 0.040940 0.000000 1.768980 
# 
# From -- ./inp_files/44881.got.cif
#   From: 2010.05.17/outbox.cif.g08.bks.cpg/sg14_23_cif.got.tgz:44881.got - 2010.06.03 17:49:19.
