data_PCOD9248605
_publ_section_title
;
Structure prediction by ZEFSAII (Michael W. Deem and Ramdas Pophale) SiO2 
 PCOD9248605
Probable space group: P 21/C
;
_chemical_formula_sum "Si O2"
_cell_formula_units_Z 28
_cell_length_a 8.908366
_cell_length_b 5.864230
_cell_length_c 27.554809
_cell_angle_alpha 90.000000
_cell_angle_beta 119.672104
_cell_angle_gamma 90.000000
_cell_volume 1250.727139
_symmetry_space_group_name_H-M "P 21/C"
_symmetry_group_IT_number 14
_symmetry_cell_setting 'monoclinic'
loop_
_space_group_symop_operation_xyz
x,y,z
-x,1/2+y,1/2-z
-x,-y,-z
x,1/2-y,1/2+z
loop_
_atom_site_type_symbol
_atom_site_label
_atom_site_fract_x
_atom_site_fract_y
_atom_site_fract_z
Si Si1 0.170292 0.964728 0.656273
Si Si2 0.945625 0.797389 0.455229
Si Si3 0.529945 0.001611 0.730264
Si Si4 0.907163 0.684692 0.660962
Si Si5 0.582826 0.799915 0.547099
Si Si6 0.102619 0.311943 0.728887
Si Si7 0.721130 0.995387 0.980391
O O1 0.070750 0.105234 0.600501
O O2 0.366664 0.951284 0.669506
O O3 0.160724 0.095687 0.706207
O O4 0.065714 0.736678 0.649898
O O5 0.769523 0.679155 0.445518
O O6 0.100311 0.619455 0.480239
O O7 0.000000 0.000000 0.500000
O O8 0.501721 0.270453 0.740760
O O9 0.726812 0.973388 0.745419
O O10 0.741544 0.808439 0.610804
O O11 0.932537 0.415283 0.675283
O O12 0.930196 0.769501 0.719941
O O13 0.427076 0.680876 0.551504
O O14 0.661833 0.636001 0.518675
O O15 0.500000 0.000000 0.500000
#
# Coordination Sequence:
#
# PCOD9248605 Si02
#       7
#     4   4   4   4   4   4   4
#     4  11  23  42  67  94 132 181 227 299 353 433
#     4  11  23  43  69  98 137 180 236 291 358 432
#     4  10  22  43  66  95 136 174 237 288 355 433
#     4  12  23  43  68  95 137 178 236 291 361 438
#     4  11  24  44  70 102 140 182 233 293 362 437
#     4  11  24  43  63  98 132 182 235 291 366 429
#     4  10  23  44  65 104 135 176 231 287 360 423
#
# _framework density 22.386977999999999
#
# number of rings (size 3 to 8) (size 9 to 14) (size 15 to 20)
#    0.000    1.143    2.857    3.429    0.000    4.571 
#   12.857    0.000    0.000    0.000    0.000    0.000 
#    0.000    0.000    0.000    0.000    0.000    0.000 
#
# Total GULP energy -155886.084424 kJ/mol
# GULP energy per Si atom -5567.360158 kJ/mol
# Density = 2.233602 g / cm^3
# Si number density = 22.386978 Si / 1000 Ang^3
#
#
#
# Elastic Constant Matrix: (Units=GPa)
#
#
# Indices 1 2 3 4 5 6 
#
# 1 87.6802 23.6707 12.8163 0.0000 0.9625 0.0000
# 2 23.6707 64.8619 10.8909 0.0000 -0.8282 0.0000
# 3 12.8163 10.8909 67.7724 0.0000 4.3623 0.0000
# 4 0.0000 0.0000 0.0000 20.4525 0.0000 0.9511
# 5 0.9625 -0.8282 4.3623 0.0000 30.0463 0.0000
# 6 0.0000 0.0000 0.0000 0.9511 0.0000 42.9611
#
#
#
# Elastic Compliance Matrix: (Units=1/GPa)
#
#
# Indices 1 2 3 4 5 6 
#
# 1 0.012847 -0.004406 -0.001703 0.000000 -0.000286 0.000000
# 2 -0.004406 0.017376 -0.002018 0.000000 0.000913 0.000000
# 3 -0.001703 -0.002018 0.015547 0.000000 -0.002258 0.000000
# 4 0.000000 0.000000 0.000000 0.048944 0.000000 -0.001084
# 5 -0.000286 0.000913 -0.002258 0.000000 0.033644 0.000000
# 6 0.000000 0.000000 0.000000 -0.001084 0.000000 0.023301
#
#
# Mechanical properties :
#
#
# Convention : Reuss Voigt Hill
#
# Bulk Modulus (GPa) = 33.88015 35.00779 34.44397
# Shear Modulus (GPa) = 28.12928 30.22106 29.17517
#
# Velocity S-wave (km/s) = 3.54856 3.67814 3.61393
# Velocity P-wave (km/s) = 5.65300 5.80601 5.73002
#
# Compressibility (1/GPa) = 0.02951581
#
# Stress axis : x y z
#
# Youngs Moduli (GPa) = 77.84157 57.55145 64.32137
#
# Poissons Ratio (x) = 0.25357 0.10954
# Poissons Ratio (y) = 0.34297 0.12979
# Poissons Ratio (z) = 0.13256 0.11613
#
# Static dielectric constant tensor:
#      x y z
#    x 1.846540 0.000000 0.073910 
#    y 0.000000 1.943680 0.000000 
#    z 0.073910 0.000000 1.841660 
# 
# From -- ./inp_files/79201.got.cif
#   From: 2010.05.17/outbox.cif.g08.bks.cpg/sg14_40_cif.got.tgz:79201.got - 2010.06.03 17:49:19.
