data_PCOD9248000
_publ_section_title
;
Structure prediction by ZEFSAII (Michael W. Deem and Ramdas Pophale) SiO2 
 PCOD9248000
Probable space group: P 21/C
;
_chemical_formula_sum "Si O2"
_cell_formula_units_Z 30
_cell_length_a 5.278095
_cell_length_b 12.513069
_cell_length_c 16.740597
_cell_angle_alpha 90.000000
_cell_angle_beta 99.465424
_cell_angle_gamma 90.000000
_cell_volume 1090.582320
_symmetry_space_group_name_H-M "P 21/C"
_symmetry_group_IT_number 14
_symmetry_cell_setting 'monoclinic'
loop_
_space_group_symop_operation_xyz
x,y,z
-x,1/2+y,1/2-z
-x,-y,-z
x,1/2-y,1/2+z
loop_
_atom_site_type_symbol
_atom_site_label
_atom_site_fract_x
_atom_site_fract_y
_atom_site_fract_z
Si Si1 0.895447 0.077957 0.390459
Si Si2 0.840640 0.737851 0.003134
Si Si3 0.031867 0.283105 0.674659
Si Si4 0.740908 0.081686 0.666192
Si Si5 0.500000 0.000000 0.500000
Si Si6 0.474312 0.120379 0.253159
Si Si7 0.637958 0.358853 0.452778
Si Si8 0.689969 0.034440 0.116271
O O1 0.715627 0.060804 0.455954
O O2 0.729377 0.141771 0.317092
O O3 0.153002 0.126166 0.445990
O O4 0.995337 0.975062 0.348976
O O5 0.568656 0.787698 0.010685
O O6 0.094447 0.799901 0.053341
O O7 0.902128 0.742445 0.911999
O O8 0.816715 0.200386 0.693802
O O9 0.947761 0.408716 0.662378
O O10 0.262081 0.288576 0.749780
O O11 0.561221 0.080648 0.579984
O O12 0.615624 0.995372 0.718582
O O13 0.503153 0.107708 0.159733
O O14 0.449129 0.420420 0.381787
O O15 0.721103 0.446364 0.523701
#
# Coordination Sequence:
#
# PCOD9248000 Si02
#       8
#     4   4   4   4   2   4   4   4
#     4  11  25  44  67 107 148 188 246 309 372 448
#     4  11  24  44  77 112 142 194 247 309 365 448
#     4  11  24  45  74 101 141 197 249 304 379 454
#     4  11  25  45  71 104 146 191 245 314 382 449
#     4  10  22  40  76 100 140 184 250 308 372 440
#     4  11  25  47  65 100 151 193 243 308 378 453
#     4  10  24  43  77 108 142 189 248 306 366 431
#     4  10  23  45  69 102 143 187 246 301 364 448
#
# _framework density 27.508241000000002
#
# number of rings (size 3 to 8) (size 9 to 14) (size 15 to 20)
#    0.000    1.333    2.667    1.200    5.600    3.733 
#    9.600    0.000    0.000    0.000    0.000    0.000 
#    0.000    0.000    0.000    0.000    0.000    0.000 
#
# Total GULP energy -167171.484146 kJ/mol
# GULP energy per Si atom -5572.382805 kJ/mol
# Density = 2.744563 g / cm^3
# Si number density = 27.508241 Si / 1000 Ang^3
#
#
#
# Elastic Constant Matrix: (Units=GPa)
#
#
# Indices 1 2 3 4 5 6 
#
# 1 91.5964 -4.0493 5.2263 0.0000 6.2686 0.0000
# 2 -4.0493 67.2534 47.9092 0.0000 17.0195 0.0000
# 3 5.2263 47.9092 88.5310 0.0000 17.8755 0.0000
# 4 0.0000 0.0000 0.0000 36.2055 0.0000 4.7744
# 5 6.2686 17.0195 17.8755 0.0000 50.3675 0.0000
# 6 0.0000 0.0000 0.0000 4.7744 0.0000 40.6446
#
#
#
# Elastic Compliance Matrix: (Units=1/GPa)
#
#
# Indices 1 2 3 4 5 6 
#
# 1 0.011207 0.002147 -0.001503 0.000000 -0.001587 0.000000
# 2 0.002147 0.025304 -0.012969 0.000000 -0.004215 0.000000
# 3 -0.001503 -0.012969 0.018829 0.000000 -0.002113 0.000000
# 4 0.000000 0.000000 0.000000 0.028055 0.000000 -0.003296
# 5 -0.001587 -0.004215 -0.002113 0.000000 0.022226 0.000000
# 6 0.000000 0.000000 0.000000 -0.003296 0.000000 0.024991
#
#
# Mechanical properties :
#
#
# Convention : Reuss Voigt Hill
#
# Bulk Modulus (GPa) = 32.58438 38.39479 35.48958
# Shear Modulus (GPa) = 30.21320 38.66317 34.43819
#
# Velocity S-wave (km/s) = 3.31771 3.75308 3.54209
# Velocity P-wave (km/s) = 5.15240 5.72440 5.44591
#
# Compressibility (1/GPa) = 0.03068955
#
# Stress axis : x y z
#
# Youngs Moduli (GPa) = 89.23208 39.51984 53.10915
#
# Poissons Ratio (x) = -0.08485 0.07983
# Poissons Ratio (y) = -0.19159 0.68877
# Poissons Ratio (z) = 0.13412 0.51253
#
# Static dielectric constant tensor:
#      x y z
#    x 2.163340 0.000000 -0.110610 
#    y 0.000000 2.131490 0.000000 
#    z -0.110610 0.000000 2.019530 
# 
# From -- ./inp_files/53340.got.cif
#   From: 2010.05.17/outbox.cif.g08.bks.cpg/sg14_27_cif.got.tgz:53340.got - 2010.06.03 17:49:19.
