data_PCOD9248684
_publ_section_title
;
Structure prediction by ZEFSAII (Michael W. Deem and Ramdas Pophale) SiO2 
 PCOD9248684
Probable space group: P 21/C
;
_chemical_formula_sum "Si O2"
_cell_formula_units_Z 22
_cell_length_a 6.952537
_cell_length_b 7.428225
_cell_length_c 18.252361
_cell_angle_alpha 90.000000
_cell_angle_beta 68.497804
_cell_angle_gamma 90.000000
_cell_volume 877.038692
_symmetry_space_group_name_H-M "P 21/C"
_symmetry_group_IT_number 14
_symmetry_cell_setting 'monoclinic'
loop_
_space_group_symop_operation_xyz
x,y,z
-x,1/2+y,1/2-z
-x,-y,-z
x,1/2-y,1/2+z
loop_
_atom_site_type_symbol
_atom_site_label
_atom_site_fract_x
_atom_site_fract_y
_atom_site_fract_z
Si Si1 0.245238 0.354470 0.502347
Si Si2 0.052490 0.574079 0.320211
Si Si3 0.797063 0.435071 0.143953
Si Si4 0.583796 0.274218 0.566730
Si Si5 0.273491 0.283231 0.744609
Si Si6 0.000000 0.000000 0.500000
O O1 0.103937 0.429753 0.588950
O O2 0.451137 0.271179 0.511774
O O3 0.311695 0.529821 0.446907
O O4 0.123464 0.203898 0.476421
O O5 0.913127 0.608281 0.268239
O O6 0.189833 0.751751 0.313828
O O7 0.187098 0.398616 0.290122
O O8 0.751028 0.382604 0.062748
O O9 0.657287 0.581313 0.201195
O O10 0.025803 0.496758 0.090798
O O11 0.435071 0.251253 0.657369
#
# Coordination Sequence:
#
# PCOD9248684 Si02
#       6
#     4   4   4   4   4   2
#     4   9  22  47  68  97 135 181 227 289 343 415
#     4  10  22  43  69  93 132 177 232 270 337 411
#     4  11  25  39  64 102 129 179 222 278 342 410
#     4  10  24  43  65  98 141 173 222 286 358 393
#     4  11  23  43  66  97 133 178 223 282 336 414
#     4  10  24  42  68  98 128 178 234 268 342 418
#
# _framework density 25.084413999999999
#
# number of rings (size 3 to 8) (size 9 to 14) (size 15 to 20)
#    0.000    1.818    1.818    0.000    7.636    2.182 
#    0.000    0.000    0.000    0.000    0.000    0.000 
#    0.000    0.000    0.000    0.000    0.000    0.000 
#
# Total GULP energy -122792.770199 kJ/mol
# GULP energy per Si atom -5581.489555 kJ/mol
# Density = 2.502732 g / cm^3
# Si number density = 25.084414 Si / 1000 Ang^3
#
#
#
# Elastic Constant Matrix: (Units=GPa)
#
#
# Indices 1 2 3 4 5 6 
#
# 1 87.6210 51.4400 14.9087 0.0000 1.5142 0.0000
# 2 51.4400 197.1264 71.6641 0.0000 -10.0858 0.0000
# 3 14.9087 71.6641 100.9889 0.0000 -11.0656 0.0000
# 4 0.0000 0.0000 0.0000 51.1162 0.0000 -2.6310
# 5 1.5142 -10.0858 -11.0656 0.0000 31.0336 0.0000
# 6 0.0000 0.0000 0.0000 -2.6310 0.0000 32.5324
#
#
#
# Elastic Compliance Matrix: (Units=1/GPa)
#
#
# Indices 1 2 3 4 5 6 
#
# 1 0.013600 -0.003825 0.000518 0.000000 -0.001722 0.000000
# 2 -0.003825 0.007920 -0.004947 0.000000 0.000997 0.000000
# 3 0.000518 -0.004947 0.013692 0.000000 0.003249 0.000000
# 4 0.000000 0.000000 0.000000 0.019645 0.000000 0.001589
# 5 -0.001722 0.000997 0.003249 0.000000 0.033790 0.000000
# 6 0.000000 0.000000 0.000000 0.001589 0.000000 0.030867
#
#
# Mechanical properties :
#
#
# Convention : Reuss Voigt Hill
#
# Bulk Modulus (GPa) = 53.46226 73.52911 63.49569
# Shear Modulus (GPa) = 35.14770 39.45134 37.29952
#
# Velocity S-wave (km/s) = 3.74729 3.97008 3.86030
# Velocity P-wave (km/s) = 6.33104 7.09871 6.72584
#
# Compressibility (1/GPa) = 0.01870478
#
# Stress axis : x y z
#
# Youngs Moduli (GPa) = 73.52825 126.25566 73.03654
#
# Poissons Ratio (x) = 0.48299 -0.03785
# Poissons Ratio (y) = 0.28128 0.36128
# Poissons Ratio (z) = -0.03810 0.62453
#
# Static dielectric constant tensor:
#      x y z
#    x 2.170440 0.000000 -0.030470 
#    y 0.000000 2.088390 0.000000 
#    z -0.030470 0.000000 2.051610 
# 
# From -- ./inp_files/64048.got.cif
#   From: 2010.05.17/outbox.cif.g08.bks.cpg/sg14_33_cif.got.tgz:64048.got - 2010.06.03 17:49:19.
