data_PCOD9248494
_publ_section_title
;
Structure prediction by ZEFSAII (Michael W. Deem and Ramdas Pophale) SiO2 
 PCOD9248494
Probable space group: P 21/C
;
_chemical_formula_sum "Si O2"
_cell_formula_units_Z 28
_cell_length_a 26.082522
_cell_length_b 8.203031
_cell_length_c 8.408580
_cell_angle_alpha 90.000000
_cell_angle_beta 142.779196
_cell_angle_gamma 90.000000
_cell_volume 1088.232709
_symmetry_space_group_name_H-M "P 21/C"
_symmetry_group_IT_number 14
_symmetry_cell_setting 'monoclinic'
loop_
_space_group_symop_operation_xyz
x,y,z
-x,1/2+y,1/2-z
-x,-y,-z
x,1/2-y,1/2+z
loop_
_atom_site_type_symbol
_atom_site_label
_atom_site_fract_x
_atom_site_fract_y
_atom_site_fract_z
Si Si1 0.859229 0.974079 0.146040
Si Si2 0.446685 0.531252 0.120845
Si Si3 0.077874 0.654646 0.662390
Si Si4 0.400007 0.859667 0.153627
Si Si5 0.747086 0.521820 0.859636
Si Si6 0.048197 0.258578 0.393392
Si Si7 0.699568 0.643683 0.094261
O O1 0.906114 0.872877 0.121231
O O2 0.888199 0.871039 0.371371
O O3 0.885470 0.160417 0.227705
O O4 0.761121 0.960543 0.860702
O O5 0.405983 0.585935 0.851111
O O6 0.394672 0.384677 0.073491
O O7 0.437656 0.680647 0.219720
O O8 0.540581 0.477704 0.305476
O O9 0.031401 0.667942 0.380353
O O10 0.999434 0.640665 0.588850
O O11 0.155817 0.532697 0.879723
O O12 0.306956 0.875009 0.849090
O O13 0.729326 0.672024 0.697357
O O14 0.713892 0.580974 0.950629
#
# Coordination Sequence:
#
# PCOD9248494 Si02
#       7
#     4   4   4   4   4   4   4
#     4  11  24  44  69 102 141 184 237 292 355 425
#     4  11  25  46  74 108 146 187 236 288 352 424
#     4  11  25  45  70 101 136 183 237 294 354 425
#     4  11  25  46  74 108 144 187 234 289 351 426
#     4  12  27  46  72 103 141 186 238 298 364 429
#     4  10  22  42  71 102 137 182 232 290 352 421
#     4  12  26  45  70 104 142 185 236 295 362 432
#
# _framework density 25.729790999999999
#
# number of rings (size 3 to 8) (size 9 to 14) (size 15 to 20)
#    0.000    0.857    0.000    6.857    0.000   11.429 
#    0.000    7.857    0.000    0.000    0.000    0.000 
#    0.000    0.000    0.000    0.000    0.000    0.000 
#
# Total GULP energy -157120.932791 kJ/mol
# GULP energy per Si atom -5611.461885 kJ/mol
# Density = 2.567123 g / cm^3
# Si number density = 25.729791 Si / 1000 Ang^3
#
#
#
# Elastic Constant Matrix: (Units=GPa)
#
#
# Indices 1 2 3 4 5 6 
#
# 1 111.9108 18.1541 20.5723 0.0000 0.5414 0.0000
# 2 18.1541 108.2891 -5.9516 0.0000 -3.3261 0.0000
# 3 20.5723 -5.9516 100.6952 0.0000 0.3757 0.0000
# 4 0.0000 0.0000 0.0000 31.4729 0.0000 10.8231
# 5 0.5414 -3.3261 0.3757 0.0000 36.4003 0.0000
# 6 0.0000 0.0000 0.0000 10.8231 0.0000 37.6908
#
#
#
# Elastic Compliance Matrix: (Units=1/GPa)
#
#
# Indices 1 2 3 4 5 6 
#
# 1 0.009597 -0.001731 -0.002062 0.000000 -0.000280 0.000000
# 2 -0.001731 0.009603 0.000918 0.000000 0.000894 0.000000
# 3 -0.002062 0.000918 0.010406 0.000000 0.000007 0.000000
# 4 0.000000 0.000000 0.000000 0.035255 0.000000 -0.010124
# 5 -0.000280 0.000894 0.000007 0.000000 0.027558 0.000000
# 6 0.000000 0.000000 0.000000 -0.010124 0.000000 0.029439
#
#
# Mechanical properties :
#
#
# Convention : Reuss Voigt Hill
#
# Bulk Modulus (GPa) = 41.91792 42.93831 42.42811
# Shear Modulus (GPa) = 36.88427 40.32081 38.60254
#
# Velocity S-wave (km/s) = 3.79030 3.96294 3.87758
# Velocity P-wave (km/s) = 5.95669 6.13712 6.04758
#
# Compressibility (1/GPa) = 0.02385615
#
# Stress axis : x y z
#
# Youngs Moduli (GPa) = 104.20093 104.13861 96.09439
#
# Poissons Ratio (x) = 0.18024 0.19814
# Poissons Ratio (y) = 0.18035 -0.08820
# Poissons Ratio (z) = 0.21485 -0.09558
#
# Static dielectric constant tensor:
#      x y z
#    x 2.055650 0.000000 -0.024640 
#    y 0.000000 2.158770 0.000000 
#    z -0.024640 0.000000 1.975930 
# 
# From -- ./inp_files/19758.got.cif
#   From: 2010.05.17/outbox.cif.g08.bks.cpg/sg14_10_cif.got.tgz:19758.got - 2010.06.03 17:49:19.
