data_PCOD9248234
_publ_section_title
;
Structure prediction by ZEFSAII (Michael W. Deem and Ramdas Pophale) SiO2 
 PCOD9248234
Probable space group: P 21/C
;
_chemical_formula_sum "Si O2"
_cell_formula_units_Z 32
_cell_length_a 14.715888
_cell_length_b 6.878790
_cell_length_c 11.507118
_cell_angle_alpha 90.000000
_cell_angle_beta 99.093630
_cell_angle_gamma 90.000000
_cell_volume 1150.196438
_symmetry_space_group_name_H-M "P 21/C"
_symmetry_group_IT_number 14
_symmetry_cell_setting 'monoclinic'
loop_
_space_group_symop_operation_xyz
x,y,z
-x,1/2+y,1/2-z
-x,-y,-z
x,1/2-y,1/2+z
loop_
_atom_site_type_symbol
_atom_site_label
_atom_site_fract_x
_atom_site_fract_y
_atom_site_fract_z
Si Si1 0.810695 0.648350 0.159783
Si Si2 0.107020 0.535076 0.225582
Si Si3 0.409400 0.113056 0.208626
Si Si4 0.393074 0.820619 0.397041
Si Si5 0.417990 0.492548 0.130376
Si Si6 0.830532 0.371726 0.385920
Si Si7 0.685857 0.959817 0.035266
Si Si8 0.942170 0.169382 0.583952
O O1 0.637936 0.462424 0.212696
O O2 0.823685 0.538508 0.287257
O O3 0.859872 0.490404 0.085845
O O4 0.861237 0.852646 0.193301
O O5 0.186786 0.664484 0.181286
O O6 0.060912 0.690080 0.303121
O O7 0.036854 0.446893 0.117353
O O8 0.366873 0.327884 0.193440
O O9 0.513412 0.125982 0.279678
O O10 0.395507 0.036004 0.077021
O O11 0.366501 0.893415 0.520692
O O12 0.351064 0.609466 0.377485
O O13 0.503164 0.856055 0.416960
O O14 0.281914 0.247198 0.415850
O O15 0.767729 0.442204 0.478662
O O16 0.925244 0.311158 0.470965
#
# Coordination Sequence:
#
# PCOD9248234 Si02
#       8
#     4   4   4   4   4   4   4   4
#     4  11  27  48  69 113 149 197 250 309 380 448
#     4  11  23  45  78 110 147 191 255 316 368 447
#     4  10  22  41  71 103 141 191 243 306 380 426
#     4   9  23  44  73 104 146 194 252 305 372 438
#     4   9  20  44  71 108 144 180 256 320 357 433
#     4  11  28  45  75 108 153 196 250 306 371 454
#     4  12  26  47  70 100 155 202 241 300 372 464
#     4  11  23  48  78 108 148 192 251 319 375 437
#
# _framework density 27.821332999999999
#
# number of rings (size 3 to 8) (size 9 to 14) (size 15 to 20)
#    0.750    0.750    2.500    1.125    3.500    3.000 
#    2.250    0.000    0.000    0.000    0.000    0.000 
#    0.000    0.000    0.000    0.000    0.000    0.000 
#
# Total GULP energy -178762.785781 kJ/mol
# GULP energy per Si atom -5586.337056 kJ/mol
# Density = 2.775801 g / cm^3
# Si number density = 27.821333 Si / 1000 Ang^3
#
#
#
# Elastic Constant Matrix: (Units=GPa)
#
#
# Indices 1 2 3 4 5 6 
#
# 1 48.4867 46.5766 41.1836 0.0000 2.8430 0.0000
# 2 46.5766 203.7434 78.2994 0.0000 -2.7676 0.0000
# 3 41.1836 78.2994 147.8016 0.0000 15.3695 0.0000
# 4 0.0000 0.0000 0.0000 57.1603 0.0000 11.8918
# 5 2.8430 -2.7676 15.3695 0.0000 38.5740 0.0000
# 6 0.0000 0.0000 0.0000 11.8918 0.0000 59.5772
#
#
#
# Elastic Compliance Matrix: (Units=1/GPa)
#
#
# Indices 1 2 3 4 5 6 
#
# 1 0.030091 -0.004604 -0.005926 0.000000 -0.000187 0.000000
# 2 -0.004604 0.006992 -0.002617 0.000000 0.001884 0.000000
# 3 -0.005926 -0.002617 0.010200 0.000000 -0.003815 0.000000
# 4 0.000000 0.000000 0.000000 0.018253 0.000000 -0.003643
# 5 -0.000187 0.001884 -0.003815 0.000000 0.027593 0.000000
# 6 0.000000 0.000000 0.000000 -0.003643 0.000000 0.017512
#
#
# Mechanical properties :
#
#
# Convention : Reuss Voigt Hill
#
# Bulk Modulus (GPa) = 47.64410 81.35010 64.49710
# Shear Modulus (GPa) = 34.73842 46.66045 40.69944
#
# Velocity S-wave (km/s) = 3.53742 4.09974 3.82892
# Velocity P-wave (km/s) = 5.81779 7.19126 6.54067
#
# Compressibility (1/GPa) = 0.02098896
#
# Stress axis : x y z
#
# Youngs Moduli (GPa) = 33.23198 143.02089 98.03673
#
# Poissons Ratio (x) = 0.65848 0.58099
# Poissons Ratio (y) = 0.15300 0.25657
# Poissons Ratio (z) = 0.19694 0.37429
#
# Static dielectric constant tensor:
#      x y z
#    x 2.304970 0.000000 -0.044020 
#    y 0.000000 2.180070 0.000000 
#    z -0.044020 0.000000 2.274610 
# 
# From -- ./inp_files/48171.got.cif
#   From: 2010.05.17/outbox.cif.g08.bks.cpg/sg14_25_cif.got.tgz:48171.got - 2010.06.03 17:49:19.
