data_PCOD9248557
_publ_section_title
;
Structure prediction by ZEFSAII (Michael W. Deem and Ramdas Pophale) SiO2 
 PCOD9248557
Probable space group: P 21/C
;
_chemical_formula_sum "Si O2"
_cell_formula_units_Z 24
_cell_length_a 14.954314
_cell_length_b 10.621923
_cell_length_c 14.657164
_cell_angle_alpha 90.000000
_cell_angle_beta 26.745359
_cell_angle_gamma 90.000000
_cell_volume 1047.749111
_symmetry_space_group_name_H-M "P 21/C"
_symmetry_group_IT_number 14
_symmetry_cell_setting 'monoclinic'
loop_
_space_group_symop_operation_xyz
x,y,z
-x,1/2+y,1/2-z
-x,-y,-z
x,1/2-y,1/2+z
loop_
_atom_site_type_symbol
_atom_site_label
_atom_site_fract_x
_atom_site_fract_y
_atom_site_fract_z
Si Si1 0.800915 0.261872 0.096362
Si Si2 0.092365 0.371403 0.455535
Si Si3 0.548588 0.008315 0.301180
Si Si4 0.233102 0.493982 0.777436
Si Si5 0.190107 0.838544 0.619674
Si Si6 0.422130 0.921984 0.931982
O O1 0.006946 0.226236 0.959551
O O2 0.698238 0.369070 0.248993
O O3 0.847350 0.319740 0.954313
O O4 0.648778 0.143220 0.234446
O O5 0.000000 0.500000 0.500000
O O6 0.320310 0.404650 0.265570
O O7 0.994232 0.341791 0.643402
O O8 0.321315 0.963921 0.520790
O O9 0.575463 0.010966 0.167604
O O10 0.355428 0.402919 0.731725
O O11 0.301864 0.490535 0.611518
O O12 0.000000 0.500000 0.000000
O O13 0.314828 0.712154 0.526153
#
# Coordination Sequence:
#
# PCOD9248557 Si02
#       6
#     4   4   4   4   4   4
#     4  10  22  43  62  98 132 163 225 267 320 407
#     4  10  23  43  64  97 130 171 226 271 325 396
#     4  10  23  41  67  95 130 175 218 270 334 388
#     4  11  23  41  65  92 135 172 217 269 338 389
#     4  11  22  42  68  93 137 169 218 278 329 394
#     4  10  23  41  63  98 130 174 221 272 325 406
#
# _framework density 22.906245999999999
#
# number of rings (size 3 to 8) (size 9 to 14) (size 15 to 20)
#    0.000    1.667    3.333    0.000    4.667    2.667 
#    0.000   11.667    0.000    0.000    0.000    0.000 
#    0.000    0.000    0.000    0.000    0.000    0.000 
#
# Total GULP energy -133962.033591 kJ/mol
# GULP energy per Si atom -5581.751400 kJ/mol
# Density = 2.285411 g / cm^3
# Si number density = 22.906246 Si / 1000 Ang^3
#
#
#
# Elastic Constant Matrix: (Units=GPa)
#
#
# Indices 1 2 3 4 5 6 
#
# 1 53.5844 8.1758 15.3476 0.0000 8.4467 0.0000
# 2 8.1758 50.0524 -7.8331 0.0000 -2.6290 0.0000
# 3 15.3476 -7.8331 55.7437 0.0000 -7.1637 0.0000
# 4 0.0000 0.0000 0.0000 25.6409 0.0000 0.6112
# 5 8.4467 -2.6290 -7.1637 0.0000 24.5336 0.0000
# 6 0.0000 0.0000 0.0000 0.6112 0.0000 31.8190
#
#
#
# Elastic Compliance Matrix: (Units=1/GPa)
#
#
# Indices 1 2 3 4 5 6 
#
# 1 0.023914 -0.005899 -0.008886 0.000000 -0.011460 0.000000
# 2 -0.005899 0.022120 0.005504 0.000000 0.006008 0.000000
# 3 -0.008886 0.005504 0.022471 0.000000 0.010211 0.000000
# 4 0.000000 0.000000 0.000000 0.039018 0.000000 -0.000749
# 5 -0.011460 0.006008 0.010211 0.000000 0.048331 0.000000
# 6 0.000000 0.000000 0.000000 -0.000749 0.000000 0.031442
#
#
# Mechanical properties :
#
#
# Convention : Reuss Voigt Hill
#
# Bulk Modulus (GPa) = 20.02206 21.19568 20.60887
# Shear Modulus (GPa) = 22.47152 25.97804 24.22478
#
# Velocity S-wave (km/s) = 3.13552 3.37130 3.25555
# Velocity P-wave (km/s) = 4.67638 4.94242 4.81124
#
# Compressibility (1/GPa) = 0.04994491
#
# Stress axis : x y z
#
# Youngs Moduli (GPa) = 41.81724 45.20874 44.50119
#
# Poissons Ratio (x) = 0.26667 0.39542
# Poissons Ratio (y) = 0.24667 -0.24495
# Poissons Ratio (z) = 0.37157 -0.24885
#
# Static dielectric constant tensor:
#      x y z
#    x 1.903050 0.000000 -0.025970 
#    y 0.000000 1.927460 0.000000 
#    z -0.025970 0.000000 1.823650 
# 
# From -- ./inp_files/47044.got.cif
#   From: 2010.05.17/outbox.cif.g08.bks.cpg/sg14_24_cif.got.tgz:47044.got - 2010.06.03 17:49:19.
