data_PCOD9248757
_publ_section_title
;
Structure prediction by ZEFSAII (Michael W. Deem and Ramdas Pophale) SiO2 
 PCOD9248757
Probable space group: P 21/C
;
_chemical_formula_sum "Si O2"
_cell_formula_units_Z 20
_cell_length_a 8.633857
_cell_length_b 8.851442
_cell_length_c 20.784693
_cell_angle_alpha 90.000000
_cell_angle_beta 149.388666
_cell_angle_gamma 90.000000
_cell_volume 808.836693
_symmetry_space_group_name_H-M "P 21/C"
_symmetry_group_IT_number 14
_symmetry_cell_setting 'monoclinic'
loop_
_space_group_symop_operation_xyz
x,y,z
-x,1/2+y,1/2-z
-x,-y,-z
x,1/2-y,1/2+z
loop_
_atom_site_type_symbol
_atom_site_label
_atom_site_fract_x
_atom_site_fract_y
_atom_site_fract_z
Si Si1 0.195409 0.748987 0.741470
Si Si2 0.585864 0.283574 0.905198
Si Si3 0.761889 0.972657 0.145606
Si Si4 0.041483 0.032612 0.438412
Si Si5 0.723375 0.742224 0.832839
O O1 0.525550 0.736969 0.826518
O O2 0.062295 0.591951 0.718686
O O3 0.193066 0.878025 0.795453
O O4 0.985308 0.811927 0.607550
O O5 0.358727 0.170764 0.857504
O O6 0.460070 0.323163 0.789447
O O7 0.657790 0.436709 0.970213
O O8 0.928766 0.208968 0.028161
O O9 0.500000 0.000000 0.000000
O O10 0.763062 0.925656 0.316281
O O11 0.000000 0.000000 0.500000
#
# Coordination Sequence:
#
# PCOD9248757 Si02
#       5
#     4   4   4   4   4
#     4  12  27  51  73 115 157 205 258 322 399 465
#     4  10  23  47  73 112 144 199 260 320 390 445
#     4  12  31  48  74 113 162 211 251 322 400 480
#     4  10  22  43  76 107 143 192 250 320 384 435
#     4  10  23  44  77 109 146 195 266 326 371 457
#
# _framework density 24.726870999999999
#
# number of rings (size 3 to 8) (size 9 to 14) (size 15 to 20)
#    1.200    0.000    4.000    0.000   11.200    4.800 
#    0.000    0.000    0.000    0.000    0.000    0.000 
#    0.000    0.000    0.000    0.000    0.000    0.000 
#
# Total GULP energy -111594.729880 kJ/mol
# GULP energy per Si atom -5579.736494 kJ/mol
# Density = 2.467059 g / cm^3
# Si number density = 24.726871 Si / 1000 Ang^3
#
#
#
# Elastic Constant Matrix: (Units=GPa)
#
#
# Indices 1 2 3 4 5 6 
#
# 1 101.6890 29.0959 50.2926 0.0000 9.1956 0.0000
# 2 29.0959 54.1064 18.7198 0.0000 9.6077 0.0000
# 3 50.2926 18.7198 127.7203 0.0000 2.8632 0.0000
# 4 0.0000 0.0000 0.0000 48.3501 0.0000 -0.5804
# 5 9.1956 9.6077 2.8632 0.0000 44.6032 0.0000
# 6 0.0000 0.0000 0.0000 -0.5804 0.0000 50.3132
#
#
#
# Elastic Compliance Matrix: (Units=1/GPa)
#
#
# Indices 1 2 3 4 5 6 
#
# 1 0.013833 -0.005610 -0.004595 0.000000 -0.001349 0.000000
# 2 -0.005610 0.022490 -0.001006 0.000000 -0.003623 0.000000
# 3 -0.004595 -0.001006 0.009774 0.000000 0.000537 0.000000
# 4 0.000000 0.000000 0.000000 0.020685 0.000000 0.000239
# 5 -0.001349 -0.003623 0.000537 0.000000 0.023444 0.000000
# 6 0.000000 0.000000 0.000000 0.000239 0.000000 0.019878
#
#
# Mechanical properties :
#
#
# Convention : Reuss Voigt Hill
#
# Bulk Modulus (GPa) = 42.23576 53.30360 47.76968
# Shear Modulus (GPa) = 35.60765 41.01381 38.31073
#
# Velocity S-wave (km/s) = 3.79890 4.07710 3.94046
# Velocity P-wave (km/s) = 6.02994 6.61569 6.32960
#
# Compressibility (1/GPa) = 0.02367662
#
# Stress axis : x y z
#
# Youngs Moduli (GPa) = 72.28874 44.46361 102.30882
#
# Poissons Ratio (x) = 0.24943 0.47008
# Poissons Ratio (y) = 0.40553 0.10294
# Poissons Ratio (z) = 0.33215 0.04474
#
# Static dielectric constant tensor:
#      x y z
#    x 2.043750 0.000000 -0.031040 
#    y 0.000000 2.064110 0.000000 
#    z -0.031040 0.000000 1.996950 
# 
# From -- ./inp_files/64946.got.cif
#   From: 2010.05.17/outbox.cif.g08.bks.cpg/sg14_33_cif.got.tgz:64946.got - 2010.06.03 17:49:19.
