data_PCOD9248639
_publ_section_title
;
Structure prediction by ZEFSAII (Michael W. Deem and Ramdas Pophale) SiO2 
 PCOD9248639
Probable space group: P 21/C
;
_chemical_formula_sum "Si O2"
_cell_formula_units_Z 24
_cell_length_a 5.028521
_cell_length_b 23.619446
_cell_length_c 9.957088
_cell_angle_alpha 90.000000
_cell_angle_beta 52.596449
_cell_angle_gamma 90.000000
_cell_volume 939.439829
_symmetry_space_group_name_H-M "P 21/C"
_symmetry_group_IT_number 14
_symmetry_cell_setting 'monoclinic'
loop_
_space_group_symop_operation_xyz
x,y,z
-x,1/2+y,1/2-z
-x,-y,-z
x,1/2-y,1/2+z
loop_
_atom_site_type_symbol
_atom_site_label
_atom_site_fract_x
_atom_site_fract_y
_atom_site_fract_z
Si Si1 0.636410 0.815519 0.718983
Si Si2 0.352508 0.971725 0.860916
Si Si3 0.704996 0.670022 0.899852
Si Si4 0.847294 0.272533 0.438346
Si Si5 0.397135 0.550845 0.929245
Si Si6 0.076363 0.408836 0.715765
O O1 0.707320 0.844786 0.556303
O O2 0.843372 0.844150 0.777605
O O3 0.795823 0.754740 0.639261
O O4 0.277776 0.808749 0.897280
O O5 0.570498 0.941430 0.908725
O O6 0.212592 0.924127 0.799480
O O7 0.569182 0.020741 0.723418
O O8 0.000000 0.000000 0.000000
O O9 0.600822 0.610234 0.864267
O O10 0.051796 0.692571 0.727011
O O11 0.422728 0.720731 0.985007
O O12 0.500000 0.500000 0.000000
O O13 0.048186 0.568637 0.100967
#
# Coordination Sequence:
#
# PCOD9248639 Si02
#       6
#     4   4   4   4   4   4
#     4  11  22  42  67  95 137 181 232 294 357 414
#     4  11  25  44  68 103 140 178 234 291 352 427
#     4  11  22  44  66  99 138 181 239 292 361 422
#     4  10  24  41  66 100 132 180 246 287 360 426
#     4  10  22  43  67  98 134 183 231 280 362 426
#     4  11  23  44  69  98 137 186 226 289 353 427
#
# _framework density 25.547135999999998
#
# number of rings (size 3 to 8) (size 9 to 14) (size 15 to 20)
#    0.000    1.333    1.667    4.000    2.333    1.333 
#    3.000    0.000    0.000    0.000    0.000    0.000 
#    0.000    0.000    0.000    0.000    0.000    0.000 
#
# Total GULP energy -133812.204874 kJ/mol
# GULP energy per Si atom -5575.508536 kJ/mol
# Density = 2.548899 g / cm^3
# Si number density = 25.547136 Si / 1000 Ang^3
#
#
#
# Elastic Constant Matrix: (Units=GPa)
#
#
# Indices 1 2 3 4 5 6 
#
# 1 67.4041 25.4305 3.9111 0.0000 4.7933 0.0000
# 2 25.4305 126.6388 34.5409 0.0000 1.6128 0.0000
# 3 3.9111 34.5409 120.5614 0.0000 -14.2766 0.0000
# 4 0.0000 0.0000 0.0000 37.6884 0.0000 -2.7819
# 5 4.7933 1.6128 -14.2766 0.0000 29.0639 0.0000
# 6 0.0000 0.0000 0.0000 -2.7819 0.0000 44.5189
#
#
#
# Elastic Compliance Matrix: (Units=1/GPa)
#
#
# Indices 1 2 3 4 5 6 
#
# 1 0.016233 -0.003261 0.000119 0.000000 -0.002438 0.000000
# 2 -0.003261 0.009309 -0.002717 0.000000 -0.001313 0.000000
# 3 0.000119 -0.002717 0.009646 0.000000 0.004869 0.000000
# 4 0.000000 0.000000 0.000000 0.026656 0.000000 0.001666
# 5 -0.002438 -0.001313 0.004869 0.000000 0.037274 0.000000
# 6 0.000000 0.000000 0.000000 0.001666 0.000000 0.022566
#
#
# Mechanical properties :
#
#
# Convention : Reuss Voigt Hill
#
# Bulk Modulus (GPa) = 42.60816 49.15215 45.88015
# Shear Modulus (GPa) = 35.40453 38.96901 37.18677
#
# Velocity S-wave (km/s) = 3.72674 3.90984 3.81939
# Velocity P-wave (km/s) = 5.93570 6.29794 6.11950
#
# Compressibility (1/GPa) = 0.02346969
#
# Stress axis : x y z
#
# Youngs Moduli (GPa) = 61.60397 107.42197 103.67393
#
# Poissons Ratio (x) = 0.35032 -0.01234
# Poissons Ratio (y) = 0.20090 0.28166
# Poissons Ratio (z) = -0.00733 0.29184
#
# Static dielectric constant tensor:
#      x y z
#    x 2.127270 0.000000 0.012130 
#    y 0.000000 2.117500 0.000000 
#    z 0.012130 0.000000 2.079010 
# 
# From -- ./inp_files/21940.got.cif
#   From: 2010.05.17/outbox.cif.g08.bks.cpg/sg14_11_cif.got.tgz:21940.got - 2010.06.03 17:49:19.
