data_PCOD9248094
_publ_section_title
;
Structure prediction by ZEFSAII (Michael W. Deem and Ramdas Pophale) SiO2 
 PCOD9248094
Probable space group: P 21/C
;
_chemical_formula_sum "Si O2"
_cell_formula_units_Z 32
_cell_length_a 11.242581
_cell_length_b 22.874576
_cell_length_c 10.851362
_cell_angle_alpha 90.000000
_cell_angle_beta 144.759250
_cell_angle_gamma 90.000000
_cell_volume 1610.234712
_symmetry_space_group_name_H-M "P 21/C"
_symmetry_group_IT_number 14
_symmetry_cell_setting 'monoclinic'
loop_
_space_group_symop_operation_xyz
x,y,z
-x,1/2+y,1/2-z
-x,-y,-z
x,1/2-y,1/2+z
loop_
_atom_site_type_symbol
_atom_site_label
_atom_site_fract_x
_atom_site_fract_y
_atom_site_fract_z
Si Si1 0.763667 0.851288 0.646123
Si Si2 0.188695 0.647282 0.038095
Si Si3 0.423854 0.680918 0.465286
Si Si4 0.131586 0.509813 0.988047
Si Si5 0.185912 0.222007 0.872450
Si Si6 0.468723 0.296991 0.829469
Si Si7 0.496387 0.420794 0.276224
Si Si8 0.946947 0.040229 0.074618
O O1 0.865570 0.789613 0.696584
O O2 0.597767 0.831935 0.606960
O O3 0.637597 0.880071 0.428092
O O4 0.926006 0.899164 0.829785
O O5 0.232273 0.671315 0.212179
O O6 0.391888 0.662099 0.134587
O O7 0.160757 0.578717 0.009524
O O8 0.000972 0.680381 0.816773
O O9 0.624750 0.699705 0.554327
O O10 0.407401 0.737244 0.539049
O O11 0.453758 0.621124 0.565890
O O12 0.023929 0.488763 0.769135
O O13 0.346228 0.474568 0.181635
O O14 0.000000 0.500000 0.000000
O O15 0.266061 0.218316 0.079645
O O16 0.705587 0.444231 0.389264
O O17 0.000000 0.000000 0.000000
#
# Coordination Sequence:
#
# PCOD9248094 Si02
#       8
#     4   4   4   4   4   4   4   4
#     4  10  24  42  66  96 134 178 224 277 344 412
#     4  11  25  39  69  98 134 171 228 280 342 407
#     4  10  22  42  63 100 127 176 224 277 343 403
#     4  11  26  47  68 104 134 184 234 281 345 410
#     4  10  22  41  64  98 133 172 220 287 334 414
#     4  10  23  40  66  95 134 173 224 274 349 406
#     4  11  24  45  73  92 146 177 228 287 337 408
#     4  11  28  43  69 102 135 185 235 280 351 410
#
# _framework density 19.872879999999999
#
# number of rings (size 3 to 8) (size 9 to 14) (size 15 to 20)
#    0.000    1.500    1.250    1.500    7.000    7.000 
#    0.000    0.000    0.000    0.000    0.000    0.000 
#    0.000    0.000    0.000    0.000    0.000    0.000 
#
# Total GULP energy -178738.657228 kJ/mol
# GULP energy per Si atom -5585.583038 kJ/mol
# Density = 1.982765 g / cm^3
# Si number density = 19.872880 Si / 1000 Ang^3
#
#
#
# Elastic Constant Matrix: (Units=GPa)
#
#
# Indices 1 2 3 4 5 6 
#
# 1 53.9735 38.4417 29.1296 0.0000 -4.5241 0.0000
# 2 38.4417 173.8710 66.0935 0.0000 0.4040 0.0000
# 3 29.1296 66.0935 -29.1852 0.0000 0.6084 0.0000
# 4 0.0000 0.0000 0.0000 26.2373 0.0000 -16.4900
# 5 -4.5241 0.4040 0.6084 0.0000 29.8608 0.0000
# 6 0.0000 0.0000 0.0000 -16.4900 0.0000 -46.9539
#
#
#
# Elastic Compliance Matrix: (Units=1/GPa)
#
#
# Indices 1 2 3 4 5 6 
#
# 1 0.020543 -0.006646 0.005517 0.000000 0.003090 0.000000
# 2 -0.006646 0.005242 0.005213 0.000000 -0.001184 0.000000
# 3 0.005517 0.005213 -0.016929 0.000000 0.001110 0.000000
# 4 0.000000 0.000000 0.000000 0.031222 0.000000 -0.010965
# 5 0.003090 -0.001184 0.001110 0.000000 0.033950 0.000000
# 6 0.000000 0.000000 0.000000 -0.010965 0.000000 -0.017447
#
#
# Mechanical properties :
#
#
# Convention : Reuss Voigt Hill
#
# Bulk Modulus (GPa) = 58.74427 51.77655 55.26041
# Shear Modulus (GPa) = 92.44107 6.16180 49.30143
#
# Velocity S-wave (km/s) = 6.82768 1.76276 4.98621
# Velocity P-wave (km/s) = 9.58021 5.50032 7.81134
#
# Compressibility (1/GPa) = 0.01702294
#
# Stress axis : x y z
#
# Youngs Moduli (GPa) = 48.67896 190.76743 -59.06984
#
# Poissons Ratio (x) = 1.26788 0.32588
# Poissons Ratio (y) = 0.32353 0.30793
# Poissons Ratio (z) = -0.26856 -0.99446
#
# Static dielectric constant tensor:
#      x y z
#    x 1.774670 0.000000 -0.007390 
#    y 0.000000 1.697460 0.000000 
#    z -0.007390 0.000000 1.698080 
# 
# From -- ./inp_files/30764.got.cif
#   From: 2010.05.17/outbox.cif.g08.bks.cpg/sg14_16_cif.got.tgz:30764.got - 2010.06.03 17:49:19.
