data_PCOD9248611
_publ_section_title
;
Structure prediction by ZEFSAII (Michael W. Deem and Ramdas Pophale) SiO2 
 PCOD9248611
Probable space group: P 21/C
;
_chemical_formula_sum "Si O2"
_cell_formula_units_Z 20
_cell_length_a 12.037054
_cell_length_b 4.884994
_cell_length_c 13.744072
_cell_angle_alpha 90.000000
_cell_angle_beta 86.824149
_cell_angle_gamma 90.000000
_cell_volume 806.923130
_symmetry_space_group_name_H-M "P 21/C"
_symmetry_group_IT_number 14
_symmetry_cell_setting 'monoclinic'
loop_
_space_group_symop_operation_xyz
x,y,z
-x,1/2+y,1/2-z
-x,-y,-z
x,1/2-y,1/2+z
loop_
_atom_site_type_symbol
_atom_site_label
_atom_site_fract_x
_atom_site_fract_y
_atom_site_fract_z
Si Si1 0.072221 0.041877 0.741494
Si Si2 0.543138 0.206937 0.689688
Si Si3 0.358581 0.292155 0.054508
Si Si4 0.781105 0.302971 0.411603
Si Si5 0.750686 0.506228 0.612169
O O1 0.130378 0.859119 0.655511
O O2 0.162639 0.128488 0.817249
O O3 0.988280 0.815595 0.791185
O O4 0.479772 0.409980 0.766582
O O5 0.481413 0.244895 0.589048
O O6 0.669728 0.300355 0.673048
O O7 0.323601 0.599962 0.075949
O O8 0.272517 0.092206 0.117282
O O9 0.328862 0.211179 0.945394
O O10 0.816565 0.355391 0.521530
#
# Coordination Sequence:
#
# PCOD9248611 Si02
#       5
#     4   4   4   4   4
#     4  12  27  45  68  97 132 173 227 280 332 381
#     4  12  25  40  70 101 138 175 215 263 330 396
#     4  10  22  43  66  99 134 170 215 262 328 397
#     4  10  24  44  70  94 136 167 224 269 332 388
#     4  10  27  43  71  96 137 174 223 269 328 392
#
# _framework density 24.785512000000001
#
# number of rings (size 3 to 8) (size 9 to 14) (size 15 to 20)
#    1.200    0.000    0.000    5.400    5.600    2.400 
#    0.000    0.000    0.000    0.000    0.000    0.000 
#    0.000    0.000    0.000    0.000    0.000    0.000 
#
# Total GULP energy -111873.314384 kJ/mol
# GULP energy per Si atom -5593.665719 kJ/mol
# Density = 2.472910 g / cm^3
# Si number density = 24.785512 Si / 1000 Ang^3
#
#
#
# Elastic Constant Matrix: (Units=GPa)
#
#
# Indices 1 2 3 4 5 6 
#
# 1 69.0084 1.9162 36.9110 0.0000 14.8947 0.0000
# 2 1.9162 85.0075 10.2444 0.0000 7.6157 0.0000
# 3 36.9110 10.2444 95.5747 0.0000 16.4859 0.0000
# 4 0.0000 0.0000 0.0000 26.1448 0.0000 -4.9038
# 5 14.8947 7.6157 16.4859 0.0000 30.4098 0.0000
# 6 0.0000 0.0000 0.0000 -4.9038 0.0000 27.5321
#
#
#
# Elastic Compliance Matrix: (Units=1/GPa)
#
#
# Indices 1 2 3 4 5 6 
#
# 1 0.019254 0.000897 -0.006472 0.000000 -0.006147 0.000000
# 2 0.000897 0.012138 -0.001155 0.000000 -0.002853 0.000000
# 3 -0.006472 -0.001155 0.013778 0.000000 -0.004010 0.000000
# 4 0.000000 0.000000 0.000000 0.039570 0.000000 0.007048
# 5 -0.006147 -0.002853 -0.004010 0.000000 0.038783 0.000000
# 6 0.000000 0.000000 0.000000 0.007048 0.000000 0.037577
#
#
# Mechanical properties :
#
#
# Convention : Reuss Voigt Hill
#
# Bulk Modulus (GPa) = 31.53617 38.63710 35.08663
# Shear Modulus (GPa) = 27.00775 30.18528 28.59652
#
# Velocity S-wave (km/s) = 3.30458 3.49357 3.40039
# Velocity P-wave (km/s) = 5.22605 5.64764 5.44093
#
# Compressibility (1/GPa) = 0.03170962
#
# Stress axis : x y z
#
# Youngs Moduli (GPa) = 51.93597 82.38422 72.57936
#
# Poissons Ratio (x) = -0.07386 0.46973
# Poissons Ratio (y) = -0.04657 0.08385
# Poissons Ratio (z) = 0.33612 0.09517
#
# Static dielectric constant tensor:
#      x y z
#    x 1.968860 0.000000 -0.052830 
#    y 0.000000 1.931380 0.000000 
#    z -0.052830 0.000000 2.016560 
# 
# From -- ./inp_files/42444.got.cif
#   From: 2010.05.17/outbox.cif.g08.bks.cpg/sg14_22_cif.got.tgz:42444.got - 2010.06.03 17:49:19.
