data_PCOD9248854
_publ_section_title
;
Structure prediction by ZEFSAII (Michael W. Deem and Ramdas Pophale) SiO2 
 PCOD9248854
Probable space group: P 21/C
;
_chemical_formula_sum "Si O2"
_cell_formula_units_Z 28
_cell_length_a 7.244506
_cell_length_b 11.312126
_cell_length_c 24.797948
_cell_angle_alpha 90.000000
_cell_angle_beta 142.467725
_cell_angle_gamma 90.000000
_cell_volume 1238.039550
_symmetry_space_group_name_H-M "P 21/C"
_symmetry_group_IT_number 14
_symmetry_cell_setting 'monoclinic'
loop_
_space_group_symop_operation_xyz
x,y,z
-x,1/2+y,1/2-z
-x,-y,-z
x,1/2-y,1/2+z
loop_
_atom_site_type_symbol
_atom_site_label
_atom_site_fract_x
_atom_site_fract_y
_atom_site_fract_z
Si Si1 0.301171 0.686932 0.241051
Si Si2 0.221625 0.475814 0.602543
Si Si3 0.243086 0.571536 0.411832
Si Si4 0.656154 0.561169 0.106653
Si Si5 0.069416 0.587207 0.744425
Si Si6 0.647228 0.816184 0.240174
Si Si7 0.761619 0.167043 0.566023
O O1 0.511610 0.622750 0.334520
O O2 0.979529 0.618753 0.164431
O O3 0.474014 0.701354 0.223534
O O4 0.228966 0.820099 0.242555
O O5 0.389564 0.594001 0.661264
O O6 0.000000 0.500000 0.500000
O O7 0.022595 0.431954 0.606189
O O8 0.500000 0.500000 0.500000
O O9 0.160359 0.496428 0.340705
O O10 0.322470 0.708687 0.426369
O O11 0.705050 0.509298 0.177307
O O12 0.612110 0.349952 0.972379
O O13 0.613581 0.437534 0.065796
O O14 0.885728 0.669059 0.745412
O O15 0.877048 0.848237 0.342873
#
# Coordination Sequence:
#
# PCOD9248854 Si02
#       7
#     4   4   4   4   4   4   4
#     4  12  24  48  72 106 150 190 240 313 368 435
#     4  12  26  46  70 111 149 191 252 302 364 445
#     4  12  25  43  74 107 146 189 250 306 373 440
#     4  10  24  42  70 103 143 191 245 293 376 439
#     4  11  25  44  76 106 142 194 248 300 379 435
#     4  11  24  47  71 102 147 187 238 307 363 442
#     4  10  22  44  69 103 142 190 237 301 366 443
#
# _framework density 22.616401
#
# number of rings (size 3 to 8) (size 9 to 14) (size 15 to 20)
#    0.000    0.857    5.714    1.714    4.000    0.000 
#    2.571    0.714    0.000    0.000    0.000    0.000 
#    0.000    0.000    0.000    0.000    0.000    0.000 
#
# Total GULP energy -156044.484823 kJ/mol
# GULP energy per Si atom -5573.017315 kJ/mol
# Density = 2.256493 g / cm^3
# Si number density = 22.616401 Si / 1000 Ang^3
#
#
#
# Elastic Constant Matrix: (Units=GPa)
#
#
# Indices 1 2 3 4 5 6 
#
# 1 69.7491 21.1297 11.1988 0.0000 -5.9883 0.0000
# 2 21.1297 129.7431 68.3949 0.0000 0.2587 0.0000
# 3 11.1988 68.3949 144.0710 0.0000 14.8264 0.0000
# 4 0.0000 0.0000 0.0000 38.2372 0.0000 1.8286
# 5 -5.9883 0.2587 14.8264 0.0000 27.8267 0.0000
# 6 0.0000 0.0000 0.0000 1.8286 0.0000 29.0034
#
#
#
# Elastic Compliance Matrix: (Units=1/GPa)
#
#
# Indices 1 2 3 4 5 6 
#
# 1 0.015409 -0.002254 -0.000499 0.000000 0.003603 0.000000
# 2 -0.002254 0.010798 -0.005174 0.000000 0.002172 0.000000
# 3 -0.000499 -0.005174 0.009990 0.000000 -0.005382 0.000000
# 4 0.000000 0.000000 0.000000 0.026232 0.000000 -0.001654
# 5 0.003603 0.002172 -0.005382 0.000000 0.039559 0.000000
# 6 0.000000 0.000000 0.000000 -0.001654 0.000000 0.034583
#
#
# Mechanical properties :
#
#
# Convention : Reuss Voigt Hill
#
# Bulk Modulus (GPa) = 49.15542 60.55667 54.85604
# Shear Modulus (GPa) = 31.40578 35.20278 33.30428
#
# Velocity S-wave (km/s) = 3.73047 3.94955 3.84157
# Velocity P-wave (km/s) = 6.35113 6.90161 6.63209
#
# Compressibility (1/GPa) = 0.02034364
#
# Stress axis : x y z
#
# Youngs Moduli (GPa) = 64.89613 92.60972 100.09909
#
# Poissons Ratio (x) = 0.20873 0.04990
# Poissons Ratio (y) = 0.14627 0.51796
# Poissons Ratio (z) = 0.03235 0.47920
#
# Static dielectric constant tensor:
#      x y z
#    x 1.834680 0.000000 0.037960 
#    y 0.000000 1.861780 0.000000 
#    z 0.037960 0.000000 1.988740 
# 
# From -- ./inp_files/72305.got.cif
#   From: 2010.05.17/outbox.cif.g08.bks.cpg/sg14_37_cif.got.tgz:72305.got - 2010.06.03 17:49:19.
