data_PCOD9248975
_publ_section_title
;
Structure prediction by ZEFSAII (Michael W. Deem and Ramdas Pophale) SiO2 
 PCOD9248975
Probable space group: P 21/C
;
_chemical_formula_sum "Si O2"
_cell_formula_units_Z 28
_cell_length_a 11.367847
_cell_length_b 12.425223
_cell_length_c 7.193583
_cell_angle_alpha 90.000000
_cell_angle_beta 76.873789
_cell_angle_gamma 90.000000
_cell_volume 989.531515
_symmetry_space_group_name_H-M "P 21/C"
_symmetry_group_IT_number 14
_symmetry_cell_setting 'monoclinic'
loop_
_space_group_symop_operation_xyz
x,y,z
-x,1/2+y,1/2-z
-x,-y,-z
x,1/2-y,1/2+z
loop_
_atom_site_type_symbol
_atom_site_label
_atom_site_fract_x
_atom_site_fract_y
_atom_site_fract_z
Si Si1 0.827254 0.664734 0.109620
Si Si2 0.918956 0.356001 0.147080
Si Si3 0.347174 0.910108 0.333471
Si Si4 0.374884 0.401133 0.561127
Si Si5 0.761393 0.900868 0.239479
Si Si6 0.400841 0.760399 0.002599
Si Si7 0.156512 0.624542 0.434244
O O1 0.746175 0.625416 0.963006
O O2 0.961324 0.626515 0.014067
O O3 0.760376 0.621384 0.314197
O O4 0.827351 0.792770 0.141669
O O5 0.797638 0.410129 0.111961
O O6 0.893855 0.226813 0.160103
O O7 0.927438 0.394035 0.355627
O O8 0.389166 0.871156 0.519031
O O9 0.404265 0.995454 0.176529
O O10 0.388568 0.793649 0.233314
O O11 0.466916 0.308601 0.581020
O O12 0.356881 0.409818 0.347564
O O13 0.825981 0.014565 0.181300
O O14 0.282524 0.833713 0.984107
#
# Coordination Sequence:
#
# PCOD9248975 Si02
#       7
#     4   4   4   4   4   4   4
#     4  12  28  43  72 102 147 193 236 294 359 427
#     4  10  22  45  67 103 140 186 238 296 346 428
#     4  10  23  46  71 104 138 189 239 293 363 421
#     4  12  26  48  71 107 146 185 240 297 361 429
#     4  12  26  48  68 110 144 192 238 291 367 425
#     4  10  23  42  74  97 138 187 228 301 356 424
#     4  10  23  46  73 101 143 187 242 297 359 420
#
# _framework density 28.296219000000001
#
# number of rings (size 3 to 8) (size 9 to 14) (size 15 to 20)
#    0.000    1.143    4.286    1.286    2.000    7.429 
#    0.000    1.429    0.000    0.000    0.000    0.000 
#    0.000    0.000    0.000    0.000    0.000    0.000 
#
# Total GULP energy -156730.626073 kJ/mol
# GULP energy per Si atom -5597.522360 kJ/mol
# Density = 2.823182 g / cm^3
# Si number density = 28.296219 Si / 1000 Ang^3
#
#
#
# Elastic Constant Matrix: (Units=GPa)
#
#
# Indices 1 2 3 4 5 6 
#
# 1 82.1602 21.5754 1.6153 0.0000 -8.1666 0.0000
# 2 21.5754 97.5636 2.1795 0.0000 -0.1626 0.0000
# 3 1.6153 2.1795 56.3172 0.0000 -2.7981 0.0000
# 4 0.0000 0.0000 0.0000 49.0669 0.0000 18.2672
# 5 -8.1666 -0.1626 -2.7981 0.0000 47.8869 0.0000
# 6 0.0000 0.0000 0.0000 18.2672 0.0000 1.1965
#
#
#
# Elastic Compliance Matrix: (Units=1/GPa)
#
#
# Indices 1 2 3 4 5 6 
#
# 1 0.013158 -0.002903 -0.000155 0.000000 0.002225 0.000000
# 2 -0.002903 0.010899 -0.000362 0.000000 -0.000479 0.000000
# 3 -0.000155 -0.000362 0.017825 0.000000 0.001014 0.000000
# 4 0.000000 0.000000 0.000000 -0.004351 0.000000 0.066431
# 5 0.002225 -0.000479 0.001014 0.000000 0.021320 0.000000
# 6 0.000000 0.000000 0.000000 0.066431 0.000000 -0.178438
#
#
# Mechanical properties :
#
#
# Convention : Reuss Voigt Hill
#
# Bulk Modulus (GPa) = 28.53620 31.86459 30.20040
# Shear Modulus (GPa) = -49.47191 33.67480 -7.89856
#
# Velocity S-wave (km/s) = -4.18587 3.45350 -1.67256
# Velocity P-wave (km/s) = 3.64079 5.21418 2.63935
#
# Compressibility (1/GPa) = 0.03504321
#
# Stress axis : x y z
#
# Youngs Moduli (GPa) = 76.00074 91.75243 56.09975
#
# Poissons Ratio (x) = 0.26632 0.00867
# Poissons Ratio (y) = 0.22060 0.02033
# Poissons Ratio (z) = 0.01174 0.03325
#
# Static dielectric constant tensor:
#      x y z
#    x 2.259380 0.000000 0.121860 
#    y 0.000000 -0.444340 0.000000 
#    z 0.121860 0.000000 2.428380 
# 
# From -- ./inp_files/15667.got.cif
#   From: 2010.05.17/outbox.cif.g08.bks.cpg/sg14_8_cif.got.tgz:15667.got - 2010.06.03 17:49:19.
