data_PCOD9248471
_publ_section_title
;
Structure prediction by ZEFSAII (Michael W. Deem and Ramdas Pophale) SiO2 
 PCOD9248471
Probable space group: P 21/C
;
_chemical_formula_sum "Si O2"
_cell_formula_units_Z 26
_cell_length_a 5.685670
_cell_length_b 8.810282
_cell_length_c 22.860718
_cell_angle_alpha 90.000000
_cell_angle_beta 61.934000
_cell_angle_gamma 90.000000
_cell_volume 1010.485029
_symmetry_space_group_name_H-M "P 21/C"
_symmetry_group_IT_number 14
_symmetry_cell_setting 'monoclinic'
loop_
_space_group_symop_operation_xyz
x,y,z
-x,1/2+y,1/2-z
-x,-y,-z
x,1/2-y,1/2+z
loop_
_atom_site_type_symbol
_atom_site_label
_atom_site_fract_x
_atom_site_fract_y
_atom_site_fract_z
Si Si1 0.248171 0.634441 0.785489
Si Si2 0.892745 0.401001 0.567837
Si Si3 0.367683 0.466593 0.881921
Si Si4 0.808147 0.677401 0.660224
Si Si5 0.062380 0.860106 0.723457
Si Si6 0.535892 0.669823 0.470024
Si Si7 0.500000 0.000000 0.500000
O O1 0.231046 0.587574 0.854743
O O2 0.543538 0.677802 0.730940
O O3 0.167181 0.481281 0.760550
O O4 0.069016 0.772663 0.783640
O O5 0.838370 0.517794 0.626281
O O6 0.615206 0.335042 0.574894
O O7 0.000000 0.500000 0.500000
O O8 0.146567 0.303178 0.559668
O O9 0.227758 0.306182 0.884811
O O10 0.381545 0.504524 0.947557
O O11 0.666063 0.448877 0.821493
O O12 0.039027 0.729420 0.676926
O O13 0.500000 0.500000 0.500000
O O14 0.421217 0.815492 0.517356
#
# Coordination Sequence:
#
# PCOD9248471 Si02
#       7
#     4   4   4   4   4   4   2
#     4  10  22  45  70 106 139 191 248 304 384 457
#     4  10  22  42  70 107 144 193 252 305 374 462
#     4  10  23  45  69 104 142 194 248 303 389 456
#     4  10  22  42  75  99 148 192 243 316 383 448
#     4  10  22  43  72  98 143 191 237 314 383 450
#     4  10  24  46  72 107 149 195 256 308 380 456
#     4  12  26  50  74 104 158 200 252 322 384 468
#
# _framework density 25.730218000000001
#
# number of rings (size 3 to 8) (size 9 to 14) (size 15 to 20)
#    0.000    1.846    0.000    2.769    8.615    0.615 
#   19.385    0.000    0.000    0.000    0.000    0.000 
#    0.000    0.000    0.000    0.000    0.000    0.000 
#
# Total GULP energy -144984.360458 kJ/mol
# GULP energy per Si atom -5576.321556 kJ/mol
# Density = 2.567165 g / cm^3
# Si number density = 25.730218 Si / 1000 Ang^3
#
#
#
# Elastic Constant Matrix: (Units=GPa)
#
#
# Indices 1 2 3 4 5 6 
#
# 1 151.1668 45.0693 39.5050 0.0000 32.0661 0.0000
# 2 45.0693 117.4464 52.9017 0.0000 22.7103 0.0000
# 3 39.5050 52.9017 66.2932 0.0000 43.0136 0.0000
# 4 0.0000 0.0000 0.0000 41.2044 0.0000 16.4646
# 5 32.0661 22.7103 43.0136 0.0000 50.1684 0.0000
# 6 0.0000 0.0000 0.0000 16.4646 0.0000 46.0816
#
#
#
# Elastic Compliance Matrix: (Units=1/GPa)
#
#
# Indices 1 2 3 4 5 6 
#
# 1 0.008221 -0.002009 -0.001074 0.000000 -0.003424 0.000000
# 2 -0.002009 0.014948 -0.016168 0.000000 0.008380 0.000000
# 3 -0.001074 -0.016168 0.052812 0.000000 -0.037275 0.000000
# 4 0.000000 0.000000 0.000000 0.028311 0.000000 -0.010115
# 5 -0.003424 0.008380 -0.037275 0.000000 0.050287 0.000000
# 6 0.000000 0.000000 0.000000 -0.010115 0.000000 0.025315
#
#
# Mechanical properties :
#
#
# Convention : Reuss Voigt Hill
#
# Bulk Modulus (GPa) = 26.68217 67.76203 47.22210
# Shear Modulus (GPa) = 21.65538 40.65290 31.15414
#
# Velocity S-wave (km/s) = 2.90424 3.97919 3.48343
# Velocity P-wave (km/s) = 4.65173 6.89237 5.87977
#
# Compressibility (1/GPa) = 0.03747822
#
# Stress axis : x y z
#
# Youngs Moduli (GPa) = 121.63590 66.89978 18.93505
#
# Poissons Ratio (x) = 0.13439 0.02034
# Poissons Ratio (y) = 0.24434 0.30615
# Poissons Ratio (z) = 0.13067 1.08166
#
# Static dielectric constant tensor:
#      x y z
#    x 2.067890 0.000000 0.007530 
#    y 0.000000 2.019660 0.000000 
#    z 0.007530 0.000000 2.005080 
# 
# From -- ./inp_files/71003.got.cif
#   From: 2010.05.17/outbox.cif.g08.bks.cpg/sg14_36_cif.got.tgz:71003.got - 2010.06.03 17:49:19.
