data_PCOD9248882
_publ_section_title
;
Structure prediction by ZEFSAII (Michael W. Deem and Ramdas Pophale) SiO2 
 PCOD9248882
Probable space group: P 21/C
;
_chemical_formula_sum "Si O2"
_cell_formula_units_Z 16
_cell_length_a 7.210573
_cell_length_b 20.473752
_cell_length_c 5.622714
_cell_angle_alpha 90.000000
_cell_angle_beta 42.246521
_cell_angle_gamma 90.000000
_cell_volume 558.072269
_symmetry_space_group_name_H-M "P 21/C"
_symmetry_group_IT_number 14
_symmetry_cell_setting 'monoclinic'
loop_
_space_group_symop_operation_xyz
x,y,z
-x,1/2+y,1/2-z
-x,-y,-z
x,1/2-y,1/2+z
loop_
_atom_site_type_symbol
_atom_site_label
_atom_site_fract_x
_atom_site_fract_y
_atom_site_fract_z
Si Si1 0.755657 0.957851 0.344260
Si Si2 0.110512 0.896752 0.347365
Si Si3 0.911088 0.750661 0.043788
Si Si4 0.352534 0.868278 0.612721
O O1 0.684770 0.884786 0.298138
O O2 0.852450 0.942740 0.522146
O O3 0.500000 0.000000 0.500000
O O4 0.000000 0.000000 0.000000
O O5 0.022073 0.822260 0.438548
O O6 0.253969 0.904470 0.464155
O O7 0.291191 0.897507 0.934748
O O8 0.747906 0.750385 0.948877
O O9 0.174919 0.800496 0.784225
#
# Coordination Sequence:
#
# PCOD9248882 Si02
#       4
#     4   4   4   4
#     4  12  26  48  74 104 146 194 240 292 352 430
#     4  10  22  44  70 104 140 186 235 294 354 420
#     4   8  16  36  66  98 136 174 228 286 354 410
#     4  10  22  44  70 104 140 186 235 294 354 420
#
# _framework density 28.670123
#
# number of rings (size 3 to 8) (size 9 to 14) (size 15 to 20)
#    0.000    2.000    2.500    0.000    0.000    4.000 
#    0.000   22.500    0.000    0.000    0.000    0.000 
#    0.000    0.000    0.000    0.000    0.000    0.000 
#
# Total GULP energy -89135.038229 kJ/mol
# GULP energy per Si atom -5570.939889 kJ/mol
# Density = 2.860487 g / cm^3
# Si number density = 28.670123 Si / 1000 Ang^3
#
#
#
# Elastic Constant Matrix: (Units=GPa)
#
#
# Indices 1 2 3 4 5 6 
#
# 1 243.9640 52.1448 79.9011 0.0000 30.6220 0.0000
# 2 52.1448 95.6070 13.1864 0.0000 -11.5076 0.0000
# 3 79.9011 13.1864 112.5151 0.0000 29.1139 0.0000
# 4 0.0000 0.0000 0.0000 33.1575 0.0000 13.3819
# 5 30.6220 -11.5076 29.1139 0.0000 80.2147 0.0000
# 6 0.0000 0.0000 0.0000 13.3819 0.0000 55.9725
#
#
#
# Elastic Compliance Matrix: (Units=1/GPa)
#
#
# Indices 1 2 3 4 5 6 
#
# 1 0.006106 -0.003007 -0.003607 0.000000 -0.001453 0.000000
# 2 -0.003007 0.012470 -0.000095 0.000000 0.002971 0.000000
# 3 -0.003607 -0.000095 0.012259 0.000000 -0.003086 0.000000
# 4 0.000000 0.000000 0.000000 0.033380 0.000000 -0.007980
# 5 -0.001453 0.002971 -0.003086 0.000000 0.014568 0.000000
# 6 0.000000 0.000000 0.000000 -0.007980 0.000000 0.019774
#
#
# Mechanical properties :
#
#
# Convention : Reuss Voigt Hill
#
# Bulk Modulus (GPa) = 57.41823 82.50564 69.96193
# Shear Modulus (GPa) = 42.45178 54.32587 48.38882
#
# Velocity S-wave (km/s) = 3.85216 4.35772 4.11272
# Velocity P-wave (km/s) = 6.31317 7.35933 6.85623
#
# Compressibility (1/GPa) = 0.01741607
#
# Stress axis : x y z
#
# Youngs Moduli (GPa) = 163.78402 80.18951 81.57253
#
# Poissons Ratio (x) = 0.24116 0.29426
# Poissons Ratio (y) = 0.49256 0.00773
# Poissons Ratio (z) = 0.59083 0.00760
#
# Static dielectric constant tensor:
#      x y z
#    x 2.262170 0.000000 -0.143540 
#    y 0.000000 2.444130 0.000000 
#    z -0.143540 0.000000 2.535600 
# 
# From -- ./inp_files/339.got.cif
#   From: 2010.05.17/outbox.cif.g08.bks.cpg/sg14_1_cif.got.tgz:339.got - 2010.06.03 17:49:19.
