data_PCOD9248677
_publ_section_title
;
Structure prediction by ZEFSAII (Michael W. Deem and Ramdas Pophale) SiO2 
 PCOD9248677
Probable space group: P 21/C
;
_chemical_formula_sum "Si O2"
_cell_formula_units_Z 24
_cell_length_a 12.860001
_cell_length_b 13.775152
_cell_length_c 10.067580
_cell_angle_alpha 90.000000
_cell_angle_beta 34.374044
_cell_angle_gamma 90.000000
_cell_volume 1006.927263
_symmetry_space_group_name_H-M "P 21/C"
_symmetry_group_IT_number 14
_symmetry_cell_setting 'monoclinic'
loop_
_space_group_symop_operation_xyz
x,y,z
-x,1/2+y,1/2-z
-x,-y,-z
x,1/2-y,1/2+z
loop_
_atom_site_type_symbol
_atom_site_label
_atom_site_fract_x
_atom_site_fract_y
_atom_site_fract_z
Si Si1 0.864329 0.438873 0.406067
Si Si2 0.533272 0.031391 0.112972
Si Si3 0.719917 0.297905 0.761445
Si Si4 0.482849 0.819449 0.253316
Si Si5 0.244087 0.337586 0.066379
Si Si6 0.932055 0.898684 0.003604
O O1 0.741657 0.430722 0.405689
O O2 0.724417 0.396361 0.666678
O O3 0.910298 0.552579 0.383151
O O4 0.042625 0.369830 0.226570
O O5 0.501739 0.934137 0.230266
O O6 0.388224 0.106177 0.323778
O O7 0.500000 0.000000 0.000000
O O8 0.655841 0.219516 0.717522
O O9 0.920645 0.313429 0.623025
O O10 0.588655 0.291608 0.025827
O O11 0.681782 0.770961 0.017957
O O12 0.241799 0.369056 0.223905
O O13 0.000000 0.000000 0.000000
#
# Coordination Sequence:
#
# PCOD9248677 Si02
#       6
#     4   4   4   4   4   4
#     4  10  22  47  73  98 137 190 245 304 350 435
#     4  12  26  45  69 103 151 188 241 298 371 424
#     4  10  22  43  69 100 142 181 241 292 358 423
#     4  12  24  41  72 107 142 195 235 299 366 428
#     4  10  22  45  67 101 141 179 243 295 354 429
#     4   8  18  41  69  97 126 181 239 288 350 420
#
# _framework density 23.834890999999999
#
# number of rings (size 3 to 8) (size 9 to 14) (size 15 to 20)
#    0.000    2.000    1.667    4.000    2.333    2.000 
#   12.000    3.333    0.000    0.000    0.000    0.000 
#    0.000    0.000    0.000    0.000    0.000    0.000 
#
# Total GULP energy -133733.663293 kJ/mol
# GULP energy per Si atom -5572.235971 kJ/mol
# Density = 2.378064 g / cm^3
# Si number density = 23.834891 Si / 1000 Ang^3
#
#
#
# Elastic Constant Matrix: (Units=GPa)
#
#
# Indices 1 2 3 4 5 6 
#
# 1 96.0548 -6.9006 35.5013 0.0000 -16.7056 0.0000
# 2 -6.9006 81.4422 10.5680 0.0000 -10.8112 0.0000
# 3 35.5013 10.5680 81.9493 0.0000 -15.6669 0.0000
# 4 0.0000 0.0000 0.0000 34.3311 0.0000 -13.0158
# 5 -16.7056 -10.8112 -15.6669 0.0000 21.2862 0.0000
# 6 0.0000 0.0000 0.0000 -13.0158 0.0000 25.2374
#
#
#
# Elastic Compliance Matrix: (Units=1/GPa)
#
#
# Indices 1 2 3 4 5 6 
#
# 1 0.013924 0.002982 -0.004699 0.000000 0.008984 0.000000
# 2 0.002982 0.013822 -0.001495 0.000000 0.008260 0.000000
# 3 -0.004699 -0.001495 0.015805 0.000000 0.007185 0.000000
# 4 0.000000 0.000000 0.000000 0.036208 0.000000 0.018674
# 5 0.008984 0.008260 0.007185 0.000000 0.063513 0.000000
# 6 0.000000 0.000000 0.000000 0.018674 0.000000 0.049254
#
#
# Mechanical properties :
#
#
# Convention : Reuss Voigt Hill
#
# Bulk Modulus (GPa) = 26.93497 37.53152 32.23324
# Shear Modulus (GPa) = 23.66014 30.85611 27.25813
#
# Velocity S-wave (km/s) = 3.15408 3.60193 3.38542
# Velocity P-wave (km/s) = 4.95878 5.75145 5.36976
#
# Compressibility (1/GPa) = 0.03712646
#
# Stress axis : x y z
#
# Youngs Moduli (GPa) = 71.81740 72.34924 63.27172
#
# Poissons Ratio (x) = -0.21576 0.29732
# Poissons Ratio (y) = -0.21417 0.09460
# Poissons Ratio (z) = 0.33748 0.10818
#
# Static dielectric constant tensor:
#      x y z
#    x 2.182120 0.000000 -0.039400 
#    y 0.000000 1.987200 0.000000 
#    z -0.039400 0.000000 1.899390 
# 
# From -- ./inp_files/32698.got.cif
#   From: 2010.05.17/outbox.cif.g08.bks.cpg/sg14_17_cif.got.tgz:32698.got - 2010.06.03 17:49:19.
