data_PCOD9248481
_publ_section_title
;
Structure prediction by ZEFSAII (Michael W. Deem and Ramdas Pophale) SiO2 
 PCOD9248481
Probable space group: P 21/C
;
_chemical_formula_sum "Si O2"
_cell_formula_units_Z 24
_cell_length_a 12.378706
_cell_length_b 7.006685
_cell_length_c 12.759715
_cell_angle_alpha 90.000000
_cell_angle_beta 84.430317
_cell_angle_gamma 90.000000
_cell_volume 1101.472378
_symmetry_space_group_name_H-M "P 21/C"
_symmetry_group_IT_number 14
_symmetry_cell_setting 'monoclinic'
loop_
_space_group_symop_operation_xyz
x,y,z
-x,1/2+y,1/2-z
-x,-y,-z
x,1/2-y,1/2+z
loop_
_atom_site_type_symbol
_atom_site_label
_atom_site_fract_x
_atom_site_fract_y
_atom_site_fract_z
Si Si1 0.009481 0.401286 0.112574
Si Si2 0.494652 0.338464 0.357924
Si Si3 0.663405 0.587461 0.437380
Si Si4 0.143777 0.588402 0.280104
Si Si5 0.878134 0.576280 0.504281
Si Si6 0.370250 0.474680 0.168734
O O1 0.054427 0.535205 0.200413
O O2 0.902934 0.281461 0.160032
O O3 0.103316 0.251802 0.075117
O O4 0.000000 0.500000 0.000000
O O5 0.598991 0.475258 0.354817
O O6 0.410036 0.411080 0.452079
O O7 0.433192 0.363168 0.255052
O O8 0.542606 0.130112 0.378539
O O9 0.775300 0.481582 0.457824
O O10 0.668915 0.809943 0.405781
O O11 0.149466 0.422717 0.369660
O O12 0.263715 0.587101 0.220562
O O13 0.000000 0.500000 0.500000
#
# Coordination Sequence:
#
# PCOD9248481 Si02
#       6
#     4   4   4   4   4   4
#     4  11  24  44  66 101 133 183 229 283 355 423
#     4  11  25  42  69  99 138 182 233 282 347 409
#     4  11  23  46  69  95 142 182 228 289 348 410
#     4  11  24  44  69  97 140 179 236 289 351 422
#     4  10  22  42  70  96 137 175 223 286 349 414
#     4  12  23  44  67 104 132 183 233 288 344 417
#
# _framework density 21.789017000000001
#
# number of rings (size 3 to 8) (size 9 to 14) (size 15 to 20)
#    0.000    1.000    5.000    1.500    0.000    5.333 
#    6.000    0.000    0.000    0.000    0.000    0.000 
#    0.000    0.000    0.000    0.000    0.000    0.000 
#
# Total GULP energy -133642.678254 kJ/mol
# GULP energy per Si atom -5568.444927 kJ/mol
# Density = 2.173942 g / cm^3
# Si number density = 21.789017 Si / 1000 Ang^3
#
#
#
# Elastic Constant Matrix: (Units=GPa)
#
#
# Indices 1 2 3 4 5 6 
#
# 1 138.1700 19.9609 15.1789 0.0000 23.6735 0.0000
# 2 19.9609 53.9986 -0.8532 0.0000 6.7349 0.0000
# 3 15.1789 -0.8532 36.1296 0.0000 12.5575 0.0000
# 4 0.0000 0.0000 0.0000 42.8247 0.0000 -7.4709
# 5 23.6735 6.7349 12.5575 0.0000 26.7534 0.0000
# 6 0.0000 0.0000 0.0000 -7.4709 0.0000 25.1321
#
#
#
# Elastic Compliance Matrix: (Units=1/GPa)
#
#
# Indices 1 2 3 4 5 6 
#
# 1 0.008882 -0.002495 -0.001526 0.000000 -0.006515 0.000000
# 2 -0.002495 0.020017 0.002993 0.000000 -0.004237 0.000000
# 3 -0.001526 0.002993 0.033677 0.000000 -0.015210 0.000000
# 4 0.000000 0.000000 0.000000 0.024628 0.000000 0.007321
# 5 -0.006515 -0.004237 -0.015210 0.000000 0.051349 0.000000
# 6 0.000000 0.000000 0.000000 0.007321 0.000000 0.041966
#
#
# Mechanical properties :
#
#
# Convention : Reuss Voigt Hill
#
# Bulk Modulus (GPa) = 16.52335 32.98570 24.75452
# Shear Modulus (GPa) = 24.66129 31.87617 28.26873
#
# Velocity S-wave (km/s) = 3.36791 3.82900 3.60583
# Velocity P-wave (km/s) = 4.76692 5.89235 5.35926
#
# Compressibility (1/GPa) = 0.06052042
#
# Stress axis : x y z
#
# Youngs Moduli (GPa) = 112.59039 49.95782 29.69426
#
# Poissons Ratio (x) = 0.12463 0.04531
# Poissons Ratio (y) = 0.28088 -0.08888
# Poissons Ratio (z) = 0.17180 -0.14954
#
# Static dielectric constant tensor:
#      x y z
#    x 1.646500 0.000000 -0.204010 
#    y 0.000000 1.876610 0.000000 
#    z -0.204010 0.000000 1.613870 
# 
# From -- ./inp_files/28109.got.cif
#   From: 2010.05.17/outbox.cif.g08.bks.cpg/sg14_15_cif.got.tgz:28109.got - 2010.06.03 17:49:19.
