data_PCOD9248511
_publ_section_title
;
Structure prediction by ZEFSAII (Michael W. Deem and Ramdas Pophale) SiO2 
 PCOD9248511
Probable space group: P 21/C
;
_chemical_formula_sum "Si O2"
_cell_formula_units_Z 28
_cell_length_a 9.270107
_cell_length_b 7.101776
_cell_length_c 17.962510
_cell_angle_alpha 90.000000
_cell_angle_beta 88.567274
_cell_angle_gamma 90.000000
_cell_volume 1182.178198
_symmetry_space_group_name_H-M "P 21/C"
_symmetry_group_IT_number 14
_symmetry_cell_setting 'monoclinic'
loop_
_space_group_symop_operation_xyz
x,y,z
-x,1/2+y,1/2-z
-x,-y,-z
x,1/2-y,1/2+z
loop_
_atom_site_type_symbol
_atom_site_label
_atom_site_fract_x
_atom_site_fract_y
_atom_site_fract_z
Si Si1 0.125848 0.707615 0.324503
Si Si2 0.149216 0.332558 0.253854
Si Si3 0.934948 0.752406 0.472621
Si Si4 0.340455 0.566983 0.144520
Si Si5 0.798191 0.371209 0.447527
Si Si6 0.350083 0.477036 0.818815
Si Si7 0.302877 0.973548 0.486169
O O1 0.149603 0.486029 0.318999
O O2 0.010752 0.761985 0.261918
O O3 0.040573 0.759982 0.400441
O O4 0.274083 0.820217 0.311689
O O5 0.215803 0.443248 0.182637
O O6 0.253602 0.162610 0.272357
O O7 0.811581 0.594080 0.456011
O O8 0.034649 0.686515 0.540311
O O9 0.853305 0.943756 0.490007
O O10 0.274099 0.772859 0.124012
O O11 0.479947 0.551124 0.195086
O O12 0.386410 0.484219 0.062194
O O13 0.708463 0.254873 0.511887
O O14 0.332031 0.435248 0.907135
#
# Coordination Sequence:
#
# PCOD9248511 Si02
#       7
#     4   4   4   4   4   4   4
#     4  12  25  44  68 100 135 183 236 286 337 410
#     4  12  28  44  70  99 138 186 234 285 346 417
#     4  11  21  38  70 107 133 172 228 293 343 398
#     4  10  25  49  66  98 142 189 223 286 357 412
#     4   9  22  37  68  97 135 167 226 277 345 404
#     4  12  27  46  70 101 144 181 235 286 345 419
#     4  10  22  42  72 100 136 178 228 288 348 403
#
# _framework density 23.685092000000001
#
# number of rings (size 3 to 8) (size 9 to 14) (size 15 to 20)
#    0.857    0.286    4.286    0.857   10.000    0.000 
#    2.571    0.714    0.000    0.000    0.000    0.000 
#    0.000    0.000    0.000    0.000    0.000    0.000 
#
# Total GULP energy -156201.370026 kJ/mol
# GULP energy per Si atom -5578.620358 kJ/mol
# Density = 2.363118 g / cm^3
# Si number density = 23.685092 Si / 1000 Ang^3
#
#
#
# Elastic Constant Matrix: (Units=GPa)
#
#
# Indices 1 2 3 4 5 6 
#
# 1 71.2917 8.5706 10.7243 0.0000 32.8741 0.0000
# 2 8.5706 87.6214 -4.4245 0.0000 4.0081 0.0000
# 3 10.7243 -4.4245 49.5641 0.0000 -2.2797 0.0000
# 4 0.0000 0.0000 0.0000 32.0001 0.0000 4.6931
# 5 32.8741 4.0081 -2.2797 0.0000 45.8976 0.0000
# 6 0.0000 0.0000 0.0000 4.6931 0.0000 24.2611
#
#
#
# Elastic Compliance Matrix: (Units=1/GPa)
#
#
# Indices 1 2 3 4 5 6 
#
# 1 0.022659 -0.001761 -0.005813 0.000000 -0.016364 0.000000
# 2 -0.001761 0.011643 0.001435 0.000000 0.000316 0.000000
# 3 -0.005813 0.001435 0.021797 0.000000 0.005121 0.000000
# 4 0.000000 0.000000 0.000000 0.032162 0.000000 -0.006222
# 5 -0.016364 0.000316 0.005121 0.000000 0.033735 0.000000
# 6 0.000000 0.000000 0.000000 -0.006222 0.000000 0.042422
#
#
# Mechanical properties :
#
#
# Convention : Reuss Voigt Hill
#
# Bulk Modulus (GPa) = 22.82004 26.46870 24.64437
# Shear Modulus (GPa) = 26.13644 33.33888 29.73766
#
# Velocity S-wave (km/s) = 3.32550 3.75586 3.54721
# Velocity P-wave (km/s) = 4.93973 5.47797 5.21580
#
# Compressibility (1/GPa) = 0.04382114
#
# Stress axis : x y z
#
# Youngs Moduli (GPa) = 44.13259 85.88837 45.87741
#
# Poissons Ratio (x) = 0.15128 0.26667
# Poissons Ratio (y) = 0.07773 -0.06583
# Poissons Ratio (z) = 0.25653 -0.12325
#
# Static dielectric constant tensor:
#      x y z
#    x 1.932930 0.000000 0.019970 
#    y 0.000000 1.878580 0.000000 
#    z 0.019970 0.000000 2.002900 
# 
# From -- ./inp_files/54936.got.cif
#   From: 2010.05.17/outbox.cif.g08.bks.cpg/sg14_28_cif.got.tgz:54936.got - 2010.06.03 17:49:19.
