data_PCOD9248134
_publ_section_title
;
Structure prediction by ZEFSAII (Michael W. Deem and Ramdas Pophale) SiO2 
 PCOD9248134
Probable space group: P 21/C
;
_chemical_formula_sum "Si O2"
_cell_formula_units_Z 24
_cell_length_a 19.808771
_cell_length_b 6.796626
_cell_length_c 21.006319
_cell_angle_alpha 90.000000
_cell_angle_beta 160.609249
_cell_angle_gamma 90.000000
_cell_volume 938.967463
_symmetry_space_group_name_H-M "P 21/C"
_symmetry_group_IT_number 14
_symmetry_cell_setting 'monoclinic'
loop_
_space_group_symop_operation_xyz
x,y,z
-x,1/2+y,1/2-z
-x,-y,-z
x,1/2-y,1/2+z
loop_
_atom_site_type_symbol
_atom_site_label
_atom_site_fract_x
_atom_site_fract_y
_atom_site_fract_z
Si Si1 0.144781 0.326374 0.060973
Si Si2 0.047957 0.089845 0.349320
Si Si3 0.671510 0.271756 0.356870
Si Si4 0.713248 0.621103 0.059537
Si Si5 0.601726 0.161887 0.937463
Si Si6 0.037601 0.235720 0.100242
O O1 0.384157 0.376979 0.275863
O O2 0.084476 0.200120 0.068109
O O3 0.102602 0.250058 0.951796
O O4 0.010551 0.527788 0.942734
O O5 0.098468 0.146644 0.322206
O O6 0.203280 0.915261 0.504605
O O7 0.644722 0.392852 0.992288
O O8 0.597138 0.368829 0.356629
O O9 0.835432 0.354386 0.452305
O O10 0.470373 0.256340 0.135125
O O11 0.781163 0.675103 0.191011
O O12 0.808603 0.055364 0.142485
#
# Coordination Sequence:
#
# PCOD9248134 Si02
#       6
#     4   4   4   4   4   4
#     4  10  23  44  68 101 140 180 226 281 343 412
#     4  10  22  41  65  99 134 174 227 280 332 404
#     4  10  22  41  65  99 134 174 227 280 332 404
#     4  11  23  42  68  98 134 180 230 280 339 402
#     4  11  23  42  68  98 134 180 230 280 339 402
#     4  10  23  44  68 101 140 180 226 281 343 412
#
# _framework density 25.559989000000002
#
# number of rings (size 3 to 8) (size 9 to 14) (size 15 to 20)
#    0.000    1.667    3.333    0.000    0.000    8.667 
#    0.000   10.000    0.000    0.000    0.000    0.000 
#    0.000    0.000    0.000    0.000    0.000    0.000 
#
# Total GULP energy -134093.245808 kJ/mol
# GULP energy per Si atom -5587.218575 kJ/mol
# Density = 2.550181 g / cm^3
# Si number density = 25.559989 Si / 1000 Ang^3
#
#
#
# Elastic Constant Matrix: (Units=GPa)
#
#
# Indices 1 2 3 4 5 6 
#
# 1 122.2372 15.2741 17.0002 0.0000 -13.5484 0.0000
# 2 15.2741 83.1686 32.4094 0.0000 2.2611 0.0000
# 3 17.0002 32.4094 177.6003 0.0000 8.3831 0.0000
# 4 0.0000 0.0000 0.0000 22.5958 0.0000 -0.5612
# 5 -13.5484 2.2611 8.3831 0.0000 39.9227 0.0000
# 6 0.0000 0.0000 0.0000 -0.5612 0.0000 24.7132
#
#
#
# Elastic Compliance Matrix: (Units=1/GPa)
#
#
# Indices 1 2 3 4 5 6 
#
# 1 0.008819 -0.001420 -0.000737 0.000000 0.003228 0.000000
# 2 -0.001420 0.013175 -0.002233 0.000000 -0.000759 0.000000
# 3 -0.000737 -0.002233 0.006176 0.000000 -0.001421 0.000000
# 4 0.000000 0.000000 0.000000 0.044281 0.000000 0.001006
# 5 0.003228 -0.000759 -0.001421 0.000000 0.026485 0.000000
# 6 0.000000 0.000000 0.000000 0.001006 0.000000 0.040487
#
#
# Mechanical properties :
#
#
# Convention : Reuss Voigt Hill
#
# Bulk Modulus (GPa) = 51.57379 56.93040 54.25209
# Shear Modulus (GPa) = 32.32778 38.66780 35.49779
#
# Velocity S-wave (km/s) = 3.56023 3.89373 3.73071
# Velocity P-wave (km/s) = 6.09276 6.52199 6.31103
#
# Compressibility (1/GPa) = 0.01938969
#
# Stress axis : x y z
#
# Youngs Moduli (GPa) = 113.39693 75.90033 161.92599
#
# Poissons Ratio (x) = 0.10778 0.11940
# Poissons Ratio (y) = 0.16102 0.36150
# Poissons Ratio (z) = 0.08362 0.16945
#
# Static dielectric constant tensor:
#      x y z
#    x 2.057940 0.000000 -0.019580 
#    y 0.000000 2.271290 0.000000 
#    z -0.019580 0.000000 1.959170 
# 
# From -- ./inp_files/69857.got.cif
#   From: 2010.05.17/outbox.cif.g08.bks.cpg/sg14_35_cif.got.tgz:69857.got - 2010.06.03 17:49:19.
