data_PCOD9248366
_publ_section_title
;
Structure prediction by ZEFSAII (Michael W. Deem and Ramdas Pophale) SiO2 
 PCOD9248366
Probable space group: P 21/C
;
_chemical_formula_sum "Si O2"
_cell_formula_units_Z 28
_cell_length_a 14.827536
_cell_length_b 20.723691
_cell_length_c 9.397110
_cell_angle_alpha 90.000000
_cell_angle_beta 28.470788
_cell_angle_gamma 90.000000
_cell_volume 1376.528630
_symmetry_space_group_name_H-M "P 21/C"
_symmetry_group_IT_number 14
_symmetry_cell_setting 'monoclinic'
loop_
_space_group_symop_operation_xyz
x,y,z
-x,1/2+y,1/2-z
-x,-y,-z
x,1/2-y,1/2+z
loop_
_atom_site_type_symbol
_atom_site_label
_atom_site_fract_x
_atom_site_fract_y
_atom_site_fract_z
Si Si1 0.204245 0.472997 0.185787
Si Si2 0.675218 0.645491 0.785948
Si Si3 0.830681 0.226760 0.266516
Si Si4 0.904772 0.760536 0.362006
Si Si5 0.574011 0.393671 0.133975
Si Si6 0.410851 0.070000 0.144339
Si Si7 0.517413 0.813651 0.798448
O O1 0.253939 0.418548 0.232248
O O2 0.000000 0.500000 0.500000
O O3 0.341883 0.534826 0.001647
O O4 0.225164 0.441761 0.998522
O O5 0.840554 0.686600 0.480986
O O6 0.525384 0.628286 0.872721
O O7 0.581308 0.686330 0.045182
O O8 0.738991 0.158493 0.440341
O O9 0.655440 0.265917 0.443991
O O10 0.932368 0.269269 0.246727
O O11 0.994519 0.219964 0.923250
O O12 0.701268 0.795514 0.637956
O O13 0.422908 0.397365 0.472898
O O14 0.535524 0.114982 0.075881
O O15 0.500000 0.000000 0.000000
#
# Coordination Sequence:
#
# PCOD9248366 Si02
#       7
#     4   4   4   4   4   4   4
#     4  10  22  42  66  97 131 175 226 276 325 403
#     4  11  23  43  64  93 134 175 220 279 335 396
#     4  12  25  40  67  98 130 178 222 276 338 402
#     4  12  25  40  62  97 132 170 222 270 340 398
#     4  11  22  41  68  95 128 178 225 270 344 395
#     4   9  22  42  69  90 131 178 216 270 334 389
#     4  11  24  44  64  93 138 170 221 278 336 400
#
# _framework density 20.341023
#
# number of rings (size 3 to 8) (size 9 to 14) (size 15 to 20)
#    0.000    1.143    2.857    3.000    6.000    1.143 
#    0.000    0.714    0.000    0.000    0.000    0.000 
#    0.000    0.000    0.000    0.000    0.000    0.000 
#
# Total GULP energy -156160.600572 kJ/mol
# GULP energy per Si atom -5577.164306 kJ/mol
# Density = 2.029473 g / cm^3
# Si number density = 20.341023 Si / 1000 Ang^3
#
#
#
# Elastic Constant Matrix: (Units=GPa)
#
#
# Indices 1 2 3 4 5 6 
#
# 1 86.8954 16.6543 35.9739 0.0000 4.0695 0.0000
# 2 16.6543 87.3041 34.1035 0.0000 -1.1598 0.0000
# 3 35.9739 34.1035 89.7509 0.0000 -0.3799 0.0000
# 4 0.0000 0.0000 0.0000 29.6427 0.0000 3.6617
# 5 4.0695 -1.1598 -0.3799 0.0000 32.5451 0.0000
# 6 0.0000 0.0000 0.0000 3.6617 0.0000 30.0952
#
#
#
# Elastic Compliance Matrix: (Units=1/GPa)
#
#
# Indices 1 2 3 4 5 6 
#
# 1 0.013928 -0.000584 -0.005368 0.000000 -0.001825 0.000000
# 2 -0.000584 0.013481 -0.004886 0.000000 0.000496 0.000000
# 3 -0.005368 -0.004886 0.015153 0.000000 0.000674 0.000000
# 4 0.000000 0.000000 0.000000 0.034250 0.000000 -0.004167
# 5 -0.001825 0.000496 0.000674 0.000000 0.030980 0.000000
# 6 0.000000 0.000000 0.000000 -0.004167 0.000000 0.033735
#
#
# Mechanical properties :
#
#
# Convention : Reuss Voigt Hill
#
# Bulk Modulus (GPa) = 47.88209 48.60155 48.24182
# Shear Modulus (GPa) = 29.38299 30.27116 29.82707
#
# Velocity S-wave (km/s) = 3.80481 3.86188 3.83345
# Velocity P-wave (km/s) = 6.54926 6.62048 6.58497
#
# Compressibility (1/GPa) = 0.02088464
#
# Stress axis : x y z
#
# Youngs Moduli (GPa) = 71.79792 74.17867 65.99250
#
# Poissons Ratio (x) = 0.04333 0.35427
# Poissons Ratio (y) = 0.04194 0.32246
# Poissons Ratio (z) = 0.38544 0.36246
#
# Static dielectric constant tensor:
#      x y z
#    x 1.752730 0.000000 0.023710 
#    y 0.000000 1.774710 0.000000 
#    z 0.023710 0.000000 1.741630 
# 
# From -- ./inp_files/10358.got.cif
#   From: 2010.05.17/outbox.cif.g08.bks.cpg/sg14_6_cif.got.tgz:10358.got - 2010.06.03 17:49:19.
