data_PCOD9248922
_publ_section_title
;
Structure prediction by ZEFSAII (Michael W. Deem and Ramdas Pophale) SiO2 
 PCOD9248922
Probable space group: P 21/C
;
_chemical_formula_sum "Si O2"
_cell_formula_units_Z 18
_cell_length_a 8.811839
_cell_length_b 14.787090
_cell_length_c 4.948768
_cell_angle_alpha 90.000000
_cell_angle_beta 78.263221
_cell_angle_gamma 90.000000
_cell_volume 631.349818
_symmetry_space_group_name_H-M "P 21/C"
_symmetry_group_IT_number 14
_symmetry_cell_setting 'monoclinic'
loop_
_space_group_symop_operation_xyz
x,y,z
-x,1/2+y,1/2-z
-x,-y,-z
x,1/2-y,1/2+z
loop_
_atom_site_type_symbol
_atom_site_label
_atom_site_fract_x
_atom_site_fract_y
_atom_site_fract_z
Si Si1 0.247726 0.308347 0.803759
Si Si2 0.500000 0.000000 0.000000
Si Si3 0.032743 0.633833 0.375664
Si Si4 0.657260 0.308600 0.496508
Si Si5 0.227244 0.032511 0.670464
O O1 0.302180 0.257520 0.519208
O O2 0.062795 0.310167 0.812711
O O3 0.280418 0.412265 0.882509
O O4 0.376268 0.012489 0.792085
O O5 0.432358 0.896290 0.066809
O O6 0.160351 0.669105 0.538302
O O7 0.127036 0.557841 0.169856
O O8 0.892047 0.592849 0.608178
O O9 0.625384 0.225789 0.309236
#
# Coordination Sequence:
#
# PCOD9248922 Si02
#       5
#     4   2   4   4   4
#     4  12  23  39  65 102 139 174 233 304 364 430
#     4  10  26  54  74 110 160 210 248 314 382 468
#     4  10  22  44  72 106 141 186 252 313 377 437
#     4  11  26  48  76 110 151 201 259 316 385 457
#     4  10  23  45  71 104 143 197 242 307 376 454
#
# _framework density 28.510342999999999
#
# number of rings (size 3 to 8) (size 9 to 14) (size 15 to 20)
#    0.000    1.333    2.222    2.000    3.111    2.667 
#   16.000    0.000    0.000    0.000    0.000    0.000 
#    0.000    0.000    0.000    0.000    0.000    0.000 
#
# Total GULP energy -100507.664964 kJ/mol
# GULP energy per Si atom -5583.759165 kJ/mol
# Density = 2.844545 g / cm^3
# Si number density = 28.510343 Si / 1000 Ang^3
#
#
#
# Elastic Constant Matrix: (Units=GPa)
#
#
# Indices 1 2 3 4 5 6 
#
# 1 141.8056 23.2215 36.8679 0.0000 7.4098 0.0000
# 2 23.2215 80.7979 4.8677 0.0000 11.4408 0.0000
# 3 36.8679 4.8677 131.8752 0.0000 19.0245 0.0000
# 4 0.0000 0.0000 0.0000 66.9205 0.0000 32.2143
# 5 7.4098 11.4408 19.0245 0.0000 19.5156 0.0000
# 6 0.0000 0.0000 0.0000 32.2143 0.0000 58.4624
#
#
#
# Elastic Compliance Matrix: (Units=1/GPa)
#
#
# Indices 1 2 3 4 5 6 
#
# 1 0.007966 -0.002217 -0.002207 0.000000 0.000426 0.000000
# 2 -0.002217 0.014178 0.001366 0.000000 -0.008802 0.000000
# 3 -0.002207 0.001366 0.009477 0.000000 -0.009201 0.000000
# 4 0.000000 0.000000 0.000000 0.020338 0.000000 -0.011207
# 5 0.000426 -0.008802 -0.009201 0.000000 0.065209 0.000000
# 6 0.000000 0.000000 0.000000 -0.011207 0.000000 0.023280
#
#
# Mechanical properties :
#
#
# Convention : Reuss Voigt Hill
#
# Bulk Modulus (GPa) = 39.20665 53.82141 46.51403
# Shear Modulus (GPa) = 32.24456 48.28115 40.26285
#
# Velocity S-wave (km/s) = 3.36665 4.11963 3.76203
# Velocity P-wave (km/s) = 5.37532 6.44572 5.93470
#
# Compressibility (1/GPa) = 0.02550588
#
# Stress axis : x y z
#
# Youngs Moduli (GPa) = 125.52688 70.53326 105.52028
#
# Poissons Ratio (x) = 0.15637 0.23286
# Poissons Ratio (y) = 0.27829 -0.14416
# Poissons Ratio (z) = 0.27701 -0.09636
#
# Static dielectric constant tensor:
#      x y z
#    x 2.541170 0.000000 -0.433010 
#    y 0.000000 1.080360 0.000000 
#    z -0.433010 0.000000 2.446940 
# 
# From -- ./inp_files/1084.got.cif
#   From: 2010.05.17/outbox.cif.g08.bks.cpg/sg14_1_cif.got.tgz:1084.got - 2010.06.03 17:49:19.
