data_PCOD9248509
_publ_section_title
;
Structure prediction by ZEFSAII (Michael W. Deem and Ramdas Pophale) SiO2 
 PCOD9248509
Probable space group: P 21/C
;
_chemical_formula_sum "Si O2"
_cell_formula_units_Z 28
_cell_length_a 8.408010
_cell_length_b 9.494717
_cell_length_c 18.616573
_cell_angle_alpha 90.000000
_cell_angle_beta 55.079417
_cell_angle_gamma 90.000000
_cell_volume 1218.597784
_symmetry_space_group_name_H-M "P 21/C"
_symmetry_group_IT_number 14
_symmetry_cell_setting 'monoclinic'
loop_
_space_group_symop_operation_xyz
x,y,z
-x,1/2+y,1/2-z
-x,-y,-z
x,1/2-y,1/2+z
loop_
_atom_site_type_symbol
_atom_site_label
_atom_site_fract_x
_atom_site_fract_y
_atom_site_fract_z
Si Si1 0.174071 0.805444 0.666023
Si Si2 0.802930 0.013427 0.473912
Si Si3 0.105968 0.045088 0.788903
Si Si4 0.772931 0.093323 0.091822
Si Si5 0.489419 0.140943 0.838737
Si Si6 0.539712 0.377004 0.168819
Si Si7 0.888336 0.785564 0.543410
O O1 0.259400 0.907213 0.581739
O O2 0.059904 0.915629 0.746831
O O3 0.347254 0.728030 0.663594
O O4 0.043313 0.674853 0.672342
O O5 0.846597 0.848411 0.474038
O O6 0.654918 0.044379 0.576616
O O7 0.003091 0.093744 0.440540
O O8 0.148357 0.973698 0.854758
O O9 0.313390 0.108268 0.711225
O O10 0.630208 0.222150 0.145311
O O11 0.634808 0.979381 0.088121
O O12 0.956223 0.160412 0.004024
O O13 0.566832 0.074903 0.744538
O O14 0.311492 0.245916 0.867539
#
# Coordination Sequence:
#
# PCOD9248509 Si02
#       7
#     4   4   4   4   4   4   4
#     4  12  27  45  68 107 143 184 226 299 352 411
#     4  10  23  42  70 103 139 178 238 287 352 408
#     4  11  26  44  70  99 144 181 230 283 357 408
#     4  10  22  44  68 102 131 183 234 286 332 422
#     4  11  23  41  70  98 137 181 235 276 347 410
#     4  10  22  44  69  96 132 186 237 278 329 422
#     4  10  22  42  71  98 134 187 234 281 338 424
#
# _framework density 22.977228
#
# number of rings (size 3 to 8) (size 9 to 14) (size 15 to 20)
#    0.000    1.429    1.429    3.000    6.000    4.571 
#    2.571    3.571    0.000    0.000    0.000    0.000 
#    0.000    0.000    0.000    0.000    0.000    0.000 
#
# Total GULP energy -156327.347189 kJ/mol
# GULP energy per Si atom -5583.119542 kJ/mol
# Density = 2.292493 g / cm^3
# Si number density = 22.977228 Si / 1000 Ang^3
#
#
#
# Elastic Constant Matrix: (Units=GPa)
#
#
# Indices 1 2 3 4 5 6 
#
# 1 57.3021 21.5507 21.4674 0.0000 3.2475 0.0000
# 2 21.5507 113.8869 26.5013 0.0000 10.2152 0.0000
# 3 21.4674 26.5013 85.8709 0.0000 -5.6334 0.0000
# 4 0.0000 0.0000 0.0000 35.5459 0.0000 -3.8449
# 5 3.2475 10.2152 -5.6334 0.0000 30.0095 0.0000
# 6 0.0000 0.0000 0.0000 -3.8449 0.0000 49.3781
#
#
#
# Elastic Compliance Matrix: (Units=1/GPa)
#
#
# Indices 1 2 3 4 5 6 
#
# 1 0.020195 -0.002612 -0.004382 0.000000 -0.002119 0.000000
# 2 -0.002612 0.010250 -0.002755 0.000000 -0.003723 0.000000
# 3 -0.004382 -0.002755 0.013854 0.000000 0.004013 0.000000
# 4 0.000000 0.000000 0.000000 0.028372 0.000000 0.002209
# 5 -0.002119 -0.003723 0.004013 0.000000 0.035573 0.000000
# 6 0.000000 0.000000 0.000000 0.002209 0.000000 0.020424
#
#
# Mechanical properties :
#
#
# Convention : Reuss Voigt Hill
#
# Bulk Modulus (GPa) = 40.31774 44.01097 42.16436
# Shear Modulus (GPa) = 31.96288 35.48942 33.72615
#
# Velocity S-wave (km/s) = 3.73375 3.93434 3.83535
# Velocity P-wave (km/s) = 6.01438 6.31145 6.16471
#
# Compressibility (1/GPa) = 0.02480298
#
# Stress axis : x y z
#
# Youngs Moduli (GPa) = 49.51653 97.56234 72.18054
#
# Poissons Ratio (x) = 0.25482 0.31627
# Poissons Ratio (y) = 0.12933 0.19883
# Poissons Ratio (z) = 0.21697 0.26875
#
# Static dielectric constant tensor:
#      x y z
#    x 1.916000 0.000000 0.040140 
#    y 0.000000 1.961860 0.000000 
#    z 0.040140 0.000000 1.870780 
# 
# From -- ./inp_files/76323.got.cif
#   From: 2010.05.17/outbox.cif.g08.bks.cpg/sg14_39_cif.got.tgz:76323.got - 2010.06.03 17:49:19.
