data_PCOD9248029
_publ_section_title
;
Structure prediction by ZEFSAII (Michael W. Deem and Ramdas Pophale) SiO2 
 PCOD9248029
Probable space group: P 21/C
;
_chemical_formula_sum "Si O2"
_cell_formula_units_Z 28
_cell_length_a 5.930596
_cell_length_b 10.535604
_cell_length_c 21.881722
_cell_angle_alpha 90.000000
_cell_angle_beta 114.800677
_cell_angle_gamma 90.000000
_cell_volume 1241.127241
_symmetry_space_group_name_H-M "P 21/C"
_symmetry_group_IT_number 14
_symmetry_cell_setting 'monoclinic'
loop_
_space_group_symop_operation_xyz
x,y,z
-x,1/2+y,1/2-z
-x,-y,-z
x,1/2-y,1/2+z
loop_
_atom_site_type_symbol
_atom_site_label
_atom_site_fract_x
_atom_site_fract_y
_atom_site_fract_z
Si Si1 0.193716 0.089141 0.600898
Si Si2 0.092236 0.178459 0.172132
Si Si3 0.708564 0.989268 0.169252
Si Si4 0.730307 0.904982 0.524301
Si Si5 0.426472 0.921571 0.717579
Si Si6 0.017214 0.233115 0.860425
Si Si7 0.815616 0.025455 0.924221
O O1 0.096224 0.185256 0.641271
O O2 0.261968 0.151468 0.543653
O O3 0.417648 0.009599 0.656743
O O4 0.977143 0.989034 0.562085
O O5 0.321494 0.156373 0.244306
O O6 0.843856 0.123750 0.173903
O O7 0.137892 0.083103 0.120695
O O8 0.606316 0.990371 0.226312
O O9 0.894043 0.873446 0.177143
O O10 0.477610 0.977031 0.096807
O O11 0.750226 0.804526 0.581450
O O12 0.500000 0.000000 0.500000
O O13 0.187310 0.829787 0.688160
O O14 0.884515 0.158033 0.900529
O O15 0.000000 0.000000 0.000000
#
# Coordination Sequence:
#
# PCOD9248029 Si02
#       7
#     4   4   4   4   4   4   4
#     4  10  23  41  63  92 130 168 212 273 325 387
#     4  10  23  39  63  93 128 170 213 270 322 394
#     4  10  24  40  63  99 124 174 222 265 330 396
#     4  10  23  43  65  97 124 170 221 265 330 386
#     4  10  24  40  61  94 130 174 214 266 336 386
#     4  10  23  41  65  93 130 171 217 276 323 393
#     4  10  22  41  62  92 127 165 216 271 332 381
#
# _framework density 22.560134000000001
#
# number of rings (size 3 to 8) (size 9 to 14) (size 15 to 20)
#    0.000    2.000    0.000    0.857    8.000   12.571 
#    0.000    0.000    0.000    0.000    0.000    0.000 
#    0.000    0.000    0.000    0.000    0.000    0.000 
#
# Total GULP energy -156472.540655 kJ/mol
# GULP energy per Si atom -5588.305023 kJ/mol
# Density = 2.250879 g / cm^3
# Si number density = 22.560134 Si / 1000 Ang^3
#
#
#
# Elastic Constant Matrix: (Units=GPa)
#
#
# Indices 1 2 3 4 5 6 
#
# 1 42.2612 -4.5326 23.0258 0.0000 14.6802 0.0000
# 2 -4.5326 62.4868 33.9640 0.0000 -0.2700 0.0000
# 3 23.0258 33.9640 132.9221 0.0000 24.4557 0.0000
# 4 0.0000 0.0000 0.0000 35.1643 0.0000 -5.9756
# 5 14.6802 -0.2700 24.4557 0.0000 25.8117 0.0000
# 6 0.0000 0.0000 0.0000 -5.9756 0.0000 30.0976
#
#
#
# Elastic Compliance Matrix: (Units=1/GPa)
#
#
# Indices 1 2 3 4 5 6 
#
# 1 0.031106 0.004335 -0.003936 0.000000 -0.013917 0.000000
# 2 0.004335 0.019904 -0.006566 0.000000 0.003964 0.000000
# 3 -0.003936 -0.006566 0.011486 0.000000 -0.008713 0.000000
# 4 0.000000 0.000000 0.000000 0.029431 0.000000 0.005843
# 5 -0.013917 0.003964 -0.008713 0.000000 0.054954 0.000000
# 6 0.000000 0.000000 0.000000 0.005843 0.000000 0.034385
#
#
# Mechanical properties :
#
#
# Convention : Reuss Voigt Hill
#
# Bulk Modulus (GPa) = 19.93498 38.06494 28.99996
# Shear Modulus (GPa) = 23.77335 30.56223 27.16779
#
# Velocity S-wave (km/s) = 3.24971 3.68462 3.47398
# Velocity P-wave (km/s) = 4.78920 5.91702 5.38273
#
# Compressibility (1/GPa) = 0.05016309
#
# Stress axis : x y z
#
# Youngs Moduli (GPa) = 32.14804 50.24145 87.06470
#
# Poissons Ratio (x) = -0.21782 0.34266
# Poissons Ratio (y) = -0.13938 0.57167
# Poissons Ratio (z) = 0.12652 0.32989
#
# Static dielectric constant tensor:
#      x y z
#    x 1.856060 0.000000 -0.010250 
#    y 0.000000 1.851160 0.000000 
#    z -0.010250 0.000000 1.847640 
# 
# From -- ./inp_files/63552.got.cif
#   From: 2010.05.17/outbox.cif.g08.bks.cpg/sg14_32_cif.got.tgz:63552.got - 2010.06.03 17:49:19.
