data_PCOD9248619
_publ_section_title
;
Structure prediction by ZEFSAII (Michael W. Deem and Ramdas Pophale) SiO2 
 PCOD9248619
Probable space group: P 21/C
;
_chemical_formula_sum "Si O2"
_cell_formula_units_Z 28
_cell_length_a 14.623439
_cell_length_b 8.312884
_cell_length_c 9.897433
_cell_angle_alpha 90.000000
_cell_angle_beta 61.233618
_cell_angle_gamma 90.000000
_cell_volume 1054.678085
_symmetry_space_group_name_H-M "P 21/C"
_symmetry_group_IT_number 14
_symmetry_cell_setting 'monoclinic'
loop_
_space_group_symop_operation_xyz
x,y,z
-x,1/2+y,1/2-z
-x,-y,-z
x,1/2-y,1/2+z
loop_
_atom_site_type_symbol
_atom_site_label
_atom_site_fract_x
_atom_site_fract_y
_atom_site_fract_z
Si Si1 0.307616 0.476888 0.710238
Si Si2 0.493202 0.260151 0.546432
Si Si3 0.879550 0.166526 0.797569
Si Si4 0.375414 0.981346 0.694568
Si Si5 0.300281 0.775208 0.436639
Si Si6 0.074335 0.149674 0.069711
Si Si7 0.805853 0.661234 0.782541
O O1 0.414990 0.404811 0.570279
O O2 0.221091 0.594845 0.706923
O O3 0.338101 0.574418 0.821570
O O4 0.241772 0.315020 0.761729
O O5 0.429504 0.147208 0.696846
O O6 0.608293 0.275174 0.524807
O O7 0.526877 0.138583 0.402054
O O8 0.965131 0.255773 0.648725
O O9 0.927467 0.016065 0.843918
O O10 0.819731 0.295019 0.934585
O O11 0.292859 0.038564 0.637059
O O12 0.300749 0.887877 0.847345
O O13 0.148099 0.268395 0.110928
O O14 0.111687 0.110239 0.891256
#
# Coordination Sequence:
#
# PCOD9248619 Si02
#       7
#     4   4   4   4   4   4   4
#     4  10  25  44  66 105 145 186 242 306 366 443
#     4  10  23  42  68 100 137 192 235 301 367 438
#     4  11  27  44  69 102 142 191 246 306 371 434
#     4  10  22  43  67 102 140 184 240 297 363 441
#     4  12  23  40  67 101 138 185 242 300 364 439
#     4  11  26  47  73 104 147 196 247 310 369 436
#     4  10  24  47  74 105 148 196 244 305 370 435
#
# _framework density 26.548386000000001
#
# number of rings (size 3 to 8) (size 9 to 14) (size 15 to 20)
#    0.000    1.429    1.429    1.714    6.000    6.286 
#    5.143    0.000    0.000    0.000    0.000    0.000 
#    0.000    0.000    0.000    0.000    0.000    0.000 
#
# Total GULP energy -156218.457381 kJ/mol
# GULP energy per Si atom -5579.230621 kJ/mol
# Density = 2.648796 g / cm^3
# Si number density = 26.548386 Si / 1000 Ang^3
#
#
#
# Elastic Constant Matrix: (Units=GPa)
#
#
# Indices 1 2 3 4 5 6 
#
# 1 151.8312 59.3069 45.9837 0.0000 -22.7285 0.0000
# 2 59.3069 62.4577 6.7431 0.0000 -16.3807 0.0000
# 3 45.9837 6.7431 77.8409 0.0000 -25.7566 0.0000
# 4 0.0000 0.0000 0.0000 38.0195 0.0000 -15.4794
# 5 -22.7285 -16.3807 -25.7566 0.0000 38.4422 0.0000
# 6 0.0000 0.0000 0.0000 -15.4794 0.0000 70.1593
#
#
#
# Elastic Compliance Matrix: (Units=1/GPa)
#
#
# Indices 1 2 3 4 5 6 
#
# 1 0.013475 -0.012642 -0.007724 0.000000 -0.002595 0.000000
# 2 -0.012642 0.029982 0.008512 0.000000 0.011005 0.000000
# 3 -0.007724 0.008512 0.021022 0.000000 0.013145 0.000000
# 4 0.000000 0.000000 0.000000 0.028898 0.000000 0.006376
# 5 -0.002595 0.011005 0.013145 0.000000 0.037976 0.000000
# 6 0.000000 0.000000 0.000000 0.006376 0.000000 0.015660
#
#
# Mechanical properties :
#
#
# Convention : Reuss Voigt Hill
#
# Bulk Modulus (GPa) = 24.52665 57.35523 40.94094
# Shear Modulus (GPa) = 27.12803 41.33061 34.22932
#
# Velocity S-wave (km/s) = 3.20008 3.94992 3.59460
# Velocity P-wave (km/s) = 4.78671 6.51563 5.71690
#
# Compressibility (1/GPa) = 0.04077198
#
# Stress axis : x y z
#
# Youngs Moduli (GPa) = 74.21034 33.35285 47.56980
#
# Poissons Ratio (x) = 0.42165 0.36742
# Poissons Ratio (y) = 0.93818 -0.40493
# Poissons Ratio (z) = 0.57319 -0.28391
#
# Static dielectric constant tensor:
#      x y z
#    x 2.105640 0.000000 0.037010 
#    y 0.000000 2.112080 0.000000 
#    z 0.037010 0.000000 2.257450 
# 
# From -- ./inp_files/31735.got.cif
#   From: 2010.05.17/outbox.cif.g08.bks.cpg/sg14_16_cif.got.tgz:31735.got - 2010.06.03 17:49:19.
