data_PCOD9248584
_publ_section_title
;
Structure prediction by ZEFSAII (Michael W. Deem and Ramdas Pophale) SiO2 
 PCOD9248584
Probable space group: P 21/C
;
_chemical_formula_sum "Si O2"
_cell_formula_units_Z 30
_cell_length_a 16.882380
_cell_length_b 10.984646
_cell_length_c 13.040794
_cell_angle_alpha 90.000000
_cell_angle_beta 150.503399
_cell_angle_gamma 90.000000
_cell_volume 1190.740306
_symmetry_space_group_name_H-M "P 21/C"
_symmetry_group_IT_number 14
_symmetry_cell_setting 'monoclinic'
loop_
_space_group_symop_operation_xyz
x,y,z
-x,1/2+y,1/2-z
-x,-y,-z
x,1/2-y,1/2+z
loop_
_atom_site_type_symbol
_atom_site_label
_atom_site_fract_x
_atom_site_fract_y
_atom_site_fract_z
Si Si1 0.335475 0.915758 0.433699
Si Si2 0.517870 0.408944 0.673319
Si Si3 0.095923 0.401994 0.413541
Si Si4 0.142740 0.908552 0.539635
Si Si5 0.000000 0.000000 0.000000
Si Si6 0.299746 0.924339 0.024829
Si Si7 0.479117 0.326724 0.049546
Si Si8 0.012574 0.328073 0.937350
O O1 0.406760 0.894782 0.626990
O O2 0.436806 0.838220 0.465948
O O3 0.143765 0.909651 0.210371
O O4 0.361741 0.058223 0.431031
O O5 0.668976 0.400044 0.767842
O O6 0.423410 0.535951 0.575565
O O7 0.405823 0.300513 0.503900
O O8 0.243146 0.446099 0.509124
O O9 0.073130 0.512297 0.467399
O O10 0.115277 0.281882 0.504816
O O11 0.949470 0.388921 0.170776
O O12 0.054937 0.822749 0.523261
O O13 0.110701 0.046670 0.539162
O O14 0.386386 0.852342 0.212153
O O15 0.146927 0.854213 0.810071
#
# Coordination Sequence:
#
# PCOD9248584 Si02
#       8
#     4   4   4   4   2   4   4   4
#     4  10  23  43  66 103 130 169 231 274 328 405
#     4  11  23  41  68  97 135 177 219 276 342 394
#     4  11  23  42  69  95 129 176 222 279 336 390
#     4  10  23  43  62  96 134 172 227 275 328 414
#     4  12  22  40  72 104 120 168 232 280 320 406
#     4  10  23  42  62  99 130 172 230 271 332 416
#     4  10  22  43  65  91 139 169 212 284 329 402
#     4  10  24  44  63  93 137 176 219 280 339 395
#
# _framework density 25.194410000000001
#
# number of rings (size 3 to 8) (size 9 to 14) (size 15 to 20)
#    0.000    1.600    2.667    0.800    1.867    4.800 
#    7.200    1.333    0.000    0.000    0.000    0.000 
#    0.000    0.000    0.000    0.000    0.000    0.000 
#
# Total GULP energy -167394.199579 kJ/mol
# GULP energy per Si atom -5579.806653 kJ/mol
# Density = 2.513707 g / cm^3
# Si number density = 25.194410 Si / 1000 Ang^3
#
#
#
# Elastic Constant Matrix: (Units=GPa)
#
#
# Indices 1 2 3 4 5 6 
#
# 1 122.8758 40.7227 13.7163 0.0000 -23.4985 0.0000
# 2 40.7227 75.2838 20.0555 0.0000 -1.1694 0.0000
# 3 13.7163 20.0555 46.7535 0.0000 -18.8726 0.0000
# 4 0.0000 0.0000 0.0000 25.7336 0.0000 -6.8391
# 5 -23.4985 -1.1694 -18.8726 0.0000 34.3966 0.0000
# 6 0.0000 0.0000 0.0000 -6.8391 0.0000 32.6033
#
#
#
# Elastic Compliance Matrix: (Units=1/GPa)
#
#
# Indices 1 2 3 4 5 6 
#
# 1 0.012081 -0.007351 0.003648 0.000000 0.010004 0.000000
# 2 -0.007351 0.019884 -0.010439 0.000000 -0.010074 0.000000
# 3 0.003648 -0.010439 0.032959 0.000000 0.020221 0.000000
# 4 0.000000 0.000000 0.000000 0.041154 0.000000 0.008633
# 5 0.010004 -0.010074 0.020221 0.000000 0.046660 0.000000
# 6 0.000000 0.000000 0.000000 0.008633 0.000000 0.032483
#
#
# Mechanical properties :
#
#
# Convention : Reuss Voigt Hill
#
# Bulk Modulus (GPa) = 27.29383 43.76690 35.53036
# Shear Modulus (GPa) = 22.15156 29.90795 26.02976
#
# Velocity S-wave (km/s) = 2.96839 3.44915 3.21776
# Velocity P-wave (km/s) = 4.75450 5.76815 5.28568
#
# Compressibility (1/GPa) = 0.03663832
#
# Stress axis : x y z
#
# Youngs Moduli (GPa) = 82.77754 50.29193 30.34066
#
# Poissons Ratio (x) = 0.36969 -0.11067
# Poissons Ratio (y) = 0.60850 0.31673
# Poissons Ratio (z) = -0.30194 0.52501
#
# Static dielectric constant tensor:
#      x y z
#    x 2.029420 0.000000 0.042880 
#    y 0.000000 2.093940 0.000000 
#    z 0.042880 0.000000 1.992070 
# 
# From -- ./inp_files/48943.got.cif
#   From: 2010.05.17/outbox.cif.g08.bks.cpg/sg14_25_cif.got.tgz:48943.got - 2010.06.03 17:49:19.
