data_PCOD9248041
_publ_section_title
;
Structure prediction by ZEFSAII (Michael W. Deem and Ramdas Pophale) SiO2 
 PCOD9248041
Probable space group: P 21/C
;
_chemical_formula_sum "Si O2"
_cell_formula_units_Z 20
_cell_length_a 7.673613
_cell_length_b 9.360509
_cell_length_c 12.860658
_cell_angle_alpha 90.000000
_cell_angle_beta 126.374631
_cell_angle_gamma 90.000000
_cell_volume 743.777152
_symmetry_space_group_name_H-M "P 21/C"
_symmetry_group_IT_number 14
_symmetry_cell_setting 'monoclinic'
loop_
_space_group_symop_operation_xyz
x,y,z
-x,1/2+y,1/2-z
-x,-y,-z
x,1/2-y,1/2+z
loop_
_atom_site_type_symbol
_atom_site_label
_atom_site_fract_x
_atom_site_fract_y
_atom_site_fract_z
Si Si1 0.922545 0.007745 0.803497
Si Si2 0.646538 0.323587 0.033761
Si Si3 0.851190 0.717690 0.114818
Si Si4 0.394723 0.908402 0.139655
Si Si5 0.717962 0.116123 0.334370
O O1 0.789265 0.107167 0.673279
O O2 0.787940 0.004989 0.862619
O O3 0.127358 0.111579 0.887469
O O4 0.921904 0.853631 0.750024
O O5 0.398891 0.319945 0.980607
O O6 0.677682 0.164680 0.993934
O O7 0.687108 0.418656 0.944486
O O8 0.034545 0.654200 0.102903
O O9 0.418246 0.763899 0.218055
O O10 0.612302 0.999506 0.222664
#
# Coordination Sequence:
#
# PCOD9248041 Si02
#       5
#     4   4   4   4   4
#     4  11  22  42  64  90 123 162 204 249 305 362
#     4  10  22  41  63  86 129 157 203 250 306 355
#     4  11  22  39  66  91 120 165 203 248 302 363
#     4   9  19  39  59  88 126 153 198 258 289 351
#     4   9  20  37  62  88 122 158 201 246 300 357
#
# _framework density 26.889773000000002
#
# number of rings (size 3 to 8) (size 9 to 14) (size 15 to 20)
#    1.200    0.800    2.000    1.800    0.000    0.800 
#    3.600   10.000    0.000    0.000    0.000    0.000 
#    0.000    0.000    0.000    0.000    0.000    0.000 
#
# Total GULP energy -111751.994545 kJ/mol
# GULP energy per Si atom -5587.599727 kJ/mol
# Density = 2.682857 g / cm^3
# Si number density = 26.889773 Si / 1000 Ang^3
#
#
#
# Elastic Constant Matrix: (Units=GPa)
#
#
# Indices 1 2 3 4 5 6 
#
# 1 131.8621 26.1863 15.1429 0.0000 -7.8404 0.0000
# 2 26.1863 118.1357 10.2993 0.0000 -7.0637 0.0000
# 3 15.1429 10.2993 98.7931 0.0000 -16.1696 0.0000
# 4 0.0000 0.0000 0.0000 38.7414 0.0000 -1.7449
# 5 -7.8404 -7.0637 -16.1696 0.0000 24.6662 0.0000
# 6 0.0000 0.0000 0.0000 -1.7449 0.0000 45.6548
#
#
#
# Elastic Compliance Matrix: (Units=1/GPa)
#
#
# Indices 1 2 3 4 5 6 
#
# 1 0.008094 -0.001629 -0.000813 0.000000 0.001573 0.000000
# 2 -0.001629 0.008967 -0.000392 0.000000 0.001793 0.000000
# 3 -0.000813 -0.000392 0.011456 0.000000 0.007139 0.000000
# 4 0.000000 0.000000 0.000000 0.025857 0.000000 0.000988
# 5 0.001573 0.001793 0.007139 0.000000 0.046235 0.000000
# 6 0.000000 0.000000 0.000000 0.000988 0.000000 0.021941
#
#
# Mechanical properties :
#
#
# Convention : Reuss Voigt Hill
#
# Bulk Modulus (GPa) = 43.76494 50.22754 46.99624
# Shear Modulus (GPa) = 36.80926 41.62331 39.21629
#
# Velocity S-wave (km/s) = 3.70387 3.93863 3.82306
# Velocity P-wave (km/s) = 5.88239 6.27721 6.08301
#
# Compressibility (1/GPa) = 0.02284934
#
# Stress axis : x y z
#
# Youngs Moduli (GPa) = 123.54592 111.51567 87.28940
#
# Poissons Ratio (x) = 0.18168 0.07100
# Poissons Ratio (y) = 0.20128 0.03418
# Poissons Ratio (z) = 0.10049 0.04367
#
# Static dielectric constant tensor:
#      x y z
#    x 2.053960 0.000000 0.015690 
#    y 0.000000 2.182510 0.000000 
#    z 0.015690 0.000000 2.192970 
# 
# From -- ./inp_files/23420.got.cif
#   From: 2010.05.17/outbox.cif.g08.bks.cpg/sg14_12_cif.got.tgz:23420.got - 2010.06.03 17:49:19.
