data_PCOD9248097
_publ_section_title
;
Structure prediction by ZEFSAII (Michael W. Deem and Ramdas Pophale) SiO2 
 PCOD9248097
Probable space group: P 21/C
;
_chemical_formula_sum "Si O2"
_cell_formula_units_Z 26
_cell_length_a 14.169204
_cell_length_b 4.756701
_cell_length_c 14.790447
_cell_angle_alpha 90.000000
_cell_angle_beta 70.739089
_cell_angle_gamma 90.000000
_cell_volume 941.058588
_symmetry_space_group_name_H-M "P 21/C"
_symmetry_group_IT_number 14
_symmetry_cell_setting 'monoclinic'
loop_
_space_group_symop_operation_xyz
x,y,z
-x,1/2+y,1/2-z
-x,-y,-z
x,1/2-y,1/2+z
loop_
_atom_site_type_symbol
_atom_site_label
_atom_site_fract_x
_atom_site_fract_y
_atom_site_fract_z
Si Si1 0.394323 0.261599 0.701214
Si Si2 0.173589 0.686389 0.404882
Si Si3 0.000000 0.000000 0.000000
Si Si4 0.705386 0.966053 0.984706
Si Si5 0.474535 0.233674 0.375291
Si Si6 0.216991 0.859901 0.698401
Si Si7 0.894567 0.933079 0.419551
O O1 0.484982 0.078488 0.630564
O O2 0.292032 0.116919 0.700629
O O3 0.427337 0.577703 0.670251
O O4 0.408507 0.238089 0.804886
O O5 0.272272 0.649710 0.432520
O O6 0.196988 0.795637 0.299507
O O7 0.109619 0.400130 0.417352
O O8 0.096050 0.812433 0.508073
O O9 0.975603 0.796405 0.917161
O O10 0.733791 0.160741 0.892447
O O11 0.785897 0.714950 0.963963
O O12 0.596142 0.838554 0.022844
O O13 0.115571 0.953996 0.678771
#
# Coordination Sequence:
#
# PCOD9248097 Si02
#       7
#     4   4   2   4   4   4   4
#     4  10  23  39  67  96 142 192 248 295 359 419
#     4  10  22  45  72  94 139 183 226 295 355 436
#     4  10  22  48  72 100 130 186 216 288 370 434
#     4  10  23  40  66 101 137 185 236 284 363 416
#     4  10  22  41  64  99 138 199 243 295 356 431
#     4  11  24  42  66 106 136 184 236 297 352 425
#     4  10  24  44  71 101 137 178 236 286 367 442
#
# _framework density 27.62846
#
# number of rings (size 3 to 8) (size 9 to 14) (size 15 to 20)
#    0.000    1.846    1.538    0.462    6.462    4.923 
#    8.308    0.000    0.000    0.000    0.000    0.000 
#    0.000    0.000    0.000    0.000    0.000    0.000 
#
# Total GULP energy -145153.296498 kJ/mol
# GULP energy per Si atom -5582.819096 kJ/mol
# Density = 2.756558 g / cm^3
# Si number density = 27.628460 Si / 1000 Ang^3
#
#
#
# Elastic Constant Matrix: (Units=GPa)
#
#
# Indices 1 2 3 4 5 6 
#
# 1 116.0140 12.2290 56.1475 0.0000 38.7354 0.0000
# 2 12.2290 87.4424 35.7542 0.0000 22.1202 0.0000
# 3 56.1475 35.7542 176.1712 0.0000 40.9603 0.0000
# 4 0.0000 0.0000 0.0000 34.1289 0.0000 4.1723
# 5 38.7354 22.1202 40.9603 0.0000 55.1700 0.0000
# 6 0.0000 0.0000 0.0000 4.1723 0.0000 41.2387
#
#
#
# Elastic Compliance Matrix: (Units=1/GPa)
#
#
# Indices 1 2 3 4 5 6 
#
# 1 0.012043 0.001099 -0.002409 0.000000 -0.007108 0.000000
# 2 0.001099 0.013256 -0.001965 0.000000 -0.004628 0.000000
# 3 -0.002409 -0.001965 0.007574 0.000000 -0.003144 0.000000
# 4 0.000000 0.000000 0.000000 0.029668 0.000000 -0.003002
# 5 -0.007108 -0.004628 -0.003144 0.000000 0.027306 0.000000
# 6 0.000000 0.000000 0.000000 -0.003002 0.000000 0.024553
#
#
# Mechanical properties :
#
#
# Convention : Reuss Voigt Hill
#
# Bulk Modulus (GPa) = 37.98842 65.32098 51.65470
# Shear Modulus (GPa) = 38.54377 44.47399 41.50888
#
# Velocity S-wave (km/s) = 3.73912 4.01648 3.88028
# Velocity P-wave (km/s) = 5.69394 6.72335 6.22994
#
# Compressibility (1/GPa) = 0.02632381
#
# Stress axis : x y z
#
# Youngs Moduli (GPa) = 83.03847 75.43492 132.03632
#
# Poissons Ratio (x) = -0.08288 0.31802
# Poissons Ratio (y) = -0.09123 0.25939
# Poissons Ratio (z) = 0.20000 0.14820
#
# Static dielectric constant tensor:
#      x y z
#    x -1.550440 0.000000 -0.192810 
#    y 0.000000 -3.208840 0.000000 
#    z -0.192810 0.000000 2.227000 
# 
# From -- ./inp_files/45879.got.cif
#   From: 2010.05.17/outbox.cif.g08.bks.cpg/sg14_23_cif.got.tgz:45879.got - 2010.06.03 17:49:19.
