data_PCOD9248293
_publ_section_title
;
Structure prediction by ZEFSAII (Michael W. Deem and Ramdas Pophale) SiO2 
 PCOD9248293
Probable space group: P 21/C
;
_chemical_formula_sum "Si O2"
_cell_formula_units_Z 24
_cell_length_a 9.336838
_cell_length_b 7.789951
_cell_length_c 17.611550
_cell_angle_alpha 90.000000
_cell_angle_beta 52.450281
_cell_angle_gamma 90.000000
_cell_volume 1015.568792
_symmetry_space_group_name_H-M "P 21/C"
_symmetry_group_IT_number 14
_symmetry_cell_setting 'monoclinic'
loop_
_space_group_symop_operation_xyz
x,y,z
-x,1/2+y,1/2-z
-x,-y,-z
x,1/2-y,1/2+z
loop_
_atom_site_type_symbol
_atom_site_label
_atom_site_fract_x
_atom_site_fract_y
_atom_site_fract_z
Si Si1 0.493802 0.546932 0.255794
Si Si2 0.799114 0.959271 0.533685
Si Si3 0.105861 0.082845 0.038101
Si Si4 0.162241 0.752685 0.594094
Si Si5 0.263221 0.214744 0.758272
Si Si6 0.785165 0.359114 0.759698
O O1 0.595018 0.631185 0.294246
O O2 0.345655 0.395599 0.302959
O O3 0.370911 0.686361 0.249189
O O4 0.654932 0.504265 0.145758
O O5 0.797842 0.760290 0.511454
O O6 0.000000 0.000000 0.500000
O O7 0.762503 0.085548 0.475544
O O8 0.965949 0.131097 0.151424
O O9 0.216493 0.922538 0.035027
O O10 0.000000 0.000000 0.000000
O O11 0.941612 0.769874 0.661768
O O12 0.206779 0.748472 0.668252
O O13 0.254948 0.057936 0.701702
#
# Coordination Sequence:
#
# PCOD9248293 Si02
#       6
#     4   4   4   4   4   4
#     4  10  22  42  64 102 133 177 238 277 343 421
#     4  12  23  39  70  99 134 188 228 282 350 411
#     4  11  23  41  67 100 135 179 236 278 339 422
#     4  11  23  45  65 100 143 174 235 287 348 422
#     4   9  21  41  65  95 135 180 228 278 344 415
#     4   9  24  41  68  98 137 181 224 288 351 402
#
# _framework density 23.632075
#
# number of rings (size 3 to 8) (size 9 to 14) (size 15 to 20)
#    1.000    0.667    3.333    1.000    7.000    0.667 
#    0.000    0.833    0.000    0.000    0.000    0.000 
#    0.000    0.000    0.000    0.000    0.000    0.000 
#
# Total GULP energy -133801.072832 kJ/mol
# GULP energy per Si atom -5575.044701 kJ/mol
# Density = 2.357829 g / cm^3
# Si number density = 23.632075 Si / 1000 Ang^3
#
#
#
# Elastic Constant Matrix: (Units=GPa)
#
#
# Indices 1 2 3 4 5 6 
#
# 1 29.5482 16.5767 17.2340 0.0000 -3.0879 0.0000
# 2 16.5767 97.4302 37.9196 0.0000 17.1768 0.0000
# 3 17.2340 37.9196 79.8622 0.0000 6.4148 0.0000
# 4 0.0000 0.0000 0.0000 35.2240 0.0000 -0.5063
# 5 -3.0879 17.1768 6.4148 0.0000 35.8585 0.0000
# 6 0.0000 0.0000 0.0000 -0.5063 0.0000 27.8239
#
#
#
# Elastic Compliance Matrix: (Units=1/GPa)
#
#
# Indices 1 2 3 4 5 6 
#
# 1 0.041915 -0.005785 -0.006910 0.000000 0.007617 0.000000
# 2 -0.005785 0.014353 -0.005047 0.000000 -0.006471 0.000000
# 3 -0.006910 -0.005047 0.016500 0.000000 -0.001129 0.000000
# 4 0.000000 0.000000 0.000000 0.028397 0.000000 0.000517
# 5 0.007617 -0.006471 -0.001129 0.000000 0.031845 0.000000
# 6 0.000000 0.000000 0.000000 0.000517 0.000000 0.035950
#
#
# Mechanical properties :
#
#
# Convention : Reuss Voigt Hill
#
# Bulk Modulus (GPa) = 26.82133 38.92236 32.87184
# Shear Modulus (GPa) = 23.05526 28.78866 25.92196
#
# Velocity S-wave (km/s) = 3.12683 3.49406 3.31554
# Velocity P-wave (km/s) = 4.94068 5.72572 5.34762
#
# Compressibility (1/GPa) = 0.03728376
#
# Stress axis : x y z
#
# Youngs Moduli (GPa) = 23.85808 69.67215 60.60680
#
# Poissons Ratio (x) = 0.40303 0.41881
# Poissons Ratio (y) = 0.13801 0.30588
# Poissons Ratio (z) = 0.16486 0.35163
#
# Static dielectric constant tensor:
#      x y z
#    x 1.903430 0.000000 -0.003950 
#    y 0.000000 2.139020 0.000000 
#    z -0.003950 0.000000 1.891830 
# 
# From -- ./inp_files/64479.got.cif
#   From: 2010.05.17/outbox.cif.g08.bks.cpg/sg14_33_cif.got.tgz:64479.got - 2010.06.03 17:49:19.
