data_PCOD9248007
_publ_section_title
;
Structure prediction by ZEFSAII (Michael W. Deem and Ramdas Pophale) SiO2 
 PCOD9248007
Probable space group: P 21/C
;
_chemical_formula_sum "Si O2"
_cell_formula_units_Z 24
_cell_length_a 15.492369
_cell_length_b 14.208930
_cell_length_c 9.523964
_cell_angle_alpha 90.000000
_cell_angle_beta 143.703204
_cell_angle_gamma 90.000000
_cell_volume 1241.067103
_symmetry_space_group_name_H-M "P 21/C"
_symmetry_group_IT_number 14
_symmetry_cell_setting 'monoclinic'
loop_
_space_group_symop_operation_xyz
x,y,z
-x,1/2+y,1/2-z
-x,-y,-z
x,1/2-y,1/2+z
loop_
_atom_site_type_symbol
_atom_site_label
_atom_site_fract_x
_atom_site_fract_y
_atom_site_fract_z
Si Si1 0.277104 0.190719 0.573109
Si Si2 0.104725 0.933058 0.228793
Si Si3 0.069036 0.250192 0.056184
Si Si4 0.399765 0.474409 0.071735
Si Si5 0.017596 0.070183 0.649525
Si Si6 0.347569 0.400538 0.690464
O O1 0.172297 0.195594 0.300298
O O2 0.171911 0.201105 0.572365
O O3 0.373531 0.098860 0.665291
O O4 0.365872 0.289087 0.688168
O O5 0.089884 0.962465 0.370341
O O6 0.268580 0.950068 0.397141
O O7 0.043160 0.827079 0.146700
O O8 0.000000 0.000000 0.000000
O O9 0.989822 0.328317 0.045308
O O10 0.384969 0.421097 0.902167
O O11 0.549618 0.532108 0.266472
O O12 0.179181 0.076602 0.930964
O O13 0.000000 0.000000 0.500000
#
# Coordination Sequence:
#
# PCOD9248007 Si02
#       6
#     4   4   4   4   4   4
#     4  11  18  40  62  88 117 170 199 246 316 370
#     4  12  20  39  62  95 115 161 211 251 310 364
#     4  11  21  36  63  87 124 159 209 248 303 381
#     4  11  22  39  68  87 128 164 206 260 303 381
#     4  11  23  39  62  92 125 158 210 260 307 368
#     4  10  22  41  60  94 119 169 209 242 320 374
#
# _framework density 19.338194999999999
#
# number of rings (size 3 to 8) (size 9 to 14) (size 15 to 20)
#    0.000    1.000    8.333    1.000    0.000    0.000 
#    3.000    9.167    0.000    0.000    0.000    0.000 
#    0.000    0.000    0.000    0.000    0.000    0.000 
#
# Total GULP energy -133859.747727 kJ/mol
# GULP energy per Si atom -5577.489489 kJ/mol
# Density = 1.929418 g / cm^3
# Si number density = 19.338195 Si / 1000 Ang^3
#
#
#
# Elastic Constant Matrix: (Units=GPa)
#
#
# Indices 1 2 3 4 5 6 
#
# 1 80.5854 25.3339 4.1330 0.0000 -6.1084 0.0000
# 2 25.3339 80.6336 6.5620 0.0000 7.8891 0.0000
# 3 4.1330 6.5620 23.4366 0.0000 -1.5431 0.0000
# 4 0.0000 0.0000 0.0000 29.0423 0.0000 -2.9407
# 5 -6.1084 7.8891 -1.5431 0.0000 29.6319 0.0000
# 6 0.0000 0.0000 0.0000 -2.9407 0.0000 42.9476
#
#
#
# Elastic Compliance Matrix: (Units=1/GPa)
#
#
# Indices 1 2 3 4 5 6 
#
# 1 0.014289 -0.004826 -0.000893 0.000000 0.004184 0.000000
# 2 -0.004826 0.014710 -0.003603 0.000000 -0.005099 0.000000
# 3 -0.000893 -0.003603 0.044037 0.000000 0.003068 0.000000
# 4 0.000000 0.000000 0.000000 0.034673 0.000000 0.002374
# 5 0.004184 -0.005099 0.003068 0.000000 0.036127 0.000000
# 6 0.000000 0.000000 0.000000 0.002374 0.000000 0.023447
#
#
# Mechanical properties :
#
#
# Convention : Reuss Voigt Hill
#
# Bulk Modulus (GPa) = 18.38541 28.52371 23.45456
# Shear Modulus (GPa) = 24.50273 30.23280 27.36777
#
# Velocity S-wave (km/s) = 3.56345 3.95824 3.76602
# Velocity P-wave (km/s) = 5.14381 5.97262 5.57364
#
# Compressibility (1/GPa) = 0.05439096
#
# Stress axis : x y z
#
# Youngs Moduli (GPa) = 69.98199 67.97993 22.70836
#
# Poissons Ratio (x) = 0.32809 0.02028
# Poissons Ratio (y) = 0.33775 0.08183
# Poissons Ratio (z) = 0.06250 0.24495
#
# Static dielectric constant tensor:
#      x y z
#    x 1.723560 0.000000 -0.003370 
#    y 0.000000 1.776890 0.000000 
#    z -0.003370 0.000000 1.665390 
# 
# From -- ./inp_files/8426.got.cif
#   From: 2010.05.17/outbox.cif.g08.bks.cpg/sg14_5_cif.got.tgz:8426.got - 2010.06.03 17:49:19.
