data_PCOD9248722
_publ_section_title
;
Structure prediction by ZEFSAII (Michael W. Deem and Ramdas Pophale) SiO2 
 PCOD9248722
Probable space group: P 21/C
;
_chemical_formula_sum "Si O2"
_cell_formula_units_Z 24
_cell_length_a 15.025553
_cell_length_b 9.670899
_cell_length_c 21.160360
_cell_angle_alpha 90.000000
_cell_angle_beta 17.992700
_cell_angle_gamma 90.000000
_cell_volume 949.800500
_symmetry_space_group_name_H-M "P 21/C"
_symmetry_group_IT_number 14
_symmetry_cell_setting 'monoclinic'
loop_
_space_group_symop_operation_xyz
x,y,z
-x,1/2+y,1/2-z
-x,-y,-z
x,1/2-y,1/2+z
loop_
_atom_site_type_symbol
_atom_site_label
_atom_site_fract_x
_atom_site_fract_y
_atom_site_fract_z
Si Si1 0.097307 0.157430 0.012229
Si Si2 0.401966 0.940696 0.246575
Si Si3 0.477442 0.648158 0.134504
Si Si4 0.958279 0.547282 0.896590
Si Si5 0.164175 0.226576 0.221721
Si Si6 0.514203 0.723012 0.363457
O O1 0.301496 0.062818 0.915369
O O2 0.980030 0.291255 0.131617
O O3 0.289223 0.218881 0.826434
O O4 0.816823 0.074012 0.183042
O O5 0.372936 0.785119 0.242393
O O6 0.149116 0.980552 0.465252
O O7 0.444548 0.056915 0.166003
O O8 0.677656 0.556485 0.042275
O O9 0.660126 0.701167 0.952412
O O10 0.170571 0.441343 0.719651
O O11 0.334725 0.267921 0.171996
O O12 0.821936 0.253050 0.432851
#
# Coordination Sequence:
#
# PCOD9248722 Si02
#       6
#     4   4   4   4   4   4
#     4  10  22  43  71 102 136 184 240 288 339 419
#     4  10  22  44  70 102 133 182 243 287 340 411
#     4  11  26  41  73 103 141 184 236 289 356 413
#     4  10  23  45  69 102 138 183 238 287 349 415
#     4  12  27  46  68 106 146 186 228 291 358 422
#     4  11  26  45  73 100 145 189 233 283 357 417
#
# _framework density 25.268462
#
# number of rings (size 3 to 8) (size 9 to 14) (size 15 to 20)
#    0.000    1.333    1.667    2.000   11.667    6.000 
#    0.000    1.667    0.000    0.000    0.000    0.000 
#    0.000    0.000    0.000    0.000    0.000    0.000 
#
# Total GULP energy -134164.815468 kJ/mol
# GULP energy per Si atom -5590.200645 kJ/mol
# Density = 2.521095 g / cm^3
# Si number density = 25.268462 Si / 1000 Ang^3
#
#
#
# Elastic Constant Matrix: (Units=GPa)
#
#
# Indices 1 2 3 4 5 6 
#
# 1 146.9977 16.2305 63.4058 0.0000 -39.6300 0.0000
# 2 16.2305 82.0221 15.4466 0.0000 14.3714 0.0000
# 3 63.4058 15.4466 137.3245 0.0000 -35.2737 0.0000
# 4 0.0000 0.0000 0.0000 6.7296 0.0000 14.2949
# 5 -39.6300 14.3714 -35.2737 0.0000 47.5494 0.0000
# 6 0.0000 0.0000 0.0000 14.2949 0.0000 14.1765
#
#
#
# Elastic Compliance Matrix: (Units=1/GPa)
#
#
# Indices 1 2 3 4 5 6 
#
# 1 0.010220 -0.002888 -0.002448 0.000000 0.007575 0.000000
# 2 -0.002888 0.014793 -0.002591 0.000000 -0.008800 0.000000
# 3 -0.002448 -0.002591 0.010354 0.000000 0.006423 0.000000
# 4 0.000000 0.000000 0.000000 -0.130129 0.000000 0.131216
# 5 0.007575 -0.008800 0.006423 0.000000 0.034769 0.000000
# 6 0.000000 0.000000 0.000000 0.131216 0.000000 -0.061773
#
#
# Mechanical properties :
#
#
# Convention : Reuss Voigt Hill
#
# Bulk Modulus (GPa) = 51.25072 61.83444 56.54258
# Shear Modulus (GPa) = -50.29788 31.77522 -9.26133
#
# Velocity S-wave (km/s) = -4.46639 3.54998 -1.91654
# Velocity P-wave (km/s) = 2.50432 6.42863 4.18662
#
# Compressibility (1/GPa) = 0.01951192
#
# Stress axis : x y z
#
# Youngs Moduli (GPa) = 97.84919 67.59832 96.58319
#
# Poissons Ratio (x) = 0.19525 0.23645
# Poissons Ratio (y) = 0.28263 0.25023
# Poissons Ratio (z) = 0.23955 0.17514
#
# Static dielectric constant tensor:
#      x y z
#    x 2.128750 0.000000 -0.118350 
#    y 0.000000 1.982080 0.000000 
#    z -0.118350 0.000000 1.998070 
# 
# From -- ./inp_files/68512.got.cif
#   From: 2010.05.17/outbox.cif.g08.bks.cpg/sg14_35_cif.got.tgz:68512.got - 2010.06.03 17:49:19.
