data_PCOD9248009
_publ_section_title
;
Structure prediction by ZEFSAII (Michael W. Deem and Ramdas Pophale) SiO2 
 PCOD9248009
Probable space group: P 21/C
;
_chemical_formula_sum "Si O2"
_cell_formula_units_Z 30
_cell_length_a 18.907258
_cell_length_b 11.558946
_cell_length_c 13.079444
_cell_angle_alpha 90.000000
_cell_angle_beta 154.900158
_cell_angle_gamma 90.000000
_cell_volume 1212.560969
_symmetry_space_group_name_H-M "P 21/C"
_symmetry_group_IT_number 14
_symmetry_cell_setting 'monoclinic'
loop_
_space_group_symop_operation_xyz
x,y,z
-x,1/2+y,1/2-z
-x,-y,-z
x,1/2-y,1/2+z
loop_
_atom_site_type_symbol
_atom_site_label
_atom_site_fract_x
_atom_site_fract_y
_atom_site_fract_z
Si Si1 0.630108 0.612528 0.308559
Si Si2 0.814842 0.605854 0.738526
Si Si3 0.000000 0.500000 0.500000
Si Si4 0.155059 0.911783 0.573319
Si Si5 0.772233 0.681982 0.301264
Si Si6 0.720681 0.205651 0.635992
Si Si7 0.777497 0.500534 0.065247
Si Si8 0.468826 0.874531 0.265010
O O1 0.668021 0.648044 0.473673
O O2 0.746982 0.685304 0.388532
O O3 0.441815 0.642204 0.034622
O O4 0.641065 0.474406 0.325489
O O5 0.755742 0.502266 0.733200
O O6 0.869506 0.708209 0.884916
O O7 0.962281 0.570611 0.854215
O O8 0.137931 0.436206 0.605263
O O9 0.077734 0.418176 0.703854
O O10 0.200078 0.946111 0.516466
O O11 0.203197 0.785202 0.676762
O O12 0.590424 0.677623 0.010147
O O13 0.822874 0.100786 0.713640
O O14 0.650133 0.288378 0.452981
O O15 0.599586 0.557614 0.858685
#
# Coordination Sequence:
#
# PCOD9248009 Si02
#       8
#     4   4   2   4   4   4   4   4
#     4  11  23  41  66  94 133 174 221 273 339 389
#     4  11  24  42  62  99 129 169 230 273 324 410
#     4  10  22  46  64  94 134 166 226 266 318 408
#     4  11  25  43  67  96 135 174 222 281 337 389
#     4  11  23  40  67  92 130 179 214 275 337 393
#     4  11  23  42  64 101 133 169 223 286 320 413
#     4  10  24  43  68  95 130 182 215 272 344 390
#     4  10  22  41  60  96 131 162 228 275 322 404
#
# _framework density 24.741022999999998
#
# number of rings (size 3 to 8) (size 9 to 14) (size 15 to 20)
#    0.000    1.333    2.667    2.000    3.733    0.533 
#    2.400    2.667    0.000    0.000    0.000    0.000 
#    0.000    0.000    0.000    0.000    0.000    0.000 
#
# Total GULP energy -167291.012839 kJ/mol
# GULP energy per Si atom -5576.367095 kJ/mol
# Density = 2.468471 g / cm^3
# Si number density = 24.741023 Si / 1000 Ang^3
#
#
#
# Elastic Constant Matrix: (Units=GPa)
#
#
# Indices 1 2 3 4 5 6 
#
# 1 129.7813 38.1722 28.5189 0.0000 -29.8607 0.0000
# 2 38.1722 83.2287 11.1249 0.0000 -6.3751 0.0000
# 3 28.5189 11.1249 80.3562 0.0000 -12.1509 0.0000
# 4 0.0000 0.0000 0.0000 41.8079 0.0000 3.4082
# 5 -29.8607 -6.3751 -12.1509 0.0000 20.5371 0.0000
# 6 0.0000 0.0000 0.0000 3.4082 0.0000 21.9879
#
#
#
# Elastic Compliance Matrix: (Units=1/GPa)
#
#
# Indices 1 2 3 4 5 6 
#
# 1 0.013307 -0.004597 -0.001512 0.000000 0.017027 0.000000
# 2 -0.004597 0.014009 -0.000726 0.000000 -0.002765 0.000000
# 3 -0.001512 -0.000726 0.013965 0.000000 0.005839 0.000000
# 4 0.000000 0.000000 0.000000 0.024225 0.000000 -0.003755
# 5 0.017027 -0.002765 0.005839 0.000000 0.076046 0.000000
# 6 0.000000 0.000000 0.000000 -0.003755 0.000000 0.046061
#
#
# Mechanical properties :
#
#
# Convention : Reuss Voigt Hill
#
# Bulk Modulus (GPa) = 36.21726 49.88869 43.05297
# Shear Modulus (GPa) = 23.75453 31.23661 27.49557
#
# Velocity S-wave (km/s) = 3.10195 3.55708 3.33729
# Velocity P-wave (km/s) = 5.24403 6.08922 5.68236
#
# Compressibility (1/GPa) = 0.02761115
#
# Stress axis : x y z
#
# Youngs Moduli (GPa) = 75.14691 71.38418 71.61006
#
# Poissons Ratio (x) = 0.32815 0.10825
# Poissons Ratio (y) = 0.34545 0.05199
# Poissons Ratio (z) = 0.11360 0.05183
#
# Static dielectric constant tensor:
#      x y z
#    x 1.990680 0.000000 0.010920 
#    y 0.000000 2.135770 0.000000 
#    z 0.010920 0.000000 2.240560 
# 
# From -- ./inp_files/34196.got.cif
#   From: 2010.05.17/outbox.cif.g08.bks.cpg/sg14_18_cif.got.tgz:34196.got - 2010.06.03 17:49:19.
