data_PCOD9248921
_publ_section_title
;
Structure prediction by ZEFSAII (Michael W. Deem and Ramdas Pophale) SiO2 
 PCOD9248921
Probable space group: P 21/C
;
_chemical_formula_sum "Si O2"
_cell_formula_units_Z 30
_cell_length_a 19.198282
_cell_length_b 5.139641
_cell_length_c 14.170086
_cell_angle_alpha 90.000000
_cell_angle_beta 67.194849
_cell_angle_gamma 90.000000
_cell_volume 1288.895415
_symmetry_space_group_name_H-M "P 21/C"
_symmetry_group_IT_number 14
_symmetry_cell_setting 'monoclinic'
loop_
_space_group_symop_operation_xyz
x,y,z
-x,1/2+y,1/2-z
-x,-y,-z
x,1/2-y,1/2+z
loop_
_atom_site_type_symbol
_atom_site_label
_atom_site_fract_x
_atom_site_fract_y
_atom_site_fract_z
Si Si1 0.960583 0.501025 0.310501
Si Si2 0.798496 0.256391 0.864657
Si Si3 0.000000 0.000000 0.000000
Si Si4 0.581520 0.847810 0.407069
Si Si5 0.829347 0.937522 0.158353
Si Si6 0.430366 0.652475 0.457355
Si Si7 0.287322 0.749157 0.908226
Si Si8 0.718812 0.573400 0.263515
O O1 0.874146 0.410964 0.343094
O O2 0.989726 0.736440 0.229553
O O3 0.972802 0.599986 0.409503
O O4 0.818011 0.453206 0.770226
O O5 0.733561 0.079032 0.851997
O O6 0.764131 0.369773 0.979495
O O7 0.912543 0.991067 0.082188
O O8 0.511679 0.758560 0.377335
O O9 0.570701 0.633460 0.496123
O O10 0.662357 0.804891 0.317132
O O11 0.580740 0.132151 0.453193
O O12 0.769326 0.052252 0.114951
O O13 0.803491 0.640789 0.183183
O O14 0.363093 0.654840 0.418165
O O15 0.314574 0.571984 0.807979
#
# Coordination Sequence:
#
# PCOD9248921 Si02
#       8
#     4   4   2   4   4   4   4   4
#     4  12  27  47  74 104 142 192 237 304 370 429
#     4  11  23  45  67  98 140 189 232 295 358 434
#     4  12  24  48  70 110 144 184 252 302 360 454
#     4  10  22  44  73 101 144 186 237 289 355 423
#     4  11  25  44  67 100 140 182 242 297 364 429
#     4  10  22  44  72 105 140 191 233 292 354 423
#     4  11  24  42  67 103 138 187 241 290 363 418
#     4  11  25  42  69 104 141 192 238 299 352 438
#
# _framework density 23.275742000000001
#
# number of rings (size 3 to 8) (size 9 to 14) (size 15 to 20)
#    0.000    1.067    4.000    1.600    3.733    2.667 
#    2.400    0.000    0.000    0.000    0.000    0.000 
#    0.000    0.000    0.000    0.000    0.000    0.000 
#
# Total GULP energy -167003.362973 kJ/mol
# GULP energy per Si atom -5566.778766 kJ/mol
# Density = 2.322277 g / cm^3
# Si number density = 23.275742 Si / 1000 Ang^3
#
#
#
# Elastic Constant Matrix: (Units=GPa)
#
#
# Indices 1 2 3 4 5 6 
#
# 1 128.5199 12.6896 33.9669 0.0000 -11.4597 0.0000
# 2 12.6896 55.7110 -2.1687 0.0000 -1.9872 0.0000
# 3 33.9669 -2.1687 58.4851 0.0000 -0.3802 0.0000
# 4 0.0000 0.0000 0.0000 -30.1628 0.0000 39.0942
# 5 -11.4597 -1.9872 -0.3802 0.0000 40.6808 0.0000
# 6 0.0000 0.0000 0.0000 39.0942 0.0000 -29.2831
#
#
#
# Elastic Compliance Matrix: (Units=1/GPa)
#
#
# Indices 1 2 3 4 5 6 
#
# 1 0.009760 -0.002355 -0.005739 0.000000 0.002581 0.000000
# 2 -0.002355 0.018576 0.002058 0.000000 0.000263 0.000000
# 3 -0.005739 0.002058 0.020499 0.000000 -0.001325 0.000000
# 4 0.000000 0.000000 0.000000 0.045393 0.000000 0.060602
# 5 0.002581 0.000263 -0.001325 0.000000 0.025309 0.000000
# 6 0.000000 0.000000 0.000000 0.060602 0.000000 0.046757
#
#
# Mechanical properties :
#
#
# Convention : Reuss Voigt Hill
#
# Bulk Modulus (GPa) = 27.20065 36.85463 32.02764
# Shear Modulus (GPa) = 26.23014 9.46219 17.84617
#
# Velocity S-wave (km/s) = 3.36062 2.01844 2.77199
# Velocity P-wave (km/s) = 5.17397 4.61524 4.90257
#
# Compressibility (1/GPa) = 0.03676383
#
# Stress axis : x y z
#
# Youngs Moduli (GPa) = 102.45584 53.83408 48.78233
#
# Poissons Ratio (x) = 0.12675 0.27997
# Poissons Ratio (y) = 0.24123 -0.10039
# Poissons Ratio (z) = 0.58801 -0.11079
#
# Static dielectric constant tensor:
#      x y z
#    x 1.888330 0.000000 -0.026650 
#    y 0.000000 1.930620 0.000000 
#    z -0.026650 0.000000 1.870510 
# 
# From -- ./inp_files/47966.got.cif
#   From: 2010.05.17/outbox.cif.g08.bks.cpg/sg14_24_cif.got.tgz:47966.got - 2010.06.03 17:49:19.
