data_PCOD9248474
_publ_section_title
;
Structure prediction by ZEFSAII (Michael W. Deem and Ramdas Pophale) SiO2 
 PCOD9248474
Probable space group: P 21/C
;
_chemical_formula_sum "Si O2"
_cell_formula_units_Z 32
_cell_length_a 9.182574
_cell_length_b 10.663172
_cell_length_c 13.789438
_cell_angle_alpha 90.000000
_cell_angle_beta 77.866978
_cell_angle_gamma 90.000000
_cell_volume 1320.037502
_symmetry_space_group_name_H-M "P 21/C"
_symmetry_group_IT_number 14
_symmetry_cell_setting 'monoclinic'
loop_
_space_group_symop_operation_xyz
x,y,z
-x,1/2+y,1/2-z
-x,-y,-z
x,1/2-y,1/2+z
loop_
_atom_site_type_symbol
_atom_site_label
_atom_site_fract_x
_atom_site_fract_y
_atom_site_fract_z
Si Si1 0.654006 0.986086 0.892542
Si Si2 0.882253 0.755411 0.097638
Si Si3 0.777884 0.210002 0.968621
Si Si4 0.509121 0.719879 0.904967
Si Si5 0.222286 0.896677 0.701081
Si Si6 0.918558 0.670314 0.307980
Si Si7 0.220198 0.108344 0.548193
Si Si8 0.606214 0.591637 0.698294
O O1 0.715451 0.069821 0.971085
O O2 0.536108 0.061097 0.845393
O O3 0.570674 0.856093 0.926364
O O4 0.805479 0.945134 0.818301
O O5 0.910864 0.739466 0.207006
O O6 0.744327 0.852656 0.117038
O O7 0.046767 0.789256 0.035369
O O8 0.827643 0.625594 0.055571
O O9 0.747053 0.272790 0.866416
O O10 0.667404 0.284651 0.055564
O O11 0.603013 0.625650 0.960125
O O12 0.560999 0.690845 0.788607
O O13 0.173192 0.992149 0.620975
O O14 0.345840 0.967867 0.746904
O O15 0.086876 0.873667 0.793497
O O16 0.857630 0.768073 0.394671
#
# Coordination Sequence:
#
# PCOD9248474 Si02
#       8
#     4   4   4   4   4   4   4   4
#     4  11  23  39  68  88 136 174 217 272 328 390
#     4  11  22  43  68  97 129 172 219 271 335 391
#     4  11  25  39  64 100 131 169 225 273 326 399
#     4  10  23  45  59  96 133 169 222 273 330 392
#     4  10  23  41  66  96 137 167 223 277 323 394
#     4  10  22  43  65  95 132 172 216 276 332 388
#     4  10  22  42  70  90 132 177 213 277 332 387
#     4  11  23  42  67  94 130 178 221 266 337 395
#
# _framework density 24.241734999999998
#
# number of rings (size 3 to 8) (size 9 to 14) (size 15 to 20)
#    0.000    1.500    3.750    1.875    3.500    9.000 
#    0.000    3.750    0.000    0.000    0.000    0.000 
#    0.000    0.000    0.000    0.000    0.000    0.000 
#
# Total GULP energy -178833.685159 kJ/mol
# GULP energy per Si atom -5588.552661 kJ/mol
# Density = 2.418656 g / cm^3
# Si number density = 24.241735 Si / 1000 Ang^3
#
#
#
# Elastic Constant Matrix: (Units=GPa)
#
#
# Indices 1 2 3 4 5 6 
#
# 1 72.6497 24.8641 43.5229 0.0000 -24.9860 0.0000
# 2 24.8641 61.2481 8.6166 0.0000 -11.2948 0.0000
# 3 43.5229 8.6166 60.4633 0.0000 -23.2988 0.0000
# 4 0.0000 0.0000 0.0000 29.1539 0.0000 6.3158
# 5 -24.9860 -11.2948 -23.2988 0.0000 46.9393 0.0000
# 6 0.0000 0.0000 0.0000 6.3158 0.0000 27.4285
#
#
#
# Elastic Compliance Matrix: (Units=1/GPa)
#
#
# Indices 1 2 3 4 5 6 
#
# 1 0.028879 -0.008383 -0.017864 0.000000 0.004489 0.000000
# 2 -0.008383 0.019573 0.004130 0.000000 0.002298 0.000000
# 3 -0.017864 0.004130 0.031565 0.000000 0.007153 0.000000
# 4 0.000000 0.000000 0.000000 0.036102 0.000000 -0.008313
# 5 0.004489 0.002298 0.007153 0.000000 0.027797 0.000000
# 6 0.000000 0.000000 0.000000 -0.008313 0.000000 0.038373
#
#
# Mechanical properties :
#
#
# Convention : Reuss Voigt Hill
#
# Bulk Modulus (GPa) = 27.94500 38.70759 33.32630
# Shear Modulus (GPa) = 20.96886 28.52816 24.74851
#
# Velocity S-wave (km/s) = 2.94426 3.43420 3.19863
# Velocity P-wave (km/s) = 4.80738 5.63267 5.23631
#
# Compressibility (1/GPa) = 0.03578458
#
# Stress axis : x y z
#
# Youngs Moduli (GPa) = 34.62700 51.09137 31.68040
#
# Poissons Ratio (x) = 0.42829 0.56593
# Poissons Ratio (y) = 0.29027 -0.13085
# Poissons Ratio (z) = 0.61857 -0.21102
#
# Static dielectric constant tensor:
#      x y z
#    x 1.928510 0.000000 -0.030900 
#    y 0.000000 1.968250 0.000000 
#    z -0.030900 0.000000 1.938110 
# 
# From -- ./inp_files/40281.got.cif
#   From: 2010.05.17/outbox.cif.g08.bks.cpg/sg14_21_cif.got.tgz:40281.got - 2010.06.03 17:49:19.
