data_PCOD9248408
_publ_section_title
;
Structure prediction by ZEFSAII (Michael W. Deem and Ramdas Pophale) SiO2 
 PCOD9248408
Probable space group: P 21/C
;
_chemical_formula_sum "Si O2"
_cell_formula_units_Z 26
_cell_length_a 11.937891
_cell_length_b 7.921005
_cell_length_c 22.087622
_cell_angle_alpha 90.000000
_cell_angle_beta 148.285845
_cell_angle_gamma 90.000000
_cell_volume 1097.943073
_symmetry_space_group_name_H-M "P 21/C"
_symmetry_group_IT_number 14
_symmetry_cell_setting 'monoclinic'
loop_
_space_group_symop_operation_xyz
x,y,z
-x,1/2+y,1/2-z
-x,-y,-z
x,1/2-y,1/2+z
loop_
_atom_site_type_symbol
_atom_site_label
_atom_site_fract_x
_atom_site_fract_y
_atom_site_fract_z
Si Si1 0.268239 0.830820 0.831701
Si Si2 0.521763 0.827753 0.546324
Si Si3 0.000000 0.500000 0.000000
Si Si4 0.378060 0.689983 0.247786
Si Si5 0.254742 0.510542 0.624092
Si Si6 0.053085 0.037287 0.222836
Si Si7 0.185465 0.739079 0.488884
O O1 0.359103 0.871525 0.807863
O O2 0.147472 0.650758 0.765987
O O3 0.098074 0.946103 0.787894
O O4 0.459587 0.809019 0.967644
O O5 0.755379 0.829450 0.680379
O O6 0.345293 0.829718 0.516966
O O7 0.500000 0.000000 0.500000
O O8 0.799755 0.408021 0.872645
O O9 0.042584 0.628298 0.960112
O O10 0.613681 0.657472 0.328735
O O11 0.324976 0.889532 0.216221
O O12 0.320229 0.635199 0.599948
O O13 0.000000 0.500000 0.500000
O O14 0.935949 0.100551 0.108385
#
# Coordination Sequence:
#
# PCOD9248408 Si02
#       7
#     4   4   2   4   4   4   4
#     4  10  23  41  68 105 134 186 231 297 368 435
#     4   9  21  39  64  98 133 180 226 284 362 426
#     4  10  26  42  70 102 134 200 244 304 370 434
#     4  11  27  46  73 103 149 194 253 310 377 441
#     4  11  27  48  70 107 143 197 251 307 369 444
#     4  10  22  42  68 100 145 179 234 297 359 446
#     4  10  23  42  68  99 137 182 241 295 363 432
#
# _framework density 23.680644000000001
#
# number of rings (size 3 to 8) (size 9 to 14) (size 15 to 20)
#    0.000    1.846    0.000    0.923   12.923    8.615 
#    0.000    3.077    0.000    0.000    0.000    0.000 
#    0.000    0.000    0.000    0.000    0.000    0.000 
#
# Total GULP energy -144833.436460 kJ/mol
# GULP energy per Si atom -5570.516787 kJ/mol
# Density = 2.362675 g / cm^3
# Si number density = 23.680644 Si / 1000 Ang^3
#
#
#
# Elastic Constant Matrix: (Units=GPa)
#
#
# Indices 1 2 3 4 5 6 
#
# 1 119.6558 30.4994 17.5364 0.0000 -8.1021 0.0000
# 2 30.4994 67.9528 -1.4785 0.0000 12.1814 0.0000
# 3 17.5364 -1.4785 36.8833 0.0000 7.8794 0.0000
# 4 0.0000 0.0000 0.0000 25.7586 0.0000 11.8147
# 5 -8.1021 12.1814 7.8794 0.0000 30.0712 0.0000
# 6 0.0000 0.0000 0.0000 11.8147 0.0000 45.4709
#
#
#
# Elastic Compliance Matrix: (Units=1/GPa)
#
#
# Indices 1 2 3 4 5 6 
#
# 1 0.011749 -0.006858 -0.007553 0.000000 0.007923 0.000000
# 2 -0.006858 0.020031 0.006559 0.000000 -0.011680 0.000000
# 3 -0.007553 0.006559 0.033865 0.000000 -0.013565 0.000000
# 4 0.000000 0.000000 0.000000 0.044075 0.000000 -0.011452
# 5 0.007923 -0.011680 -0.013565 0.000000 0.043675 0.000000
# 6 0.000000 0.000000 0.000000 -0.011452 0.000000 0.024968
#
#
# Mechanical properties :
#
#
# Convention : Reuss Voigt Hill
#
# Bulk Modulus (GPa) = 20.02432 35.28962 27.65697
# Shear Modulus (GPa) = 23.72898 32.12245 27.92572
#
# Velocity S-wave (km/s) = 3.16894 3.68705 3.43777
# Velocity P-wave (km/s) = 4.67588 5.74982 5.24043
#
# Compressibility (1/GPa) = 0.04993929
#
# Stress axis : x y z
#
# Youngs Moduli (GPa) = 85.11524 49.92344 29.52926
#
# Poissons Ratio (x) = 0.34237 0.22305
# Poissons Ratio (y) = 0.58370 -0.19368
# Poissons Ratio (z) = 0.64291 -0.32744
#
# Static dielectric constant tensor:
#      x y z
#    x 1.939150 0.000000 0.027160 
#    y 0.000000 2.020310 0.000000 
#    z 0.027160 0.000000 1.908650 
# 
# From -- ./inp_files/73173.got.cif
#   From: 2010.05.17/outbox.cif.g08.bks.cpg/sg14_37_cif.got.tgz:73173.got - 2010.06.03 17:49:19.
