data_PCOD9248486
_publ_section_title
;
Structure prediction by ZEFSAII (Michael W. Deem and Ramdas Pophale) SiO2 
 PCOD9248486
Probable space group: P 21/C
;
_chemical_formula_sum "Si O2"
_cell_formula_units_Z 30
_cell_length_a 20.160279
_cell_length_b 9.033987
_cell_length_c 13.656314
_cell_angle_alpha 90.000000
_cell_angle_beta 27.052632
_cell_angle_gamma 90.000000
_cell_volume 1131.197251
_symmetry_space_group_name_H-M "P 21/C"
_symmetry_group_IT_number 14
_symmetry_cell_setting 'monoclinic'
loop_
_space_group_symop_operation_xyz
x,y,z
-x,1/2+y,1/2-z
-x,-y,-z
x,1/2-y,1/2+z
loop_
_atom_site_type_symbol
_atom_site_label
_atom_site_fract_x
_atom_site_fract_y
_atom_site_fract_z
Si Si1 0.777952 0.841628 0.858401
Si Si2 0.000000 0.000000 0.000000
Si Si3 0.456582 0.278852 0.716265
Si Si4 0.087975 0.078181 0.687536
Si Si5 0.193526 0.870354 0.051202
Si Si6 0.371137 0.595500 0.804453
Si Si7 0.696994 0.426514 0.813289
Si Si8 0.641514 0.743327 0.357788
O O1 0.867720 0.704639 0.788164
O O2 0.773014 0.826817 0.748096
O O3 0.609494 0.804930 0.105104
O O4 0.811720 0.995900 0.864283
O O5 0.008395 0.967104 0.868180
O O6 0.161128 0.931348 0.806042
O O7 0.447278 0.451369 0.752231
O O8 0.595568 0.201541 0.488673
O O9 0.336987 0.249428 0.786564
O O10 0.219216 0.982870 0.468009
O O11 0.974321 0.149038 0.762026
O O12 0.300452 0.740044 0.947450
O O13 0.266893 0.904744 0.848514
O O14 0.493565 0.649617 0.567409
O O15 0.623628 0.588177 0.916872
#
# Coordination Sequence:
#
# PCOD9248486 Si02
#       8
#     4   2   4   4   4   4   4   4
#     4  11  24  41  69 103 139 185 241 305 349 440
#     4  10  22  42  70  98 136 188 236 300 350 448
#     4  11  24  43  69 102 145 185 228 300 358 429
#     4  10  23  43  66  98 135 183 247 293 362 431
#     4  11  22  43  71  94 138 194 235 288 368 428
#     4  11  25  42  68 103 139 185 235 302 358 427
#     4  11  22  43  73 100 138 189 238 280 373 435
#     4  12  23  42  66 107 144 180 240 293 367 430
#
# _framework density 26.520572999999999
#
# number of rings (size 3 to 8) (size 9 to 14) (size 15 to 20)
#    0.000    1.067    4.000    2.400    1.867    2.133 
#    0.000    0.000    0.000    5.600    0.000    0.000 
#    0.000    0.000    0.000    0.000    0.000    0.000 
#
# Total GULP energy -167152.168549 kJ/mol
# GULP energy per Si atom -5571.738952 kJ/mol
# Density = 2.646021 g / cm^3
# Si number density = 26.520573 Si / 1000 Ang^3
#
#
#
# Elastic Constant Matrix: (Units=GPa)
#
#
# Indices 1 2 3 4 5 6 
#
# 1 134.6219 44.3723 8.9384 0.0000 3.7214 0.0000
# 2 44.3723 96.3383 -5.5533 0.0000 -3.6626 0.0000
# 3 8.9384 -5.5533 55.3230 0.0000 -3.7255 0.0000
# 4 0.0000 0.0000 0.0000 18.3943 0.0000 -2.8940
# 5 3.7214 -3.6626 -3.7255 0.0000 32.7000 0.0000
# 6 0.0000 0.0000 0.0000 -2.8940 0.0000 44.4896
#
#
#
# Elastic Compliance Matrix: (Units=1/GPa)
#
#
# Indices 1 2 3 4 5 6 
#
# 1 0.009043 -0.004348 -0.002015 0.000000 -0.001746 0.000000
# 2 -0.004348 0.012586 0.002110 0.000000 0.002145 0.000000
# 3 -0.002015 0.002110 0.018789 0.000000 0.002606 0.000000
# 4 0.000000 0.000000 0.000000 0.054927 0.000000 0.003573
# 5 -0.001746 0.002145 0.002606 0.000000 0.031317 0.000000
# 6 0.000000 0.000000 0.000000 0.003573 0.000000 0.022710
#
#
# Mechanical properties :
#
#
# Convention : Reuss Voigt Hill
#
# Bulk Modulus (GPa) = 31.33573 42.42202 36.87887
# Shear Modulus (GPa) = 29.67122 35.01852 32.34487
#
# Velocity S-wave (km/s) = 3.34848 3.63771 3.49609
# Velocity P-wave (km/s) = 5.17600 5.80298 5.49843
#
# Compressibility (1/GPa) = 0.03191246
#
# Stress axis : x y z
#
# Youngs Moduli (GPa) = 110.57882 79.45458 53.22387
#
# Poissons Ratio (x) = 0.34545 0.10725
# Poissons Ratio (y) = 0.48077 -0.11232
# Poissons Ratio (z) = 0.22283 -0.16767
#
# Static dielectric constant tensor:
#      x y z
#    x 2.102040 0.000000 -0.024240 
#    y 0.000000 2.207590 0.000000 
#    z -0.024240 0.000000 2.184840 
# 
# From -- ./inp_files/50247.got.cif
#   From: 2010.05.17/outbox.cif.g08.bks.cpg/sg14_26_cif.got.tgz:50247.got - 2010.06.03 17:49:19.
