data_PCOD9248466
_publ_section_title
;
Structure prediction by ZEFSAII (Michael W. Deem and Ramdas Pophale) SiO2 
 PCOD9248466
Probable space group: P 21/C
;
_chemical_formula_sum "Si O2"
_cell_formula_units_Z 24
_cell_length_a 11.849702
_cell_length_b 10.762419
_cell_length_c 8.606484
_cell_angle_alpha 90.000000
_cell_angle_beta 70.588867
_cell_angle_gamma 90.000000
_cell_volume 1035.207926
_symmetry_space_group_name_H-M "P 21/C"
_symmetry_group_IT_number 14
_symmetry_cell_setting 'monoclinic'
loop_
_space_group_symop_operation_xyz
x,y,z
-x,1/2+y,1/2-z
-x,-y,-z
x,1/2-y,1/2+z
loop_
_atom_site_type_symbol
_atom_site_label
_atom_site_fract_x
_atom_site_fract_y
_atom_site_fract_z
Si Si1 0.776738 0.381543 0.032889
Si Si2 0.507031 0.631827 0.413276
Si Si3 0.020063 0.046085 0.164891
Si Si4 0.979357 0.675823 0.917853
Si Si5 0.356231 0.816748 0.699264
Si Si6 0.234171 0.382337 0.771075
O O1 0.721390 0.264027 0.145937
O O2 0.726954 0.501780 0.141715
O O3 0.916235 0.370833 0.014569
O O4 0.733947 0.386737 0.875275
O O5 0.500000 0.500000 0.500000
O O6 0.432927 0.728008 0.551723
O O7 0.447577 0.614200 0.271012
O O8 0.643663 0.679797 0.337333
O O9 0.985175 0.192885 0.173241
O O10 0.156786 0.059637 0.165242
O O11 0.966763 0.933282 0.295274
O O12 0.000000 0.000000 0.000000
O O13 0.859887 0.690376 0.076427
#
# Coordination Sequence:
#
# PCOD9248466 Si02
#       6
#     4   4   4   4   4   4
#     4  10  22  42  70 100 135 184 241 302 357 443
#     4  11  24  49  67 103 140 186 242 294 360 433
#     4  11  25  44  71 109 148 196 236 299 371 436
#     4  11  26  45  71 108 150 188 246 300 375 440
#     4  10  24  43  73  99 135 190 244 294 357 434
#     4  11  25  44  66 104 146 183 238 305 361 438
#
# _framework density 23.183745999999999
#
# number of rings (size 3 to 8) (size 9 to 14) (size 15 to 20)
#    0.000    1.333    1.667    3.000   11.667    0.667 
#    0.000    0.000    0.000    0.000    0.000    0.000 
#    0.000    0.000    0.000    0.000    0.000    0.000 
#
# Total GULP energy -134083.492284 kJ/mol
# GULP energy per Si atom -5586.812179 kJ/mol
# Density = 2.313098 g / cm^3
# Si number density = 23.183746 Si / 1000 Ang^3
#
#
#
# Elastic Constant Matrix: (Units=GPa)
#
#
# Indices 1 2 3 4 5 6 
#
# 1 123.9312 24.5316 75.1854 0.0000 15.6314 0.0000
# 2 24.5316 110.3555 40.3871 0.0000 22.7712 0.0000
# 3 75.1854 40.3871 130.6037 0.0000 34.4587 0.0000
# 4 0.0000 0.0000 0.0000 21.9951 0.0000 11.7038
# 5 15.6314 22.7712 34.4587 0.0000 59.6248 0.0000
# 6 0.0000 0.0000 0.0000 11.7038 0.0000 32.6995
#
#
#
# Elastic Compliance Matrix: (Units=1/GPa)
#
#
# Indices 1 2 3 4 5 6 
#
# 1 0.012462 -0.000301 -0.007374 0.000000 0.001109 0.000000
# 2 -0.000301 0.010538 -0.002412 0.000000 -0.002551 0.000000
# 3 -0.007374 -0.002412 0.014035 0.000000 -0.005256 0.000000
# 4 0.000000 0.000000 0.000000 0.056161 0.000000 -0.020101
# 5 0.001109 -0.002551 -0.005256 0.000000 0.020493 0.000000
# 6 0.000000 0.000000 0.000000 -0.020101 0.000000 0.037776
#
#
# Mechanical properties :
#
#
# Convention : Reuss Voigt Hill
#
# Bulk Modulus (GPa) = 59.30914 71.67763 65.49339
# Shear Modulus (GPa) = 28.20747 37.84964 33.02855
#
# Velocity S-wave (km/s) = 3.49189 4.04492 3.77854
# Velocity P-wave (km/s) = 6.47267 7.26633 6.88095
#
# Compressibility (1/GPa) = 0.01686081
#
# Stress axis : x y z
#
# Youngs Moduli (GPa) = 80.24361 94.89640 71.25267
#
# Poissons Ratio (x) = 0.02852 0.52540
# Poissons Ratio (y) = 0.02412 0.17189
# Poissons Ratio (z) = 0.59170 0.22893
#
# Static dielectric constant tensor:
#      x y z
#    x 1.952840 0.000000 -0.084470 
#    y 0.000000 1.857430 0.000000 
#    z -0.084470 0.000000 1.949600 
# 
# From -- ./inp_files/12380.got.cif
#   From: 2010.05.17/outbox.cif.g08.bks.cpg/sg14_7_cif.got.tgz:12380.got - 2010.06.03 17:49:19.
