data_PCOD9248442
_publ_section_title
;
Structure prediction by ZEFSAII (Michael W. Deem and Ramdas Pophale) SiO2 
 PCOD9248442
Probable space group: P 21/C
;
_chemical_formula_sum "Si O2"
_cell_formula_units_Z 28
_cell_length_a 17.385231
_cell_length_b 12.729445
_cell_length_c 12.769890
_cell_angle_alpha 90.000000
_cell_angle_beta 155.720422
_cell_angle_gamma 90.000000
_cell_volume 1162.034670
_symmetry_space_group_name_H-M "P 21/C"
_symmetry_group_IT_number 14
_symmetry_cell_setting 'monoclinic'
loop_
_space_group_symop_operation_xyz
x,y,z
-x,1/2+y,1/2-z
-x,-y,-z
x,1/2-y,1/2+z
loop_
_atom_site_type_symbol
_atom_site_label
_atom_site_fract_x
_atom_site_fract_y
_atom_site_fract_z
Si Si1 0.127815 0.012067 0.918250
Si Si2 0.703118 0.532899 0.838933
Si Si3 0.780216 0.010668 0.196899
Si Si4 0.338997 0.893027 0.541705
Si Si5 0.669857 0.292292 0.320870
Si Si6 0.557077 0.290230 0.458549
Si Si7 0.342590 0.440058 0.874823
O O1 0.218081 0.040994 0.917458
O O2 0.196539 0.892311 0.024113
O O3 0.187538 0.080870 0.093205
O O4 0.906514 0.002339 0.629817
O O5 0.694458 0.516137 0.704994
O O6 0.575986 0.464493 0.761284
O O7 0.639371 0.651115 0.778080
O O8 0.701821 0.129214 0.083036
O O9 0.000000 0.000000 0.500000
O O10 0.254741 0.796099 0.505600
O O11 0.464959 0.820231 0.624440
O O12 0.264464 0.979844 0.366044
O O13 0.459238 0.344556 0.073464
O O14 0.645362 0.232702 0.180757
O O15 0.500000 0.500000 0.000000
#
# Coordination Sequence:
#
# PCOD9248442 Si02
#       7
#     4   4   4   4   4   4   4
#     4  10  22  45  68  97 145 179 225 291 347 406
#     4  11  26  43  70 105 142 180 233 289 348 413
#     4  10  22  42  69  99 139 184 223 286 347 402
#     4  12  23  41  72  99 137 187 225 289 344 412
#     4  11  23  42  68  99 136 179 235 280 340 417
#     4  12  23  42  69 103 134 182 237 275 346 414
#     4  10  22  42  68  98 138 184 225 282 352 401
#
# _framework density 24.095666000000001
#
# number of rings (size 3 to 8) (size 9 to 14) (size 15 to 20)
#    0.000    1.143    5.714    1.286    2.000    0.571 
#    2.571    1.429    0.000    0.000    0.000    0.000 
#    0.000    0.000    0.000    0.000    0.000    0.000 
#
# Total GULP energy -155918.317475 kJ/mol
# GULP energy per Si atom -5568.511338 kJ/mol
# Density = 2.404082 g / cm^3
# Si number density = 24.095666 Si / 1000 Ang^3
#
#
#
# Elastic Constant Matrix: (Units=GPa)
#
#
# Indices 1 2 3 4 5 6 
#
# 1 142.6673 24.4897 34.1430 0.0000 -23.5333 0.0000
# 2 24.4897 75.2023 21.6458 0.0000 -6.3939 0.0000
# 3 34.1430 21.6458 111.8217 0.0000 -30.0985 0.0000
# 4 0.0000 0.0000 0.0000 29.3965 0.0000 -13.7210
# 5 -23.5333 -6.3939 -30.0985 0.0000 29.4936 0.0000
# 6 0.0000 0.0000 0.0000 -13.7210 0.0000 47.2869
#
#
#
# Elastic Compliance Matrix: (Units=1/GPa)
#
#
# Indices 1 2 3 4 5 6 
#
# 1 0.008452 -0.002083 -0.000667 0.000000 0.005612 0.000000
# 2 -0.002083 0.014599 -0.002462 0.000000 -0.001010 0.000000
# 3 -0.000667 -0.002462 0.012872 0.000000 0.012070 0.000000
# 4 0.000000 0.000000 0.000000 0.039347 0.000000 0.011417
# 5 0.005612 -0.001010 0.012070 0.000000 0.050482 0.000000
# 6 0.000000 0.000000 0.000000 0.011417 0.000000 0.024460
#
#
# Mechanical properties :
#
#
# Convention : Reuss Voigt Hill
#
# Bulk Modulus (GPa) = 39.21742 54.47203 46.84472
# Shear Modulus (GPa) = 29.56222 37.86294 33.71258
#
# Velocity S-wave (km/s) = 3.50647 3.96834 3.74453
# Velocity P-wave (km/s) = 5.71881 6.60701 6.17889
#
# Compressibility (1/GPa) = 0.02549887
#
# Stress axis : x y z
#
# Youngs Moduli (GPa) = 118.31174 68.49971 77.68962
#
# Poissons Ratio (x) = 0.14271 0.05182
# Poissons Ratio (y) = 0.24649 0.19123
# Poissons Ratio (z) = 0.07891 0.16861
#
# Static dielectric constant tensor:
#      x y z
#    x 2.056640 0.000000 0.076660 
#    y 0.000000 1.929080 0.000000 
#    z 0.076660 0.000000 2.129690 
# 
# From -- ./inp_files/33105.got.cif
#   From: 2010.05.17/outbox.cif.g08.bks.cpg/sg14_17_cif.got.tgz:33105.got - 2010.06.03 17:49:19.
