data_PCOD9248880
_publ_section_title
;
Structure prediction by ZEFSAII (Michael W. Deem and Ramdas Pophale) SiO2 
 PCOD9248880
Probable space group: P 21/C
;
_chemical_formula_sum "Si O2"
_cell_formula_units_Z 32
_cell_length_a 8.249816
_cell_length_b 8.261425
_cell_length_c 19.434938
_cell_angle_alpha 90.000000
_cell_angle_beta 95.079033
_cell_angle_gamma 90.000000
_cell_volume 1319.391814
_symmetry_space_group_name_H-M "P 21/C"
_symmetry_group_IT_number 14
_symmetry_cell_setting 'monoclinic'
loop_
_space_group_symop_operation_xyz
x,y,z
-x,1/2+y,1/2-z
-x,-y,-z
x,1/2-y,1/2+z
loop_
_atom_site_type_symbol
_atom_site_label
_atom_site_fract_x
_atom_site_fract_y
_atom_site_fract_z
Si Si1 0.153259 0.948383 0.076213
Si Si2 0.362283 0.376182 0.479003
Si Si3 0.863690 0.423065 0.943820
Si Si4 0.332927 0.360566 0.682825
Si Si5 0.160453 0.397751 0.345588
Si Si6 0.069184 0.090989 0.696294
Si Si7 0.470209 0.389555 0.079100
Si Si8 0.261087 0.037852 0.322799
O O1 0.147326 0.768859 0.045627
O O2 0.988115 0.960940 0.113905
O O3 0.202615 0.081373 0.020271
O O4 0.294414 0.980001 0.137400
O O5 0.500000 0.500000 0.500000
O O6 0.316872 0.409371 0.399035
O O7 0.445494 0.213401 0.508911
O O8 0.912648 0.478723 0.869142
O O9 0.681490 0.491501 0.936483
O O10 0.000000 0.500000 0.000000
O O11 0.163311 0.257483 0.682981
O O12 0.440961 0.238510 0.641519
O O13 0.374566 0.414977 0.761718
O O14 0.152665 0.471869 0.269570
O O15 0.163294 0.203796 0.333987
O O16 0.875561 0.094362 0.702561
O O17 0.635199 0.476959 0.108578
#
# Coordination Sequence:
#
# PCOD9248880 Si02
#       8
#     4   4   4   4   4   4   4   4
#     4  11  22  44  71  97 135 182 232 284 345 420
#     4  11  27  48  66 101 136 188 232 289 360 418
#     4  11  24  45  70 104 137 188 234 280 350 425
#     4   9  22  44  65 100 139 177 229 281 354 417
#     4  11  23  44  71 100 140 177 233 294 344 424
#     4  10  22  44  70 104 133 180 237 285 346 415
#     4  10  25  45  68  96 144 180 231 287 352 429
#     4  11  22  42  70 105 137 177 231 297 349 412
#
# _framework density 24.253596999999999
#
# number of rings (size 3 to 8) (size 9 to 14) (size 15 to 20)
#    0.000    1.500    2.500    1.125    1.750    5.500 
#   13.500    0.000    0.000    0.000    0.000    0.000 
#    0.000    0.000    0.000    0.000    0.000    0.000 
#
# Total GULP energy -178554.820671 kJ/mol
# GULP energy per Si atom -5579.838146 kJ/mol
# Density = 2.419839 g / cm^3
# Si number density = 24.253597 Si / 1000 Ang^3
#
#
#
# Elastic Constant Matrix: (Units=GPa)
#
#
# Indices 1 2 3 4 5 6 
#
# 1 32.5255 -2.8702 41.2358 0.0000 -9.8341 0.0000
# 2 -2.8702 34.0459 22.5514 0.0000 -1.2145 0.0000
# 3 41.2358 22.5514 175.3947 0.0000 23.7938 0.0000
# 4 0.0000 0.0000 0.0000 17.0715 0.0000 16.3330
# 5 -9.8341 -1.2145 23.7938 0.0000 22.8683 0.0000
# 6 0.0000 0.0000 0.0000 16.3330 0.0000 34.4652
#
#
#
# Elastic Compliance Matrix: (Units=1/GPa)
#
#
# Indices 1 2 3 4 5 6 
#
# 1 0.158410 0.060442 -0.063679 0.000000 0.137587 0.000000
# 2 0.060442 0.056157 -0.029529 0.000000 0.059698 0.000000
# 3 -0.063679 -0.029529 0.033064 0.000000 -0.063354 0.000000
# 4 0.000000 0.000000 0.000000 0.107166 0.000000 -0.050786
# 5 0.137587 0.059698 -0.063354 0.000000 0.171984 0.000000
# 6 0.000000 0.000000 0.000000 -0.050786 0.000000 0.053082
#
#
# Mechanical properties :
#
#
# Convention : Reuss Voigt Hill
#
# Bulk Modulus (GPa) = 5.49153 40.42222 22.95687
# Shear Modulus (GPa) = 7.08122 26.95095 17.01608
#
# Velocity S-wave (km/s) = 1.71055 3.33710 2.65163
# Velocity P-wave (km/s) = 2.48404 5.61703 4.34290
#
# Compressibility (1/GPa) = 0.18209861
#
# Stress axis : x y z
#
# Youngs Moduli (GPa) = 6.31274 17.80735 30.24467
#
# Poissons Ratio (x) = -1.07631 1.92594
# Poissons Ratio (y) = -0.38156 0.89310
# Poissons Ratio (z) = 0.40199 0.52583
#
# Static dielectric constant tensor:
#      x y z
#    x 1.388010 0.000000 0.641280 
#    y 0.000000 2.013500 0.000000 
#    z 0.641280 0.000000 1.124860 
# 
# From -- ./inp_files/64874.got.cif
#   From: 2010.05.17/outbox.cif.g08.bks.cpg/sg14_33_cif.got.tgz:64874.got - 2010.06.03 17:49:19.
