data_PCOD9248697
_publ_section_title
;
Structure prediction by ZEFSAII (Michael W. Deem and Ramdas Pophale) SiO2 
 PCOD9248697
Probable space group: P 21/C
;
_chemical_formula_sum "Si O2"
_cell_formula_units_Z 18
_cell_length_a 17.464305
_cell_length_b 8.221250
_cell_length_c 18.082488
_cell_angle_alpha 90.000000
_cell_angle_beta 163.848099
_cell_angle_gamma 90.000000
_cell_volume 722.238823
_symmetry_space_group_name_H-M "P 21/C"
_symmetry_group_IT_number 14
_symmetry_cell_setting 'monoclinic'
loop_
_space_group_symop_operation_xyz
x,y,z
-x,1/2+y,1/2-z
-x,-y,-z
x,1/2-y,1/2+z
loop_
_atom_site_type_symbol
_atom_site_label
_atom_site_fract_x
_atom_site_fract_y
_atom_site_fract_z
Si Si1 0.216085 0.741167 0.494625
Si Si2 0.180981 0.675168 0.742218
Si Si3 0.649758 0.989597 0.751137
Si Si4 0.500000 0.500000 0.500000
Si Si5 0.655443 0.557728 0.478216
O O1 0.272793 0.618291 0.615164
O O2 0.250062 0.623385 0.456182
O O3 0.445305 0.878852 0.720423
O O4 0.919489 0.824416 0.223476
O O5 0.264725 0.575376 0.746329
O O6 0.287668 0.854774 0.827305
O O7 0.854730 0.664069 0.449333
O O8 0.341435 0.575604 0.955073
O O9 0.509411 0.566330 0.422096
#
# Coordination Sequence:
#
# PCOD9248697 Si02
#       5
#     4   4   4   2   4
#     4  12  27  53  74 112 147 207 249 319 376 470
#     4  10  23  40  71 106 141 190 234 307 360 446
#     4  10  22  43  70 100 145 190 242 289 378 440
#     4  12  28  48  74 118 148 200 254 324 362 456
#     4  12  30  49  80 107 159 193 262 306 394 442
#
# _framework density 24.922505000000001
#
# number of rings (size 3 to 8) (size 9 to 14) (size 15 to 20)
#    0.000    0.889    2.222    2.667   12.444    3.556 
#    0.000    0.000    0.000    0.000    0.000    0.000 
#    0.000    0.000    0.000    0.000    0.000    0.000 
#
# Total GULP energy -100364.432474 kJ/mol
# GULP energy per Si atom -5575.801804 kJ/mol
# Density = 2.486578 g / cm^3
# Si number density = 24.922505 Si / 1000 Ang^3
#
#
#
# Elastic Constant Matrix: (Units=GPa)
#
#
# Indices 1 2 3 4 5 6 
#
# 1 134.4091 20.8094 27.2763 0.0000 -34.2305 0.0000
# 2 20.8094 77.6097 -0.8488 0.0000 -6.4017 0.0000
# 3 27.2763 -0.8488 73.2781 0.0000 -12.2079 0.0000
# 4 0.0000 0.0000 0.0000 49.3624 0.0000 3.9726
# 5 -34.2305 -6.4017 -12.2079 0.0000 15.7187 0.0000
# 6 0.0000 0.0000 0.0000 3.9726 0.0000 36.1117
#
#
#
# Elastic Compliance Matrix: (Units=1/GPa)
#
#
# Indices 1 2 3 4 5 6 
#
# 1 0.016888 -0.001572 -0.000326 0.000000 0.035883 0.000000
# 2 -0.001572 0.013574 0.001256 0.000000 0.003080 0.000000
# 3 -0.000326 0.001256 0.015793 0.000000 0.012066 0.000000
# 4 0.000000 0.000000 0.000000 0.020439 0.000000 -0.002248
# 5 0.035883 0.003080 0.012066 0.000000 0.152387 0.000000
# 6 0.000000 0.000000 0.000000 -0.002248 0.000000 0.027939
#
#
# Mechanical properties :
#
#
# Convention : Reuss Voigt Hill
#
# Bulk Modulus (GPa) = 22.23721 42.19673 32.21697
# Shear Modulus (GPa) = 18.99005 36.10926 27.54966
#
# Velocity S-wave (km/s) = 2.76336 3.81052 3.32838
# Velocity P-wave (km/s) = 4.37304 6.02727 5.26553
#
# Compressibility (1/GPa) = 0.04496968
#
# Stress axis : x y z
#
# Youngs Moduli (GPa) = 59.21308 73.66879 63.31992
#
# Poissons Ratio (x) = 0.11580 0.02067
# Poissons Ratio (y) = 0.09308 -0.07950
# Poissons Ratio (z) = 0.01933 -0.09249
#
# Static dielectric constant tensor:
#      x y z
#    x 2.024060 0.000000 -0.070280 
#    y 0.000000 1.960510 0.000000 
#    z -0.070280 0.000000 1.943470 
# 
# From -- ./inp_files/60250.got.cif
#   From: 2010.05.17/outbox.cif.g08.bks.cpg/sg14_31_cif.got.tgz:60250.got - 2010.06.03 17:49:19.
