data_PCOD9248530
_publ_section_title
;
Structure prediction by ZEFSAII (Michael W. Deem and Ramdas Pophale) SiO2 
 PCOD9248530
Probable space group: P 21/C
;
_chemical_formula_sum "Si O2"
_cell_formula_units_Z 28
_cell_length_a 15.989998
_cell_length_b 10.057364
_cell_length_c 10.786956
_cell_angle_alpha 90.000000
_cell_angle_beta 39.058689
_cell_angle_gamma 90.000000
_cell_volume 1093.080293
_symmetry_space_group_name_H-M "P 21/C"
_symmetry_group_IT_number 14
_symmetry_cell_setting 'monoclinic'
loop_
_space_group_symop_operation_xyz
x,y,z
-x,1/2+y,1/2-z
-x,-y,-z
x,1/2-y,1/2+z
loop_
_atom_site_type_symbol
_atom_site_label
_atom_site_fract_x
_atom_site_fract_y
_atom_site_fract_z
Si Si1 0.027835 0.988906 0.671100
Si Si2 0.174196 0.395287 0.392472
Si Si3 0.588753 0.802387 0.878088
Si Si4 0.655726 0.377533 0.756280
Si Si5 0.041070 0.786807 0.428292
Si Si6 0.745989 0.162624 0.472469
Si Si7 0.477271 0.020382 0.821298
O O1 0.158995 0.958790 0.598922
O O2 0.033932 0.887423 0.548858
O O3 0.013422 0.134206 0.630065
O O4 0.903303 0.948996 0.898431
O O5 0.277156 0.276955 0.299318
O O6 0.266265 0.518758 0.246465
O O7 0.057553 0.337705 0.439570
O O8 0.542782 0.897052 0.819576
O O9 0.471147 0.698250 0.042880
O O10 0.603952 0.896652 0.982108
O O11 0.746260 0.266024 0.587738
O O12 0.604468 0.466404 0.699517
O O13 0.187302 0.742427 0.217271
O O14 0.595597 0.115058 0.639711
#
# Coordination Sequence:
#
# PCOD9248530 Si02
#       7
#     4   4   4   4   4   4   4
#     4  10  22  43  68  95 128 179 225 278 339 395
#     4  11  23  40  65 100 135 166 228 279 330 406
#     4  10  24  43  66  98 132 178 226 278 338 411
#     4  11  24  43  67  99 138 175 222 289 336 403
#     4  10  22  42  73  94 128 182 220 282 342 394
#     4  10  22  43  65  99 135 170 229 280 328 414
#     4  10  24  44  70  97 132 185 222 272 352 404
#
# _framework density 25.615684000000002
#
# number of rings (size 3 to 8) (size 9 to 14) (size 15 to 20)
#    0.000    1.714    1.429    1.286    6.000    3.429 
#    2.571    0.714    0.000    0.000    0.000    0.000 
#    0.000    0.000    0.000    0.000    0.000    0.000 
#
# Total GULP energy -157058.350880 kJ/mol
# GULP energy per Si atom -5609.226817 kJ/mol
# Density = 2.555738 g / cm^3
# Si number density = 25.615684 Si / 1000 Ang^3
#
#
#
# Elastic Constant Matrix: (Units=GPa)
#
#
# Indices 1 2 3 4 5 6 
#
# 1 63.5490 27.6934 13.1737 0.0000 11.5463 0.0000
# 2 27.6934 108.9156 34.3659 0.0000 -6.3935 0.0000
# 3 13.1737 34.3659 94.0426 0.0000 -10.3367 0.0000
# 4 0.0000 0.0000 0.0000 55.7997 0.0000 -3.6362
# 5 11.5463 -6.3935 -10.3367 0.0000 27.3398 0.0000
# 6 0.0000 0.0000 0.0000 -3.6362 0.0000 55.6690
#
#
#
# Elastic Compliance Matrix: (Units=1/GPa)
#
#
# Indices 1 2 3 4 5 6 
#
# 1 0.020335 -0.005116 -0.002144 0.000000 -0.010595 0.000000
# 2 -0.005116 0.011693 -0.003149 0.000000 0.003704 0.000000
# 3 -0.002144 -0.003149 0.012628 0.000000 0.004943 0.000000
# 4 0.000000 0.000000 0.000000 0.017998 0.000000 0.001176
# 5 -0.010595 0.003704 0.004943 0.000000 0.043786 0.000000
# 6 0.000000 0.000000 0.000000 0.001176 0.000000 0.018040
#
#
# Mechanical properties :
#
#
# Convention : Reuss Voigt Hill
#
# Bulk Modulus (GPa) = 41.94909 46.33036 44.13972
# Shear Modulus (GPa) = 32.62774 40.51331 36.57053
#
# Velocity S-wave (km/s) = 3.57282 3.98123 3.78254
# Velocity P-wave (km/s) = 5.78204 6.26574 6.02874
#
# Compressibility (1/GPa) = 0.02383842
#
# Stress axis : x y z
#
# Youngs Moduli (GPa) = 49.17723 85.51866 79.18959
#
# Poissons Ratio (x) = 0.43751 0.16974
# Poissons Ratio (y) = 0.25159 0.24939
# Poissons Ratio (z) = 0.10541 0.26932
#
# Static dielectric constant tensor:
#      x y z
#    x 2.071400 0.000000 0.012450 
#    y 0.000000 1.983210 0.000000 
#    z 0.012450 0.000000 1.953120 
# 
# From -- ./inp_files/50205.got.cif
#   From: 2010.05.17/outbox.cif.g08.bks.cpg/sg14_26_cif.got.tgz:50205.got - 2010.06.03 17:49:19.
