data_PCOD9248704
_publ_section_title
;
Structure prediction by ZEFSAII (Michael W. Deem and Ramdas Pophale) SiO2 
 PCOD9248704
Probable space group: P 21/C
;
_chemical_formula_sum "Si O2"
_cell_formula_units_Z 28
_cell_length_a 12.520240
_cell_length_b 9.675799
_cell_length_c 22.539451
_cell_angle_alpha 90.000000
_cell_angle_beta 150.445294
_cell_angle_gamma 90.000000
_cell_volume 1346.833004
_symmetry_space_group_name_H-M "P 21/C"
_symmetry_group_IT_number 14
_symmetry_cell_setting 'monoclinic'
loop_
_space_group_symop_operation_xyz
x,y,z
-x,1/2+y,1/2-z
-x,-y,-z
x,1/2-y,1/2+z
loop_
_atom_site_type_symbol
_atom_site_label
_atom_site_fract_x
_atom_site_fract_y
_atom_site_fract_z
Si Si1 0.462839 0.904233 0.824532
Si Si2 0.615947 0.724168 0.565588
Si Si3 0.571135 0.895368 0.430493
Si Si4 0.794341 0.626555 0.261850
Si Si5 0.981749 0.908852 0.550178
Si Si6 0.264075 0.955349 0.943841
Si Si7 0.163134 0.371045 0.581671
O O1 0.500661 0.750121 0.867592
O O2 0.605124 0.913802 0.833555
O O3 0.210511 0.922990 0.692996
O O4 0.570352 0.008286 0.923122
O O5 0.619797 0.852879 0.522096
O O6 0.718394 0.762142 0.677542
O O7 0.740894 0.594689 0.597291
O O8 0.371942 0.667852 0.458280
O O9 0.784485 0.946123 0.498665
O O10 0.379028 0.003264 0.328842
O O11 0.804381 0.673976 0.334764
O O12 0.032640 0.577826 0.358458
O O13 0.935061 0.752263 0.505422
O O14 0.000000 0.000000 0.500000
O O15 0.000000 0.500000 0.500000
#
# Coordination Sequence:
#
# PCOD9248704 Si02
#       7
#     4   4   4   4   4   4   4
#     4  10  22  43  70  92 140 175 222 277 346 410
#     4  10  25  44  63 102 132 177 230 277 341 405
#     4  10  24  43  67  98 133 184 224 275 348 405
#     4  12  24  42  72  96 137 171 232 285 334 412
#     4  11  25  42  68 103 135 178 226 287 345 412
#     4  10  24  44  68  99 129 180 224 278 347 401
#     4  11  23  43  66 101 133 179 227 274 347 409
#
# _framework density 20.789511000000001
#
# number of rings (size 3 to 8) (size 9 to 14) (size 15 to 20)
#    0.000    1.429    1.429    2.143    8.000    5.714 
#    0.000    0.000    0.000    0.000    0.000    0.000 
#    0.000    0.000    0.000    0.000    0.000    0.000 
#
# Total GULP energy -156601.007266 kJ/mol
# GULP energy per Si atom -5592.893117 kJ/mol
# Density = 2.074219 g / cm^3
# Si number density = 20.789511 Si / 1000 Ang^3
#
#
#
# Elastic Constant Matrix: (Units=GPa)
#
#
# Indices 1 2 3 4 5 6 
#
# 1 122.1952 30.0014 34.2025 0.0000 8.5947 0.0000
# 2 30.0014 43.6921 32.7117 0.0000 9.9285 0.0000
# 3 34.2025 32.7117 95.6792 0.0000 10.6940 0.0000
# 4 0.0000 0.0000 0.0000 14.2740 0.0000 -6.9398
# 5 8.5947 9.9285 10.6940 0.0000 44.8463 0.0000
# 6 0.0000 0.0000 0.0000 -6.9398 0.0000 28.1677
#
#
#
# Elastic Compliance Matrix: (Units=1/GPa)
#
#
# Indices 1 2 3 4 5 6 
#
# 1 0.010038 -0.005597 -0.001642 0.000000 -0.000293 0.000000
# 2 -0.005597 0.034759 -0.009393 0.000000 -0.004383 0.000000
# 3 -0.001642 -0.009393 0.014365 0.000000 -0.001031 0.000000
# 4 0.000000 0.000000 0.000000 0.079591 0.000000 0.019609
# 5 -0.000293 -0.004383 -0.001031 0.000000 0.023571 0.000000
# 6 0.000000 0.000000 0.000000 0.019609 0.000000 0.040333
#
#
# Mechanical properties :
#
#
# Convention : Reuss Voigt Hill
#
# Bulk Modulus (GPa) = 38.61254 50.59975 44.60614
# Shear Modulus (GPa) = 20.44543 28.43434 24.43988
#
# Velocity S-wave (km/s) = 3.13940 3.70229 3.43240
# Velocity P-wave (km/s) = 5.63512 6.53206 6.10010
#
# Compressibility (1/GPa) = 0.02589832
#
# Stress axis : x y z
#
# Youngs Moduli (GPa) = 99.62202 28.76968 69.61226
#
# Poissons Ratio (x) = 0.16101 0.11431
# Poissons Ratio (y) = 0.55754 0.65388
# Poissons Ratio (z) = 0.16359 0.27024
#
# Static dielectric constant tensor:
#      x y z
#    x 1.760200 0.000000 -0.027400 
#    y 0.000000 1.751060 0.000000 
#    z -0.027400 0.000000 1.714090 
# 
# From -- ./inp_files/35156.got.cif
#   From: 2010.05.17/outbox.cif.g08.bks.cpg/sg14_18_cif.got.tgz:35156.got - 2010.06.03 17:49:19.
