data_PCOD9248522
_publ_section_title
;
Structure prediction by ZEFSAII (Michael W. Deem and Ramdas Pophale) SiO2 
 PCOD9248522
Probable space group: P 21/C
;
_chemical_formula_sum "Si O2"
_cell_formula_units_Z 28
_cell_length_a 19.637462
_cell_length_b 5.288421
_cell_length_c 11.140717
_cell_angle_alpha 90.000000
_cell_angle_beta 75.136592
_cell_angle_gamma 90.000000
_cell_volume 1118.264139
_symmetry_space_group_name_H-M "P 21/C"
_symmetry_group_IT_number 14
_symmetry_cell_setting 'monoclinic'
loop_
_space_group_symop_operation_xyz
x,y,z
-x,1/2+y,1/2-z
-x,-y,-z
x,1/2-y,1/2+z
loop_
_atom_site_type_symbol
_atom_site_label
_atom_site_fract_x
_atom_site_fract_y
_atom_site_fract_z
Si Si1 0.069398 0.820696 0.479288
Si Si2 0.220116 0.693526 0.945458
Si Si3 0.591079 0.652676 0.666348
Si Si4 0.662363 0.053496 0.787820
Si Si5 0.541489 0.302787 0.900712
Si Si6 0.263893 0.191423 0.042668
Si Si7 0.036203 0.921352 0.753061
O O1 0.148982 0.897728 0.411027
O O2 0.077280 0.796560 0.620875
O O3 0.057395 0.605507 0.383121
O O4 0.000000 0.000000 0.500000
O O5 0.285045 0.702063 0.822596
O O6 0.236172 0.471479 0.032796
O O7 0.215446 0.966709 0.011474
O O8 0.573948 0.438709 0.769243
O O9 0.524469 0.636326 0.609292
O O10 0.663873 0.662263 0.563895
O O11 0.601751 0.907660 0.740786
O O12 0.616190 0.194463 0.911554
O O13 0.713532 0.856753 0.831310
O O14 0.500000 0.500000 0.000000
O O15 0.971218 0.718520 0.773342
#
# Coordination Sequence:
#
# PCOD9248522 Si02
#       7
#     4   4   4   4   4   4   4
#     4  10  24  48  75 112 146 192 246 308 368 435
#     4  11  27  48  70 105 140 190 237 294 357 446
#     4  11  24  44  62 102 130 181 234 298 348 429
#     4  11  26  45  67  96 143 184 236 295 365 432
#     4  12  25  39  71  97 133 180 239 295 359 413
#     4  11  27  46  71  97 145 185 235 284 365 428
#     4  10  22  42  72 107 147 183 231 296 368 430
#
# _framework density 25.038806000000001
#
# number of rings (size 3 to 8) (size 9 to 14) (size 15 to 20)
#    0.000    1.143    2.857    1.286   10.000    5.714 
#    5.143    0.000    0.000    0.000    0.000    0.000 
#    0.000    0.000    0.000    0.000    0.000    0.000 
#
# Total GULP energy -155997.193255 kJ/mol
# GULP energy per Si atom -5571.328331 kJ/mol
# Density = 2.498182 g / cm^3
# Si number density = 25.038806 Si / 1000 Ang^3
#
#
#
# Elastic Constant Matrix: (Units=GPa)
#
#
# Indices 1 2 3 4 5 6 
#
# 1 107.8503 8.5714 2.5890 0.0000 -18.5993 0.0000
# 2 8.5714 62.7328 1.0969 0.0000 -5.5390 0.0000
# 3 2.5890 1.0969 58.6911 0.0000 5.2556 0.0000
# 4 0.0000 0.0000 0.0000 31.6222 0.0000 9.6219
# 5 -18.5993 -5.5390 5.2556 0.0000 21.6652 0.0000
# 6 0.0000 0.0000 0.0000 9.6219 0.0000 18.3998
#
#
#
# Elastic Compliance Matrix: (Units=1/GPa)
#
#
# Indices 1 2 3 4 5 6 
#
# 1 0.011013 -0.000632 -0.001335 0.000000 0.009617 0.000000
# 2 -0.000632 0.016373 -0.000618 0.000000 0.003793 0.000000
# 3 -0.001335 -0.000618 0.017608 0.000000 -0.005576 0.000000
# 4 0.000000 0.000000 0.000000 0.037607 0.000000 -0.019666
# 5 0.009617 0.003793 -0.005576 0.000000 0.056735 0.000000
# 6 0.000000 0.000000 0.000000 -0.019666 0.000000 0.064633
#
#
# Mechanical properties :
#
#
# Convention : Reuss Voigt Hill
#
# Bulk Modulus (GPa) = 25.11092 28.19876 26.65484
# Shear Modulus (GPa) = 22.48067 28.80522 25.64295
#
# Velocity S-wave (km/s) = 2.99964 3.39547 3.20367
# Velocity P-wave (km/s) = 4.69549 5.16321 4.93490
#
# Compressibility (1/GPa) = 0.03982331
#
# Stress axis : x y z
#
# Youngs Moduli (GPa) = 90.80310 61.07726 56.79215
#
# Poissons Ratio (x) = 0.03862 0.07582
# Poissons Ratio (y) = 0.05741 0.03508
# Poissons Ratio (z) = 0.12123 0.03773
#
# Static dielectric constant tensor:
#      x y z
#    x 2.262900 0.000000 0.144490 
#    y 0.000000 2.198700 0.000000 
#    z 0.144490 0.000000 2.119930 
# 
# From -- ./inp_files/34579.got.cif
#   From: 2010.05.17/outbox.cif.g08.bks.cpg/sg14_18_cif.got.tgz:34579.got - 2010.06.03 17:49:19.
