data_PCOD9248803
_publ_section_title
;
Structure prediction by ZEFSAII (Michael W. Deem and Ramdas Pophale) SiO2 
 PCOD9248803
Probable space group: P 21/C
;
_chemical_formula_sum "Si O2"
_cell_formula_units_Z 24
_cell_length_a 20.347270
_cell_length_b 5.533705
_cell_length_c 9.902363
_cell_angle_alpha 90.000000
_cell_angle_beta 125.289471
_cell_angle_gamma 90.000000
_cell_volume 910.082727
_symmetry_space_group_name_H-M "P 21/C"
_symmetry_group_IT_number 14
_symmetry_cell_setting 'monoclinic'
loop_
_space_group_symop_operation_xyz
x,y,z
-x,1/2+y,1/2-z
-x,-y,-z
x,1/2-y,1/2+z
loop_
_atom_site_type_symbol
_atom_site_label
_atom_site_fract_x
_atom_site_fract_y
_atom_site_fract_z
Si Si1 0.562359 0.374322 0.973406
Si Si2 0.031435 0.712359 0.942547
Si Si3 0.889841 0.483804 0.215356
Si Si4 0.603160 0.062702 0.246133
Si Si5 0.735643 0.639331 0.173657
Si Si6 0.300954 0.060793 0.094600
O O1 0.575966 0.116112 0.060980
O O2 0.648740 0.510233 0.073711
O O3 0.500000 0.500000 0.000000
O O4 0.538557 0.390890 0.788808
O O5 0.096632 0.663051 0.904293
O O6 0.072748 0.881917 0.101955
O O7 0.950459 0.791286 0.766890
O O8 0.000000 0.500000 0.000000
O O9 0.798018 0.522929 0.144147
O O10 0.662174 0.294595 0.343800
O O11 0.639323 0.793739 0.306349
O O12 0.762868 0.614260 0.360950
O O13 0.726917 0.901283 0.092951
#
# Coordination Sequence:
#
# PCOD9248803 Si02
#       6
#     4   4   4   4   4   4
#     4  10  23  43  68  99 138 182 234 286 346 407
#     4  11  24  46  68 102 136 178 224 282 353 420
#     4  11  25  44  71 101 138 182 228 286 350 425
#     4  10  22  44  67  95 134 185 231 290 346 408
#     4  10  24  42  65 103 134 183 231 284 348 412
#     4  10  22  44  67 100 141 175 235 287 346 413
#
# _framework density 26.371231999999999
#
# number of rings (size 3 to 8) (size 9 to 14) (size 15 to 20)
#    0.000    1.667    1.667    1.000    2.333   10.667 
#    6.000    7.500    0.000    0.000    0.000    0.000 
#    0.000    0.000    0.000    0.000    0.000    0.000 
#
# Total GULP energy -134005.788345 kJ/mol
# GULP energy per Si atom -5583.574514 kJ/mol
# Density = 2.631121 g / cm^3
# Si number density = 26.371232 Si / 1000 Ang^3
#
#
#
# Elastic Constant Matrix: (Units=GPa)
#
#
# Indices 1 2 3 4 5 6 
#
# 1 213.8589 31.4101 37.1193 0.0000 -32.2538 0.0000
# 2 31.4101 83.9347 16.7205 0.0000 5.0115 0.0000
# 3 37.1193 16.7205 79.9515 0.0000 -28.3890 0.0000
# 4 0.0000 0.0000 0.0000 40.3438 0.0000 -3.1124
# 5 -32.2538 5.0115 -28.3890 0.0000 55.1181 0.0000
# 6 0.0000 0.0000 0.0000 -3.1124 0.0000 38.1511
#
#
#
# Elastic Compliance Matrix: (Units=1/GPa)
#
#
# Indices 1 2 3 4 5 6 
#
# 1 0.005610 -0.002040 -0.001158 0.000000 0.002872 0.000000
# 2 -0.002040 0.013599 -0.003378 0.000000 -0.004170 0.000000
# 3 -0.001158 -0.003378 0.016668 0.000000 0.008215 0.000000
# 4 0.000000 0.000000 0.000000 0.024944 0.000000 0.002035
# 5 0.002872 -0.004170 0.008215 0.000000 0.024433 0.000000
# 6 0.000000 0.000000 0.000000 0.002035 0.000000 0.026378
#
#
# Mechanical properties :
#
#
# Convention : Reuss Voigt Hill
#
# Bulk Modulus (GPa) = 44.00255 60.91611 52.45933
# Shear Modulus (GPa) = 37.77603 46.22229 41.99916
#
# Velocity S-wave (km/s) = 3.78891 4.19113 3.99508
# Velocity P-wave (km/s) = 5.98858 6.82425 6.42003
#
# Compressibility (1/GPa) = 0.02272596
#
# Stress axis : x y z
#
# Youngs Moduli (GPa) = 178.26205 73.53346 59.99360
#
# Poissons Ratio (x) = 0.15001 0.06948
# Poissons Ratio (y) = 0.36366 0.20263
# Poissons Ratio (z) = 0.20645 0.24836
#
# Static dielectric constant tensor:
#      x y z
#    x 2.000960 0.000000 0.136830 
#    y 0.000000 2.220500 0.000000 
#    z 0.136830 0.000000 2.233750 
# 
# From -- ./inp_files/33396.got.cif
#   From: 2010.05.17/outbox.cif.g08.bks.cpg/sg14_17_cif.got.tgz:33396.got - 2010.06.03 17:49:19.
