data_PCOD9248364
_publ_section_title
;
Structure prediction by ZEFSAII (Michael W. Deem and Ramdas Pophale) SiO2 
 PCOD9248364
Probable space group: P 21/C
;
_chemical_formula_sum "Si O2"
_cell_formula_units_Z 24
_cell_length_a 17.641388
_cell_length_b 10.602206
_cell_length_c 12.643745
_cell_angle_alpha 90.000000
_cell_angle_beta 28.374130
_cell_angle_gamma 90.000000
_cell_volume 1123.843431
_symmetry_space_group_name_H-M "P 21/C"
_symmetry_group_IT_number 14
_symmetry_cell_setting 'monoclinic'
loop_
_space_group_symop_operation_xyz
x,y,z
-x,1/2+y,1/2-z
-x,-y,-z
x,1/2-y,1/2+z
loop_
_atom_site_type_symbol
_atom_site_label
_atom_site_fract_x
_atom_site_fract_y
_atom_site_fract_z
Si Si1 0.572772 0.362364 0.399751
Si Si2 0.397034 0.166535 0.468253
Si Si3 0.304884 0.498966 0.244083
Si Si4 0.195869 0.146092 0.084949
Si Si5 0.711670 0.113330 0.953833
Si Si6 0.149091 0.747391 0.533244
O O1 0.500000 0.500000 0.500000
O O2 0.451820 0.262457 0.495334
O O3 0.647337 0.333331 0.423122
O O4 0.722868 0.358925 0.136570
O O5 0.276417 0.064520 0.665238
O O6 0.315851 0.248435 0.477797
O O7 0.556168 0.107446 0.221479
O O8 0.244901 0.407613 0.410599
O O9 0.219221 0.631268 0.375827
O O10 0.500000 0.500000 0.000000
O O11 0.020990 0.204499 0.293346
O O12 0.215082 0.026604 0.140499
O O13 0.838143 0.198040 0.862283
#
# Coordination Sequence:
#
# PCOD9248364 Si02
#       6
#     4   4   4   4   4   4
#     4  11  21  41  68 102 131 180 229 275 339 409
#     4  11  22  40  73  99 127 180 234 274 333 409
#     4  11  21  46  70  91 134 183 229 269 330 415
#     4  11  23  43  65 101 138 169 225 287 341 388
#     4  10  22  42  66  96 136 178 224 278 325 416
#     4  10  25  43  64 100 138 178 220 283 348 392
#
# _framework density 21.355288000000002
#
# number of rings (size 3 to 8) (size 9 to 14) (size 15 to 20)
#    0.000    1.333    6.667    1.000    0.000    2.667 
#   12.000    0.000    0.000    1.000    0.000    0.000 
#    0.000    0.000    0.000    0.000    0.000    0.000 
#
# Total GULP energy -133912.674491 kJ/mol
# GULP energy per Si atom -5579.694770 kJ/mol
# Density = 2.130668 g / cm^3
# Si number density = 21.355288 Si / 1000 Ang^3
#
#
#
# Elastic Constant Matrix: (Units=GPa)
#
#
# Indices 1 2 3 4 5 6 
#
# 1 66.4034 35.2053 22.1309 0.0000 -7.4467 0.0000
# 2 35.2053 98.4579 59.3204 0.0000 -16.2399 0.0000
# 3 22.1309 59.3204 83.9875 0.0000 -23.9933 0.0000
# 4 0.0000 0.0000 0.0000 34.2748 0.0000 5.7887
# 5 -7.4467 -16.2399 -23.9933 0.0000 31.7901 0.0000
# 6 0.0000 0.0000 0.0000 5.7887 0.0000 28.6864
#
#
#
# Elastic Compliance Matrix: (Units=1/GPa)
#
#
# Indices 1 2 3 4 5 6 
#
# 1 0.018614 -0.006455 -0.000054 0.000000 0.001022 0.000000
# 2 -0.006455 0.019925 -0.012617 0.000000 -0.000856 0.000000
# 3 -0.000054 -0.012617 0.024206 0.000000 0.011812 0.000000
# 4 0.000000 0.000000 0.000000 0.030205 0.000000 -0.006095
# 5 0.001022 -0.000856 0.011812 0.000000 0.040173 0.000000
# 6 0.000000 0.000000 0.000000 -0.006095 0.000000 0.036090
#
#
# Mechanical properties :
#
#
# Convention : Reuss Voigt Hill
#
# Bulk Modulus (GPa) = 40.82485 53.57355 47.19920
# Shear Modulus (GPa) = 23.18796 27.76306 25.47551
#
# Velocity S-wave (km/s) = 3.29875 3.60954 3.45764
# Velocity P-wave (km/s) = 5.80237 6.52020 6.17173
#
# Compressibility (1/GPa) = 0.02449488
#
# Stress axis : x y z
#
# Youngs Moduli (GPa) = 53.72243 50.18839 41.31185
#
# Poissons Ratio (x) = 0.32395 0.00222
# Poissons Ratio (y) = 0.34677 0.52121
# Poissons Ratio (z) = 0.00289 0.63321
#
# Static dielectric constant tensor:
#      x y z
#    x 1.853060 0.000000 0.007240 
#    y 0.000000 1.859350 0.000000 
#    z 0.007240 0.000000 1.758020 
# 
# From -- ./inp_files/50412.got.cif
#   From: 2010.05.17/outbox.cif.g08.bks.cpg/sg14_26_cif.got.tgz:50412.got - 2010.06.03 17:49:19.
