data_PCOD9248070
_publ_section_title
;
Structure prediction by ZEFSAII (Michael W. Deem and Ramdas Pophale) SiO2 
 PCOD9248070
Probable space group: P 21/C
;
_chemical_formula_sum "Si O2"
_cell_formula_units_Z 22
_cell_length_a 18.241778
_cell_length_b 5.237284
_cell_length_c 14.432311
_cell_angle_alpha 90.000000
_cell_angle_beta 143.776169
_cell_angle_gamma 90.000000
_cell_volume 814.804615
_symmetry_space_group_name_H-M "P 21/C"
_symmetry_group_IT_number 14
_symmetry_cell_setting 'monoclinic'
loop_
_space_group_symop_operation_xyz
x,y,z
-x,1/2+y,1/2-z
-x,-y,-z
x,1/2-y,1/2+z
loop_
_atom_site_type_symbol
_atom_site_label
_atom_site_fract_x
_atom_site_fract_y
_atom_site_fract_z
Si Si1 0.813754 0.556226 0.753485
Si Si2 0.887522 0.348741 0.203944
Si Si3 0.000000 0.500000 0.500000
Si Si4 0.211601 0.591870 0.079440
Si Si5 0.634414 0.934021 0.751703
Si Si6 0.365358 0.065453 0.465024
O O1 0.869123 0.442139 0.717699
O O2 0.834959 0.359203 0.861568
O O3 0.671990 0.634578 0.586348
O O4 0.888570 0.790785 0.871775
O O5 0.994502 0.445399 0.380677
O O6 0.753007 0.460895 0.101159
O O7 0.892283 0.436016 0.103896
O O8 0.303105 0.345048 0.175409
O O9 0.283863 0.843952 0.121290
O O10 0.630387 0.012788 0.638492
O O11 0.492861 0.973097 0.639601
#
# Coordination Sequence:
#
# PCOD9248070 Si02
#       6
#     4   4   2   4   4   4
#     4  10  22  45  68 100 136 183 236 293 355 420
#     4  11  23  43  68  95 137 181 229 296 347 426
#     4  10  24  46  68  96 126 182 234 296 364 414
#     4  11  25  41  69 102 142 178 233 282 345 420
#     4  10  22  41  64 105 138 187 226 275 342 413
#     4   9  21  38  69  93 142 183 227 277 341 408
#
# _framework density 27.000336999999998
#
# number of rings (size 3 to 8) (size 9 to 14) (size 15 to 20)
#    0.000    1.818    1.818    0.545    7.636    3.636 
#    3.273    0.000    0.000    0.000    0.000    0.000 
#    0.000    0.000    0.000    0.000    0.000    0.000 
#
# Total GULP energy -122534.344778 kJ/mol
# GULP energy per Si atom -5569.742944 kJ/mol
# Density = 2.693888 g / cm^3
# Si number density = 27.000337 Si / 1000 Ang^3
#
#
#
# Elastic Constant Matrix: (Units=GPa)
#
#
# Indices 1 2 3 4 5 6 
#
# 1 103.1312 16.0883 54.4255 0.0000 8.7206 0.0000
# 2 16.0883 62.8897 30.3588 0.0000 -9.7530 0.0000
# 3 54.4255 30.3588 138.9514 0.0000 -15.5186 0.0000
# 4 0.0000 0.0000 0.0000 25.8437 0.0000 -3.3659
# 5 8.7206 -9.7530 -15.5186 0.0000 34.8086 0.0000
# 6 0.0000 0.0000 0.0000 -3.3659 0.0000 25.0167
#
#
#
# Elastic Compliance Matrix: (Units=1/GPa)
#
#
# Indices 1 2 3 4 5 6 
#
# 1 0.013461 -0.001723 -0.005606 0.000000 -0.006354 0.000000
# 2 -0.001723 0.018391 -0.002862 0.000000 0.004309 0.000000
# 3 -0.005606 -0.002862 0.010614 0.000000 0.005334 0.000000
# 4 0.000000 0.000000 0.000000 0.039384 0.000000 0.005299
# 5 -0.006354 0.004309 0.005334 0.000000 0.033906 0.000000
# 6 0.000000 0.000000 0.000000 0.005299 0.000000 0.040686
#
#
# Mechanical properties :
#
#
# Convention : Reuss Voigt Hill
#
# Bulk Modulus (GPa) = 45.28115 56.30194 50.79154
# Shear Modulus (GPa) = 27.14660 30.74044 28.94352
#
# Velocity S-wave (km/s) = 3.17427 3.37786 3.27765
# Velocity P-wave (km/s) = 5.49924 6.00923 5.75988
#
# Compressibility (1/GPa) = 0.02208425
#
# Stress axis : x y z
#
# Youngs Moduli (GPa) = 74.29020 54.37295 94.21955
#
# Poissons Ratio (x) = 0.09368 0.52816
# Poissons Ratio (y) = 0.12799 0.26968
# Poissons Ratio (z) = 0.41644 0.15563
#
# Static dielectric constant tensor:
#      x y z
#    x 1.980530 0.000000 -0.287420 
#    y 0.000000 1.885690 0.000000 
#    z -0.287420 0.000000 1.863090 
# 
# From -- ./inp_files/49745.got.cif
#   From: 2010.05.17/outbox.cif.g08.bks.cpg/sg14_25_cif.got.tgz:49745.got - 2010.06.03 17:49:19.
