data_PCOD9248426
_publ_section_title
;
Structure prediction by ZEFSAII (Michael W. Deem and Ramdas Pophale) SiO2 
 PCOD9248426
Probable space group: P 21/C
;
_chemical_formula_sum "Si O2"
_cell_formula_units_Z 26
_cell_length_a 17.173914
_cell_length_b 9.175815
_cell_length_c 20.815929
_cell_angle_alpha 90.000000
_cell_angle_beta 22.135290
_cell_angle_gamma 90.000000
_cell_volume 1235.989287
_symmetry_space_group_name_H-M "P 21/C"
_symmetry_group_IT_number 14
_symmetry_cell_setting 'monoclinic'
loop_
_space_group_symop_operation_xyz
x,y,z
-x,1/2+y,1/2-z
-x,-y,-z
x,1/2-y,1/2+z
loop_
_atom_site_type_symbol
_atom_site_label
_atom_site_fract_x
_atom_site_fract_y
_atom_site_fract_z
Si Si1 0.878283 0.924659 0.651388
Si Si2 0.842008 0.161256 0.932037
Si Si3 0.760393 0.024040 0.541889
Si Si4 0.310594 0.338347 0.025112
Si Si5 0.494607 0.478592 0.376072
Si Si6 0.049784 0.421941 0.395482
Si Si7 0.500000 0.000000 0.500000
O O1 0.911573 0.751241 0.624045
O O2 0.997274 0.984140 0.622840
O O3 0.640042 0.961530 0.821777
O O4 0.000000 0.000000 0.500000
O O5 0.073853 0.182419 0.728691
O O6 0.872316 0.073550 0.976158
O O7 0.740729 0.316912 0.024963
O O8 0.704380 0.075543 0.986564
O O9 0.627213 0.017104 0.708598
O O10 0.695773 0.900878 0.541733
O O11 0.426988 0.185380 0.940914
O O12 0.425652 0.449004 0.984265
O O13 0.000000 0.500000 0.500000
O O14 0.258693 0.488691 0.208109
#
# Coordination Sequence:
#
# PCOD9248426 Si02
#       7
#     4   4   4   4   4   4   2
#     4   9  22  42  65 104 134 175 232 282 344 418
#     4  10  23  42  61 100 131 172 227 276 343 407
#     4  10  22  42  68  95 134 174 225 281 334 419
#     4  11  24  45  64  96 138 175 227 284 337 415
#     4  11  23  41  70  99 132 178 228 279 353 401
#     4  10  23  42  71  96 141 182 229 285 343 416
#     4  10  26  42  66 102 132 182 234 278 346 420
#
# _framework density 21.035782000000001
#
# number of rings (size 3 to 8) (size 9 to 14) (size 15 to 20)
#    0.000    1.846    0.000    1.846   10.769    2.462 
#    5.538    7.692    0.000    0.000    0.000    0.000 
#    0.000    0.000    0.000    0.000    0.000    0.000 
#
# Total GULP energy -144792.563601 kJ/mol
# GULP energy per Si atom -5568.944754 kJ/mol
# Density = 2.098790 g / cm^3
# Si number density = 21.035782 Si / 1000 Ang^3
#
#
#
# Elastic Constant Matrix: (Units=GPa)
#
#
# Indices 1 2 3 4 5 6 
#
# 1 89.9088 27.6029 34.7151 0.0000 -25.5612 0.0000
# 2 27.6029 28.0627 17.6524 0.0000 -22.7224 0.0000
# 3 34.7151 17.6524 60.2691 0.0000 -21.1013 0.0000
# 4 0.0000 0.0000 0.0000 23.1472 0.0000 -9.1112
# 5 -25.5612 -22.7224 -21.1013 0.0000 43.0681 0.0000
# 6 0.0000 0.0000 0.0000 -9.1112 0.0000 8.3877
#
#
#
# Elastic Compliance Matrix: (Units=1/GPa)
#
#
# Indices 1 2 3 4 5 6 
#
# 1 0.017666 -0.013019 -0.006151 0.000000 0.000602 0.000000
# 2 -0.013019 0.075284 -0.004044 0.000000 0.030011 0.000000
# 3 -0.006151 -0.004044 0.023290 0.000000 0.005627 0.000000
# 4 0.000000 0.000000 0.000000 0.075471 0.000000 0.081982
# 5 0.000602 0.030011 0.005627 0.000000 0.042167 0.000000
# 6 0.000000 0.000000 0.000000 0.081982 0.000000 0.208276
#
#
# Mechanical properties :
#
#
# Convention : Reuss Voigt Hill
#
# Bulk Modulus (GPa) = 14.32450 37.57572 25.95011
# Shear Modulus (GPa) = 9.76844 21.47195 15.62019
#
# Velocity S-wave (km/s) = 2.15727 3.19836 2.72794
# Velocity P-wave (km/s) = 3.60963 5.61613 4.72072
#
# Compressibility (1/GPa) = 0.06981045
#
# Stress axis : x y z
#
# Youngs Moduli (GPa) = 56.60662 13.28306 42.93722
#
# Poissons Ratio (x) = 0.17294 0.26413
# Poissons Ratio (y) = 0.73699 0.17362
# Poissons Ratio (z) = 0.34821 0.05371
#
# Static dielectric constant tensor:
#      x y z
#    x 1.765830 0.000000 -0.009400 
#    y 0.000000 1.651900 0.000000 
#    z -0.009400 0.000000 1.777080 
# 
# From -- ./inp_files/74256.got.cif
#   From: 2010.05.17/outbox.cif.g08.bks.cpg/sg14_38_cif.got.tgz:74256.got - 2010.06.03 17:49:19.
