data_PCOD9248566
_publ_section_title
;
Structure prediction by ZEFSAII (Michael W. Deem and Ramdas Pophale) SiO2 
 PCOD9248566
Probable space group: P 21/C
;
_chemical_formula_sum "Si O2"
_cell_formula_units_Z 24
_cell_length_a 19.186357
_cell_length_b 5.863116
_cell_length_c 9.636492
_cell_angle_alpha 90.000000
_cell_angle_beta 110.145420
_cell_angle_gamma 90.000000
_cell_volume 1017.707589
_symmetry_space_group_name_H-M "P 21/C"
_symmetry_group_IT_number 14
_symmetry_cell_setting 'monoclinic'
loop_
_space_group_symop_operation_xyz
x,y,z
-x,1/2+y,1/2-z
-x,-y,-z
x,1/2-y,1/2+z
loop_
_atom_site_type_symbol
_atom_site_label
_atom_site_fract_x
_atom_site_fract_y
_atom_site_fract_z
Si Si1 0.667129 0.839084 0.822751
Si Si2 0.057953 0.537993 0.162733
Si Si3 0.080447 0.458023 0.750712
Si Si4 0.217087 0.986263 0.528994
Si Si5 0.412661 0.478587 0.456829
Si Si6 0.278773 0.733760 0.815564
O O1 0.619453 0.705648 0.674276
O O2 0.720343 0.004857 0.772143
O O3 0.724477 0.688219 0.951405
O O4 0.611237 0.934668 0.900533
O O5 0.090872 0.798050 0.178406
O O6 0.006428 0.548949 0.267066
O O7 0.099092 0.290931 0.199063
O O8 0.000000 0.500000 0.000000
O O9 0.134472 0.470569 0.921487
O O10 0.232267 0.914838 0.696202
O O11 0.246740 0.791311 0.445791
O O12 0.500000 0.500000 0.500000
O O13 0.365177 0.700163 0.382295
#
# Coordination Sequence:
#
# PCOD9248566 Si02
#       6
#     4   4   4   4   4   4
#     4  11  24  45  63  98 135 168 226 278 327 415
#     4  10  22  43  63  97 136 169 230 279 333 411
#     4  10  24  40  67  97 130 180 225 277 345 402
#     4  11  25  42  68  96 130 181 218 281 342 402
#     4  11  26  42  68  97 131 178 219 276 343 401
#     4  11  24  44  64  94 137 164 231 275 330 413
#
# _framework density 23.582412000000001
#
# number of rings (size 3 to 8) (size 9 to 14) (size 15 to 20)
#    0.000    1.333    3.333    0.500    7.000    2.000 
#    0.000    0.000    0.000    0.000    0.000    0.000 
#    0.000    0.000    0.000    0.000    0.000    0.000 
#
# Total GULP energy -133949.668654 kJ/mol
# GULP energy per Si atom -5581.236194 kJ/mol
# Density = 2.352874 g / cm^3
# Si number density = 23.582412 Si / 1000 Ang^3
#
#
#
# Elastic Constant Matrix: (Units=GPa)
#
#
# Indices 1 2 3 4 5 6 
#
# 1 82.5953 20.1760 8.6940 0.0000 11.3407 0.0000
# 2 20.1760 124.2146 36.0877 0.0000 7.7539 0.0000
# 3 8.6940 36.0877 96.9261 0.0000 9.8168 0.0000
# 4 0.0000 0.0000 0.0000 17.3327 0.0000 -2.9862
# 5 11.3407 7.7539 9.8168 0.0000 40.7555 0.0000
# 6 0.0000 0.0000 0.0000 -2.9862 0.0000 30.0010
#
#
#
# Elastic Compliance Matrix: (Units=1/GPa)
#
#
# Indices 1 2 3 4 5 6 
#
# 1 0.013024 -0.001872 -0.000144 0.000000 -0.003233 0.000000
# 2 -0.001872 0.009331 -0.003259 0.000000 -0.000469 0.000000
# 3 -0.000144 -0.003259 0.011763 0.000000 -0.002173 0.000000
# 4 0.000000 0.000000 0.000000 0.058701 0.000000 0.005843
# 5 -0.003233 -0.000469 -0.002173 0.000000 0.026049 0.000000
# 6 0.000000 0.000000 0.000000 0.005843 0.000000 0.033914
#
#
# Mechanical properties :
#
#
# Convention : Reuss Voigt Hill
#
# Bulk Modulus (GPa) = 42.42816 48.18348 45.30582
# Shear Modulus (GPa) = 29.20798 33.53640 31.37219
#
# Velocity S-wave (km/s) = 3.52312 3.77516 3.65131
# Velocity P-wave (km/s) = 5.88051 6.28321 6.08519
#
# Compressibility (1/GPa) = 0.02356925
#
# Stress axis : x y z
#
# Youngs Moduli (GPa) = 76.78416 107.17405 85.00952
#
# Poissons Ratio (x) = 0.20061 0.01223
# Poissons Ratio (y) = 0.14372 0.27701
# Poissons Ratio (z) = 0.01104 0.34923
#
# Static dielectric constant tensor:
#      x y z
#    x 1.910970 0.000000 -0.032170 
#    y 0.000000 1.959820 0.000000 
#    z -0.032170 0.000000 1.833030 
# 
# From -- ./inp_files/33373.got.cif
#   From: 2010.05.17/outbox.cif.g08.bks.cpg/sg14_17_cif.got.tgz:33373.got - 2010.06.03 17:49:19.
