data_PCOD9248572
_publ_section_title
;
Structure prediction by ZEFSAII (Michael W. Deem and Ramdas Pophale) SiO2 
 PCOD9248572
Probable space group: P 21/C
;
_chemical_formula_sum "Si O2"
_cell_formula_units_Z 26
_cell_length_a 15.311830
_cell_length_b 5.098910
_cell_length_c 13.238872
_cell_angle_alpha 90.000000
_cell_angle_beta 107.058494
_cell_angle_gamma 90.000000
_cell_volume 988.134227
_symmetry_space_group_name_H-M "P 21/C"
_symmetry_group_IT_number 14
_symmetry_cell_setting 'monoclinic'
loop_
_space_group_symop_operation_xyz
x,y,z
-x,1/2+y,1/2-z
-x,-y,-z
x,1/2-y,1/2+z
loop_
_atom_site_type_symbol
_atom_site_label
_atom_site_fract_x
_atom_site_fract_y
_atom_site_fract_z
Si Si1 0.796280 0.366948 0.632154
Si Si2 0.347501 0.997067 0.468894
Si Si3 0.000000 0.000000 0.500000
Si Si4 0.811053 0.802852 0.961307
Si Si5 0.042644 0.648424 0.715605
Si Si6 0.550938 0.425389 0.800787
Si Si7 0.704938 0.768936 0.242343
O O1 0.693767 0.287740 0.568001
O O2 0.841555 0.462566 0.544421
O O3 0.854430 0.146404 0.706588
O O4 0.786610 0.591535 0.710814
O O5 0.262309 0.139832 0.496546
O O6 0.429506 0.982456 0.574835
O O7 0.356319 0.128269 0.362755
O O8 0.102942 0.128277 0.538589
O O9 0.028171 0.779962 0.601855
O O10 0.751641 0.898441 0.846315
O O11 0.996209 0.859004 0.777805
O O12 0.523634 0.128193 0.768507
O O13 0.643423 0.511126 0.775368
#
# Coordination Sequence:
#
# PCOD9248572 Si02
#       7
#     4   4   2   4   4   4   4
#     4  11  23  43  70  97 144 195 241 302 358 434
#     4  10  25  45  71 101 145 185 241 296 362 442
#     4  12  22  44  70 104 148 202 246 314 364 414
#     4  10  22  43  64 103 140 194 248 296 364 424
#     4  12  27  46  67 105 148 193 252 307 359 425
#     4  11  28  49  75 111 146 180 236 301 369 450
#     4  10  24  44  72 102 139 194 237 293 371 439
#
# _framework density 26.312214000000001
#
# number of rings (size 3 to 8) (size 9 to 14) (size 15 to 20)
#    0.000    1.231    3.077    0.923   10.769    3.077 
#    5.538    0.000    0.000    0.000    0.000    0.000 
#    0.000    0.000    0.000    0.000    0.000    0.000 
#
# Total GULP energy -145118.884470 kJ/mol
# GULP energy per Si atom -5581.495557 kJ/mol
# Density = 2.625233 g / cm^3
# Si number density = 26.312214 Si / 1000 Ang^3
#
#
#
# Elastic Constant Matrix: (Units=GPa)
#
#
# Indices 1 2 3 4 5 6 
#
# 1 54.8302 18.3422 47.6806 0.0000 9.0602 0.0000
# 2 18.3422 66.0293 -1.4230 0.0000 -11.3828 0.0000
# 3 47.6806 -1.4230 155.7756 0.0000 10.9284 0.0000
# 4 0.0000 0.0000 0.0000 23.3029 0.0000 -5.3742
# 5 9.0602 -11.3828 10.9284 0.0000 46.1762 0.0000
# 6 0.0000 0.0000 0.0000 -5.3742 0.0000 49.7956
#
#
#
# Elastic Compliance Matrix: (Units=1/GPa)
#
#
# Indices 1 2 3 4 5 6 
#
# 1 0.030245 -0.009664 -0.008910 0.000000 -0.006208 0.000000
# 2 -0.009664 0.018907 0.002716 0.000000 0.005914 0.000000
# 3 -0.008910 0.002716 0.009154 0.000000 0.000251 0.000000
# 4 0.000000 0.000000 0.000000 0.044009 0.000000 0.004750
# 5 -0.006208 0.005914 0.000251 0.000000 0.024273 0.000000
# 6 0.000000 0.000000 0.000000 0.004750 0.000000 0.020595
#
#
# Mechanical properties :
#
#
# Convention : Reuss Voigt Hill
#
# Bulk Modulus (GPa) = 37.60878 45.09276 41.35077
# Shear Modulus (GPa) = 26.62932 37.99064 32.30998
#
# Velocity S-wave (km/s) = 3.18473 3.80391 3.50801
# Velocity P-wave (km/s) = 5.27708 6.03886 5.67078
#
# Compressibility (1/GPa) = 0.02658954
#
# Stress axis : x y z
#
# Youngs Moduli (GPa) = 33.06297 52.88933 109.24165
#
# Poissons Ratio (x) = 0.51112 0.97339
# Poissons Ratio (y) = 0.31952 -0.29668
# Poissons Ratio (z) = 0.29460 -0.14364
#
# Static dielectric constant tensor:
#      x y z
#    x 2.096690 0.000000 -0.055680 
#    y 0.000000 2.090920 0.000000 
#    z -0.055680 0.000000 2.022430 
# 
# From -- ./inp_files/47866.got.cif
#   From: 2010.05.17/outbox.cif.g08.bks.cpg/sg14_24_cif.got.tgz:47866.got - 2010.06.03 17:49:19.
