data_PCOD9248595
_publ_section_title
;
Structure prediction by ZEFSAII (Michael W. Deem and Ramdas Pophale) SiO2 
 PCOD9248595
Probable space group: P 21/C
;
_chemical_formula_sum "Si O2"
_cell_formula_units_Z 32
_cell_length_a 10.750963
_cell_length_b 14.780565
_cell_length_c 8.785672
_cell_angle_alpha 90.000000
_cell_angle_beta 82.625891
_cell_angle_gamma 90.000000
_cell_volume 1384.543216
_symmetry_space_group_name_H-M "P 21/C"
_symmetry_group_IT_number 14
_symmetry_cell_setting 'monoclinic'
loop_
_space_group_symop_operation_xyz
x,y,z
-x,1/2+y,1/2-z
-x,-y,-z
x,1/2-y,1/2+z
loop_
_atom_site_type_symbol
_atom_site_label
_atom_site_fract_x
_atom_site_fract_y
_atom_site_fract_z
Si Si1 0.486156 0.163298 0.767705
Si Si2 0.175301 0.046876 0.052061
Si Si3 0.062898 0.696755 0.129429
Si Si4 0.577687 0.848221 0.887102
Si Si5 0.560973 0.477025 0.823689
Si Si6 0.085486 0.626219 0.469170
Si Si7 0.714609 0.093391 0.529907
Si Si8 0.113573 0.449330 0.900401
O O1 0.428286 0.254756 0.706907
O O2 0.616371 0.134784 0.664578
O O3 0.400495 0.074610 0.746521
O O4 0.500564 0.169219 0.946449
O O5 0.288076 0.114783 0.073519
O O6 0.121464 0.019619 0.225552
O O7 0.057038 0.090333 0.987093
O O8 0.191926 0.950791 0.966816
O O9 0.083633 0.667533 0.299971
O O10 0.925936 0.656402 0.101537
O O11 0.093307 0.800120 0.098779
O O12 0.159664 0.649698 0.998893
O O13 0.523052 0.927601 0.788907
O O14 0.500000 0.500000 0.000000
O O15 0.660697 0.405151 0.867483
O O16 0.758374 0.988954 0.550775
O O17 0.000000 0.500000 0.000000
#
# Coordination Sequence:
#
# PCOD9248595 Si02
#       8
#     4   4   4   4   4   4   4   4
#     4  11  25  44  68 101 138 197 247 290 356 433
#     4  10  23  45  69  99 148 184 229 308 362 432
#     4  10  23  41  68 106 134 184 238 293 373 441
#     4  12  26  46  72 104 143 197 250 299 362 433
#     4  10  22  43  65  98 139 179 238 288 354 425
#     4  10  24  43  69 104 137 177 240 295 376 444
#     4  10  22  43  68 102 144 185 232 308 349 434
#     4   9  20  41  71 102 135 178 229 289 374 425
#
# _framework density 23.112317000000001
#
# number of rings (size 3 to 8) (size 9 to 14) (size 15 to 20)
#    0.000    1.750    0.000    3.375    5.250    5.000 
#    4.500    0.000    0.000    0.000    0.000    0.000 
#    0.000    0.000    0.000    0.000    0.000    0.000 
#
# Total GULP energy -178406.186358 kJ/mol
# GULP energy per Si atom -5575.193324 kJ/mol
# Density = 2.305971 g / cm^3
# Si number density = 23.112317 Si / 1000 Ang^3
#
#
#
# Elastic Constant Matrix: (Units=GPa)
#
#
# Indices 1 2 3 4 5 6 
#
# 1 88.8783 39.0936 22.4121 0.0000 5.0364 0.0000
# 2 39.0936 137.9305 38.8991 0.0000 -0.9591 0.0000
# 3 22.4121 38.8991 105.1145 0.0000 -12.6422 0.0000
# 4 0.0000 0.0000 0.0000 37.8641 0.0000 8.0955
# 5 5.0364 -0.9591 -12.6422 0.0000 23.7102 0.0000
# 6 0.0000 0.0000 0.0000 8.0955 0.0000 26.3109
#
#
#
# Elastic Compliance Matrix: (Units=1/GPa)
#
#
# Indices 1 2 3 4 5 6 
#
# 1 0.013455 -0.003230 -0.002172 0.000000 -0.004147 0.000000
# 2 -0.003230 0.008911 -0.002653 0.000000 -0.000368 0.000000
# 3 -0.002172 -0.002653 0.011755 0.000000 0.006622 0.000000
# 4 0.000000 0.000000 0.000000 0.028270 0.000000 -0.008698
# 5 -0.004147 -0.000368 0.006622 0.000000 0.046573 0.000000
# 6 0.000000 0.000000 0.000000 -0.008698 0.000000 0.040683
#
#
# Mechanical properties :
#
#
# Convention : Reuss Voigt Hill
#
# Bulk Modulus (GPa) = 55.52448 59.19252 57.35850
# Shear Modulus (GPa) = 29.11022 33.01160 31.06091
#
# Velocity S-wave (km/s) = 3.55281 3.78340 3.66992
# Velocity P-wave (km/s) = 6.39577 6.68969 6.54438
#
# Compressibility (1/GPa) = 0.01801007
#
# Stress axis : x y z
#
# Youngs Moduli (GPa) = 74.32350 112.21897 85.07060
#
# Poissons Ratio (x) = 0.36243 0.18480
# Poissons Ratio (y) = 0.24004 0.22572
# Poissons Ratio (z) = 0.16145 0.29776
#
# Static dielectric constant tensor:
#      x y z
#    x 1.911560 0.000000 0.010280 
#    y 0.000000 1.955470 0.000000 
#    z 0.010280 0.000000 1.858780 
# 
# From -- ./inp_files/13313.got.cif
#   From: 2010.05.17/outbox.cif.g08.bks.cpg/sg14_7_cif.got.tgz:13313.got - 2010.06.03 17:49:19.
