data_PCOD9248275
_publ_section_title
;
Structure prediction by ZEFSAII (Michael W. Deem and Ramdas Pophale) SiO2 
 PCOD9248275
Probable space group: P 21/C
;
_chemical_formula_sum "Si O2"
_cell_formula_units_Z 28
_cell_length_a 12.657105
_cell_length_b 16.019365
_cell_length_c 9.280311
_cell_angle_alpha 90.000000
_cell_angle_beta 127.830217
_cell_angle_gamma 90.000000
_cell_volume 1486.198267
_symmetry_space_group_name_H-M "P 21/C"
_symmetry_group_IT_number 14
_symmetry_cell_setting 'monoclinic'
loop_
_space_group_symop_operation_xyz
x,y,z
-x,1/2+y,1/2-z
-x,-y,-z
x,1/2-y,1/2+z
loop_
_atom_site_type_symbol
_atom_site_label
_atom_site_fract_x
_atom_site_fract_y
_atom_site_fract_z
Si Si1 0.712564 0.840153 0.434396
Si Si2 0.729195 0.481285 0.027568
Si Si3 0.031049 0.439697 0.890956
Si Si4 0.222615 0.668918 0.414555
Si Si5 0.412883 0.228502 0.958743
Si Si6 0.309110 0.825131 0.315299
Si Si7 0.424920 0.920080 0.876055
O O1 0.707183 0.772534 0.556537
O O2 0.626902 0.803699 0.232090
O O3 0.854029 0.869636 0.485816
O O4 0.661853 0.927041 0.463743
O O5 0.680070 0.440476 0.836745
O O6 0.695191 0.417851 0.124312
O O7 0.887717 0.501692 0.153671
O O8 0.904545 0.389241 0.726939
O O9 0.000000 0.500000 0.000000
O O10 0.223988 0.760847 0.343493
O O11 0.250593 0.677418 0.606264
O O12 0.345715 0.622572 0.439940
O O13 0.539103 0.290800 0.058755
O O14 0.467322 0.147179 0.088287
O O15 0.500000 0.000000 0.000000
#
# Coordination Sequence:
#
# PCOD9248275 Si02
#       7
#     4   4   4   4   4   4   4
#     4  10  23  40  61  91 130 169 213 272 329 379
#     4  10  22  42  62  95 126 169 214 276 323 396
#     4  10  22  44  65  90 129 168 229 262 325 398
#     4  11  23  41  65  94 126 179 212 272 319 390
#     4  11  21  41  60  96 130 166 219 269 334 395
#     4  11  24  40  68  95 134 167 222 270 333 394
#     4  11  19  38  65  89 127 171 217 263 333 387
#
# _framework density 18.840015999999999
#
# number of rings (size 3 to 8) (size 9 to 14) (size 15 to 20)
#    0.857    0.571    2.857    4.286    0.000    2.286 
#    2.571    0.000    0.000    0.000    0.000    0.000 
#    0.000    0.000    0.000    0.000    0.000    0.000 
#
# Total GULP energy -155980.896286 kJ/mol
# GULP energy per Si atom -5570.746296 kJ/mol
# Density = 1.879714 g / cm^3
# Si number density = 18.840016 Si / 1000 Ang^3
#
#
#
# Elastic Constant Matrix: (Units=GPa)
#
#
# Indices 1 2 3 4 5 6 
#
# 1 52.7989 45.0225 35.6277 0.0000 3.2309 0.0000
# 2 45.0225 119.7245 51.8552 0.0000 -6.9759 0.0000
# 3 35.6277 51.8552 114.1156 0.0000 -10.9171 0.0000
# 4 0.0000 0.0000 0.0000 37.0313 0.0000 1.4212
# 5 3.2309 -6.9759 -10.9171 0.0000 18.9175 0.0000
# 6 0.0000 0.0000 0.0000 1.4212 0.0000 46.7783
#
#
#
# Elastic Compliance Matrix: (Units=1/GPa)
#
#
# Indices 1 2 3 4 5 6 
#
# 1 0.033236 -0.010248 -0.007011 0.000000 -0.013502 0.000000
# 2 -0.010248 0.013584 -0.002462 0.000000 0.005338 0.000000
# 3 -0.007011 -0.002462 0.012806 0.000000 0.007679 0.000000
# 4 0.000000 0.000000 0.000000 0.027036 0.000000 -0.000821
# 5 -0.013502 0.005338 0.007679 0.000000 0.061567 0.000000
# 6 0.000000 0.000000 0.000000 -0.000821 0.000000 0.021402
#
#
# Mechanical properties :
#
#
# Convention : Reuss Voigt Hill
#
# Bulk Modulus (GPa) = 49.55002 61.29443 55.42222
# Shear Modulus (GPa) = 23.16940 30.82100 26.99520
#
# Velocity S-wave (km/s) = 3.51065 4.04905 3.78943
# Velocity P-wave (km/s) = 6.54144 7.38001 6.97334
#
# Compressibility (1/GPa) = 0.02018163
#
# Stress axis : x y z
#
# Youngs Moduli (GPa) = 30.08790 73.61622 78.09104
#
# Poissons Ratio (x) = 0.75445 0.54751
# Poissons Ratio (y) = 0.30835 0.19229
# Poissons Ratio (z) = 0.21095 0.18127
#
# Static dielectric constant tensor:
#      x y z
#    x 1.691690 0.000000 0.005850 
#    y 0.000000 1.687210 0.000000 
#    z 0.005850 0.000000 1.674010 
# 
# From -- ./inp_files/16297.got.cif
#   From: 2010.05.17/outbox.cif.g08.bks.cpg/sg14_9_cif.got.tgz:16297.got - 2010.06.03 17:49:19.
