data_PCOD9248131
_publ_section_title
;
Structure prediction by ZEFSAII (Michael W. Deem and Ramdas Pophale) SiO2 
 PCOD9248131
Probable space group: P 21/C
;
_chemical_formula_sum "Si O2"
_cell_formula_units_Z 32
_cell_length_a 17.072724
_cell_length_b 10.985089
_cell_length_c 13.041870
_cell_angle_alpha 90.000000
_cell_angle_beta 35.080751
_cell_angle_gamma 90.000000
_cell_volume 1405.757477
_symmetry_space_group_name_H-M "P 21/C"
_symmetry_group_IT_number 14
_symmetry_cell_setting 'monoclinic'
loop_
_space_group_symop_operation_xyz
x,y,z
-x,1/2+y,1/2-z
-x,-y,-z
x,1/2-y,1/2+z
loop_
_atom_site_type_symbol
_atom_site_label
_atom_site_fract_x
_atom_site_fract_y
_atom_site_fract_z
Si Si1 0.447925 0.491332 0.438383
Si Si2 0.090150 0.398147 0.342690
Si Si3 0.252062 0.174550 0.860975
Si Si4 0.557731 0.240286 0.546179
Si Si5 0.201170 0.897478 0.589867
Si Si6 0.219583 0.948071 0.038826
Si Si7 0.356565 0.785338 0.275902
Si Si8 0.976338 0.793165 0.287599
O O1 0.500000 0.500000 0.500000
O O2 0.488738 0.628150 0.357784
O O3 0.294497 0.500868 0.559738
O O4 0.505467 0.360052 0.340552
O O5 0.185423 0.330160 0.320716
O O6 0.178728 0.476488 0.168057
O O7 0.000000 0.500000 0.500000
O O8 0.015121 0.305734 0.345399
O O9 0.414649 0.174993 0.683311
O O10 0.214288 0.052237 0.961064
O O11 0.174881 0.279412 0.007282
O O12 0.673731 0.169442 0.484932
O O13 0.626809 0.258909 0.361069
O O14 0.248202 0.890400 0.421852
O O15 0.062759 0.819994 0.740301
O O16 0.300008 0.835526 0.894839
O O17 0.067774 0.905410 0.227250
#
# Coordination Sequence:
#
# PCOD9248131 Si02
#       8
#     4   4   4   4   4   4   4   4
#     4  10  22  41  65  98 146 181 232 300 370 437
#     4  12  25  46  72 108 145 193 258 302 373 458
#     4  12  27  45  76 109 150 189 255 315 369 451
#     4  11  24  43  69 109 143 186 250 306 372 443
#     4  11  23  44  75 101 143 197 238 314 370 433
#     4  11  22  44  71 102 143 194 249 297 368 455
#     4  10  23  39  68 103 140 192 231 299 374 431
#     4  11  24  44  72 103 147 197 239 311 368 447
#
# _framework density 22.763528000000001
#
# number of rings (size 3 to 8) (size 9 to 14) (size 15 to 20)
#    0.000    1.000    5.000    1.500    3.500    6.000 
#    0.000    0.000    0.000    5.250    0.000    0.000 
#    0.000    0.000    0.000    0.000    0.000    0.000 
#
# Total GULP energy -178161.051112 kJ/mol
# GULP energy per Si atom -5567.532847 kJ/mol
# Density = 2.271172 g / cm^3
# Si number density = 22.763528 Si / 1000 Ang^3
#
#
#
# Elastic Constant Matrix: (Units=GPa)
#
#
# Indices 1 2 3 4 5 6 
#
# 1 132.4585 32.6565 35.3528 0.0000 -9.2055 0.0000
# 2 32.6565 82.2783 27.7270 0.0000 -0.4705 0.0000
# 3 35.3528 27.7270 101.8964 0.0000 5.7726 0.0000
# 4 0.0000 0.0000 0.0000 39.2103 0.0000 2.1181
# 5 -9.2055 -0.4705 5.7726 0.0000 33.2807 0.0000
# 6 0.0000 0.0000 0.0000 2.1181 0.0000 38.2452
#
#
#
# Elastic Compliance Matrix: (Units=1/GPa)
#
#
# Indices 1 2 3 4 5 6 
#
# 1 0.009117 -0.002730 -0.002586 0.000000 0.002932 0.000000
# 2 -0.002730 0.014221 -0.002920 0.000000 -0.000048 0.000000
# 3 -0.002586 -0.002920 0.011663 0.000000 -0.002780 0.000000
# 4 0.000000 0.000000 0.000000 0.025580 0.000000 -0.001417
# 5 0.002932 -0.000048 -0.002780 0.000000 0.031340 0.000000
# 6 0.000000 0.000000 0.000000 -0.001417 0.000000 0.026226
#
#
# Mechanical properties :
#
#
# Convention : Reuss Voigt Hill
#
# Bulk Modulus (GPa) = 53.97039 56.45619 55.21329
# Shear Modulus (GPa) = 35.51271 36.87371 36.19321
#
# Velocity S-wave (km/s) = 3.95406 4.02911 3.99176
# Velocity P-wave (km/s) = 6.67883 6.81909 6.74932
#
# Compressibility (1/GPa) = 0.01852868
#
# Stress axis : x y z
#
# Youngs Moduli (GPa) = 109.68992 70.31788 85.74027
#
# Poissons Ratio (x) = 0.19198 0.22174
# Poissons Ratio (y) = 0.29947 0.25034
# Poissons Ratio (z) = 0.28368 0.20531
#
# Static dielectric constant tensor:
#      x y z
#    x 1.939540 0.000000 -0.028540 
#    y 0.000000 1.974590 0.000000 
#    z -0.028540 0.000000 1.922100 
# 
# From -- ./inp_files/49001.got.cif
#   From: 2010.05.17/outbox.cif.g08.bks.cpg/sg14_25_cif.got.tgz:49001.got - 2010.06.03 17:49:19.
