data_PCOD9248888
_publ_section_title
;
Structure prediction by ZEFSAII (Michael W. Deem and Ramdas Pophale) SiO2 
 PCOD9248888
Probable space group: P 21/C
;
_chemical_formula_sum "Si O2"
_cell_formula_units_Z 26
_cell_length_a 20.175210
_cell_length_b 12.816195
_cell_length_c 13.601417
_cell_angle_alpha 90.000000
_cell_angle_beta 160.043598
_cell_angle_gamma 90.000000
_cell_volume 1200.339184
_symmetry_space_group_name_H-M "P 21/C"
_symmetry_group_IT_number 14
_symmetry_cell_setting 'monoclinic'
loop_
_space_group_symop_operation_xyz
x,y,z
-x,1/2+y,1/2-z
-x,-y,-z
x,1/2-y,1/2+z
loop_
_atom_site_type_symbol
_atom_site_label
_atom_site_fract_x
_atom_site_fract_y
_atom_site_fract_z
Si Si1 0.175996 0.460185 0.816490
Si Si2 0.037300 0.981602 0.779360
Si Si3 0.826009 0.317125 0.652630
Si Si4 0.000000 0.000000 0.500000
Si Si5 0.601566 0.889380 0.666150
Si Si6 0.753828 0.758811 0.706115
Si Si7 0.474209 0.857544 0.703783
O O1 0.229081 0.345193 0.854667
O O2 0.000000 0.500000 0.500000
O O3 0.106403 0.463441 0.831411
O O4 0.358517 0.535841 0.056453
O O5 0.167425 0.876941 0.942427
O O6 0.951783 0.002693 0.552687
O O7 0.178068 0.075922 0.003131
O O8 0.834483 0.410162 0.743662
O O9 0.659007 0.235318 0.440626
O O10 0.033620 0.260843 0.954784
O O11 0.618522 0.807290 0.601797
O O12 0.512272 0.845287 0.641530
O O13 0.500000 0.000000 0.500000
O O14 0.675173 0.653242 0.544884
#
# Coordination Sequence:
#
# PCOD9248888 Si02
#       7
#     4   4   4   2   4   4   4
#     4  12  23  47  71  99 143 188 238 298 353 431
#     4  10  22  44  70  93 138 192 225 287 359 415
#     4  10  23  45  65  98 134 183 234 286 353 422
#     4   8  22  40  66  94 134 180 226 284 352 404
#     4  12  23  43  69  99 144 184 231 299 359 421
#     4  12  26  43  67 107 136 185 246 286 364 423
#     4  12  26  41  71 104 139 182 243 292 349 438
#
# _framework density 21.660544000000002
#
# number of rings (size 3 to 8) (size 9 to 14) (size 15 to 20)
#    0.923    0.000    4.615    1.846    2.154    1.231 
#    2.769    0.769    0.000    0.000    0.000    0.000 
#    0.000    0.000    0.000    0.000    0.000    0.000 
#
# Total GULP energy -144779.324269 kJ/mol
# GULP energy per Si atom -5568.435549 kJ/mol
# Density = 2.161124 g / cm^3
# Si number density = 21.660544 Si / 1000 Ang^3
#
#
#
# Elastic Constant Matrix: (Units=GPa)
#
#
# Indices 1 2 3 4 5 6 
#
# 1 176.4402 20.0932 27.3845 0.0000 0.4797 0.0000
# 2 20.0932 69.1696 9.5011 0.0000 -3.4953 0.0000
# 3 27.3845 9.5011 58.5693 0.0000 -5.1103 0.0000
# 4 0.0000 0.0000 0.0000 30.6120 0.0000 -6.8290
# 5 0.4797 -3.4953 -5.1103 0.0000 28.0789 0.0000
# 6 0.0000 0.0000 0.0000 -6.8290 0.0000 43.4952
#
#
#
# Elastic Compliance Matrix: (Units=1/GPa)
#
#
# Indices 1 2 3 4 5 6 
#
# 1 0.006267 -0.001482 -0.002759 0.000000 -0.000794 0.000000
# 2 -0.001482 0.015193 -0.001631 0.000000 0.001620 0.000000
# 3 -0.002759 -0.001631 0.018915 0.000000 0.003287 0.000000
# 4 0.000000 0.000000 0.000000 0.033853 0.000000 0.005315
# 5 -0.000794 0.001620 0.003287 0.000000 0.036427 0.000000
# 6 0.000000 0.000000 0.000000 0.005315 0.000000 0.023826
#
#
# Mechanical properties :
#
#
# Convention : Reuss Voigt Hill
#
# Bulk Modulus (GPa) = 34.92483 46.45962 40.69222
# Shear Modulus (GPa) = 32.09916 36.91723 34.50819
#
# Velocity S-wave (km/s) = 3.85375 4.13286 3.99574
# Velocity P-wave (km/s) = 5.99671 6.65354 6.33364
#
# Compressibility (1/GPa) = 0.02863292
#
# Stress axis : x y z
#
# Youngs Moduli (GPa) = 159.57296 65.81786 52.86796
#
# Poissons Ratio (x) = 0.09751 0.14586
# Poissons Ratio (y) = 0.23642 0.08621
# Poissons Ratio (z) = 0.44025 0.10732
#
# Static dielectric constant tensor:
#      x y z
#    x 1.438430 0.000000 -0.177420 
#    y 0.000000 1.680630 0.000000 
#    z -0.177420 0.000000 1.738870 
# 
# From -- ./inp_files/50583.got.cif
#   From: 2010.05.17/outbox.cif.g08.bks.cpg/sg14_26_cif.got.tgz:50583.got - 2010.06.03 17:49:19.
