data_PCOD9248122
_publ_section_title
;
Structure prediction by ZEFSAII (Michael W. Deem and Ramdas Pophale) SiO2 
 PCOD9248122
Probable space group: P 21/C
;
_chemical_formula_sum "Si O2"
_cell_formula_units_Z 24
_cell_length_a 17.462189
_cell_length_b 8.735594
_cell_length_c 14.403669
_cell_angle_alpha 90.000000
_cell_angle_beta 27.636632
_cell_angle_gamma 90.000000
_cell_volume 1019.186246
_symmetry_space_group_name_H-M "P 21/C"
_symmetry_group_IT_number 14
_symmetry_cell_setting 'monoclinic'
loop_
_space_group_symop_operation_xyz
x,y,z
-x,1/2+y,1/2-z
-x,-y,-z
x,1/2-y,1/2+z
loop_
_atom_site_type_symbol
_atom_site_label
_atom_site_fract_x
_atom_site_fract_y
_atom_site_fract_z
Si Si1 0.942210 0.828535 0.551639
Si Si2 0.568829 0.196878 0.314002
Si Si3 0.580680 0.849962 0.863417
Si Si4 0.052804 0.818784 0.104795
Si Si5 0.447049 0.981871 0.293662
Si Si6 0.090706 0.638601 0.244212
O O1 0.774467 0.835160 0.674519
O O2 0.923566 0.755918 0.673129
O O3 0.080400 0.727361 0.351611
O O4 0.000000 0.000000 0.500000
O O5 0.493619 0.209062 0.497550
O O6 0.762160 0.230951 0.118661
O O7 0.545534 0.045229 0.276754
O O8 0.495246 0.333821 0.327774
O O9 0.554302 0.882916 0.782965
O O10 0.500000 0.000000 0.000000
O O11 0.031688 0.758995 0.230919
O O12 0.034885 0.998817 0.117177
O O13 0.266041 0.932966 0.526089
#
# Coordination Sequence:
#
# PCOD9248122 Si02
#       6
#     4   4   4   4   4   4
#     4  12  24  42  67  95 131 172 215 274 330 393
#     4  10  23  40  64  94 132 173 219 277 334 394
#     4  10  22  41  65  95 130 171 219 268 331 396
#     4  11  24  42  64  98 131 175 225 274 335 394
#     4  10  22  42  63  94 128 170 221 272 331 395
#     4  11  24  43  66  94 130 173 223 271 328 400
#
# _framework density 23.548200000000001
#
# number of rings (size 3 to 8) (size 9 to 14) (size 15 to 20)
#    0.000    1.333    0.000    6.500    0.000   13.333 
#    0.000    2.500    0.000    0.000    0.000    0.000 
#    0.000    0.000    0.000    0.000    0.000    0.000 
#
# Total GULP energy -134164.867196 kJ/mol
# GULP energy per Si atom -5590.202800 kJ/mol
# Density = 2.349460 g / cm^3
# Si number density = 23.548200 Si / 1000 Ang^3
#
#
#
# Elastic Constant Matrix: (Units=GPa)
#
#
# Indices 1 2 3 4 5 6 
#
# 1 248.2276 147.0761 99.3005 0.0000 234.2577 0.0000
# 2 147.0761 190.4090 69.2653 0.0000 188.4440 0.0000
# 3 99.3005 69.2653 124.2993 0.0000 132.4324 0.0000
# 4 0.0000 0.0000 0.0000 13.1952 0.0000 9.9975
# 5 234.2577 188.4440 132.4324 0.0000 333.0342 0.0000
# 6 0.0000 0.0000 0.0000 9.9975 0.0000 45.1303
#
#
#
# Elastic Compliance Matrix: (Units=1/GPa)
#
#
# Indices 1 2 3 4 5 6 
#
# 1 0.012466 -0.002245 -0.001247 0.000000 -0.007002 0.000000
# 2 -0.002245 0.012405 0.001175 0.000000 -0.005907 0.000000
# 3 -0.001247 0.001175 0.014159 0.000000 -0.005418 0.000000
# 4 0.000000 0.000000 0.000000 0.091071 0.000000 -0.020175
# 5 -0.007002 -0.005907 -0.005418 0.000000 0.013425 0.000000
# 6 0.000000 0.000000 0.000000 -0.020175 0.000000 0.026627
#
#
# Mechanical properties :
#
#
# Convention : Reuss Voigt Hill
#
# Bulk Modulus (GPa) = 29.07538 132.69108 80.88323
# Shear Modulus (GPa) = 26.84508 94.75821 60.80164
#
# Velocity S-wave (km/s) = 3.38006 6.35039 5.08686
# Velocity P-wave (km/s) = 5.25424 10.49957 8.30205
#
# Compressibility (1/GPa) = 0.03439336
#
# Stress axis : x y z
#
# Youngs Moduli (GPa) = 80.21855 80.61390 70.62507
#
# Poissons Ratio (x) = 0.18102 0.08810
# Poissons Ratio (y) = 0.18013 -0.08295
# Poissons Ratio (z) = 0.10007 -0.09469
#
# Static dielectric constant tensor:
#      x y z
#    x 1.833160 0.000000 0.022220 
#    y 0.000000 1.744240 0.000000 
#    z 0.022220 0.000000 1.870400 
# 
# From -- ./inp_files/48499.got.cif
#   From: 2010.05.17/outbox.cif.g08.bks.cpg/sg14_25_cif.got.tgz:48499.got - 2010.06.03 17:49:19.
