data_PCOD9248628
_publ_section_title
;
Structure prediction by ZEFSAII (Michael W. Deem and Ramdas Pophale) SiO2 
 PCOD9248628
Probable space group: P 21/C
;
_chemical_formula_sum "Si O2"
_cell_formula_units_Z 32
_cell_length_a 5.772139
_cell_length_b 29.071533
_cell_length_c 9.355506
_cell_angle_alpha 90.000000
_cell_angle_beta 95.719765
_cell_angle_gamma 90.000000
_cell_volume 1562.083883
_symmetry_space_group_name_H-M "P 21/C"
_symmetry_group_IT_number 14
_symmetry_cell_setting 'monoclinic'
loop_
_space_group_symop_operation_xyz
x,y,z
-x,1/2+y,1/2-z
-x,-y,-z
x,1/2-y,1/2+z
loop_
_atom_site_type_symbol
_atom_site_label
_atom_site_fract_x
_atom_site_fract_y
_atom_site_fract_z
Si Si1 0.621071 0.709685 0.655354
Si Si2 0.018392 0.421159 0.570892
Si Si3 0.359963 0.303597 0.011829
Si Si4 0.104455 0.660485 0.626519
Si Si5 0.277852 0.487516 0.391886
Si Si6 0.579055 0.542114 0.908862
Si Si7 0.750175 0.120446 0.581137
Si Si8 0.105295 0.389626 0.885255
O O1 0.598343 0.759606 0.583180
O O2 0.685104 0.711648 0.827752
O O3 0.358577 0.686540 0.632509
O O4 0.852504 0.686418 0.594895
O O5 0.184565 0.440995 0.458652
O O6 0.131148 0.401158 0.721667
O O7 0.878435 0.379991 0.488848
O O8 0.882830 0.467415 0.606826
O O9 0.578717 0.337797 0.036813
O O10 0.168436 0.337249 0.930198
O O11 0.082653 0.639222 0.785052
O O12 0.500000 0.500000 0.500000
O O13 0.315783 0.477091 0.229250
O O14 0.370148 0.576272 0.856035
O O15 0.500000 0.500000 0.000000
O O16 0.743606 0.575095 0.011906
O O17 0.850247 0.104159 0.435915
#
# Coordination Sequence:
#
# PCOD9248628 Si02
#       8
#     4   4   4   4   4   4   4   4
#     4  11  26  45  73 100 138 178 234 287 359 420
#     4  11  26  40  65 101 133 187 229 292 346 419
#     4  10  25  44  67 101 132 177 225 290 348 425
#     4  11  25  45  70 101 136 186 226 288 357 414
#     4  11  24  42  65  96 142 178 237 288 349 421
#     4  11  23  40  67  97 135 185 229 292 347 420
#     4  10  22  43  67  94 133 180 227 284 346 416
#     4  11  23  43  66  95 139 174 237 283 353 420
#
# _framework density 20.485453
#
# number of rings (size 3 to 8) (size 9 to 14) (size 15 to 20)
#    0.000    1.250    1.250    3.000    8.750    6.000 
#    0.000    0.000    0.000    0.000    0.000    0.000 
#    0.000    0.000    0.000    0.000    0.000    0.000 
#
# Total GULP energy -178457.627007 kJ/mol
# GULP energy per Si atom -5576.800844 kJ/mol
# Density = 2.043883 g / cm^3
# Si number density = 20.485453 Si / 1000 Ang^3
#
#
#
# Elastic Constant Matrix: (Units=GPa)
#
#
# Indices 1 2 3 4 5 6 
#
# 1 52.3565 26.6148 20.4511 0.0000 -7.7203 0.0000
# 2 26.6148 115.3782 54.4365 0.0000 -4.7252 0.0000
# 3 20.4511 54.4365 137.7377 0.0000 -12.7012 0.0000
# 4 0.0000 0.0000 0.0000 35.2952 0.0000 -9.6387
# 5 -7.7203 -4.7252 -12.7012 0.0000 26.0754 0.0000
# 6 0.0000 0.0000 0.0000 -9.6387 0.0000 6.9218
#
#
#
# Elastic Compliance Matrix: (Units=1/GPa)
#
#
# Indices 1 2 3 4 5 6 
#
# 1 0.022590 -0.004477 -0.001092 0.000000 0.005345 0.000000
# 2 -0.004477 0.011541 -0.004006 0.000000 -0.001185 0.000000
# 3 -0.001092 -0.004006 0.009328 0.000000 0.003494 0.000000
# 4 0.000000 0.000000 0.000000 0.045718 0.000000 0.063662
# 5 0.005345 -0.001185 0.003494 0.000000 0.041420 0.000000
# 6 0.000000 0.000000 0.000000 0.063662 0.000000 0.233121
#
#
# Mechanical properties :
#
#
# Convention : Reuss Voigt Hill
#
# Bulk Modulus (GPa) = 41.13549 56.49743 48.81646
# Shear Modulus (GPa) = 12.78866 27.25650 20.02258
#
# Velocity S-wave (km/s) = 2.50127 3.65160 3.12974
# Velocity P-wave (km/s) = 5.33533 6.73929 6.07798
#
# Compressibility (1/GPa) = 0.02430991
#
# Stress axis : x y z
#
# Youngs Moduli (GPa) = 44.26670 86.64494 107.20711
#
# Poissons Ratio (x) = 0.38790 0.11706
# Poissons Ratio (y) = 0.19818 0.42946
# Poissons Ratio (z) = 0.04833 0.34709
#
# Static dielectric constant tensor:
#      x y z
#    x 1.954300 0.000000 0.010790 
#    y 0.000000 1.722190 0.000000 
#    z 0.010790 0.000000 1.697460 
# 
# From -- ./inp_files/6976.got.cif
#   From: 2010.05.17/outbox.cif.g08.bks.cpg/sg14_4_cif.got.tgz:6976.got - 2010.06.03 17:49:19.
