data_PCOD9248878
_publ_section_title
;
Structure prediction by ZEFSAII (Michael W. Deem and Ramdas Pophale) SiO2 
 PCOD9248878
Probable space group: P 21/C
;
_chemical_formula_sum "Si O2"
_cell_formula_units_Z 32
_cell_length_a 26.523287
_cell_length_b 6.068337
_cell_length_c 29.629540
_cell_angle_alpha 90.000000
_cell_angle_beta 160.158105
_cell_angle_gamma 90.000000
_cell_volume 1618.701630
_symmetry_space_group_name_H-M "P 21/C"
_symmetry_group_IT_number 14
_symmetry_cell_setting 'monoclinic'
loop_
_space_group_symop_operation_xyz
x,y,z
-x,1/2+y,1/2-z
-x,-y,-z
x,1/2-y,1/2+z
loop_
_atom_site_type_symbol
_atom_site_label
_atom_site_fract_x
_atom_site_fract_y
_atom_site_fract_z
Si Si1 0.858482 0.565987 0.515699
Si Si2 0.584385 0.342848 0.255833
Si Si3 0.184919 0.715831 0.778138
Si Si4 0.370420 0.455657 0.156384
Si Si5 0.148224 0.744001 0.910496
Si Si6 0.387964 0.389078 0.009913
Si Si7 0.448166 0.748196 0.438784
Si Si8 0.837480 0.521041 0.659765
O O1 0.758190 0.401165 0.401800
O O2 0.742667 0.763384 0.425742
O O3 0.887900 0.456035 0.589111
O O4 0.019368 0.624126 0.632095
O O5 0.507695 0.402116 0.239319
O O6 0.496631 0.459835 0.141859
O O7 0.575702 0.077982 0.252837
O O8 0.276367 0.750000 0.809327
O O9 0.165753 0.936671 0.791634
O O10 0.288393 0.559104 0.897119
O O11 0.269956 0.611162 0.040354
O O12 0.201824 0.825339 0.907343
O O13 0.001539 0.597357 0.784432
O O14 0.493684 0.261432 0.063294
O O15 0.273644 0.223010 0.937426
O O16 0.500000 0.500000 0.500000
O O17 0.500000 0.000000 0.500000
#
# Coordination Sequence:
#
# PCOD9248878 Si02
#       8
#     4   4   4   4   4   4   4   4
#     4  11  22  41  57  85 125 171 212 253 320 385
#     4  11  24  38  59  86 128 173 217 252 318 389
#     4  11  22  41  68  93 122 165 212 280 328 393
#     4  11  22  39  57  83 126 176 216 249 309 392
#     4  11  24  33  55  91 126 168 204 263 311 392
#     4  11  24  41  64  96 124 166 215 277 331 386
#     4  10  22  44  70 102 131 165 221 284 350 399
#     4  12  22  34  59  91 130 154 216 259 332 378
#
# _framework density 19.768932
#
# number of rings (size 3 to 8) (size 9 to 14) (size 15 to 20)
#    0.000    1.000    5.000    2.250    3.500    1.000 
#    0.000    0.625    0.000    0.750    0.000    0.000 
#    0.000    0.000    0.000    0.000    0.000    0.000 
#
# Total GULP energy -178286.382291 kJ/mol
# GULP energy per Si atom -5571.449447 kJ/mol
# Density = 1.972394 g / cm^3
# Si number density = 19.768932 Si / 1000 Ang^3
#
#
#
# Elastic Constant Matrix: (Units=GPa)
#
#
# Indices 1 2 3 4 5 6 
#
# 1 44.8658 -0.2140 16.8868 0.0000 18.0946 0.0000
# 2 -0.2140 52.5495 9.9058 0.0000 2.3212 0.0000
# 3 16.8868 9.9058 85.9689 0.0000 9.5861 0.0000
# 4 0.0000 0.0000 0.0000 27.2745 0.0000 5.3365
# 5 18.0946 2.3212 9.5861 0.0000 28.5185 0.0000
# 6 0.0000 0.0000 0.0000 5.3365 0.0000 25.6931
#
#
#
# Elastic Compliance Matrix: (Units=1/GPa)
#
#
# Indices 1 2 3 4 5 6 
#
# 1 0.031434 0.001762 -0.004299 0.000000 -0.018643 0.000000
# 2 0.001762 0.019571 -0.002388 0.000000 -0.001908 0.000000
# 3 -0.004299 -0.002388 0.012910 0.000000 -0.001418 0.000000
# 4 0.000000 0.000000 0.000000 0.038217 0.000000 -0.007938
# 5 -0.018643 -0.001908 -0.001418 0.000000 0.047525 0.000000
# 6 0.000000 0.000000 0.000000 -0.007938 0.000000 0.040570
#
#
# Mechanical properties :
#
#
# Convention : Reuss Voigt Hill
#
# Bulk Modulus (GPa) = 18.49654 26.28238 22.38946
# Shear Modulus (GPa) = 22.92533 26.75093 24.83813
#
# Velocity S-wave (km/s) = 3.40908 3.68255 3.54845
# Velocity P-wave (km/s) = 4.98723 5.60404 5.30460
#
# Compressibility (1/GPa) = 0.05406415
#
# Stress axis : x y z
#
# Youngs Moduli (GPa) = 31.81290 51.09504 77.46064
#
# Poissons Ratio (x) = -0.09002 0.33298
# Poissons Ratio (y) = -0.05605 0.18501
# Poissons Ratio (z) = 0.13676 0.12204
#
# Static dielectric constant tensor:
#      x y z
#    x 1.679330 0.000000 -0.004310 
#    y 0.000000 1.864090 0.000000 
#    z -0.004310 0.000000 1.694330 
# 
# From -- ./inp_files/80755.got.cif
#   From: 2010.05.17/outbox.cif.g08.bks.cpg/sg14_41_cif.got.tgz:80755.got - 2010.06.03 17:49:19.
