data_PCOD9248793
_publ_section_title
;
Structure prediction by ZEFSAII (Michael W. Deem and Ramdas Pophale) SiO2 
 PCOD9248793
Probable space group: P 21/C
;
_chemical_formula_sum "Si O2"
_cell_formula_units_Z 20
_cell_length_a 12.564713
_cell_length_b 10.883367
_cell_length_c 13.849815
_cell_angle_alpha 90.000000
_cell_angle_beta 21.033031
_cell_angle_gamma 90.000000
_cell_volume 679.736605
_symmetry_space_group_name_H-M "P 21/C"
_symmetry_group_IT_number 14
_symmetry_cell_setting 'monoclinic'
loop_
_space_group_symop_operation_xyz
x,y,z
-x,1/2+y,1/2-z
-x,-y,-z
x,1/2-y,1/2+z
loop_
_atom_site_type_symbol
_atom_site_label
_atom_site_fract_x
_atom_site_fract_y
_atom_site_fract_z
Si Si1 0.382110 0.912890 0.184535
Si Si2 0.761121 0.393780 0.688175
Si Si3 0.911197 0.738458 0.766405
Si Si4 0.075841 0.222499 0.538001
Si Si5 0.601820 0.420783 0.108889
O O1 0.582308 0.785432 0.018756
O O2 0.043184 0.874117 0.441124
O O3 0.439773 0.964172 0.243303
O O4 0.500000 0.000000 0.000000
O O5 0.901782 0.321670 0.477055
O O6 0.816129 0.322523 0.741250
O O7 0.472690 0.470280 0.902035
O O8 0.000000 0.500000 0.500000
O O9 0.936161 0.666975 0.846016
O O10 0.073767 0.865348 0.657149
O O11 0.376802 0.303593 0.279345
#
# Coordination Sequence:
#
# PCOD9248793 Si02
#       5
#     4   4   4   4   4
#     4  11  24  43  65 100 133 176 217 272 339 389
#     4  10  22  44  66  94 133 175 219 269 337 389
#     4  11  24  42  66  99 132 174 224 276 322 403
#     4  10  23  42  67  92 135 171 221 267 331 399
#     4  10  23  43  65  99 129 173 225 273 325 400
#
# _framework density 29.423159999999999
#
# number of rings (size 3 to 8) (size 9 to 14) (size 15 to 20)
#    0.000    1.600    2.000    1.200    5.600    3.200 
#    7.200    0.000    0.000    0.000    0.000    0.000 
#    0.000    0.000    0.000    0.000    0.000    0.000 
#
# Total GULP energy -111901.973628 kJ/mol
# GULP energy per Si atom -5595.098681 kJ/mol
# Density = 2.935619 g / cm^3
# Si number density = 29.423160 Si / 1000 Ang^3
#
#
#
# Elastic Constant Matrix: (Units=GPa)
#
#
# Indices 1 2 3 4 5 6 
#
# 1 179.6549 52.4064 63.7100 0.0000 -23.7303 0.0000
# 2 52.4064 71.8590 -11.2927 0.0000 6.5054 0.0000
# 3 63.7100 -11.2927 117.8560 0.0000 -16.2366 0.0000
# 4 0.0000 0.0000 0.0000 44.2302 0.0000 -13.6491
# 5 -23.7303 6.5054 -16.2366 0.0000 59.3236 0.0000
# 6 0.0000 0.0000 0.0000 -13.6491 0.0000 70.7896
#
#
#
# Elastic Compliance Matrix: (Units=1/GPa)
#
#
# Indices 1 2 3 4 5 6 
#
# 1 0.011056 -0.009399 -0.006366 0.000000 0.003711 0.000000
# 2 -0.009399 0.022206 0.006604 0.000000 -0.004387 0.000000
# 3 -0.006366 0.006604 0.012583 0.000000 0.000173 0.000000
# 4 0.000000 0.000000 0.000000 0.024039 0.000000 0.004635
# 5 0.003711 -0.004387 0.000173 0.000000 0.018870 0.000000
# 6 0.000000 0.000000 0.000000 0.004635 0.000000 0.015020
#
#
# Mechanical properties :
#
#
# Convention : Reuss Voigt Hill
#
# Bulk Modulus (GPa) = 36.33326 64.33526 50.33426
# Shear Modulus (GPa) = 38.08972 52.50509 45.29740
#
# Velocity S-wave (km/s) = 3.60189 4.22890 3.92792
# Velocity P-wave (km/s) = 5.44733 6.76445 6.14130
#
# Compressibility (1/GPa) = 0.02752299
#
# Stress axis : x y z
#
# Youngs Moduli (GPa) = 90.45170 45.03297 79.47377
#
# Poissons Ratio (x) = 0.42327 0.50591
# Poissons Ratio (y) = 0.85017 -0.52486
# Poissons Ratio (z) = 0.57579 -0.29741
#
# Static dielectric constant tensor:
#      x y z
#    x 1.587590 0.000000 -0.840760 
#    y 0.000000 3.934320 0.000000 
#    z -0.840760 0.000000 1.207610 
# 
# From -- ./inp_files/36947.got.cif
#   From: 2010.05.17/outbox.cif.g08.bks.cpg/sg14_19_cif.got.tgz:36947.got - 2010.06.03 17:49:19.
