data_PCOD9248351
_publ_section_title
;
Structure prediction by ZEFSAII (Michael W. Deem and Ramdas Pophale) SiO2 
 PCOD9248351
Probable space group: P 21/C
;
_chemical_formula_sum "Si O2"
_cell_formula_units_Z 16
_cell_length_a 6.426399
_cell_length_b 9.287168
_cell_length_c 13.079915
_cell_angle_alpha 90.000000
_cell_angle_beta 115.231451
_cell_angle_gamma 90.000000
_cell_volume 706.169940
_symmetry_space_group_name_H-M "P 21/C"
_symmetry_group_IT_number 14
_symmetry_cell_setting 'monoclinic'
loop_
_space_group_symop_operation_xyz
x,y,z
-x,1/2+y,1/2-z
-x,-y,-z
x,1/2-y,1/2+z
loop_
_atom_site_type_symbol
_atom_site_label
_atom_site_fract_x
_atom_site_fract_y
_atom_site_fract_z
Si Si1 0.357472 0.658066 0.199317
Si Si2 0.265139 0.910695 0.465867
Si Si3 0.720489 0.418056 0.585705
Si Si4 0.801601 0.025472 0.774452
O O1 0.293636 0.597023 0.295713
O O2 0.314745 0.829826 0.203249
O O3 0.622449 0.607806 0.239420
O O4 0.213643 0.582564 0.076899
O O5 0.298912 0.740436 0.463557
O O6 0.138096 0.946947 0.332813
O O7 0.500000 0.000000 0.500000
O O8 0.500000 0.500000 0.500000
O O9 0.966156 0.490128 0.616572
#
# Coordination Sequence:
#
# PCOD9248351 Si02
#       4
#     4   4   4   4
#     4  10  22  42  66  92 129 170 210 272 328 373
#     4   9  21  41  63  92 126 165 215 262 318 386
#     4  11  24  41  64  97 133 169 216 265 320 393
#     4  10  23  42  65  97 130 169 219 266 325 390
#
# _framework density 22.657435
#
# number of rings (size 3 to 8) (size 9 to 14) (size 15 to 20)
#    0.000    2.000    0.000    1.500    0.000   17.000 
#    0.000    7.500    0.000    0.000    0.000    0.000 
#    0.000    0.000    0.000    0.000    0.000    0.000 
#
# Total GULP energy -89209.455252 kJ/mol
# GULP energy per Si atom -5575.590953 kJ/mol
# Density = 2.260587 g / cm^3
# Si number density = 22.657435 Si / 1000 Ang^3
#
#
#
# Elastic Constant Matrix: (Units=GPa)
#
#
# Indices 1 2 3 4 5 6 
#
# 1 70.3127 67.8041 52.2459 0.0000 2.6637 0.0000
# 2 67.8041 130.8954 67.3465 0.0000 35.7341 0.0000
# 3 52.2459 67.3465 138.2576 0.0000 -4.6529 0.0000
# 4 0.0000 0.0000 0.0000 33.3449 0.0000 -1.6483
# 5 2.6637 35.7341 -4.6529 0.0000 73.6212 0.0000
# 6 0.0000 0.0000 0.0000 -1.6483 0.0000 15.5080
#
#
#
# Elastic Compliance Matrix: (Units=1/GPa)
#
#
# Indices 1 2 3 4 5 6 
#
# 1 0.033517 -0.017122 -0.004095 0.000000 0.006839 0.000000
# 2 -0.017122 0.021496 -0.004340 0.000000 -0.010089 0.000000
# 3 -0.004095 -0.004340 0.010994 0.000000 0.002950 0.000000
# 4 0.000000 0.000000 0.000000 0.030148 0.000000 0.003204
# 5 0.006839 -0.010089 0.002950 0.000000 0.018419 0.000000
# 6 0.000000 0.000000 0.000000 0.003204 0.000000 0.064823
#
#
# Mechanical properties :
#
#
# Convention : Reuss Voigt Hill
#
# Bulk Modulus (GPa) = 67.14974 79.36210 73.25592
# Shear Modulus (GPa) = 21.23351 34.63277 27.93314
#
# Velocity S-wave (km/s) = 3.06462 3.91389 3.51500
# Velocity P-wave (km/s) = 6.49799 7.45170 6.99112
#
# Compressibility (1/GPa) = 0.01489209
#
# Stress axis : x y z
#
# Youngs Moduli (GPa) = 29.83536 46.51983 90.95936
#
# Poissons Ratio (x) = 0.79651 0.37251
# Poissons Ratio (y) = 0.51084 0.39479
# Poissons Ratio (z) = 0.12219 0.20191
#
# Static dielectric constant tensor:
#      x y z
#    x 1.912970 0.000000 -0.054120 
#    y 0.000000 1.826080 0.000000 
#    z -0.054120 0.000000 1.893290 
# 
# From -- ./inp_files/36670.got.cif
#   From: 2010.05.17/outbox.cif.g08.bks.cpg/sg14_19_cif.got.tgz:36670.got - 2010.06.03 17:49:19.
