data_PCOD9248632
_publ_section_title
;
Structure prediction by ZEFSAII (Michael W. Deem and Ramdas Pophale) SiO2 
 PCOD9248632
Probable space group: P 21/C
;
_chemical_formula_sum "Si O2"
_cell_formula_units_Z 28
_cell_length_a 17.426173
_cell_length_b 7.448408
_cell_length_c 13.531922
_cell_angle_alpha 90.000000
_cell_angle_beta 133.295375
_cell_angle_gamma 90.000000
_cell_volume 1278.361825
_symmetry_space_group_name_H-M "P 21/C"
_symmetry_group_IT_number 14
_symmetry_cell_setting 'monoclinic'
loop_
_space_group_symop_operation_xyz
x,y,z
-x,1/2+y,1/2-z
-x,-y,-z
x,1/2-y,1/2+z
loop_
_atom_site_type_symbol
_atom_site_label
_atom_site_fract_x
_atom_site_fract_y
_atom_site_fract_z
Si Si1 0.177357 0.042253 0.384640
Si Si2 0.254693 0.108985 0.244094
Si Si3 0.965841 0.210703 0.210428
Si Si4 0.457883 0.310727 0.425628
Si Si5 0.052227 0.110467 0.956240
Si Si6 0.400710 0.473775 0.177413
Si Si7 0.581967 0.145057 0.697515
O O1 0.110910 0.879760 0.376626
O O2 0.284236 0.075786 0.537905
O O3 0.212933 0.004442 0.303542
O O4 0.091744 0.202159 0.296758
O O5 0.341426 0.251996 0.357835
O O6 0.315854 0.975844 0.224528
O O7 0.158126 0.188733 0.096941
O O8 0.979607 0.235933 0.341953
O O9 0.927880 0.038658 0.113539
O O10 0.500000 0.500000 0.500000
O O11 0.442560 0.335659 0.296503
O O12 0.542502 0.182943 0.551200
O O13 0.000000 0.000000 0.000000
O O14 0.397862 0.669881 0.226023
O O15 0.486305 0.455450 0.167089
#
# Coordination Sequence:
#
# PCOD9248632 Si02
#       7
#     4   4   4   4   4   4   4
#     4  11  23  42  70  96 136 178 234 282 353 410
#     4  12  22  42  71  95 137 186 218 290 355 407
#     4  10  22  43  67  96 130 179 234 287 341 425
#     4  10  23  42  64  98 137 173 227 280 338 417
#     4  11  22  44  69  96 137 182 233 292 354 408
#     4  11  23  42  65 100 136 178 224 287 343 423
#     4  11  24  40  68 100 137 179 229 276 350 418
#
# _framework density 21.903032
#
# number of rings (size 3 to 8) (size 9 to 14) (size 15 to 20)
#    0.000    1.143    4.286    3.000    2.000    0.000 
#    0.000    7.143    0.000    0.000    0.000    0.000 
#    0.000    0.000    0.000    0.000    0.000    0.000 
#
# Total GULP energy -155921.936340 kJ/mol
# GULP energy per Si atom -5568.640584 kJ/mol
# Density = 2.185318 g / cm^3
# Si number density = 21.903032 Si / 1000 Ang^3
#
#
#
# Elastic Constant Matrix: (Units=GPa)
#
#
# Indices 1 2 3 4 5 6 
#
# 1 94.6799 24.8185 9.3231 0.0000 -3.7001 0.0000
# 2 24.8185 72.8027 1.8115 0.0000 -12.1396 0.0000
# 3 9.3231 1.8115 119.7109 0.0000 5.0703 0.0000
# 4 0.0000 0.0000 0.0000 32.6399 0.0000 -2.0746
# 5 -3.7001 -12.1396 5.0703 0.0000 31.4134 0.0000
# 6 0.0000 0.0000 0.0000 -2.0746 0.0000 33.7898
#
#
#
# Elastic Compliance Matrix: (Units=1/GPa)
#
#
# Indices 1 2 3 4 5 6 
#
# 1 0.011684 -0.003965 -0.000849 0.000000 -0.000019 0.000000
# 2 -0.003965 0.016053 -0.000178 0.000000 0.005765 0.000000
# 3 -0.000849 -0.000178 0.008487 0.000000 -0.001539 0.000000
# 4 0.000000 0.000000 0.000000 0.030757 0.000000 0.001888
# 5 -0.000019 0.005765 -0.001539 0.000000 0.034308 0.000000
# 6 0.000000 0.000000 0.000000 0.001888 0.000000 0.029711
#
#
# Mechanical properties :
#
#
# Convention : Reuss Voigt Hill
#
# Bulk Modulus (GPa) = 38.11027 39.89994 39.00511
# Shear Modulus (GPa) = 33.39288 36.31800 34.85544
#
# Velocity S-wave (km/s) = 3.90882 4.07643 3.99350
# Velocity P-wave (km/s) = 6.14891 6.35708 6.25387
#
# Compressibility (1/GPa) = 0.02623965
#
# Stress axis : x y z
#
# Youngs Moduli (GPa) = 85.58589 62.29248 117.82077
#
# Poissons Ratio (x) = 0.24700 0.10005
# Poissons Ratio (y) = 0.33936 0.02101
# Poissons Ratio (z) = 0.07268 0.01111
#
# Static dielectric constant tensor:
#      x y z
#    x 1.837120 0.000000 -0.020930 
#    y 0.000000 1.875310 0.000000 
#    z -0.020930 0.000000 1.824890 
# 
# From -- ./inp_files/31889.got.cif
#   From: 2010.05.17/outbox.cif.g08.bks.cpg/sg14_16_cif.got.tgz:31889.got - 2010.06.03 17:49:19.
