data_PCOD9248435
_publ_section_title
;
Structure prediction by ZEFSAII (Michael W. Deem and Ramdas Pophale) SiO2 
 PCOD9248435
Probable space group: P 21/C
;
_chemical_formula_sum "Si O2"
_cell_formula_units_Z 26
_cell_length_a 25.436530
_cell_length_b 6.856297
_cell_length_c 18.574145
_cell_angle_alpha 90.000000
_cell_angle_beta 18.852267
_cell_angle_gamma 90.000000
_cell_volume 1046.724579
_symmetry_space_group_name_H-M "P 21/C"
_symmetry_group_IT_number 14
_symmetry_cell_setting 'monoclinic'
loop_
_space_group_symop_operation_xyz
x,y,z
-x,1/2+y,1/2-z
-x,-y,-z
x,1/2-y,1/2+z
loop_
_atom_site_type_symbol
_atom_site_label
_atom_site_fract_x
_atom_site_fract_y
_atom_site_fract_z
Si Si1 0.404001 0.065824 0.465152
Si Si2 0.488254 0.989593 0.833200
Si Si3 0.834631 0.143319 0.789664
Si Si4 0.500000 0.500000 0.000000
Si Si5 0.816407 0.092101 0.455713
Si Si6 0.852980 0.418333 0.516617
Si Si7 0.066911 0.279933 0.367443
O O1 0.447478 0.297302 0.417229
O O2 0.213957 0.073598 0.691664
O O3 0.493885 0.996110 0.276482
O O4 0.457232 0.972000 0.469996
O O5 0.666166 0.945545 0.635150
O O6 0.330420 0.853143 0.044764
O O7 0.816653 0.260301 0.886817
O O8 0.987320 0.213792 0.545187
O O9 0.864304 0.912426 0.761568
O O10 0.304311 0.450050 0.269503
O O11 0.787870 0.220737 0.563433
O O12 0.994952 0.997993 0.226689
O O13 0.934789 0.369315 0.486213
#
# Coordination Sequence:
#
# PCOD9248435 Si02
#       7
#     4   4   4   2   4   4   4
#     4  11  23  43  72  98 140 182 236 285 353 410
#     4  11  21  42  71 101 133 187 227 280 342 430
#     4  10  22  42  68  97 136 173 229 275 341 416
#     4  12  26  42  64 110 140 172 224 308 336 412
#     4  12  24  45  67 102 136 186 228 289 340 427
#     4  12  26  44  71  99 140 177 235 283 352 404
#     4  10  23  43  69  98 130 182 223 282 346 411
#
# _framework density 24.839388
#
# number of rings (size 3 to 8) (size 9 to 14) (size 15 to 20)
#    0.000    0.923    4.615    1.846    2.154    2.462 
#    2.769    0.769    0.000    0.000    0.000    0.000 
#    0.000    0.000    0.000    0.000    0.000    0.000 
#
# Total GULP energy -145074.504127 kJ/mol
# GULP energy per Si atom -5579.788620 kJ/mol
# Density = 2.478285 g / cm^3
# Si number density = 24.839388 Si / 1000 Ang^3
#
#
#
# Elastic Constant Matrix: (Units=GPa)
#
#
# Indices 1 2 3 4 5 6 
#
# 1 141.1995 17.5133 28.7800 0.0000 -30.9288 0.0000
# 2 17.5133 47.0371 8.1336 0.0000 -12.9408 0.0000
# 3 28.7800 8.1336 129.5375 0.0000 -40.3732 0.0000
# 4 0.0000 0.0000 0.0000 37.1705 0.0000 -4.5719
# 5 -30.9288 -12.9408 -40.3732 0.0000 47.1521 0.0000
# 6 0.0000 0.0000 0.0000 -4.5719 0.0000 24.3289
#
#
#
# Elastic Compliance Matrix: (Units=1/GPa)
#
#
# Indices 1 2 3 4 5 6 
#
# 1 0.008407 -0.001762 -0.000258 0.000000 0.004810 0.000000
# 2 -0.001762 0.023414 0.000769 0.000000 0.005929 0.000000
# 3 -0.000258 0.000769 0.010560 0.000000 0.009084 0.000000
# 4 0.000000 0.000000 0.000000 0.027540 0.000000 0.005175
# 5 0.004810 0.005929 0.009084 0.000000 0.033768 0.000000
# 6 0.000000 0.000000 0.000000 0.005175 0.000000 0.042076
#
#
# Mechanical properties :
#
#
# Convention : Reuss Voigt Hill
#
# Bulk Modulus (GPa) = 25.07621 47.40308 36.23965
# Shear Modulus (GPa) = 30.94842 39.28678 35.11760
#
# Velocity S-wave (km/s) = 3.53362 3.98129 3.76411
# Velocity P-wave (km/s) = 5.17357 6.34504 5.78901
#
# Compressibility (1/GPa) = 0.03987843
#
# Stress axis : x y z
#
# Youngs Moduli (GPa) = 118.94990 42.70953 94.69770
#
# Poissons Ratio (x) = 0.07526 0.02444
# Poissons Ratio (y) = 0.20962 -0.07284
# Poissons Ratio (z) = 0.03070 -0.03285
#
# Static dielectric constant tensor:
#      x y z
#    x 1.875800 0.000000 -0.018700 
#    y 0.000000 2.084810 0.000000 
#    z -0.018700 0.000000 2.037310 
# 
# From -- ./inp_files/61783.got.cif
#   From: 2010.05.17/outbox.cif.g08.bks.cpg/sg14_31_cif.got.tgz:61783.got - 2010.06.03 17:49:19.
