data_PCOD9248748
_publ_section_title
;
Structure prediction by ZEFSAII (Michael W. Deem and Ramdas Pophale) SiO2 
 PCOD9248748
Probable space group: P 21/C
;
_chemical_formula_sum "Si O2"
_cell_formula_units_Z 20
_cell_length_a 7.597404
_cell_length_b 5.145946
_cell_length_c 22.648959
_cell_angle_alpha 90.000000
_cell_angle_beta 89.201394
_cell_angle_gamma 90.000000
_cell_volume 885.393855
_symmetry_space_group_name_H-M "P 21/C"
_symmetry_group_IT_number 14
_symmetry_cell_setting 'monoclinic'
loop_
_space_group_symop_operation_xyz
x,y,z
-x,1/2+y,1/2-z
-x,-y,-z
x,1/2-y,1/2+z
loop_
_atom_site_type_symbol
_atom_site_label
_atom_site_fract_x
_atom_site_fract_y
_atom_site_fract_z
Si Si1 0.873031 0.751295 0.500836
Si Si2 0.180029 0.173947 0.627915
Si Si3 0.992776 0.522723 0.709919
Si Si4 0.504880 0.953024 0.292054
Si Si5 0.195270 0.368359 0.871143
O O1 0.767752 0.774208 0.562568
O O2 0.000000 0.500000 0.500000
O O3 0.768602 0.767375 0.439757
O O4 0.000000 0.000000 0.500000
O O5 0.038250 0.764955 0.751524
O O6 0.140691 0.441774 0.662473
O O7 0.993158 0.019418 0.627527
O O8 0.323065 0.034409 0.667378
O O9 0.832326 0.620884 0.671173
O O10 0.494129 0.193887 0.247208
O O11 0.342914 0.964436 0.338607
#
# Coordination Sequence:
#
# PCOD9248748 Si02
#       5
#     4   4   4   4   4
#     4  10  22  43  74 103 131 185 246 286 350 429
#     4  11  26  47  73 102 142 188 236 298 357 419
#     4  12  24  37  74 101 136 192 230 280 364 420
#     4  12  32  43  68 111 146 186 244 292 358 438
#     4  11  26  47  73 102 142 188 236 298 357 419
#
# _framework density 22.588815
#
# number of rings (size 3 to 8) (size 9 to 14) (size 15 to 20)
#    0.000    0.800    4.000    1.200   11.200    0.800 
#    0.000    0.000    0.000    7.200    0.000    0.000 
#    0.000    0.000    0.000    0.000    0.000    0.000 
#
# Total GULP energy -111884.197878 kJ/mol
# GULP energy per Si atom -5594.209894 kJ/mol
# Density = 2.253740 g / cm^3
# Si number density = 22.588815 Si / 1000 Ang^3
#
#
#
# Elastic Constant Matrix: (Units=GPa)
#
#
# Indices 1 2 3 4 5 6 
#
# 1 94.6382 9.3557 32.4191 0.0000 10.2040 0.0000
# 2 9.3557 132.4585 28.4245 0.0000 13.8334 0.0000
# 3 32.4191 28.4245 165.0216 0.0000 38.3189 0.0000
# 4 0.0000 0.0000 0.0000 86.5379 0.0000 8.3463
# 5 10.2040 13.8334 38.3189 0.0000 25.9910 0.0000
# 6 0.0000 0.0000 0.0000 8.3463 0.0000 23.6443
#
#
#
# Elastic Compliance Matrix: (Units=1/GPa)
#
#
# Indices 1 2 3 4 5 6 
#
# 1 0.011390 -0.000241 -0.001806 0.000000 -0.001681 0.000000
# 2 -0.000241 0.008037 -0.000556 0.000000 -0.003363 0.000000
# 3 -0.001806 -0.000556 0.009544 0.000000 -0.013067 0.000000
# 4 0.000000 0.000000 0.000000 0.011963 0.000000 -0.004223
# 5 -0.001681 -0.003363 -0.013067 0.000000 0.060189 0.000000
# 6 0.000000 0.000000 0.000000 -0.004223 0.000000 0.043784
#
#
# Mechanical properties :
#
#
# Convention : Reuss Voigt Hill
#
# Bulk Modulus (GPa) = 42.07767 59.16854 50.62311
# Shear Modulus (GPa) = 31.63826 48.69590 40.16708
#
# Velocity S-wave (km/s) = 3.74654 4.64805 4.22143
# Velocity P-wave (km/s) = 6.11421 7.42000 6.79853
#
# Compressibility (1/GPa) = 0.02376557
#
# Stress axis : x y z
#
# Youngs Moduli (GPa) = 87.79444 124.42242 104.77253
#
# Poissons Ratio (x) = 0.03004 0.18919
# Poissons Ratio (y) = 0.02120 0.05825
# Poissons Ratio (z) = 0.15853 0.06918
#
# Static dielectric constant tensor:
#      x y z
#    x 1.873780 0.000000 -0.014830 
#    y 0.000000 1.892860 0.000000 
#    z -0.014830 0.000000 1.890760 
# 
# From -- ./inp_files/64012.got.cif
#   From: 2010.05.17/outbox.cif.g08.bks.cpg/sg14_33_cif.got.tgz:64012.got - 2010.06.03 17:49:19.
