data_PCOD9248220
_publ_section_title
;
Structure prediction by ZEFSAII (Michael W. Deem and Ramdas Pophale) SiO2 
 PCOD9248220
Probable space group: P 21/C
;
_chemical_formula_sum "Si O2"
_cell_formula_units_Z 20
_cell_length_a 5.470494
_cell_length_b 8.648118
_cell_length_c 21.565889
_cell_angle_alpha 90.000000
_cell_angle_beta 119.337857
_cell_angle_gamma 90.000000
_cell_volume 889.416841
_symmetry_space_group_name_H-M "P 21/C"
_symmetry_group_IT_number 14
_symmetry_cell_setting 'monoclinic'
loop_
_space_group_symop_operation_xyz
x,y,z
-x,1/2+y,1/2-z
-x,-y,-z
x,1/2-y,1/2+z
loop_
_atom_site_type_symbol
_atom_site_label
_atom_site_fract_x
_atom_site_fract_y
_atom_site_fract_z
Si Si1 0.649416 0.970212 0.201126
Si Si2 0.813795 0.654446 0.285711
Si Si3 0.246085 0.118547 0.469652
Si Si4 0.049588 0.187251 0.567180
Si Si5 0.527332 0.125098 0.949776
O O1 0.729806 0.799787 0.233604
O O2 0.463343 0.950728 0.115927
O O3 0.458017 0.052086 0.229647
O O4 0.930872 0.061601 0.214916
O O5 0.909238 0.728500 0.363337
O O6 0.267741 0.254533 0.422884
O O7 0.278609 0.195682 0.541563
O O8 0.500000 0.000000 0.500000
O O9 0.991707 0.998456 0.429636
O O10 0.792620 0.269815 0.499710
O O11 0.500000 0.000000 0.000000
#
# Coordination Sequence:
#
# PCOD9248220 Si02
#       5
#     4   4   4   4   4
#     4  12  29  48  76 105 148 194 243 299 366 433
#     4  12  28  50  73 105 145 197 239 302 359 442
#     4   9  21  37  62 103 136 182 220 296 354 427
#     4  10  22  41  70 100 144 177 240 292 365 420
#     4  11  22  41  70 105 139 180 242 293 357 416
#
# _framework density 22.486643000000001
#
# number of rings (size 3 to 8) (size 9 to 14) (size 15 to 20)
#    0.000    1.200    2.000    2.400    8.400    6.400 
#    0.000    0.000    0.000    0.000    0.000    0.000 
#    0.000    0.000    0.000    0.000    0.000    0.000 
#
# Total GULP energy -111682.589749 kJ/mol
# GULP energy per Si atom -5584.129487 kJ/mol
# Density = 2.243546 g / cm^3
# Si number density = 22.486643 Si / 1000 Ang^3
#
#
#
# Elastic Constant Matrix: (Units=GPa)
#
#
# Indices 1 2 3 4 5 6 
#
# 1 87.5987 44.2874 23.2315 0.0000 -19.8593 0.0000
# 2 44.2874 132.5298 35.3728 0.0000 -10.0256 0.0000
# 3 23.2315 35.3728 77.4082 0.0000 -7.0541 0.0000
# 4 0.0000 0.0000 0.0000 43.7583 0.0000 -12.7992
# 5 -19.8593 -10.0256 -7.0541 0.0000 20.2487 0.0000
# 6 0.0000 0.0000 0.0000 -12.7992 0.0000 49.0389
#
#
#
# Elastic Compliance Matrix: (Units=1/GPa)
#
#
# Indices 1 2 3 4 5 6 
#
# 1 0.017262 -0.004166 -0.001985 0.000000 0.014176 0.000000
# 2 -0.004166 0.009777 -0.003252 0.000000 -0.000378 0.000000
# 3 -0.001985 -0.003252 0.015157 0.000000 0.001724 0.000000
# 4 0.000000 0.000000 0.000000 0.024742 0.000000 0.006458
# 5 0.014176 -0.000378 0.001724 0.000000 0.063703 0.000000
# 6 0.000000 0.000000 0.000000 0.006458 0.000000 0.022077
#
#
# Mechanical properties :
#
#
# Convention : Reuss Voigt Hill
#
# Bulk Modulus (GPa) = 42.75276 55.92445 49.33860
# Shear Modulus (GPa) = 27.88291 35.58551 31.73421
#
# Velocity S-wave (km/s) = 3.52515 3.98240 3.76073
# Velocity P-wave (km/s) = 5.96848 6.78750 6.39112
#
# Compressibility (1/GPa) = 0.02339030
#
# Stress axis : x y z
#
# Youngs Moduli (GPa) = 57.92973 102.28028 65.97479
#
# Poissons Ratio (x) = 0.42613 0.13096
# Poissons Ratio (y) = 0.24136 0.21454
# Poissons Ratio (z) = 0.11499 0.33260
#
# Static dielectric constant tensor:
#      x y z
#    x 2.129050 0.000000 -0.017190 
#    y 0.000000 1.845940 0.000000 
#    z -0.017190 0.000000 1.825890 
# 
# From -- ./inp_files/52704.got.cif
#   From: 2010.05.17/outbox.cif.g08.bks.cpg/sg14_27_cif.got.tgz:52704.got - 2010.06.03 17:49:19.
