data_PCOD9248292
_publ_section_title
;
Structure prediction by ZEFSAII (Michael W. Deem and Ramdas Pophale) SiO2 
 PCOD9248292
Probable space group: P 21/C
;
_chemical_formula_sum "Si O2"
_cell_formula_units_Z 20
_cell_length_a 5.012116
_cell_length_b 18.185570
_cell_length_c 10.223271
_cell_angle_alpha 90.000000
_cell_angle_beta 100.493137
_cell_angle_gamma 90.000000
_cell_volume 916.249321
_symmetry_space_group_name_H-M "P 21/C"
_symmetry_group_IT_number 14
_symmetry_cell_setting 'monoclinic'
loop_
_space_group_symop_operation_xyz
x,y,z
-x,1/2+y,1/2-z
-x,-y,-z
x,1/2-y,1/2+z
loop_
_atom_site_type_symbol
_atom_site_label
_atom_site_fract_x
_atom_site_fract_y
_atom_site_fract_z
Si Si1 0.801729 0.742827 0.329548
Si Si2 0.284931 0.518683 0.090623
Si Si3 0.324115 0.393438 0.301708
Si Si4 0.102118 0.863806 0.023217
Si Si5 0.757510 0.345168 0.741497
O O1 0.789483 0.828643 0.301628
O O2 0.506365 0.705049 0.308862
O O3 0.975031 0.715046 0.469529
O O4 0.975919 0.705396 0.228493
O O5 0.340814 0.466846 0.219807
O O6 0.291071 0.602045 0.141916
O O7 0.500000 0.500000 0.000000
O O8 0.000000 0.500000 0.000000
O O9 0.617990 0.365432 0.374437
O O10 0.126735 0.401584 0.409132
O O11 0.175048 0.893123 0.884059
#
# Coordination Sequence:
#
# PCOD9248292 Si02
#       5
#     4   4   4   4   4
#     4  10  22  42  64 102 130 173 212 278 332 381
#     4  12  28  46  65 101 135 183 218 272 343 393
#     4  12  24  42  70 100 131 172 231 269 325 408
#     4  10  22  42  66 102 122 173 228 266 340 372
#     4  10  22  46  66  95 133 175 217 270 339 383
#
# _framework density 21.828122
#
# number of rings (size 3 to 8) (size 9 to 14) (size 15 to 20)
#    1.200    0.000    2.000    3.600    0.000    6.400 
#    3.600    0.000    0.000    0.000    0.000    0.000 
#    0.000    0.000    0.000    0.000    0.000    0.000 
#
# Total GULP energy -111616.377093 kJ/mol
# GULP energy per Si atom -5580.818855 kJ/mol
# Density = 2.177844 g / cm^3
# Si number density = 21.828122 Si / 1000 Ang^3
#
#
#
# Elastic Constant Matrix: (Units=GPa)
#
#
# Indices 1 2 3 4 5 6 
#
# 1 143.2024 -3.5105 11.5920 0.0000 -24.0656 0.0000
# 2 -3.5105 42.8877 -6.3317 0.0000 -12.3240 0.0000
# 3 11.5920 -6.3317 57.3995 0.0000 -20.8060 0.0000
# 4 0.0000 0.0000 0.0000 0.7029 0.0000 -13.1880
# 5 -24.0656 -12.3240 -20.8060 0.0000 43.2731 0.0000
# 6 0.0000 0.0000 0.0000 -13.1880 0.0000 3.9694
#
#
#
# Elastic Compliance Matrix: (Units=1/GPa)
#
#
# Indices 1 2 3 4 5 6 
#
# 1 0.007883 0.002255 0.000580 0.000000 0.005305 0.000000
# 2 0.002255 0.028263 0.007308 0.000000 0.012817 0.000000
# 3 0.000580 0.007308 0.022989 0.000000 0.013457 0.000000
# 4 0.000000 0.000000 0.000000 -0.023195 0.000000 -0.077063
# 5 0.005305 0.012817 0.013457 0.000000 0.036180 0.000000
# 6 0.000000 0.000000 0.000000 -0.077063 0.000000 -0.004107
#
#
# Mechanical properties :
#
#
# Convention : Reuss Voigt Hill
#
# Bulk Modulus (GPa) = 12.59103 27.44325 20.01714
# Shear Modulus (GPa) = 67.38518 25.70506 46.54512
#
# Velocity S-wave (km/s) = 5.56218 3.43536 4.62274
# Velocity P-wave (km/s) = 6.85793 5.32309 6.13867
#
# Compressibility (1/GPa) = 0.07942164
#
# Stress axis : x y z
#
# Youngs Moduli (GPa) = 126.85508 35.38144 43.49974
#
# Poissons Ratio (x) = -0.07980 -0.02522
# Poissons Ratio (y) = -0.28609 -0.31791
# Poissons Ratio (z) = -0.07354 -0.25858
#
# Static dielectric constant tensor:
#      x y z
#    x 1.764270 0.000000 -0.023440 
#    y 0.000000 1.928510 0.000000 
#    z -0.023440 0.000000 1.827970 
# 
# From -- ./inp_files/5548.got.cif
#   From: 2010.05.17/outbox.cif.g08.bks.cpg/sg14_3_cif.got.tgz:5548.got - 2010.06.03 17:49:19.
