data_PCOD9248357
_publ_section_title
;
Structure prediction by ZEFSAII (Michael W. Deem and Ramdas Pophale) SiO2 
 PCOD9248357
Probable space group: P 21/C
;
_chemical_formula_sum "Si O2"
_cell_formula_units_Z 30
_cell_length_a 9.179068
_cell_length_b 21.502474
_cell_length_c 8.982981
_cell_angle_alpha 90.000000
_cell_angle_beta 136.244726
_cell_angle_gamma 90.000000
_cell_volume 1226.167044
_symmetry_space_group_name_H-M "P 21/C"
_symmetry_group_IT_number 14
_symmetry_cell_setting 'monoclinic'
loop_
_space_group_symop_operation_xyz
x,y,z
-x,1/2+y,1/2-z
-x,-y,-z
x,1/2-y,1/2+z
loop_
_atom_site_type_symbol
_atom_site_label
_atom_site_fract_x
_atom_site_fract_y
_atom_site_fract_z
Si Si1 0.777511 0.681502 0.029514
Si Si2 0.611540 0.238035 0.197931
Si Si3 0.815355 0.525422 0.567515
Si Si4 0.500000 0.000000 0.000000
Si Si5 0.645412 0.580416 0.150398
Si Si6 0.707723 0.639268 0.656425
Si Si7 0.717451 0.475949 0.969711
Si Si8 0.095948 0.710139 0.817454
O O1 0.732238 0.643292 0.145907
O O2 0.980335 0.723545 0.207002
O O3 0.579508 0.727262 0.861267
O O4 0.785801 0.642435 0.883324
O O5 0.774410 0.210298 0.434942
O O6 0.737243 0.288856 0.192917
O O7 0.490616 0.183952 0.017477
O O8 0.670180 0.467011 0.492090
O O9 0.798306 0.550578 0.388714
O O10 0.662736 0.569330 0.565018
O O11 0.042363 0.527890 0.803178
O O12 0.677646 0.016572 0.268423
O O13 0.421402 0.581369 0.068511
O O14 0.632663 0.534596 0.001242
O O15 0.901658 0.662448 0.694141
#
# Coordination Sequence:
#
# PCOD9248357 Si02
#       8
#     4   4   4   2   4   4   4   4
#     4  11  24  41  62  97 128 166 216 264 314 390
#     4  11  24  43  64  90 131 172 209 268 320 373
#     4  11  24  41  67  96 126 172 210 269 322 384
#     4  10  22  42  66  94 126 164 212 264 316 382
#     4  10  24  41  65  95 129 164 216 264 318 390
#     4  11  25  41  63  98 129 164 225 259 314 395
#     4  10  22  45  65  95 129 169 210 266 328 379
#     4  11  24  42  64  91 127 173 210 264 323 373
#
# _framework density 24.466487000000001
#
# number of rings (size 3 to 8) (size 9 to 14) (size 15 to 20)
#    0.000    1.333    2.667    1.600    5.600    1.067 
#    2.400    0.000    0.000    0.000    0.000    0.000 
#    0.000    0.000    0.000    0.000    0.000    0.000 
#
# Total GULP energy -167462.203189 kJ/mol
# GULP energy per Si atom -5582.073440 kJ/mol
# Density = 2.441080 g / cm^3
# Si number density = 24.466487 Si / 1000 Ang^3
#
#
#
# Elastic Constant Matrix: (Units=GPa)
#
#
# Indices 1 2 3 4 5 6 
#
# 1 68.5684 12.8378 41.9509 0.0000 -5.3872 0.0000
# 2 12.8378 43.8962 2.8112 0.0000 -16.2538 0.0000
# 3 41.9509 2.8112 182.7513 0.0000 -6.4565 0.0000
# 4 0.0000 0.0000 0.0000 24.6263 0.0000 -11.2062
# 5 -5.3872 -16.2538 -6.4565 0.0000 50.7280 0.0000
# 6 0.0000 0.0000 0.0000 -11.2062 0.0000 33.8715
#
#
#
# Elastic Compliance Matrix: (Units=1/GPa)
#
#
# Indices 1 2 3 4 5 6 
#
# 1 0.018005 -0.005093 -0.004063 0.000000 -0.000237 0.000000
# 2 -0.005093 0.027290 0.001044 0.000000 0.008336 0.000000
# 3 -0.004063 0.001044 0.006414 0.000000 0.000719 0.000000
# 4 0.000000 0.000000 0.000000 0.047804 0.000000 0.015816
# 5 -0.000237 0.008336 0.000719 0.000000 0.022450 0.000000
# 6 0.000000 0.000000 0.000000 0.015816 0.000000 0.034756
#
#
# Mechanical properties :
#
#
# Convention : Reuss Voigt Hill
#
# Bulk Modulus (GPa) = 28.18142 45.60173 36.89157
# Shear Modulus (GPa) = 27.06036 37.68623 32.37329
#
# Velocity S-wave (km/s) = 3.32929 3.92895 3.64149
# Velocity P-wave (km/s) = 5.13053 6.26587 5.72640
#
# Compressibility (1/GPa) = 0.03548437
#
# Stress axis : x y z
#
# Youngs Moduli (GPa) = 55.54093 36.64297 155.91012
#
# Poissons Ratio (x) = 0.18663 0.63347
# Poissons Ratio (y) = 0.28288 -0.16275
# Poissons Ratio (z) = 0.22567 -0.03825
#
# Static dielectric constant tensor:
#      x y z
#    x 2.034960 0.000000 0.068810 
#    y 0.000000 2.063620 0.000000 
#    z 0.068810 0.000000 1.890870 
# 
# From -- ./inp_files/11168.got.cif
#   From: 2010.05.17/outbox.cif.g08.bks.cpg/sg14_6_cif.got.tgz:11168.got - 2010.06.03 17:49:19.
