data_PCOD9248633
_publ_section_title
;
Structure prediction by ZEFSAII (Michael W. Deem and Ramdas Pophale) SiO2 
 PCOD9248633
Probable space group: P 21/C
;
_chemical_formula_sum "Si O2"
_cell_formula_units_Z 16
_cell_length_a 8.281681
_cell_length_b 9.343337
_cell_length_c 8.792946
_cell_angle_alpha 90.000000
_cell_angle_beta 122.084256
_cell_angle_gamma 90.000000
_cell_volume 576.468625
_symmetry_space_group_name_H-M "P 21/C"
_symmetry_group_IT_number 14
_symmetry_cell_setting 'monoclinic'
loop_
_space_group_symop_operation_xyz
x,y,z
-x,1/2+y,1/2-z
-x,-y,-z
x,1/2-y,1/2+z
loop_
_atom_site_type_symbol
_atom_site_label
_atom_site_fract_x
_atom_site_fract_y
_atom_site_fract_z
Si Si1 0.755556 0.870968 0.432312
Si Si2 0.195354 0.574187 0.643114
Si Si3 0.033300 0.735511 0.319829
Si Si4 0.509533 0.095227 0.164098
O O1 0.882433 0.806204 0.358562
O O2 0.900823 0.866066 0.647449
O O3 0.697432 0.027378 0.338552
O O4 0.576270 0.760034 0.386684
O O5 0.361823 0.464603 0.715804
O O6 0.000000 0.500000 0.500000
O O7 0.209047 0.673507 0.502623
O O8 0.144862 0.663421 0.761834
O O9 0.500000 0.000000 0.000000
#
# Coordination Sequence:
#
# PCOD9248633 Si02
#       4
#     4   4   4   4
#     4  11  23  46  68  99 141 176 224 283 337 401
#     4  11  22  44  69  93 135 178 224 280 334 398
#     4  10  22  43  67  96 133 175 225 277 333 393
#     4  12  25  45  69 102 140 178 223 283 338 404
#
# _framework density 27.755196000000002
#
# number of rings (size 3 to 8) (size 9 to 14) (size 15 to 20)
#    0.000    1.000    7.500    0.000    3.500    1.000 
#    4.500    3.750    0.000    0.000    0.000    0.000 
#    0.000    0.000    0.000    0.000    0.000    0.000 
#
# Total GULP energy -89310.089480 kJ/mol
# GULP energy per Si atom -5581.880593 kJ/mol
# Density = 2.769202 g / cm^3
# Si number density = 27.755196 Si / 1000 Ang^3
#
#
#
# Elastic Constant Matrix: (Units=GPa)
#
#
# Indices 1 2 3 4 5 6 
#
# 1 112.0338 11.5429 16.3259 0.0000 -4.4788 0.0000
# 2 11.5429 119.4102 17.9025 0.0000 -3.1015 0.0000
# 3 16.3259 17.9025 95.5544 0.0000 -26.6228 0.0000
# 4 0.0000 0.0000 0.0000 34.1678 0.0000 7.9467
# 5 -4.4788 -3.1015 -26.6228 0.0000 40.9805 0.0000
# 6 0.0000 0.0000 0.0000 7.9467 0.0000 50.4299
#
#
#
# Elastic Compliance Matrix: (Units=1/GPa)
#
#
# Indices 1 2 3 4 5 6 
#
# 1 0.009206 -0.000673 -0.001442 0.000000 0.000019 0.000000
# 2 -0.000673 0.008674 -0.001645 0.000000 -0.000486 0.000000
# 3 -0.001442 -0.001645 0.013359 0.000000 0.008397 0.000000
# 4 0.000000 0.000000 0.000000 0.030381 0.000000 -0.004787
# 5 0.000019 -0.000486 0.008397 0.000000 0.029822 0.000000
# 6 0.000000 0.000000 0.000000 -0.004787 0.000000 0.020584
#
#
# Mechanical properties :
#
#
# Convention : Reuss Voigt Hill
#
# Bulk Modulus (GPa) = 42.16134 46.50453 44.33294
# Shear Modulus (GPa) = 39.23037 43.86413 41.54725
#
# Velocity S-wave (km/s) = 3.76366 3.97973 3.87320
# Velocity P-wave (km/s) = 5.84040 6.15705 6.00081
#
# Compressibility (1/GPa) = 0.02371841
#
# Stress axis : x y z
#
# Youngs Moduli (GPa) = 108.62411 115.29175 74.85446
#
# Poissons Ratio (x) = 0.07763 0.10791
# Poissons Ratio (y) = 0.07314 0.12317
# Poissons Ratio (z) = 0.15659 0.18971
#
# Static dielectric constant tensor:
#      x y z
#    x 2.104300 0.000000 -0.011510 
#    y 0.000000 1.796900 0.000000 
#    z -0.011510 0.000000 2.219330 
# 
# From -- ./inp_files/7366.got.cif
#   From: 2010.05.17/outbox.cif.g08.bks.cpg/sg14_4_cif.got.tgz:7366.got - 2010.06.03 17:49:19.
