data_PCOD9248737
_publ_section_title
;
Structure prediction by ZEFSAII (Michael W. Deem and Ramdas Pophale) SiO2 
 PCOD9248737
Probable space group: P 21/C
;
_chemical_formula_sum "Si O2"
_cell_formula_units_Z 32
_cell_length_a 5.627053
_cell_length_b 11.070731
_cell_length_c 22.970969
_cell_angle_alpha 90.000000
_cell_angle_beta 86.244851
_cell_angle_gamma 90.000000
_cell_volume 1427.917793
_symmetry_space_group_name_H-M "P 21/C"
_symmetry_group_IT_number 14
_symmetry_cell_setting 'monoclinic'
loop_
_space_group_symop_operation_xyz
x,y,z
-x,1/2+y,1/2-z
-x,-y,-z
x,1/2-y,1/2+z
loop_
_atom_site_type_symbol
_atom_site_label
_atom_site_fract_x
_atom_site_fract_y
_atom_site_fract_z
Si Si1 0.204313 0.828738 0.636894
Si Si2 0.220923 0.772630 0.922797
Si Si3 0.921089 0.684872 0.733712
Si Si4 0.283938 0.352507 0.524117
Si Si5 0.089223 0.561596 0.842653
Si Si6 0.392486 0.600089 0.583533
Si Si7 0.439969 0.114182 0.284272
Si Si8 0.293848 0.518780 0.329148
O O1 0.231022 0.719014 0.591966
O O2 0.464245 0.871217 0.651842
O O3 0.109786 0.771858 0.699340
O O4 0.054291 0.948978 0.627006
O O5 0.477618 0.790802 0.950554
O O6 0.207406 0.646163 0.888878
O O7 0.212828 0.880143 0.875427
O O8 0.971214 0.789344 0.962066
O O9 0.682067 0.762330 0.732084
O O10 0.904820 0.572828 0.689826
O O11 0.942573 0.646361 0.800327
O O12 0.273152 0.487685 0.551967
O O13 0.367970 0.367645 0.456445
O O14 0.263732 0.497918 0.794019
O O15 0.489967 0.553108 0.643626
O O16 0.618237 0.078350 0.231279
#
# Coordination Sequence:
#
# PCOD9248737 Si02
#       8
#     4   4   4   4   4   4   4   4
#     4  11  22  41  63  94 131 178 219 274 339 408
#     4  11  26  44  69  98 134 179 225 285 345 401
#     4  11  23  37  60  96 132 170 222 261 327 417
#     4  10  25  46  71 101 128 171 238 297 346 389
#     4  11  26  38  63  91 141 181 221 271 337 420
#     4  10  22  43  72  96 130 171 230 293 342 398
#     4  11  24  40  58  98 134 174 218 265 332 417
#     4  11  22  37  68  97 132 178 211 280 341 409
#
# _framework density 22.410253999999998
#
# number of rings (size 3 to 8) (size 9 to 14) (size 15 to 20)
#    0.000    1.250    2.500    2.250    8.750    5.500 
#    0.000    1.250    0.000    0.000    0.000    0.000 
#    0.000    0.000    0.000    0.000    0.000    0.000 
#
# Total GULP energy -178685.362819 kJ/mol
# GULP energy per Si atom -5583.917588 kJ/mol
# Density = 2.235925 g / cm^3
# Si number density = 22.410254 Si / 1000 Ang^3
#
#
#
# Elastic Constant Matrix: (Units=GPa)
#
#
# Indices 1 2 3 4 5 6 
#
# 1 67.7243 32.5568 11.8827 0.0000 0.9807 0.0000
# 2 32.5568 107.7160 33.1205 0.0000 4.0949 0.0000
# 3 11.8827 33.1205 42.4577 0.0000 4.3868 0.0000
# 4 0.0000 0.0000 0.0000 38.7118 0.0000 -18.6072
# 5 0.9807 4.0949 4.3868 0.0000 19.9881 0.0000
# 6 0.0000 0.0000 0.0000 -18.6072 0.0000 51.8316
#
#
#
# Elastic Compliance Matrix: (Units=1/GPa)
#
#
# Indices 1 2 3 4 5 6 
#
# 1 0.017311 -0.004927 -0.001042 0.000000 0.000389 0.000000
# 2 -0.004927 0.013619 -0.009190 0.000000 -0.000531 0.000000
# 3 -0.001042 -0.009190 0.031529 0.000000 -0.004986 0.000000
# 4 0.000000 0.000000 0.000000 0.031219 0.000000 0.011207
# 5 0.000389 -0.000531 -0.004986 0.000000 0.051214 0.000000
# 6 0.000000 0.000000 0.000000 0.011207 0.000000 0.023317
#
#
# Mechanical properties :
#
#
# Convention : Reuss Voigt Hill
#
# Bulk Modulus (GPa) = 31.11245 41.44645 36.27945
# Shear Modulus (GPa) = 23.89615 31.46214 27.67915
#
# Velocity S-wave (km/s) = 3.26897 3.75095 3.51823
# Velocity P-wave (km/s) = 5.30674 6.10689 5.72082
#
# Compressibility (1/GPa) = 0.03214147
#
# Stress axis : x y z
#
# Youngs Moduli (GPa) = 57.76562 73.42856 31.71732
#
# Poissons Ratio (x) = 0.36176 0.03305
# Poissons Ratio (y) = 0.28459 0.29148
# Poissons Ratio (z) = 0.06018 0.67480
#
# Static dielectric constant tensor:
#      x y z
#    x 2.243030 0.000000 -0.028030 
#    y 0.000000 1.841960 0.000000 
#    z -0.028030 0.000000 1.798400 
# 
# From -- ./inp_files/71262.got.cif
#   From: 2010.05.17/outbox.cif.g08.bks.cpg/sg14_36_cif.got.tgz:71262.got - 2010.06.03 17:49:19.
