data_PCOD9248540
_publ_section_title
;
Structure prediction by ZEFSAII (Michael W. Deem and Ramdas Pophale) SiO2 
 PCOD9248540
Probable space group: P 21/C
;
_chemical_formula_sum "Si O2"
_cell_formula_units_Z 18
_cell_length_a 6.766122
_cell_length_b 14.619496
_cell_length_c 11.170917
_cell_angle_alpha 90.000000
_cell_angle_beta 41.053292
_cell_angle_gamma 90.000000
_cell_volume 725.718540
_symmetry_space_group_name_H-M "P 21/C"
_symmetry_group_IT_number 14
_symmetry_cell_setting 'monoclinic'
loop_
_space_group_symop_operation_xyz
x,y,z
-x,1/2+y,1/2-z
-x,-y,-z
x,1/2-y,1/2+z
loop_
_atom_site_type_symbol
_atom_site_label
_atom_site_fract_x
_atom_site_fract_y
_atom_site_fract_z
Si Si1 0.537913 0.647446 0.757821
Si Si2 0.396564 0.100384 0.511595
Si Si3 0.828897 0.176236 0.122395
Si Si4 0.000000 0.000000 0.500000
Si Si5 0.558266 0.964588 0.841818
O O1 0.671729 0.646658 0.830157
O O2 0.813467 0.666259 0.541720
O O3 0.295331 0.726041 0.858502
O O4 0.407933 0.546464 0.778016
O O5 0.664436 0.151736 0.320707
O O6 0.500000 0.000000 0.500000
O O7 0.134988 0.080499 0.537083
O O8 0.698664 0.101208 0.087720
O O9 0.107112 0.068523 0.334583
O O10 0.500000 0.000000 0.000000
#
# Coordination Sequence:
#
# PCOD9248540 Si02
#       5
#     4   4   4   2   4
#     4  12  27  47  73 106 150 194 243 309 371 435
#     4  11  24  47  76 103 150 190 247 300 367 438
#     4  11  28  45  70 107 141 194 242 299 371 434
#     4  10  22  42  76 102 134 188 240 292 370 420
#     4  11  25  44  72 102 144 189 244 302 363 439
#
# _framework density 24.803004000000001
#
# number of rings (size 3 to 8) (size 9 to 14) (size 15 to 20)
#    0.000    0.889    4.444    2.000   12.444    1.778 
#    0.000    0.000    0.000    0.000    0.000    0.000 
#    0.000    0.000    0.000    0.000    0.000    0.000 
#
# Total GULP energy -100347.851969 kJ/mol
# GULP energy per Si atom -5574.880665 kJ/mol
# Density = 2.474655 g / cm^3
# Si number density = 24.803004 Si / 1000 Ang^3
#
#
#
# Elastic Constant Matrix: (Units=GPa)
#
#
# Indices 1 2 3 4 5 6 
#
# 1 100.9409 45.5260 36.2691 0.0000 -2.4133 0.0000
# 2 45.5260 112.8582 20.1631 0.0000 7.6162 0.0000
# 3 36.2691 20.1631 158.7498 0.0000 15.1269 0.0000
# 4 0.0000 0.0000 0.0000 31.8510 0.0000 -1.6971
# 5 -2.4133 7.6162 15.1269 0.0000 46.4170 0.0000
# 6 0.0000 0.0000 0.0000 -1.6971 0.0000 36.4875
#
#
#
# Elastic Compliance Matrix: (Units=1/GPa)
#
#
# Indices 1 2 3 4 5 6 
#
# 1 0.013150 -0.005000 -0.002593 0.000000 0.002349 0.000000
# 2 -0.005000 0.011027 -0.000063 0.000000 -0.002049 0.000000
# 3 -0.002593 -0.000063 0.007133 0.000000 -0.002449 0.000000
# 4 0.000000 0.000000 0.000000 0.031474 0.000000 0.001464
# 5 0.002349 -0.002049 -0.002449 0.000000 0.022800 0.000000
# 6 0.000000 0.000000 0.000000 0.001464 0.000000 0.027475
#
#
# Mechanical properties :
#
#
# Convention : Reuss Voigt Hill
#
# Bulk Modulus (GPa) = 62.50787 64.05171 63.27979
# Shear Modulus (GPa) = 37.39626 40.99047 39.19336
#
# Velocity S-wave (km/s) = 3.88716 4.06968 3.97947
# Velocity P-wave (km/s) = 6.73819 6.92555 6.83251
#
# Compressibility (1/GPa) = 0.01599799
#
# Stress axis : x y z
#
# Youngs Moduli (GPa) = 76.04795 90.68620 140.19294
#
# Poissons Ratio (x) = 0.45340 0.36353
# Poissons Ratio (y) = 0.38022 0.00884
# Poissons Ratio (z) = 0.19720 0.00572
#
# Static dielectric constant tensor:
#      x y z
#    x 2.448600 0.000000 -0.315210 
#    y 0.000000 2.027730 0.000000 
#    z -0.315210 0.000000 2.183070 
# 
# From -- ./inp_files/8656.got.cif
#   From: 2010.05.17/outbox.cif.g08.bks.cpg/sg14_5_cif.got.tgz:8656.got - 2010.06.03 17:49:19.
