data_PCOD9248298
_publ_section_title
;
Structure prediction by ZEFSAII (Michael W. Deem and Ramdas Pophale) SiO2 
 PCOD9248298
Probable space group: P 21/C
;
_chemical_formula_sum "Si O2"
_cell_formula_units_Z 30
_cell_length_a 14.724668
_cell_length_b 11.992555
_cell_length_c 8.837170
_cell_angle_alpha 90.000000
_cell_angle_beta 59.212470
_cell_angle_gamma 90.000000
_cell_volume 1340.601373
_symmetry_space_group_name_H-M "P 21/C"
_symmetry_group_IT_number 14
_symmetry_cell_setting 'monoclinic'
loop_
_space_group_symop_operation_xyz
x,y,z
-x,1/2+y,1/2-z
-x,-y,-z
x,1/2-y,1/2+z
loop_
_atom_site_type_symbol
_atom_site_label
_atom_site_fract_x
_atom_site_fract_y
_atom_site_fract_z
Si Si1 0.000000 0.500000 0.500000
Si Si2 0.570462 0.894786 0.898979
Si Si3 0.662975 0.131145 0.404801
Si Si4 0.771020 0.820834 0.606597
Si Si5 0.898180 0.301055 0.790867
Si Si6 0.006883 0.631102 0.978762
Si Si7 0.765218 0.599398 0.766490
Si Si8 0.469178 0.756446 0.233218
O O1 0.964887 0.388993 0.633630
O O2 0.878663 0.549502 0.622397
O O3 0.692958 0.908979 0.753914
O O4 0.519982 0.836589 0.795617
O O5 0.555663 0.810926 0.051081
O O6 0.500000 0.000000 0.000000
O O7 0.776129 0.180946 0.357574
O O8 0.617113 0.199489 0.302379
O O9 0.584440 0.152251 0.611948
O O10 0.682675 0.002402 0.347501
O O11 0.887259 0.826944 0.578178
O O12 0.731271 0.697090 0.681334
O O13 0.776908 0.849174 0.424983
O O14 0.937274 0.176343 0.719437
O O15 0.925046 0.323322 0.941145
O O16 0.000000 0.500000 0.000000
#
# Coordination Sequence:
#
# PCOD9248298 Si02
#       8
#     2   4   4   4   4   4   4   4
#     4  10  22  42  64  90 138 178 218 276 332 404
#     4  11  25  45  70 100 139 179 238 297 348 419
#     4  10  22  44  69  98 137 181 227 292 353 414
#     4  12  25  45  67 102 138 186 231 288 350 423
#     4  11  24  41  65  97 137 177 226 275 340 421
#     4  12  26  42  66  98 136 179 224 276 343 418
#     4  11  24  43  70  97 144 180 232 284 350 417
#     4  10  23  44  69 101 132 180 238 289 354 415
#
# _framework density 22.378015999999999
#
# number of rings (size 3 to 8) (size 9 to 14) (size 15 to 20)
#    0.000    1.067    1.333    4.800    1.867    4.267 
#    2.400    3.333    0.000    0.000    0.000    0.000 
#    0.000    0.000    0.000    0.000    0.000    0.000 
#
# Total GULP energy -167487.404096 kJ/mol
# GULP energy per Si atom -5582.913470 kJ/mol
# Density = 2.232708 g / cm^3
# Si number density = 22.378016 Si / 1000 Ang^3
#
#
#
# Elastic Constant Matrix: (Units=GPa)
#
#
# Indices 1 2 3 4 5 6 
#
# 1 73.9208 -1.8609 17.5015 0.0000 0.7620 0.0000
# 2 -1.8609 60.9484 -6.3506 0.0000 14.4738 0.0000
# 3 17.5015 -6.3506 72.3639 0.0000 2.9612 0.0000
# 4 0.0000 0.0000 0.0000 30.6909 0.0000 -4.2633
# 5 0.7620 14.4738 2.9612 0.0000 30.0005 0.0000
# 6 0.0000 0.0000 0.0000 -4.2633 0.0000 23.9641
#
#
#
# Elastic Compliance Matrix: (Units=1/GPa)
#
#
# Indices 1 2 3 4 5 6 
#
# 1 0.014350 0.000094 -0.003460 0.000000 -0.000068 0.000000
# 2 0.000094 0.018824 0.002009 0.000000 -0.009282 0.000000
# 3 -0.003460 0.002009 0.014928 0.000000 -0.002355 0.000000
# 4 0.000000 0.000000 0.000000 0.033409 0.000000 0.005944
# 5 -0.000068 -0.009282 -0.002355 0.000000 0.038045 0.000000
# 6 0.000000 0.000000 0.000000 0.005944 0.000000 0.042787
#
#
# Mechanical properties :
#
#
# Convention : Reuss Voigt Hill
#
# Bulk Modulus (GPa) = 22.03165 25.09034 23.56099
# Shear Modulus (GPa) = 27.74915 30.12731 28.93823
#
# Velocity S-wave (km/s) = 3.52521 3.67316 3.59995
# Velocity P-wave (km/s) = 5.14160 5.40610 5.27551
#
# Compressibility (1/GPa) = 0.04538925
#
# Stress axis : x y z
#
# Youngs Moduli (GPa) = 69.68565 53.12406 66.98614
#
# Poissons Ratio (x) = -0.00499 0.23175
# Poissons Ratio (y) = -0.00654 -0.13458
# Poissons Ratio (z) = 0.24109 -0.10673
#
# Static dielectric constant tensor:
#      x y z
#    x 1.801380 0.000000 0.002580 
#    y 0.000000 1.862630 0.000000 
#    z 0.002580 0.000000 1.720190 
# 
# From -- ./inp_files/15722.got.cif
#   From: 2010.05.17/outbox.cif.g08.bks.cpg/sg14_8_cif.got.tgz:15722.got - 2010.06.03 17:49:19.
