data_PCOD9248053
_publ_section_title
;
Structure prediction by ZEFSAII (Michael W. Deem and Ramdas Pophale) SiO2 
 PCOD9248053
Probable space group: P 21/C
;
_chemical_formula_sum "Si O2"
_cell_formula_units_Z 24
_cell_length_a 8.658410
_cell_length_b 12.492780
_cell_length_c 10.773944
_cell_angle_alpha 90.000000
_cell_angle_beta 71.438918
_cell_angle_gamma 90.000000
_cell_volume 1104.773750
_symmetry_space_group_name_H-M "P 21/C"
_symmetry_group_IT_number 14
_symmetry_cell_setting 'monoclinic'
loop_
_space_group_symop_operation_xyz
x,y,z
-x,1/2+y,1/2-z
-x,-y,-z
x,1/2-y,1/2+z
loop_
_atom_site_type_symbol
_atom_site_label
_atom_site_fract_x
_atom_site_fract_y
_atom_site_fract_z
Si Si1 0.971141 0.321503 0.299742
Si Si2 0.142686 0.480070 0.563873
Si Si3 0.573977 0.433385 0.664963
Si Si4 0.203992 0.737641 0.904959
Si Si5 0.494745 0.908421 0.399246
Si Si6 0.716443 0.788706 0.844800
O O1 0.934072 0.448541 0.307715
O O2 0.874386 0.276428 0.444795
O O3 0.912843 0.287006 0.178966
O O4 0.153372 0.277030 0.269584
O O5 0.319272 0.526567 0.479265
O O6 0.179456 0.357844 0.584532
O O7 0.000000 0.500000 0.500000
O O8 0.682574 0.332651 0.679266
O O9 0.565589 0.533184 0.759276
O O10 0.397956 0.379805 0.687794
O O11 0.318334 0.637408 0.909241
O O12 0.595073 0.804578 0.420301
O O13 0.500000 0.000000 0.500000
#
# Coordination Sequence:
#
# PCOD9248053 Si02
#       6
#     4   4   4   4   4   4
#     4  11  23  42  65  96 131 176 224 278 337 405
#     4  11  23  42  66  94 132 181 230 276 337 421
#     4  10  22  41  63  92 129 176 224 272 336 416
#     4  10  23  42  66  95 135 176 223 282 342 407
#     4  11  24  40  63  97 134 173 224 290 347 401
#     4  11  24  41  67  96 129 178 227 278 342 410
#
# _framework density 21.723905999999999
#
# number of rings (size 3 to 8) (size 9 to 14) (size 15 to 20)
#    0.000    1.333    0.000    5.500    0.000    9.333 
#    0.000    2.500    0.000    0.000    0.000    0.000 
#    0.000    0.000    0.000    0.000    0.000    0.000 
#
# Total GULP energy -133797.459835 kJ/mol
# GULP energy per Si atom -5574.894160 kJ/mol
# Density = 2.167446 g / cm^3
# Si number density = 21.723906 Si / 1000 Ang^3
#
#
#
# Elastic Constant Matrix: (Units=GPa)
#
#
# Indices 1 2 3 4 5 6 
#
# 1 114.7453 58.2442 37.5748 0.0000 -4.8181 0.0000
# 2 58.2442 127.7772 30.0735 0.0000 10.7512 0.0000
# 3 37.5748 30.0735 56.3076 0.0000 -1.5339 0.0000
# 4 0.0000 0.0000 0.0000 40.3912 0.0000 0.9314
# 5 -4.8181 10.7512 -1.5339 0.0000 28.2101 0.0000
# 6 0.0000 0.0000 0.0000 0.9314 0.0000 39.9315
#
#
#
# Elastic Compliance Matrix: (Units=1/GPa)
#
#
# Indices 1 2 3 4 5 6 
#
# 1 0.013441 -0.004993 -0.006197 0.000000 0.003862 0.000000
# 2 -0.004993 0.011204 -0.002796 0.000000 -0.005275 0.000000
# 3 -0.006197 -0.002796 0.023423 0.000000 0.001281 0.000000
# 4 0.000000 0.000000 0.000000 0.024771 0.000000 -0.000578
# 5 0.003862 -0.005275 0.001281 0.000000 0.038188 0.000000
# 6 0.000000 0.000000 0.000000 -0.000578 0.000000 0.025056
#
#
# Mechanical properties :
#
#
# Convention : Reuss Voigt Hill
#
# Bulk Modulus (GPa) = 49.76152 61.17946 55.47049
# Shear Modulus (GPa) = 29.28185 33.23572 31.25879
#
# Velocity S-wave (km/s) = 3.67537 3.91566 3.79741
# Velocity P-wave (km/s) = 6.40056 6.97614 6.69454
#
# Compressibility (1/GPa) = 0.02009585
#
# Stress axis : x y z
#
# Youngs Moduli (GPa) = 74.39948 89.25460 42.69269
#
# Poissons Ratio (x) = 0.44565 0.26458
# Poissons Ratio (y) = 0.37148 0.11936
# Poissons Ratio (z) = 0.46108 0.24953
#
# Static dielectric constant tensor:
#      x y z
#    x 1.833260 0.000000 -0.002290 
#    y 0.000000 1.854660 0.000000 
#    z -0.002290 0.000000 1.793160 
# 
# From -- ./inp_files/24059.got.cif
#   From: 2010.05.17/outbox.cif.g08.bks.cpg/sg14_13_cif.got.tgz:24059.got - 2010.06.03 17:49:19.
