data_PCOD9248387
_publ_section_title
;
Structure prediction by ZEFSAII (Michael W. Deem and Ramdas Pophale) SiO2 
 PCOD9248387
Probable space group: P 21/C
;
_chemical_formula_sum "Si O2"
_cell_formula_units_Z 24
_cell_length_a 6.983776
_cell_length_b 11.154794
_cell_length_c 16.486263
_cell_angle_alpha 90.000000
_cell_angle_beta 117.997618
_cell_angle_gamma 90.000000
_cell_volume 1134.014495
_symmetry_space_group_name_H-M "P 21/C"
_symmetry_group_IT_number 14
_symmetry_cell_setting 'monoclinic'
loop_
_space_group_symop_operation_xyz
x,y,z
-x,1/2+y,1/2-z
-x,-y,-z
x,1/2-y,1/2+z
loop_
_atom_site_type_symbol
_atom_site_label
_atom_site_fract_x
_atom_site_fract_y
_atom_site_fract_z
Si Si1 0.128044 0.072173 0.138077
Si Si2 0.999781 0.820187 0.314195
Si Si3 0.869070 0.710959 0.115605
Si Si4 0.698137 0.565767 0.496162
Si Si5 0.161988 0.527017 0.106071
Si Si6 0.651904 0.489439 0.152007
O O1 0.221484 0.018773 0.239294
O O2 0.051674 0.208060 0.138671
O O3 0.303840 0.062170 0.101517
O O4 0.916814 0.000198 0.068738
O O5 0.917911 0.780023 0.209299
O O6 0.878809 0.935380 0.327653
O O7 0.250079 0.863064 0.358361
O O8 0.736504 0.798357 0.031541
O O9 0.727527 0.593158 0.105740
O O10 0.093943 0.659705 0.123183
O O11 0.500000 0.500000 0.500000
O O12 0.401400 0.505001 0.120957
O O13 0.000000 0.500000 0.000000
#
# Coordination Sequence:
#
# PCOD9248387 Si02
#       6
#     4   4   4   4   4   4
#     4  10  23  41  61 100 126 169 215 265 320 389
#     4  10  22  42  67  92 132 166 220 261 324 390
#     4  10  23  42  63  97 129 167 214 270 318 389
#     4  11  24  40  68  93 135 166 216 265 323 381
#     4  11  25  42  65  94 128 169 221 269 323 385
#     4  10  23  42  69  90 129 172 213 268 326 382
#
# _framework density 21.163751000000001
#
# number of rings (size 3 to 8) (size 9 to 14) (size 15 to 20)
#    0.000    1.667    1.667    1.000    2.333   12.000 
#    0.000    0.000    0.000    0.000    0.000    0.000 
#    0.000    0.000    0.000    0.000    0.000    0.000 
#
# Total GULP energy -134143.992537 kJ/mol
# GULP energy per Si atom -5589.333022 kJ/mol
# Density = 2.111558 g / cm^3
# Si number density = 21.163751 Si / 1000 Ang^3
#
#
#
# Elastic Constant Matrix: (Units=GPa)
#
#
# Indices 1 2 3 4 5 6 
#
# 1 156.6401 30.4105 15.6038 0.0000 -1.5731 0.0000
# 2 30.4105 76.5996 14.2710 0.0000 -8.1950 0.0000
# 3 15.6038 14.2710 36.7602 0.0000 -8.9524 0.0000
# 4 0.0000 0.0000 0.0000 6.0878 0.0000 1.7990
# 5 -1.5731 -8.1950 -8.9524 0.0000 32.9251 0.0000
# 6 0.0000 0.0000 0.0000 1.7990 0.0000 29.6143
#
#
#
# Elastic Compliance Matrix: (Units=1/GPa)
#
#
# Indices 1 2 3 4 5 6 
#
# 1 0.007083 -0.002487 -0.002259 0.000000 -0.000895 0.000000
# 2 -0.002487 0.015091 -0.004195 0.000000 0.002497 0.000000
# 3 -0.002259 -0.004195 0.031603 0.000000 0.007441 0.000000
# 4 0.000000 0.000000 0.000000 0.167265 0.000000 -0.010161
# 5 -0.000895 0.002497 0.007441 0.000000 0.032974 0.000000
# 6 0.000000 0.000000 0.000000 -0.010161 0.000000 0.034385
#
#
# Mechanical properties :
#
#
# Convention : Reuss Voigt Hill
#
# Bulk Modulus (GPa) = 27.85895 43.39672 35.62784
# Shear Modulus (GPa) = 15.71107 27.70640 21.70874
#
# Velocity S-wave (km/s) = 2.72758 3.62214 3.20621
# Velocity P-wave (km/s) = 4.80746 6.16789 5.52967
#
# Compressibility (1/GPa) = 0.03589511
#
# Stress axis : x y z
#
# Youngs Moduli (GPa) = 141.18498 66.26539 31.64272
#
# Poissons Ratio (x) = 0.16479 0.07148
# Poissons Ratio (y) = 0.35110 0.13274
# Poissons Ratio (z) = 0.31894 0.27798
#
# Static dielectric constant tensor:
#      x y z
#    x 1.771300 0.000000 -0.026260 
#    y 0.000000 1.777700 0.000000 
#    z -0.026260 0.000000 1.742260 
# 
# From -- ./inp_files/53042.got.cif
#   From: 2010.05.17/outbox.cif.g08.bks.cpg/sg14_27_cif.got.tgz:53042.got - 2010.06.03 17:49:19.
