data_PCOD9248547
_publ_section_title
;
Structure prediction by ZEFSAII (Michael W. Deem and Ramdas Pophale) SiO2 
 PCOD9248547
Probable space group: P 21/C
;
_chemical_formula_sum "Si O2"
_cell_formula_units_Z 28
_cell_length_a 9.056595
_cell_length_b 10.120422
_cell_length_c 13.958426
_cell_angle_alpha 90.000000
_cell_angle_beta 110.124982
_cell_angle_gamma 90.000000
_cell_volume 1201.267859
_symmetry_space_group_name_H-M "P 21/C"
_symmetry_group_IT_number 14
_symmetry_cell_setting 'monoclinic'
loop_
_space_group_symop_operation_xyz
x,y,z
-x,1/2+y,1/2-z
-x,-y,-z
x,1/2-y,1/2+z
loop_
_atom_site_type_symbol
_atom_site_label
_atom_site_fract_x
_atom_site_fract_y
_atom_site_fract_z
Si Si1 0.127580 0.168607 0.427122
Si Si2 0.669656 0.735441 0.694931
Si Si3 0.888343 0.011479 0.271824
Si Si4 0.653110 0.086819 0.931257
Si Si5 0.630037 0.789519 0.895484
Si Si6 0.100165 0.597540 0.684941
Si Si7 0.712722 0.232198 0.138243
O O1 0.261009 0.174346 0.373853
O O2 0.226592 0.194912 0.543958
O O3 0.003063 0.051744 0.383747
O O4 0.021647 0.298298 0.386377
O O5 0.805281 0.628974 0.750245
O O6 0.513225 0.654852 0.630717
O O7 0.632704 0.814165 0.783056
O O8 0.750732 0.117537 0.224555
O O9 0.997626 0.024693 0.200001
O O10 0.766658 0.084746 0.864530
O O11 0.635402 0.930784 0.951305
O O12 0.724653 0.169813 0.035557
O O13 0.465980 0.723523 0.887042
O O14 0.170893 0.654986 0.799945
#
# Coordination Sequence:
#
# PCOD9248547 Si02
#       7
#     4   4   4   4   4   4   4
#     4  10  23  41  62  93 127 162 212 261 315 379
#     4  11  22  39  66  93 128 169 210 263 320 374
#     4  10  22  43  61  89 135 170 201 266 322 369
#     4  12  22  39  68  94 123 165 214 263 312 373
#     4  12  23  39  67  95 121 167 218 256 315 382
#     4  10  23  40  62  96 128 160 208 260 315 376
#     4  11  22  40  67  93 126 165 211 261 312 378
#
# _framework density 23.308706000000001
#
# number of rings (size 3 to 8) (size 9 to 14) (size 15 to 20)
#    0.000    1.143    4.286    3.000    0.000    6.286 
#    0.000    3.571    0.000    0.000    0.000    0.000 
#    0.000    0.000    0.000    0.000    0.000    0.000 
#
# Total GULP energy -156426.746979 kJ/mol
# GULP energy per Si atom -5586.669535 kJ/mol
# Density = 2.325565 g / cm^3
# Si number density = 23.308706 Si / 1000 Ang^3
#
#
#
# Elastic Constant Matrix: (Units=GPa)
#
#
# Indices 1 2 3 4 5 6 
#
# 1 91.0686 3.1689 42.7477 0.0000 17.9175 0.0000
# 2 3.1689 19.7198 6.7855 0.0000 7.1018 0.0000
# 3 42.7477 6.7855 117.9796 0.0000 8.0524 0.0000
# 4 0.0000 0.0000 0.0000 19.2964 0.0000 -1.5449
# 5 17.9175 7.1018 8.0524 0.0000 38.1784 0.0000
# 6 0.0000 0.0000 0.0000 -1.5449 0.0000 22.2463
#
#
#
# Elastic Compliance Matrix: (Units=1/GPa)
#
#
# Indices 1 2 3 4 5 6 
#
# 1 0.014410 0.001536 -0.004899 0.000000 -0.006015 0.000000
# 2 0.001536 0.055235 -0.003027 0.000000 -0.010357 0.000000
# 3 -0.004899 -0.003027 0.010379 0.000000 0.000673 0.000000
# 4 0.000000 0.000000 0.000000 0.052113 0.000000 0.003619
# 5 -0.006015 -0.010357 0.000673 0.000000 0.030801 0.000000
# 6 0.000000 0.000000 0.000000 0.003619 0.000000 0.045203
#
#
# Mechanical properties :
#
#
# Convention : Reuss Voigt Hill
#
# Bulk Modulus (GPa) = 14.87075 37.13025 26.00050
# Shear Modulus (GPa) = 20.54783 27.68195 24.11489
#
# Velocity S-wave (km/s) = 2.97231 3.44993 3.21999
# Velocity P-wave (km/s) = 4.26302 5.64214 5.00035
#
# Compressibility (1/GPa) = 0.06724611
#
# Stress axis : x y z
#
# Youngs Moduli (GPa) = 69.39401 18.10447 96.34569
#
# Poissons Ratio (x) = -0.02782 0.47201
# Poissons Ratio (y) = -0.10662 0.29160
# Poissons Ratio (z) = 0.33997 0.05479
#
# Static dielectric constant tensor:
#      x y z
#    x 1.905360 0.000000 -0.025860 
#    y 0.000000 1.858730 0.000000 
#    z -0.025860 0.000000 1.878970 
# 
# From -- ./inp_files/39930.got.cif
#   From: 2010.05.17/outbox.cif.g08.bks.cpg/sg14_20_cif.got.tgz:39930.got - 2010.06.03 17:49:19.
