data_PCOD9248031
_publ_section_title
;
Structure prediction by ZEFSAII (Michael W. Deem and Ramdas Pophale) SiO2 
 PCOD9248031
Probable space group: P 21/C
;
_chemical_formula_sum "Si O2"
_cell_formula_units_Z 28
_cell_length_a 11.531018
_cell_length_b 9.701911
_cell_length_c 14.748368
_cell_angle_alpha 90.000000
_cell_angle_beta 124.958816
_cell_angle_gamma 90.000000
_cell_volume 1352.233957
_symmetry_space_group_name_H-M "P 21/C"
_symmetry_group_IT_number 14
_symmetry_cell_setting 'monoclinic'
loop_
_space_group_symop_operation_xyz
x,y,z
-x,1/2+y,1/2-z
-x,-y,-z
x,1/2-y,1/2+z
loop_
_atom_site_type_symbol
_atom_site_label
_atom_site_fract_x
_atom_site_fract_y
_atom_site_fract_z
Si Si1 0.385949 0.863320 0.133622
Si Si2 0.550047 0.081364 0.109586
Si Si3 0.524056 0.136981 0.626844
Si Si4 0.935827 0.347366 0.484513
Si Si5 0.116158 0.844507 0.719291
Si Si6 0.655977 0.395404 0.995518
Si Si7 0.979744 0.347685 0.155914
O O1 0.399165 0.833118 0.245307
O O2 0.219231 0.885180 0.043551
O O3 0.419477 0.737320 0.081690
O O4 0.495204 0.985731 0.165197
O O5 0.458377 0.219446 0.068605
O O6 0.714709 0.128296 0.185677
O O7 0.500000 0.000000 0.000000
O O8 0.623242 0.090540 0.587803
O O9 0.406054 0.024215 0.583698
O O10 0.911578 0.244782 0.386102
O O11 0.026991 0.257655 0.597558
O O12 0.000000 0.500000 0.500000
O O13 0.043595 0.747180 0.764348
O O14 0.057220 0.003386 0.695727
O O15 0.820969 0.386327 0.055638
#
# Coordination Sequence:
#
# PCOD9248031 Si02
#       7
#     4   4   4   4   4   4   4
#     4  11  22  41  67  92 131 174 211 272 342 385
#     4  12  23  43  66  98 134 172 219 278 336 403
#     4  11  21  39  64  92 129 167 213 271 326 400
#     4  11  24  46  68 100 137 178 232 280 333 409
#     4  12  25  47  68  99 138 178 231 284 338 409
#     4  10  22  41  62  93 128 166 216 272 332 387
#     4  11  24  44  70  94 135 181 221 285 339 396
#
# _framework density 20.706475999999999
#
# number of rings (size 3 to 8) (size 9 to 14) (size 15 to 20)
#    0.000    0.857    4.286    3.000    2.000    2.286 
#    5.143    0.000    0.000    0.000    0.000    0.000 
#    0.000    0.000    0.000    0.000    0.000    0.000 
#
# Total GULP energy -155913.506681 kJ/mol
# GULP energy per Si atom -5568.339524 kJ/mol
# Density = 2.065935 g / cm^3
# Si number density = 20.706476 Si / 1000 Ang^3
#
#
#
# Elastic Constant Matrix: (Units=GPa)
#
#
# Indices 1 2 3 4 5 6 
#
# 1 43.1172 47.9916 34.8784 0.0000 -13.8061 0.0000
# 2 47.9916 172.2214 38.9692 0.0000 2.4160 0.0000
# 3 34.8784 38.9692 73.4983 0.0000 -16.4477 0.0000
# 4 0.0000 0.0000 0.0000 35.1871 0.0000 0.5740
# 5 -13.8061 2.4160 -16.4477 0.0000 24.7406 0.0000
# 6 0.0000 0.0000 0.0000 0.5740 0.0000 42.6742
#
#
#
# Elastic Compliance Matrix: (Units=1/GPa)
#
#
# Indices 1 2 3 4 5 6 
#
# 1 0.057052 -0.012796 -0.015137 0.000000 0.023023 0.000000
# 2 -0.012796 0.009735 -0.001057 0.000000 -0.008794 0.000000
# 3 -0.015137 -0.001057 0.022887 0.000000 0.006872 0.000000
# 4 0.000000 0.000000 0.000000 0.028426 0.000000 -0.000382
# 5 0.023023 -0.008794 0.006872 0.000000 0.058694 0.000000
# 6 0.000000 0.000000 0.000000 -0.000382 0.000000 0.023439
#
#
# Mechanical properties :
#
#
# Convention : Reuss Voigt Hill
#
# Bulk Modulus (GPa) = 31.55206 59.16839 45.36022
# Shear Modulus (GPa) = 18.60270 31.65355 25.12813
#
# Velocity S-wave (km/s) = 3.00058 3.91407 3.48737
# Velocity P-wave (km/s) = 5.22260 7.00453 6.17815
#
# Compressibility (1/GPa) = 0.03169365
#
# Stress axis : x y z
#
# Youngs Moduli (GPa) = 17.52782 102.72397 43.69236
#
# Poissons Ratio (x) = 1.31447 0.66138
# Poissons Ratio (y) = 0.22429 0.04618
# Poissons Ratio (z) = 0.26532 0.10858
#
# Static dielectric constant tensor:
#      x y z
#    x 1.570010 0.000000 0.142790 
#    y 0.000000 1.773710 0.000000 
#    z 0.142790 0.000000 1.501220 
# 
# From -- ./inp_files/43807.got.cif
#   From: 2010.05.17/outbox.cif.g08.bks.cpg/sg14_22_cif.got.tgz:43807.got - 2010.06.03 17:49:19.
