data_PCOD9248775
_publ_section_title
;
Structure prediction by ZEFSAII (Michael W. Deem and Ramdas Pophale) SiO2 
 PCOD9248775
Probable space group: P 21/C
;
_chemical_formula_sum "Si O2"
_cell_formula_units_Z 26
_cell_length_a 7.759663
_cell_length_b 7.641254
_cell_length_c 20.006665
_cell_angle_alpha 90.000000
_cell_angle_beta 55.707720
_cell_angle_gamma 90.000000
_cell_volume 980.062639
_symmetry_space_group_name_H-M "P 21/C"
_symmetry_group_IT_number 14
_symmetry_cell_setting 'monoclinic'
loop_
_space_group_symop_operation_xyz
x,y,z
-x,1/2+y,1/2-z
-x,-y,-z
x,1/2-y,1/2+z
loop_
_atom_site_type_symbol
_atom_site_label
_atom_site_fract_x
_atom_site_fract_y
_atom_site_fract_z
Si Si1 0.318937 0.919743 0.992351
Si Si2 0.050686 0.478149 0.350133
Si Si3 0.577013 0.977811 0.810750
Si Si4 0.256694 0.536816 0.061395
Si Si5 0.000000 0.000000 0.500000
Si Si6 0.040065 0.829832 0.730506
Si Si7 0.631603 0.807758 0.660240
O O1 0.243751 0.727567 0.029335
O O2 0.112136 0.026570 0.055911
O O3 0.404765 0.903317 0.899346
O O4 0.500000 0.000000 0.000000
O O5 0.098151 0.647073 0.295203
O O6 0.222613 0.350810 0.343871
O O7 0.955230 0.349313 0.313029
O O8 0.552967 0.925548 0.738543
O O9 0.796357 0.886899 0.779472
O O10 0.550728 0.186234 0.830948
O O11 0.182887 0.541919 0.153724
O O12 0.500000 0.500000 0.000000
O O13 0.082755 0.439843 0.056330
O O14 0.223523 0.078132 0.419249
#
# Coordination Sequence:
#
# PCOD9248775 Si02
#       7
#     4   4   4   4   2   4   4
#     4  11  23  43  67 105 145 181 255 299 363 454
#     4  10  22  44  65 101 138 185 235 310 359 442
#     4  11  25  44  71 101 141 191 237 310 365 444
#     4  11  27  44  76 108 141 206 238 307 383 432
#     4  12  24  52  72 106 156 182 264 310 360 476
#     4  10  22  44  66  99 143 174 246 293 361 445
#     4  11  27  46  69 104 145 192 245 308 379 438
#
# _framework density 26.528917
#
# number of rings (size 3 to 8) (size 9 to 14) (size 15 to 20)
#    0.000    1.231    6.154    0.000    8.615    1.846 
#    0.000    0.000    0.000    0.000    0.000    0.000 
#    0.000    0.000    0.000    0.000    0.000    0.000 
#
# Total GULP energy -144773.025999 kJ/mol
# GULP energy per Si atom -5568.193308 kJ/mol
# Density = 2.646854 g / cm^3
# Si number density = 26.528917 Si / 1000 Ang^3
#
#
#
# Elastic Constant Matrix: (Units=GPa)
#
#
# Indices 1 2 3 4 5 6 
#
# 1 52.8939 -4.1992 -4.7439 0.0000 -12.3830 0.0000
# 2 -4.1992 67.8445 38.8429 0.0000 -12.5788 0.0000
# 3 -4.7439 38.8429 236.7573 0.0000 -15.2457 0.0000
# 4 0.0000 0.0000 0.0000 45.8582 0.0000 -4.2397
# 5 -12.3830 -12.5788 -15.2457 0.0000 42.4120 0.0000
# 6 0.0000 0.0000 0.0000 -4.2397 0.0000 39.4355
#
#
#
# Elastic Compliance Matrix: (Units=1/GPa)
#
#
# Indices 1 2 3 4 5 6 
#
# 1 0.020749 0.002288 0.000485 0.000000 0.006911 0.000000
# 2 0.002288 0.017195 -0.002461 0.000000 0.004883 0.000000
# 3 0.000485 -0.002461 0.004708 0.000000 0.001104 0.000000
# 4 0.000000 0.000000 0.000000 0.022025 0.000000 0.002368
# 5 0.006911 0.004883 0.001104 0.000000 0.027441 0.000000
# 6 0.000000 0.000000 0.000000 0.002368 0.000000 0.025612
#
#
# Mechanical properties :
#
#
# Convention : Reuss Voigt Hill
#
# Bulk Modulus (GPa) = 23.10688 46.36614 34.73651
# Shear Modulus (GPa) = 38.01332 47.38087 42.69709
#
# Velocity S-wave (km/s) = 3.78947 4.23070 4.01615
# Velocity P-wave (km/s) = 5.27975 6.43278 5.88458
#
# Compressibility (1/GPa) = 0.04327716
#
# Stress axis : x y z
#
# Youngs Moduli (GPa) = 48.19542 58.15485 212.39062
#
# Poissons Ratio (x) = -0.13304 -0.10311
# Poissons Ratio (y) = -0.11025 0.52266
# Poissons Ratio (z) = -0.02340 0.14311
#
# Static dielectric constant tensor:
#      x y z
#    x 2.199600 0.000000 -0.092740 
#    y 0.000000 2.342100 0.000000 
#    z -0.092740 0.000000 2.072900 
# 
# From -- ./inp_files/64952.got.cif
#   From: 2010.05.17/outbox.cif.g08.bks.cpg/sg14_33_cif.got.tgz:64952.got - 2010.06.03 17:49:19.
