data_PCOD9248332
_publ_section_title
;
Structure prediction by ZEFSAII (Michael W. Deem and Ramdas Pophale) SiO2 
 PCOD9248332
Probable space group: P 21/C
;
_chemical_formula_sum "Si O2"
_cell_formula_units_Z 26
_cell_length_a 8.876226
_cell_length_b 28.969667
_cell_length_c 4.909305
_cell_angle_alpha 90.000000
_cell_angle_beta 119.074533
_cell_angle_gamma 90.000000
_cell_volume 1103.309836
_symmetry_space_group_name_H-M "P 21/C"
_symmetry_group_IT_number 14
_symmetry_cell_setting 'monoclinic'
loop_
_space_group_symop_operation_xyz
x,y,z
-x,1/2+y,1/2-z
-x,-y,-z
x,1/2-y,1/2+z
loop_
_atom_site_type_symbol
_atom_site_label
_atom_site_fract_x
_atom_site_fract_y
_atom_site_fract_z
Si Si1 0.079097 0.902905 0.823323
Si Si2 0.640182 0.852446 0.805530
Si Si3 0.259851 0.443583 0.915867
Si Si4 0.446207 0.930292 0.931480
Si Si5 0.500000 0.500000 0.000000
Si Si6 0.017974 0.841499 0.271192
Si Si7 0.346916 0.780791 0.509195
O O1 0.266838 0.919199 0.910376
O O2 0.927766 0.939810 0.628148
O O3 0.042194 0.858411 0.600518
O O4 0.060280 0.885780 0.116842
O O5 0.699146 0.892122 0.648045
O O6 0.550896 0.883326 0.961661
O O7 0.495467 0.817747 0.575413
O O8 0.818239 0.828678 0.051889
O O9 0.434456 0.457949 0.242098
O O10 0.295982 0.482116 0.724949
O O11 0.423213 0.956454 0.629028
O O12 0.158936 0.803593 0.317348
O O13 0.365989 0.736874 0.332785
#
# Coordination Sequence:
#
# PCOD9248332 Si02
#       7
#     4   4   4   4   2   4   4
#     4  11  23  39  72  95 125 176 229 259 325 385
#     4  10  23  41  70  91 130 174 226 258 334 392
#     4  10  22  42  65  97 130 179 220 278 320 399
#     4  11  21  41  67  93 131 179 217 277 321 395
#     4  10  24  40  60 102 138 170 224 274 336 380
#     4  11  23  44  65  98 127 171 220 272 315 396
#     4  12  27  42  66 101 135 166 215 273 336 395
#
# _framework density 23.565458
#
# number of rings (size 3 to 8) (size 9 to 14) (size 15 to 20)
#    0.000    1.231    3.077    2.308    4.308    1.846 
#    0.000    1.538    0.000    0.000    0.000    0.000 
#    0.000    0.000    0.000    0.000    0.000    0.000 
#
# Total GULP energy -144984.305013 kJ/mol
# GULP energy per Si atom -5576.319424 kJ/mol
# Density = 2.351182 g / cm^3
# Si number density = 23.565458 Si / 1000 Ang^3
#
#
#
# Elastic Constant Matrix: (Units=GPa)
#
#
# Indices 1 2 3 4 5 6 
#
# 1 158.2122 16.2108 30.2131 0.0000 35.3773 0.0000
# 2 16.2108 44.0667 17.7948 0.0000 17.7955 0.0000
# 3 30.2131 17.7948 65.0282 0.0000 11.2756 0.0000
# 4 0.0000 0.0000 0.0000 35.8539 0.0000 -10.1244
# 5 35.3773 17.7955 11.2756 0.0000 41.5571 0.0000
# 6 0.0000 0.0000 0.0000 -10.1244 0.0000 19.2207
#
#
#
# Elastic Compliance Matrix: (Units=1/GPa)
#
#
# Indices 1 2 3 4 5 6 
#
# 1 0.008270 0.000797 -0.002918 0.000000 -0.006590 0.000000
# 2 0.000797 0.029721 -0.006484 0.000000 -0.011646 0.000000
# 3 -0.002918 -0.006484 0.018464 0.000000 0.000250 0.000000
# 4 0.000000 0.000000 0.000000 0.032764 0.000000 0.017258
# 5 -0.006590 -0.011646 0.000250 0.000000 0.034592 0.000000
# 6 0.000000 0.000000 0.000000 0.017258 0.000000 0.061118
#
#
# Mechanical properties :
#
#
# Convention : Reuss Voigt Hill
#
# Bulk Modulus (GPa) = 25.48034 43.97161 34.72598
# Shear Modulus (GPa) = 23.23195 32.86558 28.04876
#
# Velocity S-wave (km/s) = 3.14323 3.73855 3.45374
# Velocity P-wave (km/s) = 4.89992 6.11028 5.53827
#
# Compressibility (1/GPa) = 0.03924594
#
# Stress axis : x y z
#
# Youngs Moduli (GPa) = 120.92491 33.64613 54.15809
#
# Poissons Ratio (x) = -0.02682 0.15802
# Poissons Ratio (y) = -0.09639 0.35116
# Poissons Ratio (z) = 0.35282 0.21816
#
# Static dielectric constant tensor:
#      x y z
#    x 2.043770 0.000000 -0.132360 
#    y 0.000000 2.058370 0.000000 
#    z -0.132360 0.000000 2.104130 
# 
# From -- ./inp_files/2012.got.cif
#   From: 2010.05.17/outbox.cif.g08.bks.cpg/sg14_2_cif.got.tgz:2012.got - 2010.06.03 17:49:19.
