data_PCOD9248862
_publ_section_title
;
Structure prediction by ZEFSAII (Michael W. Deem and Ramdas Pophale) SiO2 
 PCOD9248862
Probable space group: P 21/C
;
_chemical_formula_sum "Si O2"
_cell_formula_units_Z 28
_cell_length_a 10.981062
_cell_length_b 9.043508
_cell_length_c 13.716310
_cell_angle_alpha 90.000000
_cell_angle_beta 70.874109
_cell_angle_gamma 90.000000
_cell_volume 1286.941734
_symmetry_space_group_name_H-M "P 21/C"
_symmetry_group_IT_number 14
_symmetry_cell_setting 'monoclinic'
loop_
_space_group_symop_operation_xyz
x,y,z
-x,1/2+y,1/2-z
-x,-y,-z
x,1/2-y,1/2+z
loop_
_atom_site_type_symbol
_atom_site_label
_atom_site_fract_x
_atom_site_fract_y
_atom_site_fract_z
Si Si1 0.192921 0.982680 0.033640
Si Si2 0.806758 0.382899 0.250521
Si Si3 0.442371 0.808696 0.708406
Si Si4 0.048128 0.698348 0.432573
Si Si5 0.156095 0.173188 0.384281
Si Si6 0.654111 0.858376 0.274967
Si Si7 0.349708 0.227976 0.499609
O O1 0.191258 0.895383 0.134525
O O2 0.310155 0.098641 0.003140
O O3 0.174347 0.874827 0.947295
O O4 0.063372 0.081792 0.062955
O O5 0.672243 0.308680 0.256418
O O6 0.916845 0.282704 0.174273
O O7 0.827075 0.541962 0.195971
O O8 0.551061 0.757202 0.756617
O O9 0.511602 0.797230 0.584550
O O10 0.392951 0.975745 0.733204
O O11 0.983979 0.800222 0.533499
O O12 0.212330 0.318348 0.314798
O O13 0.248250 0.148267 0.453846
O O14 0.663535 0.828415 0.387426
#
# Coordination Sequence:
#
# PCOD9248862 Si02
#       7
#     4   4   4   4   4   4   4
#     4  10  24  44  68 100 135 184 218 284 342 394
#     4  12  25  43  68 105 131 179 226 276 342 399
#     4  11  26  39  68 101 130 176 224 280 331 409
#     4  10  25  44  68  99 140 173 234 273 335 400
#     4  10  23  45  67  99 135 177 222 280 328 398
#     4  11  23  45  68  96 138 175 227 275 338 401
#     4  10  22  44  69  93 138 176 218 279 342 392
#
# _framework density 21.757007000000002
#
# number of rings (size 3 to 8) (size 9 to 14) (size 15 to 20)
#    0.000    1.429    1.429    2.571   10.000    2.857 
#    0.000    0.000    0.000    0.000    0.000    0.000 
#    0.000    0.000    0.000    0.000    0.000    0.000 
#
# Total GULP energy -156575.700254 kJ/mol
# GULP energy per Si atom -5591.989295 kJ/mol
# Density = 2.170749 g / cm^3
# Si number density = 21.757007 Si / 1000 Ang^3
#
#
#
# Elastic Constant Matrix: (Units=GPa)
#
#
# Indices 1 2 3 4 5 6 
#
# 1 24.0248 4.1577 3.9755 0.0000 -0.0715 0.0000
# 2 4.1577 74.2869 2.4891 0.0000 5.4425 0.0000
# 3 3.9755 2.4891 74.2437 0.0000 12.5568 0.0000
# 4 0.0000 0.0000 0.0000 42.0453 0.0000 -5.5837
# 5 -0.0715 5.4425 12.5568 0.0000 33.4529 0.0000
# 6 0.0000 0.0000 0.0000 -5.5837 0.0000 23.9211
#
#
#
# Elastic Compliance Matrix: (Units=1/GPa)
#
#
# Indices 1 2 3 4 5 6 
#
# 1 0.042444 -0.002396 -0.002428 0.000000 0.001392 0.000000
# 2 -0.002396 0.013760 0.000050 0.000000 -0.002262 0.000000
# 3 -0.002428 0.000050 0.014522 0.000000 -0.005464 0.000000
# 4 0.000000 0.000000 0.000000 0.024545 0.000000 0.005729
# 5 0.001392 -0.002262 -0.005464 0.000000 0.032315 0.000000
# 6 0.000000 0.000000 0.000000 0.005729 0.000000 0.043141
#
#
# Mechanical properties :
#
#
# Convention : Reuss Voigt Hill
#
# Bulk Modulus (GPa) = 16.34611 21.53333 18.93972
# Shear Modulus (GPa) = 24.91688 30.67940 27.79814
#
# Velocity S-wave (km/s) = 3.38780 3.75919 3.57832
# Velocity P-wave (km/s) = 4.77831 5.36290 5.07903
#
# Compressibility (1/GPa) = 0.06117665
#
# Stress axis : x y z
#
# Youngs Moduli (GPa) = 23.56035 72.67700 68.86283
#
# Poissons Ratio (x) = 0.17414 0.16719
# Poissons Ratio (y) = 0.05645 -0.00342
# Poissons Ratio (z) = 0.05720 -0.00361
#
# Static dielectric constant tensor:
#      x y z
#    x 1.786790 0.000000 -0.022320 
#    y 0.000000 1.816750 0.000000 
#    z -0.022320 0.000000 1.775710 
# 
# From -- ./inp_files/43361.got.cif
#   From: 2010.05.17/outbox.cif.g08.bks.cpg/sg14_22_cif.got.tgz:43361.got - 2010.06.03 17:49:19.
