data_PCOD9248998
_publ_section_title
;
Structure prediction by ZEFSAII (Michael W. Deem and Ramdas Pophale) SiO2 
 PCOD9248998
Probable space group: P 21/C
;
_chemical_formula_sum "Si O2"
_cell_formula_units_Z 22
_cell_length_a 18.022300
_cell_length_b 5.208264
_cell_length_c 8.981118
_cell_angle_alpha 90.000000
_cell_angle_beta 99.517374
_cell_angle_gamma 90.000000
_cell_volume 831.408082
_symmetry_space_group_name_H-M "P 21/C"
_symmetry_group_IT_number 14
_symmetry_cell_setting 'monoclinic'
loop_
_space_group_symop_operation_xyz
x,y,z
-x,1/2+y,1/2-z
-x,-y,-z
x,1/2-y,1/2+z
loop_
_atom_site_type_symbol
_atom_site_label
_atom_site_fract_x
_atom_site_fract_y
_atom_site_fract_z
Si Si1 0.347398 0.206808 0.951429
Si Si2 0.455295 0.930439 0.192937
Si Si3 0.800736 0.443505 0.465562
Si Si4 0.000000 0.500000 0.000000
Si Si5 0.896163 0.165516 0.744159
Si Si6 0.323844 0.910797 0.662227
O O1 0.354768 0.490933 0.015608
O O2 0.420611 0.049941 0.030322
O O3 0.269061 0.113495 0.003051
O O4 0.333098 0.142313 0.777842
O O5 0.507941 0.676320 0.212703
O O6 0.378848 0.811791 0.235301
O O7 0.847385 0.360450 0.626189
O O8 0.848898 0.530026 0.336944
O O9 0.759269 0.189936 0.388119
O O10 0.942903 0.315433 0.885676
O O11 0.052414 0.529869 0.862545
#
# Coordination Sequence:
#
# PCOD9248998 Si02
#       6
#     4   4   4   2   4   4
#     4  11  25  44  72 108 149 195 270 321 394 478
#     4  11  24  49  72 112 152 209 261 338 411 477
#     4  10  22  45  69 102 149 200 251 327 390 466
#     4  10  24  44  76 106 152 192 252 318 392 490
#     4  10  22  48  69 108 151 197 253 318 396 472
#     4  11  25  44  72 111 146 198 265 326 390 487
#
# _framework density 26.461131000000002
#
# number of rings (size 3 to 8) (size 9 to 14) (size 15 to 20)
#    0.000    1.455    3.636    0.000    2.545    5.818 
#   13.091    0.000    0.000    0.000    0.000    0.000 
#    0.000    0.000    0.000    0.000    0.000    0.000 
#
# Total GULP energy -122496.909705 kJ/mol
# GULP energy per Si atom -5568.041350 kJ/mol
# Density = 2.640090 g / cm^3
# Si number density = 26.461131 Si / 1000 Ang^3
#
#
#
# Elastic Constant Matrix: (Units=GPa)
#
#
# Indices 1 2 3 4 5 6 
#
# 1 91.4626 39.4540 45.7420 0.0000 -1.4015 0.0000
# 2 39.4540 85.9216 29.2023 0.0000 -9.7834 0.0000
# 3 45.7420 29.2023 144.1744 0.0000 -30.6481 0.0000
# 4 0.0000 0.0000 0.0000 255.4923 0.0000 -169.1348
# 5 -1.4015 -9.7834 -30.6481 0.0000 39.9560 0.0000
# 6 0.0000 0.0000 0.0000 -169.1348 0.0000 147.6137
#
#
#
# Elastic Compliance Matrix: (Units=1/GPa)
#
#
# Indices 1 2 3 4 5 6 
#
# 1 0.015937 -0.006220 -0.004781 0.000000 -0.004631 0.000000
# 2 -0.006220 0.014987 -0.000392 0.000000 0.003150 0.000000
# 3 -0.004781 -0.000392 0.010128 0.000000 0.007505 0.000000
# 4 0.000000 0.000000 0.000000 0.016208 0.000000 0.018571
# 5 -0.004631 0.003150 0.007505 0.000000 0.031393 0.000000
# 6 0.000000 0.000000 0.000000 0.018571 0.000000 0.028053
#
#
# Mechanical properties :
#
#
# Convention : Reuss Voigt Hill
#
# Bulk Modulus (GPa) = 54.75176 61.15058 57.95117
# Shear Modulus (GPa) = 34.34548 102.42309 68.38429
#
# Velocity S-wave (km/s) = 3.60663 6.22824 5.08915
# Velocity P-wave (km/s) = 6.17090 8.65339 7.51536
#
# Compressibility (1/GPa) = 0.01826425
#
# Stress axis : x y z
#
# Youngs Moduli (GPa) = 62.74830 66.72500 98.74006
#
# Poissons Ratio (x) = 0.41505 0.47205
# Poissons Ratio (y) = 0.39032 0.03874
# Poissons Ratio (z) = 0.29999 0.02618
#
# Static dielectric constant tensor:
#      x y z
#    x 2.180960 0.000000 -0.070700 
#    y 0.000000 2.096300 0.000000 
#    z -0.070700 0.000000 2.010130 
# 
# From -- ./inp_files/18394.got.cif
#   From: 2010.05.17/outbox.cif.g08.bks.cpg/sg14_10_cif.got.tgz:18394.got - 2010.06.03 17:49:19.
