data_PCOD9248116
_publ_section_title
;
Structure prediction by ZEFSAII (Michael W. Deem and Ramdas Pophale) SiO2 
 PCOD9248116
Probable space group: P 21/C
;
_chemical_formula_sum "Si O2"
_cell_formula_units_Z 32
_cell_length_a 16.092031
_cell_length_b 14.580294
_cell_length_c 22.034430
_cell_angle_alpha 90.000000
_cell_angle_beta 18.174185
_cell_angle_gamma 90.000000
_cell_volume 1612.515521
_symmetry_space_group_name_H-M "P 21/C"
_symmetry_group_IT_number 14
_symmetry_cell_setting 'monoclinic'
loop_
_space_group_symop_operation_xyz
x,y,z
-x,1/2+y,1/2-z
-x,-y,-z
x,1/2-y,1/2+z
loop_
_atom_site_type_symbol
_atom_site_label
_atom_site_fract_x
_atom_site_fract_y
_atom_site_fract_z
Si Si1 0.631808 0.169245 0.613316
Si Si2 0.034086 0.596753 0.010814
Si Si3 0.071647 0.267896 0.023357
Si Si4 0.666936 0.473703 0.980881
Si Si5 0.348410 0.621751 0.131950
Si Si6 0.566870 0.899701 0.931376
Si Si7 0.160759 0.247222 0.696284
Si Si8 0.020938 0.139251 0.680230
O O1 0.601596 0.099819 0.577781
O O2 0.724784 0.113052 0.608883
O O3 0.875727 0.239046 0.426785
O O4 0.354935 0.220778 0.815071
O O5 0.774874 0.603407 0.233036
O O6 0.033506 0.678394 0.962369
O O7 0.000000 0.500000 0.000000
O O8 0.108107 0.342853 0.051362
O O9 0.856459 0.193471 0.196501
O O10 0.757888 0.421911 0.856618
O O11 0.883076 0.542644 0.859681
O O12 0.428039 0.540300 0.123356
O O13 0.629948 0.673383 0.921611
O O14 0.695323 0.844009 0.897202
O O15 0.295193 0.853964 0.099247
O O16 0.500000 0.000000 0.000000
O O17 0.130199 0.216874 0.648655
#
# Coordination Sequence:
#
# PCOD9248116 Si02
#       8
#     4   4   4   4   4   4   4   4
#     4  11  25  40  66  95 135 174 217 269 337 397
#     4  11  26  43  61  99 140 170 213 276 337 395
#     4  12  25  41  67 100 135 179 214 278 339 402
#     4  10  23  44  64  99 128 176 223 280 319 399
#     4  10  23  43  72  92 134 172 230 275 329 390
#     4  11  22  40  67  94 125 174 216 271 316 386
#     4  10  22  41  65  94 126 170 223 271 317 396
#     4  11  22  40  68  95 128 171 224 269 321 396
#
# _framework density 19.844768999999999
#
# number of rings (size 3 to 8) (size 9 to 14) (size 15 to 20)
#    0.000    1.250    1.250    4.500    7.000    1.500 
#    0.000    5.000    0.000    0.000    0.000    0.000 
#    0.000    0.000    0.000    0.000    0.000    0.000 
#
# Total GULP energy -178747.773660 kJ/mol
# GULP energy per Si atom -5585.867927 kJ/mol
# Density = 1.979960 g / cm^3
# Si number density = 19.844769 Si / 1000 Ang^3
#
#
#
# Elastic Constant Matrix: (Units=GPa)
#
#
# Indices 1 2 3 4 5 6 
#
# 1 132.6486 57.4328 35.8306 0.0000 3.4045 0.0000
# 2 57.4328 98.1551 49.1892 0.0000 6.6661 0.0000
# 3 35.8306 49.1892 86.1904 0.0000 -7.5077 0.0000
# 4 0.0000 0.0000 0.0000 26.1375 0.0000 3.1222
# 5 3.4045 6.6661 -7.5077 0.0000 18.2060 0.0000
# 6 0.0000 0.0000 0.0000 3.1222 0.0000 54.0244
#
#
#
# Elastic Compliance Matrix: (Units=1/GPa)
#
#
# Indices 1 2 3 4 5 6 
#
# 1 0.010183 -0.005299 -0.001251 0.000000 -0.000480 0.000000
# 2 -0.005299 0.018568 -0.009231 0.000000 -0.009614 0.000000
# 3 -0.001251 -0.009231 0.018365 0.000000 0.011187 0.000000
# 4 0.000000 0.000000 0.000000 0.038525 0.000000 -0.002226
# 5 -0.000480 -0.009614 0.011187 0.000000 0.063150 0.000000
# 6 0.000000 0.000000 0.000000 -0.002226 0.000000 0.018639
#
#
# Mechanical properties :
#
#
# Convention : Reuss Voigt Hill
#
# Bulk Modulus (GPa) = 64.29397 66.87769 65.58583
# Shear Modulus (GPa) = 24.48857 31.30966 27.89912
#
# Velocity S-wave (km/s) = 3.51665 3.97637 3.75356
# Velocity P-wave (km/s) = 6.99699 7.40646 7.20464
#
# Compressibility (1/GPa) = 0.01555356
#
# Stress axis : x y z
#
# Youngs Moduli (GPa) = 98.20080 53.85745 54.45131
#
# Poissons Ratio (x) = 0.28539 0.06812
# Poissons Ratio (y) = 0.52036 0.50265
# Poissons Ratio (z) = 0.12285 0.49717
#
# Static dielectric constant tensor:
#      x y z
#    x 1.657740 0.000000 -0.016310 
#    y 0.000000 1.737250 0.000000 
#    z -0.016310 0.000000 1.654810 
# 
# From -- ./inp_files/68711.got.cif
#   From: 2010.05.17/outbox.cif.g08.bks.cpg/sg14_35_cif.got.tgz:68711.got - 2010.06.03 17:49:19.
