data_PCOD9248663
_publ_section_title
;
Structure prediction by ZEFSAII (Michael W. Deem and Ramdas Pophale) SiO2 
 PCOD9248663
Probable space group: P 21/C
;
_chemical_formula_sum "Si O2"
_cell_formula_units_Z 20
_cell_length_a 9.919113
_cell_length_b 10.789303
_cell_length_c 13.418766
_cell_angle_alpha 90.000000
_cell_angle_beta 32.032017
_cell_angle_gamma 90.000000
_cell_volume 761.687187
_symmetry_space_group_name_H-M "P 21/C"
_symmetry_group_IT_number 14
_symmetry_cell_setting 'monoclinic'
loop_
_space_group_symop_operation_xyz
x,y,z
-x,1/2+y,1/2-z
-x,-y,-z
x,1/2-y,1/2+z
loop_
_atom_site_type_symbol
_atom_site_label
_atom_site_fract_x
_atom_site_fract_y
_atom_site_fract_z
Si Si1 0.303711 0.032691 0.317138
Si Si2 0.576358 0.641181 0.943169
Si Si3 0.912174 0.794286 0.061030
Si Si4 0.743372 0.870654 0.956974
Si Si5 0.804275 0.147016 0.469131
O O1 0.511079 0.967039 0.116524
O O2 0.357875 0.968781 0.389287
O O3 0.286009 0.179493 0.326224
O O4 0.000000 0.000000 0.500000
O O5 0.646207 0.732436 0.989010
O O6 0.342886 0.706268 0.030523
O O7 0.500000 0.500000 0.000000
O O8 0.813372 0.634310 0.719209
O O9 0.899799 0.861898 0.963355
O O10 0.161784 0.732552 0.954037
O O11 0.930509 0.898325 0.746278
#
# Coordination Sequence:
#
# PCOD9248663 Si02
#       5
#     4   4   4   4   4
#     4  10  22  43  68  96 139 182 228 278 344 410
#     4  11  24  45  69 103 142 178 234 290 342 410
#     4  10  23  44  68  98 141 177 232 274 353 405
#     4  11  24  42  71 104 137 184 233 281 348 415
#     4  10  23  42  67 101 134 182 227 283 342 404
#
# _framework density 26.257497999999998
#
# number of rings (size 3 to 8) (size 9 to 14) (size 15 to 20)
#    0.000    1.600    2.000    1.200    5.600    7.200 
#   10.800    1.000    0.000    0.000    0.000    0.000 
#    0.000    0.000    0.000    0.000    0.000    0.000 
#
# Total GULP energy -111557.992533 kJ/mol
# GULP energy per Si atom -5577.899627 kJ/mol
# Density = 2.619773 g / cm^3
# Si number density = 26.257498 Si / 1000 Ang^3
#
#
#
# Elastic Constant Matrix: (Units=GPa)
#
#
# Indices 1 2 3 4 5 6 
#
# 1 124.6105 -11.2856 1.8884 0.0000 10.4812 0.0000
# 2 -11.2856 85.6814 20.0463 0.0000 10.3911 0.0000
# 3 1.8884 20.0463 124.5074 0.0000 20.4252 0.0000
# 4 0.0000 0.0000 0.0000 40.7764 0.0000 2.5216
# 5 10.4812 10.3911 20.4252 0.0000 38.5828 0.0000
# 6 0.0000 0.0000 0.0000 2.5216 0.0000 18.2853
#
#
#
# Elastic Compliance Matrix: (Units=1/GPa)
#
#
# Indices 1 2 3 4 5 6 
#
# 1 0.008379 0.001411 0.000089 0.000000 -0.002703 0.000000
# 2 0.001411 0.012580 -0.001564 0.000000 -0.002943 0.000000
# 3 0.000089 -0.001564 0.008998 0.000000 -0.004367 0.000000
# 4 0.000000 0.000000 0.000000 0.024735 0.000000 -0.003411
# 5 -0.002703 -0.002943 -0.004367 0.000000 0.029757 0.000000
# 6 0.000000 0.000000 0.000000 -0.003411 0.000000 0.055159
#
#
# Mechanical properties :
#
#
# Convention : Reuss Voigt Hill
#
# Bulk Modulus (GPa) = 33.52462 39.56638 36.54550
# Shear Modulus (GPa) = 33.40479 41.13892 37.27185
#
# Velocity S-wave (km/s) = 3.57066 3.96251 3.77168
# Velocity P-wave (km/s) = 5.45847 6.00305 5.73723
#
# Compressibility (1/GPa) = 0.02982882
#
# Stress axis : x y z
#
# Youngs Moduli (GPa) = 119.34906 79.49251 111.13017
#
# Poissons Ratio (x) = -0.11213 -0.00992
# Poissons Ratio (y) = -0.16835 0.17380
# Poissons Ratio (z) = -0.01066 0.12432
#
# Static dielectric constant tensor:
#      x y z
#    x 2.266410 0.000000 -0.046630 
#    y 0.000000 2.309000 0.000000 
#    z -0.046630 0.000000 2.084170 
# 
# From -- ./inp_files/39460.got.cif
#   From: 2010.05.17/outbox.cif.g08.bks.cpg/sg14_20_cif.got.tgz:39460.got - 2010.06.03 17:49:19.
