data_PCOD9248068
_publ_section_title
;
Structure prediction by ZEFSAII (Michael W. Deem and Ramdas Pophale) SiO2 
 PCOD9248068
Probable space group: P 21/C
;
_chemical_formula_sum "Si O2"
_cell_formula_units_Z 32
_cell_length_a 27.745140
_cell_length_b 5.470304
_cell_length_c 17.282851
_cell_angle_alpha 90.000000
_cell_angle_beta 30.241196
_cell_angle_gamma 90.000000
_cell_volume 1321.098041
_symmetry_space_group_name_H-M "P 21/C"
_symmetry_group_IT_number 14
_symmetry_cell_setting 'monoclinic'
loop_
_space_group_symop_operation_xyz
x,y,z
-x,1/2+y,1/2-z
-x,-y,-z
x,1/2-y,1/2+z
loop_
_atom_site_type_symbol
_atom_site_label
_atom_site_fract_x
_atom_site_fract_y
_atom_site_fract_z
Si Si1 0.887553 0.349733 0.227293
Si Si2 0.224121 0.182534 0.996734
Si Si3 0.594360 0.918979 0.670915
Si Si4 0.716828 0.572723 0.752586
Si Si5 0.939573 0.487339 0.846684
Si Si6 0.906208 0.673316 0.051291
Si Si7 0.587635 0.862364 0.025511
Si Si8 0.293855 0.756704 0.586630
O O1 0.839266 0.495488 0.364833
O O2 0.899394 0.554151 0.144313
O O3 0.810075 0.171147 0.298087
O O4 0.987467 0.213539 0.100748
O O5 0.319175 0.274268 0.908817
O O6 0.260351 0.045251 0.868780
O O7 0.154971 0.412527 0.067776
O O8 0.502264 0.957203 0.852510
O O9 0.560991 0.815870 0.633454
O O10 0.640625 0.169510 0.576074
O O11 0.817235 0.668733 0.648165
O O12 0.688712 0.363252 0.852290
O O13 0.626469 0.753573 0.892088
O O14 0.989661 0.226811 0.759018
O O15 0.911426 0.468140 0.976368
O O16 0.684226 0.976964 0.928009
#
# Coordination Sequence:
#
# PCOD9248068 Si02
#       8
#     4   4   4   4   4   4   4   4
#     4  11  21  42  68  99 134 178 242 291 345 425
#     4  11  24  45  67 102 141 177 239 290 348 434
#     4  11  23  40  73 100 128 177 232 292 348 423
#     4  10  24  44  61  97 140 180 224 285 365 419
#     4  11  25  46  68 101 147 192 231 294 370 435
#     4  10  22  41  63  99 136 182 230 293 348 429
#     4  11  21  43  67  98 133 173 230 285 356 421
#     4  11  22  41  70  94 132 182 222 294 351 421
#
# _framework density 24.222276999999998
#
# number of rings (size 3 to 8) (size 9 to 14) (size 15 to 20)
#    0.000    1.250    5.000    0.750    1.750    3.000 
#    2.250    0.625    0.000    0.000    0.000    0.000 
#    0.000    0.000    0.000    0.000    0.000    0.000 
#
# Total GULP energy -178434.226460 kJ/mol
# GULP energy per Si atom -5576.069577 kJ/mol
# Density = 2.416715 g / cm^3
# Si number density = 24.222277 Si / 1000 Ang^3
#
#
#
# Elastic Constant Matrix: (Units=GPa)
#
#
# Indices 1 2 3 4 5 6 
#
# 1 87.0245 11.0128 53.8150 0.0000 17.0853 0.0000
# 2 11.0128 33.6326 25.4496 0.0000 6.2715 0.0000
# 3 53.8150 25.4496 160.7244 0.0000 13.4108 0.0000
# 4 0.0000 0.0000 0.0000 22.0096 0.0000 -5.4746
# 5 17.0853 6.2715 13.4108 0.0000 57.2939 0.0000
# 6 0.0000 0.0000 0.0000 -5.4746 0.0000 16.9304
#
#
#
# Elastic Compliance Matrix: (Units=1/GPa)
#
#
# Indices 1 2 3 4 5 6 
#
# 1 0.015129 -0.000806 -0.004660 0.000000 -0.003333 0.000000
# 2 -0.000806 0.034177 -0.004946 0.000000 -0.002343 0.000000
# 3 -0.004660 -0.004946 0.008572 0.000000 -0.000075 0.000000
# 4 0.000000 0.000000 0.000000 0.049409 0.000000 0.015977
# 5 -0.003333 -0.002343 -0.000075 0.000000 0.018722 0.000000
# 6 0.000000 0.000000 0.000000 0.015977 0.000000 0.064231
#
#
# Mechanical properties :
#
#
# Convention : Reuss Voigt Hill
#
# Bulk Modulus (GPa) = 26.98876 51.32623 39.15749
# Shear Modulus (GPa) = 22.37992 31.98707 27.18349
#
# Velocity S-wave (km/s) = 3.04294 3.63790 3.35364
# Velocity P-wave (km/s) = 4.84894 6.23550 5.58541
#
# Compressibility (1/GPa) = 0.03705246
#
# Stress axis : x y z
#
# Youngs Moduli (GPa) = 66.09856 29.25967 116.66501
#
# Poissons Ratio (x) = 0.02359 0.54364
# Poissons Ratio (y) = 0.05330 0.57704
# Poissons Ratio (z) = 0.30801 0.14472
#
# Static dielectric constant tensor:
#      x y z
#    x 1.983700 0.000000 -0.052230 
#    y 0.000000 2.037930 0.000000 
#    z -0.052230 0.000000 2.026590 
# 
# From -- ./inp_files/62483.got.cif
#   From: 2010.05.17/outbox.cif.g08.bks.cpg/sg14_32_cif.got.tgz:62483.got - 2010.06.03 17:49:19.
