data_PCOD9248693
_publ_section_title
;
Structure prediction by ZEFSAII (Michael W. Deem and Ramdas Pophale) SiO2 
 PCOD9248693
Probable space group: P 21/C
;
_chemical_formula_sum "Si O2"
_cell_formula_units_Z 24
_cell_length_a 11.304595
_cell_length_b 10.977138
_cell_length_c 14.679732
_cell_angle_alpha 90.000000
_cell_angle_beta 149.016963
_cell_angle_gamma 90.000000
_cell_volume 937.750997
_symmetry_space_group_name_H-M "P 21/C"
_symmetry_group_IT_number 14
_symmetry_cell_setting 'monoclinic'
loop_
_space_group_symop_operation_xyz
x,y,z
-x,1/2+y,1/2-z
-x,-y,-z
x,1/2-y,1/2+z
loop_
_atom_site_type_symbol
_atom_site_label
_atom_site_fract_x
_atom_site_fract_y
_atom_site_fract_z
Si Si1 0.315223 0.390142 0.117270
Si Si2 0.752140 0.782719 0.246173
Si Si3 0.395787 0.920164 0.516268
Si Si4 0.041914 0.152327 0.880320
Si Si5 0.535396 0.596066 0.441374
Si Si6 0.214033 0.722600 0.625107
O O1 0.273700 0.394609 0.198526
O O2 0.312621 0.503142 0.048381
O O3 0.568810 0.338203 0.275121
O O4 0.143748 0.287093 0.965645
O O5 0.594688 0.672566 0.178462
O O6 0.659114 0.799259 0.083938
O O7 0.019508 0.756310 0.425517
O O8 0.167552 0.854812 0.328100
O O9 0.500000 0.000000 0.500000
O O10 0.258733 0.068894 0.994329
O O11 0.912193 0.129443 0.889650
O O12 0.500000 0.500000 0.500000
O O13 0.320032 0.661842 0.251179
#
# Coordination Sequence:
#
# PCOD9248693 Si02
#       6
#     4   4   4   4   4   4
#     4  10  24  44  66 103 144 175 233 303 352 418
#     4  11  26  42  70 104 142 181 235 303 344 436
#     4  12  23  46  76 106 138 196 247 290 366 427
#     4  10  22  43  69  97 140 179 235 295 342 436
#     4  11  25  44  68  99 143 193 228 290 371 422
#     4  10  22  46  64  98 140 172 242 289 347 426
#
# _framework density 25.593146999999998
#
# number of rings (size 3 to 8) (size 9 to 14) (size 15 to 20)
#    0.000    1.333    3.333    1.000    7.000    5.333 
#    3.000    0.000    0.000    0.000    0.000    0.000 
#    0.000    0.000    0.000    0.000    0.000    0.000 
#
# Total GULP energy -134251.808831 kJ/mol
# GULP energy per Si atom -5593.825368 kJ/mol
# Density = 2.553490 g / cm^3
# Si number density = 25.593147 Si / 1000 Ang^3
#
#
#
# Elastic Constant Matrix: (Units=GPa)
#
#
# Indices 1 2 3 4 5 6 
#
# 1 95.8971 9.8638 33.5600 0.0000 2.7103 0.0000
# 2 9.8638 53.9212 53.6094 0.0000 -10.5574 0.0000
# 3 33.5600 53.6094 149.3206 0.0000 22.9819 0.0000
# 4 0.0000 0.0000 0.0000 22.8060 0.0000 -16.2177
# 5 2.7103 -10.5574 22.9819 0.0000 56.2463 0.0000
# 6 0.0000 0.0000 0.0000 -16.2177 0.0000 36.2222
#
#
#
# Elastic Compliance Matrix: (Units=1/GPa)
#
#
# Indices 1 2 3 4 5 6 
#
# 1 0.011376 0.001245 -0.003154 0.000000 0.000974 0.000000
# 2 0.001245 0.035898 -0.015149 0.000000 0.012868 0.000000
# 3 -0.003154 -0.015149 0.014148 0.000000 -0.008472 0.000000
# 4 0.000000 0.000000 0.000000 0.064330 0.000000 0.028802
# 5 0.000974 0.012868 -0.008472 0.000000 0.023609 0.000000
# 6 0.000000 0.000000 0.000000 0.028802 0.000000 0.040503
#
#
# Mechanical properties :
#
#
# Convention : Reuss Voigt Hill
#
# Bulk Modulus (GPa) = 36.61877 54.80059 45.70968
# Shear Modulus (GPa) = 21.45175 36.52863 28.99019
#
# Velocity S-wave (km/s) = 2.89828 3.78204 3.36926
# Velocity P-wave (km/s) = 5.05363 6.36635 5.74759
#
# Compressibility (1/GPa) = 0.02730840
#
# Stress axis : x y z
#
# Youngs Moduli (GPa) = 87.90505 27.85660 70.67912
#
# Poissons Ratio (x) = -0.03469 0.22290
# Poissons Ratio (y) = -0.10946 1.07069
# Poissons Ratio (z) = 0.27723 0.42199
#
# Static dielectric constant tensor:
#      x y z
#    x 2.112670 0.000000 -0.034510 
#    y 0.000000 2.206260 0.000000 
#    z -0.034510 0.000000 1.965480 
# 
# From -- ./inp_files/29882.got.cif
#   From: 2010.05.17/outbox.cif.g08.bks.cpg/sg14_15_cif.got.tgz:29882.got - 2010.06.03 17:49:19.
