data_PCOD9248179
_publ_section_title
;
Structure prediction by ZEFSAII (Michael W. Deem and Ramdas Pophale) SiO2 
 PCOD9248179
Probable space group: P 21/C
;
_chemical_formula_sum "Si O2"
_cell_formula_units_Z 32
_cell_length_a 13.642775
_cell_length_b 12.178656
_cell_length_c 24.218130
_cell_angle_alpha 90.000000
_cell_angle_beta 20.067987
_cell_angle_gamma 90.000000
_cell_volume 1380.726396
_symmetry_space_group_name_H-M "P 21/C"
_symmetry_group_IT_number 14
_symmetry_cell_setting 'monoclinic'
loop_
_space_group_symop_operation_xyz
x,y,z
-x,1/2+y,1/2-z
-x,-y,-z
x,1/2-y,1/2+z
loop_
_atom_site_type_symbol
_atom_site_label
_atom_site_fract_x
_atom_site_fract_y
_atom_site_fract_z
Si Si1 0.599758 0.853846 0.036428
Si Si2 0.260007 0.206368 0.240819
Si Si3 0.646136 0.681088 0.923786
Si Si4 0.670480 0.910802 0.583001
Si Si5 0.917580 0.043662 0.261059
Si Si6 0.661594 0.332931 0.107219
Si Si7 0.865223 0.002246 0.742043
Si Si8 0.787787 0.265343 0.164359
O O1 0.721829 0.752034 0.937297
O O2 0.871713 0.929665 0.899708
O O3 0.359439 0.904892 0.123813
O O4 0.426646 0.832997 0.182994
O O5 0.379595 0.255704 0.120545
O O6 0.390996 0.275023 0.221956
O O7 0.918286 0.203726 0.430430
O O8 0.299624 0.074368 0.215198
O O9 0.863080 0.584580 0.794146
O O10 0.362193 0.616307 0.092060
O O11 0.354931 0.855676 0.747370
O O12 0.842858 0.947694 0.436514
O O13 0.896299 0.818625 0.488842
O O14 0.645436 0.033791 0.622433
O O15 0.062285 0.069128 0.243355
O O16 0.731255 0.285915 0.130302
#
# Coordination Sequence:
#
# PCOD9248179 Si02
#       8
#     4   4   4   4   4   4   4   4
#     4  11  25  38  69  96 131 176 219 272 340 409
#     4  11  24  43  71  97 137 181 232 282 344 403
#     4  11  25  40  64  97 135 178 215 282 339 407
#     4  10  23  45  69  98 138 179 229 288 347 402
#     4  11  24  41  61  98 137 171 222 273 347 400
#     4  11  25  47  70 101 138 185 229 293 343 404
#     4  10  22  41  67  99 133 175 223 278 335 412
#     4  11  24  45  71  99 137 183 230 284 346 414
#
# _framework density 23.176206000000001
#
# number of rings (size 3 to 8) (size 9 to 14) (size 15 to 20)
#    0.000    1.250    1.250    3.750    7.000    3.000 
#    0.000    1.250    0.000    0.000    0.000    0.000 
#    0.000    0.000    0.000    0.000    0.000    0.000 
#
# Total GULP energy -178350.563262 kJ/mol
# GULP energy per Si atom -5573.455102 kJ/mol
# Density = 2.312346 g / cm^3
# Si number density = 23.176206 Si / 1000 Ang^3
#
#
#
# Elastic Constant Matrix: (Units=GPa)
#
#
# Indices 1 2 3 4 5 6 
#
# 1 51.8551 8.1460 7.6613 0.0000 0.4902 0.0000
# 2 8.1460 74.7378 28.7848 0.0000 -10.1978 0.0000
# 3 7.6613 28.7848 50.2124 0.0000 -2.0932 0.0000
# 4 0.0000 0.0000 0.0000 6.4188 0.0000 -21.8955
# 5 0.4902 -10.1978 -2.0932 0.0000 30.4290 0.0000
# 6 0.0000 0.0000 0.0000 -21.8955 0.0000 9.2348
#
#
#
# Elastic Compliance Matrix: (Units=1/GPa)
#
#
# Indices 1 2 3 4 5 6 
#
# 1 0.019850 -0.001427 -0.002250 0.000000 -0.000953 0.000000
# 2 -0.001427 0.018098 -0.009932 0.000000 0.005405 0.000000
# 3 -0.002250 -0.009932 0.025889 0.000000 -0.001511 0.000000
# 4 0.000000 0.000000 0.000000 -0.021981 0.000000 -0.052115
# 5 -0.000953 0.005405 -0.001511 0.000000 0.034586 0.000000
# 6 0.000000 0.000000 0.000000 -0.052115 0.000000 -0.015278
#
#
# Mechanical properties :
#
#
# Convention : Reuss Voigt Hill
#
# Bulk Modulus (GPa) = 27.30805 29.55441 28.43123
# Shear Modulus (GPa) = 49.70627 18.03073 33.86850
#
# Velocity S-wave (km/s) = 4.63613 2.79226 3.82691
# Velocity P-wave (km/s) = 6.36134 4.81408 5.64101
#
# Compressibility (1/GPa) = 0.03661924
#
# Stress axis : x y z
#
# Youngs Moduli (GPa) = 50.37747 55.25346 38.62578
#
# Poissons Ratio (x) = 0.07884 0.08693
# Poissons Ratio (y) = 0.07188 0.38363
# Poissons Ratio (z) = 0.11337 0.54878
#
# Static dielectric constant tensor:
#      x y z
#    x 1.889280 0.000000 -0.041960 
#    y 0.000000 2.000550 0.000000 
#    z -0.041960 0.000000 1.877570 
# 
# From -- ./inp_files/77587.got.cif
#   From: 2010.05.17/outbox.cif.g08.bks.cpg/sg14_39_cif.got.tgz:77587.got - 2010.06.03 17:49:19.
