data_PCOD9248713
_publ_section_title
;
Structure prediction by ZEFSAII (Michael W. Deem and Ramdas Pophale) SiO2 
 PCOD9248713
Probable space group: P 21/C
;
_chemical_formula_sum "Si O2"
_cell_formula_units_Z 30
_cell_length_a 10.381206
_cell_length_b 17.552439
_cell_length_c 10.406407
_cell_angle_alpha 90.000000
_cell_angle_beta 38.646998
_cell_angle_gamma 90.000000
_cell_volume 1184.220975
_symmetry_space_group_name_H-M "P 21/C"
_symmetry_group_IT_number 14
_symmetry_cell_setting 'monoclinic'
loop_
_space_group_symop_operation_xyz
x,y,z
-x,1/2+y,1/2-z
-x,-y,-z
x,1/2-y,1/2+z
loop_
_atom_site_type_symbol
_atom_site_label
_atom_site_fract_x
_atom_site_fract_y
_atom_site_fract_z
Si Si1 0.402740 0.422971 0.235412
Si Si2 0.952304 0.437284 0.242593
Si Si3 0.173676 0.629307 0.157186
Si Si4 0.261318 0.792103 0.001374
Si Si5 0.916950 0.810642 0.062373
Si Si6 0.238076 0.410403 0.649762
Si Si7 0.296496 0.166031 0.362774
Si Si8 0.000000 0.500000 0.500000
O O1 0.640866 0.425393 0.019808
O O2 0.365390 0.407924 0.417346
O O3 0.257943 0.491685 0.310375
O O4 0.296990 0.351832 0.240974
O O5 0.800787 0.365508 0.369430
O O6 0.823942 0.502766 0.268870
O O7 0.000130 0.470179 0.346179
O O8 0.166080 0.403018 0.022935
O O9 0.265057 0.714441 0.079164
O O10 0.045210 0.620313 0.391036
O O11 0.989115 0.623586 0.200352
O O12 0.070454 0.784893 0.051473
O O13 0.479339 0.808961 0.762088
O O14 0.851132 0.740490 0.024425
O O15 0.334129 0.360433 0.686611
#
# Coordination Sequence:
#
# PCOD9248713 Si02
#       8
#     4   4   4   4   4   4   4   2
#     4  10  22  43  70  98 140 180 226 291 353 410
#     4  11  25  46  67 101 147 184 236 293 349 424
#     4  11  23  43  71 102 135 193 228 287 367 410
#     4  12  25  41  71 106 134 187 236 290 360 415
#     4  11  23  42  65 103 140 168 237 296 341 420
#     4  10  25  45  67  99 144 184 232 290 350 425
#     4  12  25  43  73 102 140 187 237 292 352 421
#     4  10  22  44  70  96 144 184 220 298 338 414
#
# _framework density 25.333110000000001
#
# number of rings (size 3 to 8) (size 9 to 14) (size 15 to 20)
#    0.000    1.067    5.333    0.400    1.867    4.800 
#    0.000    2.667    0.000    0.000    0.000    0.000 
#    0.000    0.000    0.000    0.000    0.000    0.000 
#
# Total GULP energy -167415.600828 kJ/mol
# GULP energy per Si atom -5580.520028 kJ/mol
# Density = 2.527545 g / cm^3
# Si number density = 25.333110 Si / 1000 Ang^3
#
#
#
# Elastic Constant Matrix: (Units=GPa)
#
#
# Indices 1 2 3 4 5 6 
#
# 1 60.6280 -0.7632 30.1754 0.0000 -11.8950 0.0000
# 2 -0.7632 91.2090 20.7448 0.0000 -7.7033 0.0000
# 3 30.1754 20.7448 142.1849 0.0000 -23.4505 0.0000
# 4 0.0000 0.0000 0.0000 31.5771 0.0000 1.6609
# 5 -11.8950 -7.7033 -23.4505 0.0000 26.6256 0.0000
# 6 0.0000 0.0000 0.0000 1.6609 0.0000 30.3254
#
#
#
# Elastic Compliance Matrix: (Units=1/GPa)
#
#
# Indices 1 2 3 4 5 6 
#
# 1 0.019364 0.001433 -0.003303 0.000000 0.006156 0.000000
# 2 0.001433 0.011551 -0.001559 0.000000 0.002609 0.000000
# 3 -0.003303 -0.001559 0.008943 0.000000 0.005950 0.000000
# 4 0.000000 0.000000 0.000000 0.031760 0.000000 -0.001739
# 5 0.006156 0.002609 0.005950 0.000000 0.046303 0.000000
# 6 0.000000 0.000000 0.000000 -0.001739 0.000000 0.033071
#
#
# Mechanical properties :
#
#
# Convention : Reuss Voigt Hill
#
# Bulk Modulus (GPa) = 30.30369 43.81511 37.05940
# Shear Modulus (GPa) = 29.61212 33.96329 31.78770
#
# Velocity S-wave (km/s) = 3.42264 3.66549 3.54614
# Velocity P-wave (km/s) = 5.25427 5.93696 5.60602
#
# Compressibility (1/GPa) = 0.03299928
#
# Stress axis : x y z
#
# Youngs Moduli (GPa) = 51.64224 86.57420 111.82047
#
# Poissons Ratio (x) = -0.12409 0.36938
# Poissons Ratio (y) = -0.07402 0.17434
# Poissons Ratio (z) = 0.17059 0.13498
#
# Static dielectric constant tensor:
#      x y z
#    x 1.953100 0.000000 0.052910 
#    y 0.000000 1.950450 0.000000 
#    z 0.052910 0.000000 1.982210 
# 
# From -- ./inp_files/30739.got.cif
#   From: 2010.05.17/outbox.cif.g08.bks.cpg/sg14_16_cif.got.tgz:30739.got - 2010.06.03 17:49:19.
