data_PCOD9248810
_publ_section_title
;
Structure prediction by ZEFSAII (Michael W. Deem and Ramdas Pophale) SiO2 
 PCOD9248810
Probable space group: P 21/C
;
_chemical_formula_sum "Si O2"
_cell_formula_units_Z 20
_cell_length_a 12.099961
_cell_length_b 9.268140
_cell_length_c 9.840828
_cell_angle_alpha 90.000000
_cell_angle_beta 44.305150
_cell_angle_gamma 90.000000
_cell_volume 770.835897
_symmetry_space_group_name_H-M "P 21/C"
_symmetry_group_IT_number 14
_symmetry_cell_setting 'monoclinic'
loop_
_space_group_symop_operation_xyz
x,y,z
-x,1/2+y,1/2-z
-x,-y,-z
x,1/2-y,1/2+z
loop_
_atom_site_type_symbol
_atom_site_label
_atom_site_fract_x
_atom_site_fract_y
_atom_site_fract_z
Si Si1 0.082874 0.908450 0.308259
Si Si2 0.606083 0.704788 0.152266
Si Si3 0.325678 0.074705 0.674423
Si Si4 0.674095 0.391955 0.194254
Si Si5 0.934662 0.096018 0.226873
O O1 0.258081 0.886385 0.213317
O O2 0.004129 0.751748 0.369619
O O3 0.000000 0.000000 0.500000
O O4 0.059616 0.989953 0.187498
O O5 0.661663 0.827390 0.205505
O O6 0.600389 0.550231 0.232139
O O7 0.443058 0.763201 0.234717
O O8 0.706961 0.676012 0.928249
O O9 0.500000 0.000000 0.500000
O O10 0.176720 0.967874 0.793864
O O11 0.811221 0.377106 0.960267
#
# Coordination Sequence:
#
# PCOD9248810 Si02
#       5
#     4   4   4   4   4
#     4  10  23  44  67  94 133 179 234 276 338 414
#     4  11  22  41  69 100 139 181 225 285 349 408
#     4  11  22  43  67  99 141 176 233 284 350 404
#     4  10  23  41  64  99 139 174 230 276 345 407
#     4  10  22  44  67  91 139 178 223 288 339 407
#
# _framework density 25.945858000000001
#
# number of rings (size 3 to 8) (size 9 to 14) (size 15 to 20)
#    0.000    1.600    4.000    1.200    2.800    0.800 
#    0.000    4.000    0.000    0.000    0.000    0.000 
#    0.000    0.000    0.000    0.000    0.000    0.000 
#
# Total GULP energy -112060.713056 kJ/mol
# GULP energy per Si atom -5603.035653 kJ/mol
# Density = 2.588680 g / cm^3
# Si number density = 25.945858 Si / 1000 Ang^3
#
#
#
# Elastic Constant Matrix: (Units=GPa)
#
#
# Indices 1 2 3 4 5 6 
#
# 1 208.0999 87.6775 28.2974 0.0000 8.3684 0.0000
# 2 87.6775 98.7746 21.9449 0.0000 19.7522 0.0000
# 3 28.2974 21.9449 70.1565 0.0000 10.4213 0.0000
# 4 0.0000 0.0000 0.0000 29.9227 0.0000 3.1252
# 5 8.3684 19.7522 10.4213 0.0000 28.1905 0.0000
# 6 0.0000 0.0000 0.0000 3.1252 0.0000 65.1071
#
#
#
# Elastic Compliance Matrix: (Units=1/GPa)
#
#
# Indices 1 2 3 4 5 6 
#
# 1 0.008008 -0.007473 -0.001394 0.000000 0.003374 0.000000
# 2 -0.007473 0.019214 -0.001403 0.000000 -0.010726 0.000000
# 3 -0.001394 -0.001403 0.015922 0.000000 -0.004489 0.000000
# 4 0.000000 0.000000 0.000000 0.033588 0.000000 -0.001612
# 5 0.003374 -0.010726 -0.004489 0.000000 0.043646 0.000000
# 6 0.000000 0.000000 0.000000 -0.001612 0.000000 0.015437
#
#
# Mechanical properties :
#
#
# Convention : Reuss Voigt Hill
#
# Bulk Modulus (GPa) = 44.23859 72.54119 58.38989
# Shear Modulus (GPa) = 30.50855 40.58480 35.54668
#
# Velocity S-wave (km/s) = 3.43279 3.95930 3.70541
# Velocity P-wave (km/s) = 5.72708 6.99434 6.39219
#
# Compressibility (1/GPa) = 0.02260470
#
# Stress axis : x y z
#
# Youngs Moduli (GPa) = 124.87646 52.04438 62.80812
#
# Poissons Ratio (x) = 0.38895 0.08752
# Poissons Ratio (y) = 0.93326 0.08809
# Poissons Ratio (z) = 0.17402 0.07300
#
# Static dielectric constant tensor:
#      x y z
#    x 2.090580 0.000000 -0.083350 
#    y 0.000000 2.089650 0.000000 
#    z -0.083350 0.000000 2.095870 
# 
# From -- ./inp_files/27960.got.cif
#   From: 2010.05.17/outbox.cif.g08.bks.cpg/sg14_14_cif.got.tgz:27960.got - 2010.06.03 17:49:19.
