data_PCOD9248964
_publ_section_title
;
Structure prediction by ZEFSAII (Michael W. Deem and Ramdas Pophale) SiO2 
 PCOD9248964
Probable space group: P 21/C
;
_chemical_formula_sum "Si O2"
_cell_formula_units_Z 28
_cell_length_a 7.368767
_cell_length_b 11.679660
_cell_length_c 14.407440
_cell_angle_alpha 90.000000
_cell_angle_beta 72.588815
_cell_angle_gamma 90.000000
_cell_volume 1183.158787
_symmetry_space_group_name_H-M "P 21/C"
_symmetry_group_IT_number 14
_symmetry_cell_setting 'monoclinic'
loop_
_space_group_symop_operation_xyz
x,y,z
-x,1/2+y,1/2-z
-x,-y,-z
x,1/2-y,1/2+z
loop_
_atom_site_type_symbol
_atom_site_label
_atom_site_fract_x
_atom_site_fract_y
_atom_site_fract_z
Si Si1 0.017853 0.213067 0.565059
Si Si2 0.445739 0.161738 0.550278
Si Si3 0.011129 0.052317 0.181056
Si Si4 0.750752 0.392690 0.250669
Si Si5 0.011946 0.304811 0.364885
Si Si6 0.629737 0.422439 0.848414
Si Si7 0.427831 0.263183 0.739900
O O1 0.233074 0.168445 0.541205
O O2 0.971937 0.239858 0.465780
O O3 0.015866 0.333006 0.621586
O O4 0.870334 0.127708 0.637833
O O5 0.589500 0.156951 0.443552
O O6 0.472048 0.258961 0.623642
O O7 0.453754 0.043462 0.605616
O O8 0.844314 0.057512 0.282972
O O9 0.964711 0.942036 0.123682
O O10 0.201181 0.013590 0.208250
O O11 0.541421 0.345157 0.268055
O O12 0.855037 0.307204 0.308077
O O13 0.206789 0.257099 0.292026
O O14 0.514774 0.370585 0.779844
#
# Coordination Sequence:
#
# PCOD9248964 Si02
#       7
#     4   4   4   4   4   4   4
#     4  12  20  43  69  93 141 183 220 287 348 399
#     4  11  24  41  68 104 129 182 233 273 352 404
#     4  10  22  45  65  96 139 177 226 291 335 407
#     4  10  24  41  63  99 136 173 234 272 340 410
#     4  10  23  44  65  97 139 176 227 286 341 409
#     4  11  22  42  71  94 141 175 225 294 329 405
#     4  12  22  43  68  96 138 179 223 280 346 404
#
# _framework density 23.665462000000002
#
# number of rings (size 3 to 8) (size 9 to 14) (size 15 to 20)
#    0.857    0.286    7.143    0.429    0.000    2.286 
#    0.000    1.429    0.000    0.000    0.000    0.000 
#    0.000    0.000    0.000    0.000    0.000    0.000 
#
# Total GULP energy -156620.444692 kJ/mol
# GULP energy per Si atom -5593.587310 kJ/mol
# Density = 2.361160 g / cm^3
# Si number density = 23.665462 Si / 1000 Ang^3
#
#
#
# Elastic Constant Matrix: (Units=GPa)
#
#
# Indices 1 2 3 4 5 6 
#
# 1 75.5193 12.3628 38.9455 0.0000 6.5303 0.0000
# 2 12.3628 47.9926 7.9075 0.0000 3.4034 0.0000
# 3 38.9455 7.9075 149.3129 0.0000 15.1378 0.0000
# 4 0.0000 0.0000 0.0000 40.6842 0.0000 10.6617
# 5 6.5303 3.4034 15.1378 0.0000 31.2789 0.0000
# 6 0.0000 0.0000 0.0000 10.6617 0.0000 32.4134
#
#
#
# Elastic Compliance Matrix: (Units=1/GPa)
#
#
# Indices 1 2 3 4 5 6 
#
# 1 0.015875 -0.003378 -0.003852 0.000000 -0.001082 0.000000
# 2 -0.003378 0.021840 -0.000112 0.000000 -0.001617 0.000000
# 3 -0.003852 -0.000112 0.008019 0.000000 -0.003064 0.000000
# 4 0.000000 0.000000 0.000000 0.026898 0.000000 -0.008848
# 5 -0.001082 -0.001617 -0.003064 0.000000 0.033855 0.000000
# 6 0.000000 0.000000 0.000000 -0.008848 0.000000 0.033762
#
#
# Mechanical properties :
#
#
# Convention : Reuss Voigt Hill
#
# Bulk Modulus (GPa) = 32.20596 43.47295 37.83946
# Shear Modulus (GPa) = 30.25146 35.11590 32.68368
#
# Velocity S-wave (km/s) = 3.57921 3.85625 3.72031
# Velocity P-wave (km/s) = 5.54250 6.18363 5.87182
#
# Compressibility (1/GPa) = 0.03105015
#
# Stress axis : x y z
#
# Youngs Moduli (GPa) = 62.99331 45.78813 124.70919
#
# Poissons Ratio (x) = 0.15467 0.48038
# Poissons Ratio (y) = 0.21278 0.01392
# Poissons Ratio (z) = 0.24265 0.00511
#
# Static dielectric constant tensor:
#      x y z
#    x 1.906200 0.000000 0.025470 
#    y 0.000000 1.975830 0.000000 
#    z 0.025470 0.000000 1.845200 
# 
# From -- ./inp_files/40017.got.cif
#   From: 2010.05.17/outbox.cif.g08.bks.cpg/sg14_21_cif.got.tgz:40017.got - 2010.06.03 17:49:19.
