data_PCOD9248448
_publ_section_title
;
Structure prediction by ZEFSAII (Michael W. Deem and Ramdas Pophale) SiO2 
 PCOD9248448
Probable space group: P 21/C
;
_chemical_formula_sum "Si O2"
_cell_formula_units_Z 28
_cell_length_a 5.589370
_cell_length_b 20.289851
_cell_length_c 13.296110
_cell_angle_alpha 90.000000
_cell_angle_beta 53.125632
_cell_angle_gamma 90.000000
_cell_volume 1206.232118
_symmetry_space_group_name_H-M "P 21/C"
_symmetry_group_IT_number 14
_symmetry_cell_setting 'monoclinic'
loop_
_space_group_symop_operation_xyz
x,y,z
-x,1/2+y,1/2-z
-x,-y,-z
x,1/2-y,1/2+z
loop_
_atom_site_type_symbol
_atom_site_label
_atom_site_fract_x
_atom_site_fract_y
_atom_site_fract_z
Si Si1 0.140278 0.778532 0.732051
Si Si2 0.824203 0.937217 0.001879
Si Si3 0.527381 0.712714 0.963009
Si Si4 0.783212 0.600045 0.291629
Si Si5 0.302029 0.966590 0.270860
Si Si6 0.788004 0.179615 0.066503
Si Si7 0.615781 0.562063 0.905544
O O1 0.428419 0.756747 0.595884
O O2 0.255957 0.810779 0.804517
O O3 0.856655 0.733272 0.837101
O O4 0.985391 0.838540 0.710877
O O5 0.491726 0.948904 0.123890
O O6 0.894679 0.934733 0.865511
O O7 0.924387 0.865947 0.020169
O O8 0.000000 0.000000 0.000000
O O9 0.269380 0.748263 0.962217
O O10 0.516814 0.634374 0.965891
O O11 0.733753 0.545975 0.219788
O O12 0.476578 0.633227 0.405380
O O13 0.483749 0.945802 0.325145
O O14 0.972549 0.938719 0.334574
O O15 0.500000 0.500000 0.000000
#
# Coordination Sequence:
#
# PCOD9248448 Si02
#       7
#     4   4   4   4   4   4   4
#     4  10  25  47  73 101 147 200 254 313 383 468
#     4  11  22  40  72 113 155 194 254 318 387 464
#     4  11  27  48  74 106 151 199 262 315 392 467
#     4  10  22  42  69 106 146 197 245 305 389 457
#     4  12  26  44  78 109 153 196 256 325 388 458
#     4  10  24  44  70 106 146 203 244 315 384 464
#     4  12  30  50  74 111 148 204 262 329 392 470
#
# _framework density 23.212779000000001
#
# number of rings (size 3 to 8) (size 9 to 14) (size 15 to 20)
#    0.000    1.143    1.429    2.571   10.000    4.571 
#    0.000    0.000    0.000    0.000    0.000    0.000 
#    0.000    0.000    0.000    0.000    0.000    0.000 
#
# Total GULP energy -156212.576626 kJ/mol
# GULP energy per Si atom -5579.020594 kJ/mol
# Density = 2.315995 g / cm^3
# Si number density = 23.212779 Si / 1000 Ang^3
#
#
#
# Elastic Constant Matrix: (Units=GPa)
#
#
# Indices 1 2 3 4 5 6 
#
# 1 78.1154 29.4936 23.1495 0.0000 -7.2663 0.0000
# 2 29.4936 125.6925 49.0403 0.0000 -19.7799 0.0000
# 3 23.1495 49.0403 101.2906 0.0000 -17.0170 0.0000
# 4 0.0000 0.0000 0.0000 21.2930 0.0000 12.0171
# 5 -7.2663 -19.7799 -17.0170 0.0000 26.3104 0.0000
# 6 0.0000 0.0000 0.0000 12.0171 0.0000 32.2576
#
#
#
# Elastic Compliance Matrix: (Units=1/GPa)
#
#
# Indices 1 2 3 4 5 6 
#
# 1 0.014395 -0.002486 -0.001944 0.000000 0.000850 0.000000
# 2 -0.002486 0.010817 -0.003835 0.000000 0.004965 0.000000
# 3 -0.001944 -0.003835 0.013013 0.000000 0.004997 0.000000
# 4 0.000000 0.000000 0.000000 0.059467 0.000000 -0.022153
# 5 0.000850 0.004965 0.004997 0.000000 0.045207 0.000000
# 6 0.000000 0.000000 0.000000 -0.022153 0.000000 0.039253
#
#
# Mechanical properties :
#
#
# Convention : Reuss Voigt Hill
#
# Bulk Modulus (GPa) = 46.09052 56.49614 51.29333
# Shear Modulus (GPa) = 24.28223 29.53321 26.90772
#
# Velocity S-wave (km/s) = 3.23781 3.57078 3.40836
# Velocity P-wave (km/s) = 5.82037 6.43365 6.13468
#
# Compressibility (1/GPa) = 0.02169644
#
# Stress axis : x y z
#
# Youngs Moduli (GPa) = 69.46776 92.44964 76.84706
#
# Poissons Ratio (x) = 0.22981 0.14937
# Poissons Ratio (y) = 0.17268 0.29469
# Poissons Ratio (z) = 0.13503 0.35452
#
# Static dielectric constant tensor:
#      x y z
#    x 2.071670 0.000000 -0.016210 
#    y 0.000000 1.896460 0.000000 
#    z -0.016210 0.000000 1.937570 
# 
# From -- ./inp_files/38058.got.cif
#   From: 2010.05.17/outbox.cif.g08.bks.cpg/sg14_20_cif.got.tgz:38058.got - 2010.06.03 17:49:19.
