data_PCOD9248849
_publ_section_title
;
Structure prediction by ZEFSAII (Michael W. Deem and Ramdas Pophale) SiO2 
 PCOD9248849
Probable space group: P 21/C
;
_chemical_formula_sum "Si O2"
_cell_formula_units_Z 32
_cell_length_a 20.034367
_cell_length_b 14.099146
_cell_length_c 14.069848
_cell_angle_alpha 90.000000
_cell_angle_beta 22.394503
_cell_angle_gamma 90.000000
_cell_volume 1514.125673
_symmetry_space_group_name_H-M "P 21/C"
_symmetry_group_IT_number 14
_symmetry_cell_setting 'monoclinic'
loop_
_space_group_symop_operation_xyz
x,y,z
-x,1/2+y,1/2-z
-x,-y,-z
x,1/2-y,1/2+z
loop_
_atom_site_type_symbol
_atom_site_label
_atom_site_fract_x
_atom_site_fract_y
_atom_site_fract_z
Si Si1 0.247777 0.412008 0.397419
Si Si2 0.189296 0.970683 0.786376
Si Si3 0.509852 0.535069 0.748629
Si Si4 0.350603 0.725537 0.868547
Si Si5 0.916341 0.262531 0.617738
Si Si6 0.309924 0.258491 0.173600
Si Si7 0.111437 0.871948 0.525026
Si Si8 0.662184 0.968861 0.850982
O O1 0.230893 0.486753 0.334122
O O2 0.363558 0.452176 0.329425
O O3 0.327800 0.316486 0.247286
O O4 0.059224 0.384943 0.686666
O O5 0.331918 0.009315 0.523440
O O6 0.176708 0.856781 0.801262
O O7 0.000000 0.000000 0.000000
O O8 0.440993 0.637037 0.802681
O O9 0.613768 0.496247 0.521096
O O10 0.519205 0.785364 0.613877
O O11 0.203540 0.766477 0.133451
O O12 0.253596 0.682432 0.903472
O O13 0.923160 0.186633 0.524966
O O14 0.117002 0.282614 0.386064
O O15 0.312851 0.144438 0.182660
O O16 0.176762 0.974710 0.405331
O O17 0.500000 0.000000 0.000000
#
# Coordination Sequence:
#
# PCOD9248849 Si02
#       8
#     4   4   4   4   4   4   4   4
#     4  12  25  44  71 104 143 180 231 300 342 422
#     4  11  23  46  72  99 139 185 229 289 355 413
#     4  10  23  43  68 102 138 176 239 288 342 418
#     4  10  22  44  68  98 140 176 233 291 340 421
#     4  11  25  46  69 103 137 184 229 288 351 417
#     4  11  23  44  72 102 137 182 235 282 354 412
#     4  12  24  46  70  99 141 181 230 290 349 417
#     4  11  24  45  72  98 137 187 232 283 350 414
#
# _framework density 21.134308999999998
#
# number of rings (size 3 to 8) (size 9 to 14) (size 15 to 20)
#    0.000    1.000    5.000    2.625    3.500    4.000 
#    2.250    0.000    0.000    0.000    0.000    0.000 
#    0.000    0.000    0.000    0.000    0.000    0.000 
#
# Total GULP energy -178777.329849 kJ/mol
# GULP energy per Si atom -5586.791558 kJ/mol
# Density = 2.108621 g / cm^3
# Si number density = 21.134309 Si / 1000 Ang^3
#
#
#
# Elastic Constant Matrix: (Units=GPa)
#
#
# Indices 1 2 3 4 5 6 
#
# 1 128.4723 19.4208 39.4240 0.0000 15.1279 0.0000
# 2 19.4208 55.3189 22.9067 0.0000 12.1393 0.0000
# 3 39.4240 22.9067 161.1823 0.0000 30.4104 0.0000
# 4 0.0000 0.0000 0.0000 31.3206 0.0000 5.6001
# 5 15.1279 12.1393 30.4104 0.0000 39.1403 0.0000
# 6 0.0000 0.0000 0.0000 5.6001 0.0000 41.2412
#
#
#
# Elastic Compliance Matrix: (Units=1/GPa)
#
#
# Indices 1 2 3 4 5 6 
#
# 1 0.008758 -0.002095 -0.001556 0.000000 -0.001526 0.000000
# 2 -0.002095 0.020408 -0.001578 0.000000 -0.004294 0.000000
# 3 -0.001556 -0.001578 0.007737 0.000000 -0.004921 0.000000
# 4 0.000000 0.000000 0.000000 0.032722 0.000000 -0.004443
# 5 -0.001526 -0.004294 -0.004921 0.000000 0.031294 0.000000
# 6 0.000000 0.000000 0.000000 -0.004443 0.000000 0.024851
#
#
# Mechanical properties :
#
#
# Convention : Reuss Voigt Hill
#
# Bulk Modulus (GPa) = 37.81494 56.49738 47.15616
# Shear Modulus (GPa) = 34.47223 39.88856 37.18040
#
# Velocity S-wave (km/s) = 4.04307 4.34912 4.19888
# Velocity P-wave (km/s) = 6.30292 7.21182 6.77263
#
# Compressibility (1/GPa) = 0.02644457
#
# Stress axis : x y z
#
# Youngs Moduli (GPa) = 114.18392 49.00002 129.24103
#
# Poissons Ratio (x) = 0.10267 0.20116
# Poissons Ratio (y) = 0.23925 0.20391
# Poissons Ratio (z) = 0.17772 0.07731
#
# Static dielectric constant tensor:
#      x y z
#    x 1.735650 0.000000 -0.003190 
#    y 0.000000 1.776490 0.000000 
#    z -0.003190 0.000000 1.793830 
# 
# From -- ./inp_files/50661.got.cif
#   From: 2010.05.17/outbox.cif.g08.bks.cpg/sg14_26_cif.got.tgz:50661.got - 2010.06.03 17:49:19.
