data_PCOD9248906
_publ_section_title
;
Structure prediction by ZEFSAII (Michael W. Deem and Ramdas Pophale) SiO2 
 PCOD9248906
Probable space group: P 21/C
;
_chemical_formula_sum "Si O2"
_cell_formula_units_Z 28
_cell_length_a 7.548019
_cell_length_b 23.503356
_cell_length_c 7.359475
_cell_angle_alpha 90.000000
_cell_angle_beta 52.653394
_cell_angle_gamma 90.000000
_cell_volume 1037.925206
_symmetry_space_group_name_H-M "P 21/C"
_symmetry_group_IT_number 14
_symmetry_cell_setting 'monoclinic'
loop_
_space_group_symop_operation_xyz
x,y,z
-x,1/2+y,1/2-z
-x,-y,-z
x,1/2-y,1/2+z
loop_
_atom_site_type_symbol
_atom_site_label
_atom_site_fract_x
_atom_site_fract_y
_atom_site_fract_z
Si Si1 0.088845 0.355109 0.570698
Si Si2 0.425777 0.833167 0.110344
Si Si3 0.672442 0.285579 0.931917
Si Si4 0.755653 0.049172 0.292495
Si Si5 0.824504 0.965431 0.570119
Si Si6 0.666051 0.632751 0.958326
Si Si7 0.326513 0.537374 0.571251
O O1 0.307036 0.336018 0.541834
O O2 0.172768 0.366622 0.314382
O O3 0.976269 0.414396 0.705634
O O4 0.897508 0.308022 0.700799
O O5 0.336833 0.781879 0.044490
O O6 0.347783 0.894910 0.098346
O O7 0.343801 0.816042 0.362772
O O8 0.451250 0.305868 0.958601
O O9 0.553096 0.093439 0.437640
O O10 0.763523 0.029088 0.079155
O O11 0.728222 0.998811 0.451032
O O12 0.790977 0.897956 0.544636
O O13 0.611372 0.972946 0.854584
O O14 0.098753 0.972517 0.349180
#
# Coordination Sequence:
#
# PCOD9248906 Si02
#       7
#     4   4   4   4   4   4   4
#     4  10  23  45  75 106 143 199 250 316 389 458
#     4  11  27  50  74 112 148 196 265 316 396 470
#     4  10  25  47  78 108 149 201 258 329 385 462
#     4  11  25  45  74 106 159 206 249 325 391 460
#     4  12  26  44  70 116 152 208 264 314 387 482
#     4  10  22  44  71 106 152 195 257 310 389 450
#     4  12  27  46  77 112 156 203 256 325 399 469
#
# _framework density 26.976893
#
# number of rings (size 3 to 8) (size 9 to 14) (size 15 to 20)
#    0.000    1.143    1.429    3.857   10.000    3.429 
#    2.571    0.000    0.000    0.000    0.000    0.000 
#    0.000    0.000    0.000    0.000    0.000    0.000 
#
# Total GULP energy -156972.121595 kJ/mol
# GULP energy per Si atom -5606.147200 kJ/mol
# Density = 2.691549 g / cm^3
# Si number density = 26.976893 Si / 1000 Ang^3
#
#
#
# Elastic Constant Matrix: (Units=GPa)
#
#
# Indices 1 2 3 4 5 6 
#
# 1 89.4040 43.8288 28.1577 0.0000 4.3186 0.0000
# 2 43.8288 188.5473 85.0324 0.0000 6.7637 0.0000
# 3 28.1577 85.0324 198.5780 0.0000 3.3075 0.0000
# 4 0.0000 0.0000 0.0000 30.0439 0.0000 0.7298
# 5 4.3186 6.7637 3.3075 0.0000 65.7390 0.0000
# 6 0.0000 0.0000 0.0000 0.7298 0.0000 50.6866
#
#
#
# Elastic Compliance Matrix: (Units=1/GPa)
#
#
# Indices 1 2 3 4 5 6 
#
# 1 0.012713 -0.002636 -0.000665 0.000000 -0.000530 0.000000
# 2 -0.002636 0.007139 -0.002676 0.000000 -0.000427 0.000000
# 3 -0.000665 -0.002676 0.006276 0.000000 0.000003 0.000000
# 4 0.000000 0.000000 0.000000 0.033296 0.000000 -0.000479
# 5 -0.000530 -0.000427 0.000003 0.000000 0.015290 0.000000
# 6 0.000000 0.000000 0.000000 -0.000479 0.000000 0.019736
#
#
# Mechanical properties :
#
#
# Convention : Reuss Voigt Hill
#
# Bulk Modulus (GPa) = 70.55662 87.84078 79.19870
# Shear Modulus (GPa) = 44.99321 50.59461 47.79391
#
# Velocity S-wave (km/s) = 4.08835 4.33538 4.21368
# Velocity P-wave (km/s) = 6.96401 7.59558 7.28664
#
# Compressibility (1/GPa) = 0.01417302
#
# Stress axis : x y z
#
# Youngs Moduli (GPa) = 78.66229 140.08348 159.34060
#
# Poissons Ratio (x) = 0.36929 0.10595
# Poissons Ratio (y) = 0.20737 0.42638
# Poissons Ratio (z) = 0.05230 0.37485
#
# Static dielectric constant tensor:
#      x y z
#    x 2.135560 0.000000 -0.010730 
#    y 0.000000 2.074100 0.000000 
#    z -0.010730 0.000000 2.094220 
# 
# From -- ./inp_files/11015.got.cif
#   From: 2010.05.17/outbox.cif.g08.bks.cpg/sg14_6_cif.got.tgz:11015.got - 2010.06.03 17:49:19.
