data_PCOD9248802
_publ_section_title
;
Structure prediction by ZEFSAII (Michael W. Deem and Ramdas Pophale) SiO2 
 PCOD9248802
Probable space group: P 21/C
;
_chemical_formula_sum "Si O2"
_cell_formula_units_Z 32
_cell_length_a 13.532302
_cell_length_b 22.946122
_cell_length_c 8.738864
_cell_angle_alpha 90.000000
_cell_angle_beta 147.610580
_cell_angle_gamma 90.000000
_cell_volume 1453.563453
_symmetry_space_group_name_H-M "P 21/C"
_symmetry_group_IT_number 14
_symmetry_cell_setting 'monoclinic'
loop_
_space_group_symop_operation_xyz
x,y,z
-x,1/2+y,1/2-z
-x,-y,-z
x,1/2-y,1/2+z
loop_
_atom_site_type_symbol
_atom_site_label
_atom_site_fract_x
_atom_site_fract_y
_atom_site_fract_z
Si Si1 0.656791 0.040050 0.129577
Si Si2 0.152062 0.318638 0.346317
Si Si3 0.688611 0.022792 0.818907
Si Si4 0.999296 0.933536 0.202081
Si Si5 0.474846 0.827541 0.063722
Si Si6 0.096537 0.201028 0.432316
Si Si7 0.426372 0.718148 0.174211
Si Si8 0.174400 0.864679 0.147691
O O1 0.834705 0.043978 0.472347
O O2 0.697440 0.016307 0.013584
O O3 0.582548 0.105749 0.008965
O O4 0.500000 0.000000 0.000000
O O5 0.087213 0.269507 0.380923
O O6 0.367401 0.304711 0.596723
O O7 0.112374 0.382773 0.354962
O O8 0.054872 0.309861 0.055338
O O9 0.707336 0.089798 0.795716
O O10 0.500000 0.000000 0.500000
O O11 0.859695 0.985265 0.980537
O O12 0.079495 0.902846 0.156696
O O13 0.694608 0.820253 0.328485
O O14 0.421045 0.787053 0.136117
O O15 0.387523 0.798618 0.797639
O O16 0.968417 0.165624 0.151570
O O17 0.292493 0.683951 0.887448
#
# Coordination Sequence:
#
# PCOD9248802 Si02
#       8
#     4   4   4   4   4   4   4   4
#     4  12  28  47  74 101 142 192 239 294 358 426
#     4  10  22  44  66  99 137 185 226 283 357 415
#     4  12  29  47  71 103 138 187 241 295 352 420
#     4  12  26  46  72  99 143 186 241 289 350 424
#     4  10  24  44  72 101 140 183 229 284 357 423
#     4  10  23  39  70  99 140 174 226 286 351 422
#     4  10  23  44  70 102 141 179 227 290 354 423
#     4  12  25  43  71 105 139 178 233 298 351 420
#
# _framework density 22.014863999999999
#
# number of rings (size 3 to 8) (size 9 to 14) (size 15 to 20)
#    0.000    1.000    1.250    3.750   10.500    2.000 
#    0.000    0.000    0.000    0.000    0.000    0.000 
#    0.000    0.000    0.000    0.000    0.000    0.000 
#
# Total GULP energy -179314.117817 kJ/mol
# GULP energy per Si atom -5603.566182 kJ/mol
# Density = 2.196476 g / cm^3
# Si number density = 22.014864 Si / 1000 Ang^3
#
#
#
# Elastic Constant Matrix: (Units=GPa)
#
#
# Indices 1 2 3 4 5 6 
#
# 1 58.7401 13.5488 2.3860 0.0000 -11.3240 0.0000
# 2 13.5488 110.9205 44.2134 0.0000 10.9337 0.0000
# 3 2.3860 44.2134 139.5256 0.0000 1.9353 0.0000
# 4 0.0000 0.0000 0.0000 10.3113 0.0000 -0.2016
# 5 -11.3240 10.9337 1.9353 0.0000 28.6018 0.0000
# 6 0.0000 0.0000 0.0000 -0.2016 0.0000 43.4204
#
#
#
# Elastic Compliance Matrix: (Units=1/GPa)
#
#
# Indices 1 2 3 4 5 6 
#
# 1 0.019561 -0.003547 0.000664 0.000000 0.009055 0.000000
# 2 -0.003547 0.011375 -0.003467 0.000000 -0.005518 0.000000
# 3 0.000664 -0.003467 0.008240 0.000000 0.001031 0.000000
# 4 0.000000 0.000000 0.000000 0.096989 0.000000 0.000450
# 5 0.009055 -0.005518 0.001031 0.000000 0.040588 0.000000
# 6 0.000000 0.000000 0.000000 0.000450 0.000000 0.023033
#
#
# Mechanical properties :
#
#
# Convention : Reuss Voigt Hill
#
# Bulk Modulus (GPa) = 37.77053 47.72027 42.74540
# Shear Modulus (GPa) = 22.59266 33.06925 27.83095
#
# Velocity S-wave (km/s) = 3.20698 3.87994 3.55940
# Velocity P-wave (km/s) = 5.55941 6.46493 6.02920
#
# Compressibility (1/GPa) = 0.02647567
#
# Stress axis : x y z
#
# Youngs Moduli (GPa) = 51.12239 87.91498 121.35606
#
# Poissons Ratio (x) = 0.31179 -0.08055
# Poissons Ratio (y) = 0.18131 0.42077
# Poissons Ratio (z) = -0.03393 0.30482
#
# Static dielectric constant tensor:
#      x y z
#    x 1.819790 0.000000 0.005310 
#    y 0.000000 1.798880 0.000000 
#    z 0.005310 0.000000 1.783880 
# 
# From -- ./inp_files/17015.got.cif
#   From: 2010.05.17/outbox.cif.g08.bks.cpg/sg14_9_cif.got.tgz:17015.got - 2010.06.03 17:49:19.
