data_PCOD9248482
_publ_section_title
;
Structure prediction by ZEFSAII (Michael W. Deem and Ramdas Pophale) SiO2 
 PCOD9248482
Probable space group: P 21/C
;
_chemical_formula_sum "Si O2"
_cell_formula_units_Z 32
_cell_length_a 7.317021
_cell_length_b 14.743769
_cell_length_c 17.114297
_cell_angle_alpha 90.000000
_cell_angle_beta 57.404729
_cell_angle_gamma 90.000000
_cell_volume 1555.500575
_symmetry_space_group_name_H-M "P 21/C"
_symmetry_group_IT_number 14
_symmetry_cell_setting 'monoclinic'
loop_
_space_group_symop_operation_xyz
x,y,z
-x,1/2+y,1/2-z
-x,-y,-z
x,1/2-y,1/2+z
loop_
_atom_site_type_symbol
_atom_site_label
_atom_site_fract_x
_atom_site_fract_y
_atom_site_fract_z
Si Si1 0.553890 0.899317 0.324210
Si Si2 0.766710 0.955675 0.533847
Si Si3 0.040800 0.325556 0.567317
Si Si4 0.892873 0.857505 0.359766
Si Si5 0.366016 0.609487 0.706682
Si Si6 0.661940 0.949472 0.904713
Si Si7 0.541060 0.296323 0.659644
Si Si8 0.682035 0.757721 0.623879
O O1 0.795288 0.877737 0.297697
O O2 0.536347 0.916297 0.235517
O O3 0.432815 0.806129 0.377805
O O4 0.426125 0.979989 0.394739
O O5 0.778676 0.931642 0.440237
O O6 0.729614 0.857999 0.581861
O O7 0.000000 0.000000 0.500000
O O8 0.137400 0.241753 0.596435
O O9 0.144211 0.412400 0.585869
O O10 0.125409 0.303553 0.459384
O O11 0.780544 0.328281 0.629816
O O12 0.149265 0.866686 0.302332
O O13 0.297625 0.527588 0.667922
O O14 0.471142 0.699171 0.643652
O O15 0.557193 0.866523 0.879555
O O16 0.500000 0.000000 0.000000
O O17 0.379610 0.277734 0.770895
#
# Coordination Sequence:
#
# PCOD9248482 Si02
#       8
#     4   4   4   4   4   4   4   4
#     4  11  21  41  66 100 136 175 226 287 348 410
#     4  11  21  39  70 101 136 177 229 295 354 407
#     4  11  22  46  70  99 137 181 233 282 349 414
#     4  11  22  41  68  99 134 179 228 287 349 417
#     4  11  23  44  65  95 141 179 228 290 339 416
#     4  12  26  45  68  98 141 184 234 285 342 418
#     4  11  24  44  72  97 141 184 225 286 349 420
#     4  10  22  42  70  97 137 183 223 286 348 410
#
# _framework density 20.572157000000001
#
# number of rings (size 3 to 8) (size 9 to 14) (size 15 to 20)
#    0.000    1.000    6.250    1.875    0.000    2.500 
#    4.500    1.250    5.500    0.000    0.000    0.000 
#    0.000    0.000    0.000    0.000    0.000    0.000 
#
# Total GULP energy -178218.114463 kJ/mol
# GULP energy per Si atom -5569.316077 kJ/mol
# Density = 2.052533 g / cm^3
# Si number density = 20.572157 Si / 1000 Ang^3
#
#
#
# Elastic Constant Matrix: (Units=GPa)
#
#
# Indices 1 2 3 4 5 6 
#
# 1 71.5305 11.1650 14.2787 0.0000 13.8427 0.0000
# 2 11.1650 101.6422 22.1637 0.0000 2.8964 0.0000
# 3 14.2787 22.1637 85.2626 0.0000 5.5342 0.0000
# 4 0.0000 0.0000 0.0000 41.0774 0.0000 3.7887
# 5 13.8427 2.8964 5.5342 0.0000 9.4625 0.0000
# 6 0.0000 0.0000 0.0000 3.7887 0.0000 27.5445
#
#
#
# Elastic Compliance Matrix: (Units=1/GPa)
#
#
# Indices 1 2 3 4 5 6 
#
# 1 0.019798 -0.001115 -0.001214 0.000000 -0.027911 0.000000
# 2 -0.001115 0.010518 -0.002541 0.000000 -0.000103 0.000000
# 3 -0.001214 -0.002541 0.012917 0.000000 -0.005001 0.000000
# 4 0.000000 0.000000 0.000000 0.024657 0.000000 -0.003392
# 5 -0.027911 -0.000103 -0.005001 0.000000 0.149467 0.000000
# 6 0.000000 0.000000 0.000000 -0.003392 0.000000 0.036771
#
#
# Mechanical properties :
#
#
# Convention : Reuss Voigt Hill
#
# Bulk Modulus (GPa) = 29.85652 39.29445 34.57549
# Shear Modulus (GPa) = 18.17973 29.67207 23.92590
#
# Velocity S-wave (km/s) = 2.97594 3.80194 3.41401
# Velocity P-wave (km/s) = 5.13351 6.19800 5.69070
#
# Compressibility (1/GPa) = 0.03349352
#
# Stress axis : x y z
#
# Youngs Moduli (GPa) = 50.51082 95.07667 77.41835
#
# Poissons Ratio (x) = 0.10597 0.09399
# Poissons Ratio (y) = 0.05630 0.19670
# Poissons Ratio (z) = 0.06132 0.24156
#
# Static dielectric constant tensor:
#      x y z
#    x 1.702660 0.000000 -0.011710 
#    y 0.000000 1.617990 0.000000 
#    z -0.011710 0.000000 1.708630 
# 
# From -- ./inp_files/55853.got.cif
#   From: 2010.05.17/outbox.cif.g08.bks.cpg/sg14_28_cif.got.tgz:55853.got - 2010.06.03 17:49:19.
