data_PCOD9248879
_publ_section_title
;
Structure prediction by ZEFSAII (Michael W. Deem and Ramdas Pophale) SiO2 
 PCOD9248879
Probable space group: P 21/C
;
_chemical_formula_sum "Si O2"
_cell_formula_units_Z 14
_cell_length_a 12.678268
_cell_length_b 4.846758
_cell_length_c 20.372383
_cell_angle_alpha 90.000000
_cell_angle_beta 21.669974
_cell_angle_gamma 90.000000
_cell_volume 462.258725
_symmetry_space_group_name_H-M "P 21/C"
_symmetry_group_IT_number 14
_symmetry_cell_setting 'monoclinic'
loop_
_space_group_symop_operation_xyz
x,y,z
-x,1/2+y,1/2-z
-x,-y,-z
x,1/2-y,1/2+z
loop_
_atom_site_type_symbol
_atom_site_label
_atom_site_fract_x
_atom_site_fract_y
_atom_site_fract_z
Si Si1 0.806396 0.817215 0.204332
Si Si2 0.354361 0.776780 0.806229
Si Si3 0.009191 0.508544 0.269350
Si Si4 0.500000 0.000000 0.000000
O O1 0.662907 0.576668 0.330118
O O2 0.618555 0.048221 0.276326
O O3 0.994910 0.968717 0.151501
O O4 0.034390 0.737566 0.017423
O O5 0.499001 0.482149 0.726126
O O6 0.239335 0.246065 0.115017
O O7 0.219932 0.780352 0.136439
#
# Coordination Sequence:
#
# PCOD9248879 Si02
#       4
#     4   4   4   2
#     4  10  24  44  74 111 151 202 259 320 389 462
#     4  11  26  47  75 109 155 207 263 317 384 471
#     4  10  23  40  64  99 140 187 238 299 374 447
#     4  10  22  44  70 102 148 190 244 314 382 448
#
# _framework density 30.286072000000001
#
# number of rings (size 3 to 8) (size 9 to 14) (size 15 to 20)
#    0.000    1.714    0.000    1.714    0.000   22.857 
#    0.000    0.000    0.000    0.000    0.000    0.000 
#    0.000    0.000    0.000    0.000    0.000    0.000 
#
# Total GULP energy -78184.517736 kJ/mol
# GULP energy per Si atom -5584.608410 kJ/mol
# Density = 3.021714 g / cm^3
# Si number density = 30.286072 Si / 1000 Ang^3
#
#
#
# Elastic Constant Matrix: (Units=GPa)
#
#
# Indices 1 2 3 4 5 6 
#
# 1 196.8127 82.3838 36.6079 0.0000 -20.1859 0.0000
# 2 82.3838 309.1210 99.6608 0.0000 4.2009 0.0000
# 3 36.6079 99.6608 148.6552 0.0000 -13.8908 0.0000
# 4 0.0000 0.0000 0.0000 51.6743 0.0000 4.9541
# 5 -20.1859 4.2009 -13.8908 0.0000 69.9202 0.0000
# 6 0.0000 0.0000 0.0000 4.9541 0.0000 80.7816
#
#
#
# Elastic Compliance Matrix: (Units=1/GPa)
#
#
# Indices 1 2 3 4 5 6 
#
# 1 0.005949 -0.001518 -0.000284 0.000000 0.001752 0.000000
# 2 -0.001518 0.004560 -0.002802 0.000000 -0.001269 0.000000
# 3 -0.000284 -0.002802 0.008848 0.000000 0.001844 0.000000
# 4 0.000000 0.000000 0.000000 0.019466 0.000000 -0.001194
# 5 0.001752 -0.001269 0.001844 0.000000 0.015250 0.000000
# 6 0.000000 0.000000 0.000000 -0.001194 0.000000 0.012452
#
#
# Mechanical properties :
#
#
# Convention : Reuss Voigt Hill
#
# Bulk Modulus (GPa) = 98.52505 121.32155 109.92330
# Shear Modulus (GPa) = 63.19862 69.53766 66.36814
#
# Velocity S-wave (km/s) = 4.57302 4.79689 4.68629
# Velocity P-wave (km/s) = 7.77724 8.41580 8.10281
#
# Compressibility (1/GPa) = 0.01014970
#
# Stress axis : x y z
#
# Youngs Moduli (GPa) = 168.10189 219.29508 113.02468
#
# Poissons Ratio (x) = 0.33284 0.03206
# Poissons Ratio (y) = 0.25514 0.31669
# Poissons Ratio (z) = 0.04769 0.61445
#
# Static dielectric constant tensor:
#      x y z
#    x 2.497480 0.000000 -0.227340 
#    y 0.000000 2.383440 0.000000 
#    z -0.227340 0.000000 2.216300 
# 
# From -- ./inp_files/38290.got.cif
#   From: 2010.05.17/outbox.cif.g08.bks.cpg/sg14_20_cif.got.tgz:38290.got - 2010.06.03 17:49:19.
