data_PCOD9248670
_publ_section_title
;
Structure prediction by ZEFSAII (Michael W. Deem and Ramdas Pophale) SiO2 
 PCOD9248670
Probable space group: P 21/C
;
_chemical_formula_sum "Si O2"
_cell_formula_units_Z 32
_cell_length_a 15.261361
_cell_length_b 10.860431
_cell_length_c 9.663644
_cell_angle_alpha 90.000000
_cell_angle_beta 85.934589
_cell_angle_gamma 90.000000
_cell_volume 1597.670013
_symmetry_space_group_name_H-M "P 21/C"
_symmetry_group_IT_number 14
_symmetry_cell_setting 'monoclinic'
loop_
_space_group_symop_operation_xyz
x,y,z
-x,1/2+y,1/2-z
-x,-y,-z
x,1/2-y,1/2+z
loop_
_atom_site_type_symbol
_atom_site_label
_atom_site_fract_x
_atom_site_fract_y
_atom_site_fract_z
Si Si1 0.974983 0.858902 0.640135
Si Si2 0.958648 0.360153 0.174718
Si Si3 0.767767 0.640328 0.107453
Si Si4 0.656733 0.257008 0.974857
Si Si5 0.670397 0.792946 0.343106
Si Si6 0.515474 0.621077 0.408746
Si Si7 0.559362 0.025797 0.360215
Si Si8 0.751890 0.370540 0.219455
O O1 0.872822 0.856349 0.607153
O O2 0.029617 0.842255 0.492015
O O3 0.994352 0.748742 0.745098
O O4 0.991213 0.998236 0.696213
O O5 0.855984 0.354252 0.224493
O O6 0.725941 0.743709 0.209439
O O7 0.736394 0.509597 0.171310
O O8 0.733232 0.657542 0.956618
O O9 0.637243 0.381849 0.893246
O O10 0.700904 0.161501 0.865199
O O11 0.561804 0.212725 0.036795
O O12 0.716203 0.284209 0.100683
O O13 0.609385 0.684707 0.412025
O O14 0.602953 0.899386 0.305726
O O15 0.500000 0.500000 0.500000
O O16 0.499531 0.586544 0.251060
O O17 0.500000 0.000000 0.500000
#
# Coordination Sequence:
#
# PCOD9248670 Si02
#       8
#     4   4   4   4   4   4   4   4
#     4  10  22  43  68  98 132 168 215 265 331 397
#     4  10  22  43  69  98 130 171 213 267 329 397
#     4  11  24  42  65  95 129 166 210 270 318 384
#     4  12  24  43  63  92 127 168 217 265 318 375
#     4  12  24  41  64  89 128 168 214 259 324 373
#     4  12  27  40  62  90 126 170 216 261 314 384
#     4  12  25  42  63  89 124 174 216 264 319 369
#     4  11  24  43  66  94 130 165 216 269 317 381
#
# _framework density 20.029167000000001
#
# number of rings (size 3 to 8) (size 9 to 14) (size 15 to 20)
#    0.000    0.750    3.750    3.750    3.500    0.500 
#    2.250    0.000    0.000    0.000    0.000    0.000 
#    0.000    0.000    0.000    0.000    0.000    0.000 
#
# Total GULP energy -178997.555283 kJ/mol
# GULP energy per Si atom -5593.673603 kJ/mol
# Density = 1.998358 g / cm^3
# Si number density = 20.029167 Si / 1000 Ang^3
#
#
#
# Elastic Constant Matrix: (Units=GPa)
#
#
# Indices 1 2 3 4 5 6 
#
# 1 43.4437 5.0603 7.8264 0.0000 -0.4290 0.0000
# 2 5.0603 81.6951 18.5228 0.0000 12.4404 0.0000
# 3 7.8264 18.5228 79.7026 0.0000 2.2191 0.0000
# 4 0.0000 0.0000 0.0000 36.2203 0.0000 2.7625
# 5 -0.4290 12.4404 2.2191 0.0000 36.3197 0.0000
# 6 0.0000 0.0000 0.0000 2.7625 0.0000 34.1448
#
#
#
# Elastic Compliance Matrix: (Units=1/GPa)
#
#
# Indices 1 2 3 4 5 6 
#
# 1 0.023529 -0.001106 -0.002075 0.000000 0.000784 0.000000
# 2 -0.001106 0.013663 -0.002941 0.000000 -0.004513 0.000000
# 3 -0.002075 -0.002941 0.013429 0.000000 0.000162 0.000000
# 4 0.000000 0.000000 0.000000 0.027780 0.000000 -0.002248
# 5 0.000784 -0.004513 0.000162 0.000000 0.029079 0.000000
# 6 0.000000 0.000000 0.000000 -0.002248 0.000000 0.029469
#
#
# Mechanical properties :
#
#
# Convention : Reuss Voigt Hill
#
# Bulk Modulus (GPa) = 26.05757 29.74005 27.89881
# Shear Modulus (GPa) = 30.86686 32.89910 31.88298
#
# Velocity S-wave (km/s) = 3.92994 4.05725 3.99410
# Velocity P-wave (km/s) = 5.79919 6.06869 5.93547
#
# Compressibility (1/GPa) = 0.03837656
#
# Stress axis : x y z
#
# Youngs Moduli (GPa) = 42.50127 73.18890 74.46358
#
# Poissons Ratio (x) = 0.08096 0.15452
# Poissons Ratio (y) = 0.04702 0.21900
# Poissons Ratio (z) = 0.08820 0.21525
#
# Static dielectric constant tensor:
#      x y z
#    x 1.679350 0.000000 -0.001380 
#    y 0.000000 1.735620 0.000000 
#    z -0.001380 0.000000 1.669960 
# 
# From -- ./inp_files/15799.got.cif
#   From: 2010.05.17/outbox.cif.g08.bks.cpg/sg14_8_cif.got.tgz:15799.got - 2010.06.03 17:49:19.
