data_PCOD9248918
_publ_section_title
;
Structure prediction by ZEFSAII (Michael W. Deem and Ramdas Pophale) SiO2 
 PCOD9248918
Probable space group: P 21/C
;
_chemical_formula_sum "Si O2"
_cell_formula_units_Z 22
_cell_length_a 6.779248
_cell_length_b 9.386561
_cell_length_c 14.750711
_cell_angle_alpha 90.000000
_cell_angle_beta 84.929232
_cell_angle_gamma 90.000000
_cell_volume 934.970579
_symmetry_space_group_name_H-M "P 21/C"
_symmetry_group_IT_number 14
_symmetry_cell_setting 'monoclinic'
loop_
_space_group_symop_operation_xyz
x,y,z
-x,1/2+y,1/2-z
-x,-y,-z
x,1/2-y,1/2+z
loop_
_atom_site_type_symbol
_atom_site_label
_atom_site_fract_x
_atom_site_fract_y
_atom_site_fract_z
Si Si1 0.614148 0.599311 0.676166
Si Si2 0.301295 0.957405 0.335170
Si Si3 0.500000 0.000000 0.500000
Si Si4 0.856190 0.337551 0.590727
Si Si5 0.077715 0.181032 0.252565
Si Si6 0.744434 0.249717 0.403911
O O1 0.488668 0.528282 0.762115
O O2 0.751776 0.483719 0.622661
O O3 0.744918 0.721537 0.718195
O O4 0.448406 0.658584 0.614280
O O5 0.279070 0.794616 0.368490
O O6 0.341020 0.040721 0.425918
O O7 0.118322 0.022831 0.288935
O O8 0.668561 0.098110 0.442317
O O9 0.865823 0.320111 0.482456
O O10 0.051094 0.321982 0.645386
O O11 0.879478 0.232870 0.310322
#
# Coordination Sequence:
#
# PCOD9248918 Si02
#       6
#     4   4   2   4   4   4
#     4  12  24  48  69 103 151 182 235 299 365 423
#     4  11  23  44  71 101 138 191 234 292 353 419
#     4  10  22  44  72 102 136 186 244 284 346 422
#     4  11  25  42  71 103 138 188 232 291 363 415
#     4  12  25  47  72 103 144 186 243 293 353 434
#     4  11  25  47  70 106 141 186 241 294 355 431
#
# _framework density 23.530152999999999
#
# number of rings (size 3 to 8) (size 9 to 14) (size 15 to 20)
#    0.000    0.727    3.636    3.818    0.000    5.091 
#    3.273    0.000    0.000    0.000    0.000    0.000 
#    0.000    0.000    0.000    0.000    0.000    0.000 
#
# Total GULP energy -122537.465163 kJ/mol
# GULP energy per Si atom -5569.884780 kJ/mol
# Density = 2.347660 g / cm^3
# Si number density = 23.530153 Si / 1000 Ang^3
#
#
#
# Elastic Constant Matrix: (Units=GPa)
#
#
# Indices 1 2 3 4 5 6 
#
# 1 69.0668 23.1518 33.0211 0.0000 29.6976 0.0000
# 2 23.1518 64.1714 15.0731 0.0000 -3.7099 0.0000
# 3 33.0211 15.0731 96.6341 0.0000 43.2062 0.0000
# 4 0.0000 0.0000 0.0000 20.4342 0.0000 7.6979
# 5 29.6976 -3.7099 43.2062 0.0000 41.8340 0.0000
# 6 0.0000 0.0000 0.0000 7.6979 0.0000 42.6607
#
#
#
# Elastic Compliance Matrix: (Units=1/GPa)
#
#
# Indices 1 2 3 4 5 6 
#
# 1 0.027050 -0.011838 0.003081 0.000000 -0.023434 0.000000
# 2 -0.011838 0.022733 -0.007728 0.000000 0.018401 0.000000
# 3 0.003081 -0.007728 0.021897 0.000000 -0.025487 0.000000
# 4 0.000000 0.000000 0.000000 0.052507 0.000000 -0.009475
# 5 -0.023434 0.018401 -0.025487 0.000000 0.068495 0.000000
# 6 0.000000 0.000000 0.000000 -0.009475 0.000000 0.025150
#
#
# Mechanical properties :
#
#
# Convention : Reuss Voigt Hill
#
# Bulk Modulus (GPa) = 25.83316 41.37381 33.60349
# Shear Modulus (GPa) = 18.96052 31.56087 25.26069
#
# Velocity S-wave (km/s) = 2.84174 3.66634 3.28006
# Velocity P-wave (km/s) = 4.66582 5.96190 5.35323
#
# Compressibility (1/GPa) = 0.03870993
#
# Stress axis : x y z
#
# Youngs Moduli (GPa) = 36.96825 43.98862 45.66896
#
# Poissons Ratio (x) = 0.52072 -0.14070
# Poissons Ratio (y) = 0.43762 0.35294
# Poissons Ratio (z) = -0.11389 0.33996
#
# Static dielectric constant tensor:
#      x y z
#    x 1.877110 0.000000 0.068960 
#    y 0.000000 1.694750 0.000000 
#    z 0.068960 0.000000 1.905700 
# 
# From -- ./inp_files/36977.got.cif
#   From: 2010.05.17/outbox.cif.g08.bks.cpg/sg14_19_cif.got.tgz:36977.got - 2010.06.03 17:49:19.
