data_PCOD9248214
_publ_section_title
;
Structure prediction by ZEFSAII (Michael W. Deem and Ramdas Pophale) SiO2 
 PCOD9248214
Probable space group: P 21/C
;
_chemical_formula_sum "Si O2"
_cell_formula_units_Z 28
_cell_length_a 22.860424
_cell_length_b 5.197287
_cell_length_c 14.603647
_cell_angle_alpha 90.000000
_cell_angle_beta 47.006809
_cell_angle_gamma 90.000000
_cell_volume 1269.105990
_symmetry_space_group_name_H-M "P 21/C"
_symmetry_group_IT_number 14
_symmetry_cell_setting 'monoclinic'
loop_
_space_group_symop_operation_xyz
x,y,z
-x,1/2+y,1/2-z
-x,-y,-z
x,1/2-y,1/2+z
loop_
_atom_site_type_symbol
_atom_site_label
_atom_site_fract_x
_atom_site_fract_y
_atom_site_fract_z
Si Si1 0.552884 0.246360 0.705644
Si Si2 0.680665 0.175460 0.215690
Si Si3 0.954575 0.247402 0.085548
Si Si4 0.781359 0.697318 0.080067
Si Si5 0.820730 0.575832 0.225450
Si Si6 0.139191 0.030673 0.679090
Si Si7 0.301601 0.710148 0.090403
O O1 0.499240 0.488897 0.734952
O O2 0.595662 0.305104 0.756794
O O3 0.623077 0.206687 0.556101
O O4 0.724046 0.450047 0.154622
O O5 0.678296 0.118945 0.327419
O O6 0.730785 0.950634 0.110930
O O7 0.865064 0.315448 0.145745
O O8 0.929873 0.167198 0.216618
O O9 0.000000 0.500000 0.000000
O O10 0.000000 0.000000 0.000000
O O11 0.818107 0.750761 0.139969
O O12 0.849148 0.612769 0.937076
O O13 0.870556 0.711261 0.251153
O O14 0.734462 0.496843 0.355150
O O15 0.227069 0.930696 0.619356
#
# Coordination Sequence:
#
# PCOD9248214 Si02
#       7
#     4   4   4   4   4   4   4
#     4  12  27  42  63  94 134 175 213 272 335 402
#     4  11  23  42  65  94 128 168 216 278 320 384
#     4  11  23  41  65  92 135 174 206 255 323 385
#     4  11  23  38  69 100 126 160 230 273 314 375
#     4  10  22  41  69  99 126 171 220 273 317 383
#     4  11  21  41  70  96 125 175 218 269 321 378
#     4  10  23  41  67  94 126 170 224 269 328 382
#
# _framework density 22.062774000000001
#
# number of rings (size 3 to 8) (size 9 to 14) (size 15 to 20)
#    0.000    1.143    4.286    1.714    4.000    1.143 
#    0.000    1.429    0.000    0.000    0.000    0.000 
#    0.000    0.000    0.000    0.000    0.000    0.000 
#
# Total GULP energy -156171.293201 kJ/mol
# GULP energy per Si atom -5577.546186 kJ/mol
# Density = 2.201256 g / cm^3
# Si number density = 22.062774 Si / 1000 Ang^3
#
#
#
# Elastic Constant Matrix: (Units=GPa)
#
#
# Indices 1 2 3 4 5 6 
#
# 1 7.4224 -6.8170 5.6543 0.0000 3.2951 0.0000
# 2 -6.8170 125.6293 23.0286 0.0000 -13.4720 0.0000
# 3 5.6543 23.0286 71.3302 0.0000 -6.0228 0.0000
# 4 0.0000 0.0000 0.0000 36.5865 0.0000 -11.0779
# 5 3.2951 -13.4720 -6.0228 0.0000 35.3533 0.0000
# 6 0.0000 0.0000 0.0000 -11.0779 0.0000 31.2759
#
#
#
# Elastic Compliance Matrix: (Units=1/GPa)
#
#
# Indices 1 2 3 4 5 6 
#
# 1 0.164266 0.010619 -0.017655 0.000000 -0.014271 0.000000
# 2 0.010619 0.009429 -0.003720 0.000000 0.001970 0.000000
# 3 -0.017655 -0.003720 0.016882 0.000000 0.003104 0.000000
# 4 0.000000 0.000000 0.000000 0.030616 0.000000 0.010844
# 5 -0.014271 0.001970 0.003104 0.000000 0.030895 0.000000
# 6 0.000000 0.000000 0.000000 0.010844 0.000000 0.035815
#
#
# Mechanical properties :
#
#
# Convention : Reuss Voigt Hill
#
# Bulk Modulus (GPa) = 5.91481 27.56817 16.74149
# Shear Modulus (GPa) = 13.66985 32.81088 23.24037
#
# Velocity S-wave (km/s) = 2.49185 3.86056 3.24909
# Velocity P-wave (km/s) = 3.31147 5.69160 4.65619
#
# Compressibility (1/GPa) = 0.16906712
#
# Stress axis : x y z
#
# Youngs Moduli (GPa) = 6.08769 106.05335 59.23569
#
# Poissons Ratio (x) = -1.12621 1.04578
# Poissons Ratio (y) = -0.06465 0.22034
# Poissons Ratio (z) = 0.10748 0.39448
#
# Static dielectric constant tensor:
#      x y z
#    x 1.864610 0.000000 0.006730 
#    y 0.000000 1.758550 0.000000 
#    z 0.006730 0.000000 1.865700 
# 
# From -- ./inp_files/51710.got.cif
#   From: 2010.05.17/outbox.cif.g08.bks.cpg/sg14_26_cif.got.tgz:51710.got - 2010.06.03 17:49:19.
