data_PCOD9248166
_publ_section_title
;
Structure prediction by ZEFSAII (Michael W. Deem and Ramdas Pophale) SiO2 
 PCOD9248166
Probable space group: P 21/C
;
_chemical_formula_sum "Si O2"
_cell_formula_units_Z 28
_cell_length_a 14.042898
_cell_length_b 7.731474
_cell_length_c 12.917033
_cell_angle_alpha 90.000000
_cell_angle_beta 59.035926
_cell_angle_gamma 90.000000
_cell_volume 1202.571514
_symmetry_space_group_name_H-M "P 21/C"
_symmetry_group_IT_number 14
_symmetry_cell_setting 'monoclinic'
loop_
_space_group_symop_operation_xyz
x,y,z
-x,1/2+y,1/2-z
-x,-y,-z
x,1/2-y,1/2+z
loop_
_atom_site_type_symbol
_atom_site_label
_atom_site_fract_x
_atom_site_fract_y
_atom_site_fract_z
Si Si1 0.147880 0.808320 0.913828
Si Si2 0.904287 0.592498 0.714092
Si Si3 0.597715 0.212532 0.291717
Si Si4 0.132549 0.887253 0.153082
Si Si5 0.298724 0.936926 0.575908
Si Si6 0.386355 0.439035 0.806495
Si Si7 0.835783 0.918611 0.662697
O O1 0.089462 0.915885 0.855371
O O2 0.280422 0.826376 0.820985
O O3 0.869769 0.400983 0.086355
O O4 0.129737 0.907053 0.031344
O O5 0.781314 0.587331 0.834399
O O6 0.915723 0.755332 0.629941
O O7 0.999488 0.614632 0.747063
O O8 0.604969 0.120813 0.398624
O O9 0.590551 0.419281 0.294885
O O10 0.498150 0.156933 0.273389
O O11 0.210206 0.719782 0.119275
O O12 0.180236 0.019633 0.209436
O O13 0.347668 0.975262 0.436534
O O14 0.276078 0.346185 0.827305
#
# Coordination Sequence:
#
# PCOD9248166 Si02
#       7
#     4   4   4   4   4   4   4
#     4  10  23  45  65  95 139 167 218 279 326 383
#     4  11  25  41  68  98 131 178 222 264 322 403
#     4  10  22  41  67  91 126 172 214 268 334 387
#     4  12  21  46  67  94 136 176 215 272 332 382
#     4  11  22  46  65  96 136 172 214 279 330 385
#     4  11  23  43  67  94 131 174 212 278 337 380
#     4  11  24  42  65  98 131 171 222 270 321 394
#
# _framework density 23.283436999999999
#
# number of rings (size 3 to 8) (size 9 to 14) (size 15 to 20)
#    0.000    1.143    7.143    1.714    4.000    1.714 
#    2.571    1.429    0.000    0.000    0.000    0.000 
#    0.000    0.000    0.000    0.000    0.000    0.000 
#
# Total GULP energy -156149.460886 kJ/mol
# GULP energy per Si atom -5576.766460 kJ/mol
# Density = 2.323044 g / cm^3
# Si number density = 23.283437 Si / 1000 Ang^3
#
#
#
# Elastic Constant Matrix: (Units=GPa)
#
#
# Indices 1 2 3 4 5 6 
#
# 1 139.2597 13.0091 -10.2609 0.0000 17.9702 0.0000
# 2 13.0091 43.3698 -3.3042 0.0000 -6.0883 0.0000
# 3 -10.2609 -3.3042 31.3968 0.0000 19.2906 0.0000
# 4 0.0000 0.0000 0.0000 8.4400 0.0000 8.5991
# 5 17.9702 -6.0883 19.2906 0.0000 25.7054 0.0000
# 6 0.0000 0.0000 0.0000 8.5991 0.0000 40.4593
#
#
#
# Elastic Compliance Matrix: (Units=1/GPa)
#
#
# Indices 1 2 3 4 5 6 
#
# 1 0.011806 -0.005373 0.016970 0.000000 -0.022261 0.000000
# 2 -0.005373 0.026350 -0.009511 0.000000 0.017135 0.000000
# 3 0.016970 -0.009511 0.083629 0.000000 -0.076876 0.000000
# 4 0.000000 0.000000 0.000000 0.151232 0.000000 -0.032142
# 5 -0.022261 0.017135 -0.076876 0.000000 0.116214 0.000000
# 6 0.000000 0.000000 0.000000 -0.032142 0.000000 0.031548
#
#
# Mechanical properties :
#
#
# Convention : Reuss Voigt Hill
#
# Bulk Modulus (GPa) = 7.93920 23.65715 15.79817
# Shear Modulus (GPa) = 10.90294 29.22642 20.06468
#
# Velocity S-wave (km/s) = 2.16630 3.54679 2.93876
# Velocity P-wave (km/s) = 3.11036 5.19187 4.27959
#
# Compressibility (1/GPa) = 0.12595729
#
# Stress axis : x y z
#
# Youngs Moduli (GPa) = 84.70379 37.95048 11.95758
#
# Poissons Ratio (x) = 0.20392 -0.20293
# Poissons Ratio (y) = 0.45515 0.11373
# Poissons Ratio (z) = -1.43747 0.36094
#
# Static dielectric constant tensor:
#      x y z
#    x 1.886140 0.000000 -0.041270 
#    y 0.000000 1.957630 0.000000 
#    z -0.041270 0.000000 1.935030 
# 
# From -- ./inp_files/31719.got.cif
#   From: 2010.05.17/outbox.cif.g08.bks.cpg/sg14_16_cif.got.tgz:31719.got - 2010.06.03 17:49:19.
