data_PCOD9248714
_publ_section_title
;
Structure prediction by ZEFSAII (Michael W. Deem and Ramdas Pophale) SiO2 
 PCOD9248714
Probable space group: P 21/C
;
_chemical_formula_sum "Si O2"
_cell_formula_units_Z 24
_cell_length_a 14.190543
_cell_length_b 5.981235
_cell_length_c 26.915167
_cell_angle_alpha 90.000000
_cell_angle_beta 153.237171
_cell_angle_gamma 90.000000
_cell_volume 1028.696681
_symmetry_space_group_name_H-M "P 21/C"
_symmetry_group_IT_number 14
_symmetry_cell_setting 'monoclinic'
loop_
_space_group_symop_operation_xyz
x,y,z
-x,1/2+y,1/2-z
-x,-y,-z
x,1/2-y,1/2+z
loop_
_atom_site_type_symbol
_atom_site_label
_atom_site_fract_x
_atom_site_fract_y
_atom_site_fract_z
Si Si1 0.089511 0.858515 0.779242
Si Si2 0.824594 0.053339 0.352988
Si Si3 0.862046 0.828640 0.576069
Si Si4 0.457844 0.532724 0.606324
Si Si5 0.583096 0.318483 0.999177
Si Si6 0.107570 0.691446 0.518325
O O1 0.301640 0.853157 0.910061
O O2 0.989460 0.616759 0.751371
O O3 0.054092 0.804950 0.704844
O O4 0.791682 0.143440 0.392794
O O5 0.027999 0.172503 0.425242
O O6 0.631679 0.066543 0.224926
O O7 0.910901 0.802563 0.397711
O O8 0.679003 0.647527 0.488291
O O9 0.747400 0.051407 0.540973
O O10 0.551285 0.694983 0.607020
O O11 0.287807 0.638188 0.563949
O O12 0.500000 0.500000 0.000000
O O13 0.000000 0.500000 0.500000
#
# Coordination Sequence:
#
# PCOD9248714 Si02
#       6
#     4   4   4   4   4   4
#     4  10  22  43  70  98 147 198 247 318 380 445
#     4  11  27  44  75 107 143 191 244 312 388 464
#     4  11  24  46  68 104 146 187 253 308 376 460
#     4  12  26  46  75 106 147 194 252 307 392 464
#     4  11  26  44  68 105 145 198 253 312 377 462
#     4  11  25  48  71 106 145 188 246 316 382 462
#
# _framework density 23.330492
#
# number of rings (size 3 to 8) (size 9 to 14) (size 15 to 20)
#    0.000    1.000    5.000    0.000    4.667    8.667 
#    0.000    0.000    0.000    0.000    0.000    0.000 
#    0.000    0.000    0.000    0.000    0.000    0.000 
#
# Total GULP energy -133640.467076 kJ/mol
# GULP energy per Si atom -5568.352795 kJ/mol
# Density = 2.327739 g / cm^3
# Si number density = 23.330492 Si / 1000 Ang^3
#
#
#
# Elastic Constant Matrix: (Units=GPa)
#
#
# Indices 1 2 3 4 5 6 
#
# 1 102.6488 41.1967 33.1595 0.0000 -10.2519 0.0000
# 2 41.1967 45.4250 8.5891 0.0000 7.8734 0.0000
# 3 33.1595 8.5891 93.5259 0.0000 -14.5263 0.0000
# 4 0.0000 0.0000 0.0000 38.3170 0.0000 -8.0581
# 5 -10.2519 7.8734 -14.5263 0.0000 28.3537 0.0000
# 6 0.0000 0.0000 0.0000 -8.0581 0.0000 52.5530
#
#
#
# Elastic Compliance Matrix: (Units=1/GPa)
#
#
# Indices 1 2 3 4 5 6 
#
# 1 0.019482 -0.018806 -0.003558 0.000000 0.010443 0.000000
# 2 -0.018806 0.042315 -0.000108 0.000000 -0.018605 0.000000
# 3 -0.003558 -0.000108 0.012786 0.000000 0.005294 0.000000
# 4 0.000000 0.000000 0.000000 0.026968 0.000000 0.004135
# 5 0.010443 -0.018605 0.005294 0.000000 0.046923 0.000000
# 6 0.000000 0.000000 0.000000 0.004135 0.000000 0.019662
#
#
# Mechanical properties :
#
#
# Convention : Reuss Voigt Hill
#
# Bulk Modulus (GPa) = 33.74006 45.27671 39.50839
# Shear Modulus (GPa) = 22.42556 34.42171 28.42364
#
# Velocity S-wave (km/s) = 3.10371 3.84526 3.49421
# Velocity P-wave (km/s) = 5.22850 6.25807 5.76631
#
# Compressibility (1/GPa) = 0.02963836
#
# Stress axis : x y z
#
# Youngs Moduli (GPa) = 51.33003 23.63239 78.21060
#
# Poissons Ratio (x) = 0.44442 0.27829
# Poissons Ratio (y) = 0.96530 0.00847
# Poissons Ratio (z) = 0.18264 0.00256
#
# Static dielectric constant tensor:
#      x y z
#    x 1.887420 0.000000 0.040210 
#    y 0.000000 2.033280 0.000000 
#    z 0.040210 0.000000 1.880360 
# 
# From -- ./inp_files/77439.got.cif
#   From: 2010.05.17/outbox.cif.g08.bks.cpg/sg14_39_cif.got.tgz:77439.got - 2010.06.03 17:49:19.
