data_PCOD9248535
_publ_section_title
;
Structure prediction by ZEFSAII (Michael W. Deem and Ramdas Pophale) SiO2 
 PCOD9248535
Probable space group: P 21/C
;
_chemical_formula_sum "Si O2"
_cell_formula_units_Z 26
_cell_length_a 13.892607
_cell_length_b 10.322291
_cell_length_c 15.216304
_cell_angle_alpha 90.000000
_cell_angle_beta 28.557571
_cell_angle_gamma 90.000000
_cell_volume 1043.120974
_symmetry_space_group_name_H-M "P 21/C"
_symmetry_group_IT_number 14
_symmetry_cell_setting 'monoclinic'
loop_
_space_group_symop_operation_xyz
x,y,z
-x,1/2+y,1/2-z
-x,-y,-z
x,1/2-y,1/2+z
loop_
_atom_site_type_symbol
_atom_site_label
_atom_site_fract_x
_atom_site_fract_y
_atom_site_fract_z
Si Si1 0.400202 0.800392 0.101151
Si Si2 0.000000 0.000000 0.000000
Si Si3 0.355421 0.002761 0.983993
Si Si4 0.019382 0.665464 0.190223
Si Si5 0.331836 0.469683 0.899199
Si Si6 0.040024 0.254591 0.064861
Si Si7 0.265532 0.382400 0.151014
O O1 0.169288 0.790547 0.314364
O O2 0.523766 0.871532 0.078969
O O3 0.406904 0.890938 0.010645
O O4 0.526493 0.672729 0.978302
O O5 0.885232 0.872619 0.045365
O O6 0.156805 0.006726 0.792252
O O7 0.442511 0.971109 0.819114
O O8 0.123799 0.040171 0.179534
O O9 0.902717 0.767090 0.222118
O O10 0.225141 0.610328 0.986557
O O11 0.027243 0.727228 0.280379
O O12 0.317453 0.422262 0.010118
O O13 0.201595 0.370540 0.942857
#
# Coordination Sequence:
#
# PCOD9248535 Si02
#       7
#     4   2   4   4   4   4   4
#     4  10  22  44  65 103 130 174 219 291 328 395
#     4  12  24  42  60 100 134 180 208 290 330 404
#     4  10  22  42  74  95 135 167 230 279 332 390
#     4  10  22  46  65  99 129 178 229 273 325 413
#     4  11  22  45  69  98 127 185 222 275 331 410
#     4  11  24  41  67  96 140 172 220 274 341 395
#     4  10  24  43  62  97 141 169 232 271 343 400
#
# _framework density 24.9252
#
# number of rings (size 3 to 8) (size 9 to 14) (size 15 to 20)
#    0.000    1.538    3.077    0.923    2.154    2.462 
#   11.077    0.000    0.000    0.000    0.000    0.000 
#    0.000    0.000    0.000    0.000    0.000    0.000 
#
# Total GULP energy -145085.240534 kJ/mol
# GULP energy per Si atom -5580.201559 kJ/mol
# Density = 2.486847 g / cm^3
# Si number density = 24.925200 Si / 1000 Ang^3
#
#
#
# Elastic Constant Matrix: (Units=GPa)
#
#
# Indices 1 2 3 4 5 6 
#
# 1 34.8300 7.9245 1.9698 0.0000 -2.8076 0.0000
# 2 7.9245 48.7616 9.8480 0.0000 3.0734 0.0000
# 3 1.9698 9.8480 87.5535 0.0000 18.5277 0.0000
# 4 0.0000 0.0000 0.0000 26.0366 0.0000 -11.9587
# 5 -2.8076 3.0734 18.5277 0.0000 28.9323 0.0000
# 6 0.0000 0.0000 0.0000 -11.9587 0.0000 36.5362
#
#
#
# Elastic Compliance Matrix: (Units=1/GPa)
#
#
# Indices 1 2 3 4 5 6 
#
# 1 0.030228 -0.004971 -0.000987 0.000000 0.004094 0.000000
# 2 -0.004971 0.021819 -0.002024 0.000000 -0.001504 0.000000
# 3 -0.000987 -0.002024 0.013472 0.000000 -0.008508 0.000000
# 4 0.000000 0.000000 0.000000 0.045203 0.000000 0.014795
# 5 0.004094 -0.001504 -0.008508 0.000000 0.040569 0.000000
# 6 0.000000 0.000000 0.000000 0.014795 0.000000 0.032213
#
#
# Mechanical properties :
#
#
# Convention : Reuss Voigt Hill
#
# Bulk Modulus (GPa) = 20.17994 23.40332 21.79163
# Shear Modulus (GPa) = 23.14960 28.39455 25.77207
#
# Velocity S-wave (km/s) = 3.05087 3.37885 3.21904
# Velocity P-wave (km/s) = 4.53036 4.96306 4.75164
#
# Compressibility (1/GPa) = 0.04955415
#
# Stress axis : x y z
#
# Youngs Moduli (GPa) = 33.08225 45.83074 74.22865
#
# Poissons Ratio (x) = 0.22783 0.07328
# Poissons Ratio (y) = 0.16445 0.15025
# Poissons Ratio (z) = 0.03266 0.09277
#
# Static dielectric constant tensor:
#      x y z
#    x 2.016720 0.000000 -0.006270 
#    y 0.000000 1.218720 0.000000 
#    z -0.006270 0.000000 1.959690 
# 
# From -- ./inp_files/39602.got.cif
#   From: 2010.05.17/outbox.cif.g08.bks.cpg/sg14_20_cif.got.tgz:39602.got - 2010.06.03 17:49:19.
