data_PCOD9248444
_publ_section_title
;
Structure prediction by ZEFSAII (Michael W. Deem and Ramdas Pophale) SiO2 
 PCOD9248444
Probable space group: P 21/C
;
_chemical_formula_sum "Si O2"
_cell_formula_units_Z 28
_cell_length_a 17.591513
_cell_length_b 9.477814
_cell_length_c 12.232547
_cell_angle_alpha 90.000000
_cell_angle_beta 33.766177
_cell_angle_gamma 90.000000
_cell_volume 1133.576134
_symmetry_space_group_name_H-M "P 21/C"
_symmetry_group_IT_number 14
_symmetry_cell_setting 'monoclinic'
loop_
_space_group_symop_operation_xyz
x,y,z
-x,1/2+y,1/2-z
-x,-y,-z
x,1/2-y,1/2+z
loop_
_atom_site_type_symbol
_atom_site_label
_atom_site_fract_x
_atom_site_fract_y
_atom_site_fract_z
Si Si1 0.862524 0.921825 0.703959
Si Si2 0.419682 0.826527 0.268925
Si Si3 0.343959 0.396119 0.750399
Si Si4 0.098535 0.147884 0.706406
Si Si5 0.834808 0.167982 0.873738
Si Si6 0.592229 0.877606 0.436596
Si Si7 0.223105 0.918447 0.680718
O O1 0.752581 0.922385 0.739236
O O2 0.897435 0.768974 0.708510
O O3 0.802788 0.009903 0.877421
O O4 0.000000 0.000000 0.500000
O O5 0.279839 0.738534 0.412273
O O6 0.428044 0.964584 0.183187
O O7 0.371181 0.893943 0.442204
O O8 0.537655 0.710990 0.108862
O O9 0.417209 0.250147 0.637914
O O10 0.239131 0.360976 0.972459
O O11 0.101576 0.994481 0.758391
O O12 0.976377 0.171507 0.768077
O O13 0.827360 0.257080 0.767960
O O14 0.735167 0.961546 0.282611
O O15 0.500000 0.000000 0.500000
#
# Coordination Sequence:
#
# PCOD9248444 Si02
#       7
#     4   4   4   4   4   4   4
#     4  12  23  40  72 102 134 179 224 268 352 414
#     4   9  24  44  67  93 138 179 224 279 341 396
#     4  11  24  44  68 100 136 180 225 285 340 408
#     4  11  21  45  70 101 140 171 224 283 348 411
#     4  10  22  42  69 100 137 174 219 284 342 409
#     4  12  26  44  66 100 132 180 239 281 330 402
#     4   9  23  44  64  99 131 176 227 272 341 405
#
# _framework density 24.700590999999999
#
# number of rings (size 3 to 8) (size 9 to 14) (size 15 to 20)
#    0.857    0.571    2.857    2.143    4.000    3.429 
#    0.000    1.429    0.000    0.000    0.000    0.000 
#    0.000    0.000    0.000    0.000    0.000    0.000 
#
# Total GULP energy -156058.151557 kJ/mol
# GULP energy per Si atom -5573.505413 kJ/mol
# Density = 2.464437 g / cm^3
# Si number density = 24.700591 Si / 1000 Ang^3
#
#
#
# Elastic Constant Matrix: (Units=GPa)
#
#
# Indices 1 2 3 4 5 6 
#
# 1 91.7161 19.3948 5.0472 0.0000 -20.3413 0.0000
# 2 19.3948 60.3617 19.4134 0.0000 -15.6146 0.0000
# 3 5.0472 19.4134 36.9510 0.0000 -9.0219 0.0000
# 4 0.0000 0.0000 0.0000 37.7910 0.0000 1.8114
# 5 -20.3413 -15.6146 -9.0219 0.0000 19.4406 0.0000
# 6 0.0000 0.0000 0.0000 1.8114 0.0000 38.7537
#
#
#
# Elastic Compliance Matrix: (Units=1/GPa)
#
#
# Indices 1 2 3 4 5 6 
#
# 1 0.014423 -0.001561 0.002513 0.000000 0.015003 0.000000
# 2 -0.001561 0.023263 -0.008848 0.000000 0.012945 0.000000
# 3 0.002513 -0.008848 0.034144 0.000000 0.011369 0.000000
# 4 0.000000 0.000000 0.000000 0.026521 0.000000 -0.001240
# 5 0.015003 0.012945 0.011369 0.000000 0.082810 0.000000
# 6 0.000000 0.000000 0.000000 -0.001240 0.000000 0.025862
#
#
# Mechanical properties :
#
#
# Convention : Reuss Voigt Hill
#
# Bulk Modulus (GPa) = 17.84521 30.74883 24.29702
# Shear Modulus (GPa) = 20.70453 28.87527 24.78990
#
# Velocity S-wave (km/s) = 2.89834 3.42279 3.17143
# Velocity P-wave (km/s) = 4.29428 5.30059 4.82375
#
# Compressibility (1/GPa) = 0.05603744
#
# Stress axis : x y z
#
# Youngs Moduli (GPa) = 69.33585 42.98717 29.28782
#
# Poissons Ratio (x) = 0.06712 -0.07361
# Poissons Ratio (y) = 0.10826 0.25914
# Poissons Ratio (z) = -0.17428 0.38035
#
# Static dielectric constant tensor:
#      x y z
#    x 2.044250 0.000000 0.115110 
#    y 0.000000 1.881820 0.000000 
#    z 0.115110 0.000000 2.073310 
# 
# From -- ./inp_files/50187.got.cif
#   From: 2010.05.17/outbox.cif.g08.bks.cpg/sg14_26_cif.got.tgz:50187.got - 2010.06.03 17:49:19.
