data_PCOD9248885
_publ_section_title
;
Structure prediction by ZEFSAII (Michael W. Deem and Ramdas Pophale) SiO2 
 PCOD9248885
Probable space group: P 21/C
;
_chemical_formula_sum "Si O2"
_cell_formula_units_Z 32
_cell_length_a 5.092450
_cell_length_b 25.074276
_cell_length_c 11.098640
_cell_angle_alpha 90.000000
_cell_angle_beta 62.171996
_cell_angle_gamma 90.000000
_cell_volume 1253.287053
_symmetry_space_group_name_H-M "P 21/C"
_symmetry_group_IT_number 14
_symmetry_cell_setting 'monoclinic'
loop_
_space_group_symop_operation_xyz
x,y,z
-x,1/2+y,1/2-z
-x,-y,-z
x,1/2-y,1/2+z
loop_
_atom_site_type_symbol
_atom_site_label
_atom_site_fract_x
_atom_site_fract_y
_atom_site_fract_z
Si Si1 0.689718 0.937736 0.160509
Si Si2 0.692073 0.398417 0.056058
Si Si3 0.737035 0.275533 0.367311
Si Si4 0.342553 0.955938 0.937651
Si Si5 0.683384 0.856180 0.963218
Si Si6 0.717333 0.114718 0.269208
Si Si7 0.740930 0.789850 0.635792
Si Si8 0.131408 0.160948 0.623952
O O1 0.518232 0.938826 0.323858
O O2 0.553749 0.983253 0.101705
O O3 0.671490 0.879137 0.102695
O O4 0.038675 0.950915 0.078926
O O5 0.972581 0.386312 0.081425
O O6 0.463587 0.349089 0.095588
O O7 0.762757 0.403548 0.898900
O O8 0.519625 0.304330 0.509650
O O9 0.521387 0.252888 0.310472
O O10 0.930106 0.324255 0.277679
O O11 0.970429 0.230196 0.355847
O O12 0.556505 0.907641 0.923142
O O13 0.270893 0.938157 0.814326
O O14 0.013573 0.850442 0.843476
O O15 0.423325 0.152447 0.316479
O O16 0.856241 0.791550 0.473477
#
# Coordination Sequence:
#
# PCOD9248885 Si02
#       8
#     4   4   4   4   4   4   4   4
#     4  10  22  44  70 111 139 194 249 303 364 447
#     4  11  23  45  71  97 145 190 233 292 364 435
#     4  12  26  43  72  99 132 190 244 295 358 431
#     4  10  23  42  75 103 149 187 248 306 371 433
#     4  11  24  43  72 105 145 192 241 308 369 441
#     4  10  26  44  69 105 148 191 238 309 373 435
#     4  11  27  44  66 101 137 182 242 299 356 433
#     4  11  24  45  66  97 135 187 234 295 358 423
#
# _framework density 25.532859999999999
#
# number of rings (size 3 to 8) (size 9 to 14) (size 15 to 20)
#    0.000    1.250    1.250    3.375   10.500    0.500 
#    0.000    0.625    0.000    0.000    0.000    0.000 
#    0.000    0.000    0.000    0.000    0.000    0.000 
#
# Total GULP energy -178680.305378 kJ/mol
# GULP energy per Si atom -5583.759543 kJ/mol
# Density = 2.547475 g / cm^3
# Si number density = 25.532860 Si / 1000 Ang^3
#
#
#
# Elastic Constant Matrix: (Units=GPa)
#
#
# Indices 1 2 3 4 5 6 
#
# 1 89.3738 33.7579 7.6169 0.0000 -25.9277 0.0000
# 2 33.7579 81.9411 17.4195 0.0000 -7.4109 0.0000
# 3 7.6169 17.4195 88.2721 0.0000 -25.8320 0.0000
# 4 0.0000 0.0000 0.0000 18.0379 0.0000 -5.1506
# 5 -25.9277 -7.4109 -25.8320 0.0000 34.0530 0.0000
# 6 0.0000 0.0000 0.0000 -5.1506 0.0000 40.1004
#
#
#
# Elastic Compliance Matrix: (Units=1/GPa)
#
#
# Indices 1 2 3 4 5 6 
#
# 1 0.017895 -0.006899 0.004325 0.000000 0.015405 0.000000
# 2 -0.006899 0.015431 -0.003861 0.000000 -0.004824 0.000000
# 3 0.004325 -0.003861 0.015983 0.000000 0.014578 0.000000
# 4 0.000000 0.000000 0.000000 0.057550 0.000000 0.007392
# 5 0.015405 -0.004824 0.014578 0.000000 0.051104 0.000000
# 6 0.000000 0.000000 0.000000 0.007392 0.000000 0.025887
#
#
# Mechanical properties :
#
#
# Convention : Reuss Voigt Hill
#
# Bulk Modulus (GPa) = 27.44255 41.90841 34.67548
# Shear Modulus (GPa) = 23.93888 31.82443 27.88165
#
# Velocity S-wave (km/s) = 3.06530 3.53428 3.30811
# Velocity P-wave (km/s) = 4.82694 5.75361 5.31053
#
# Compressibility (1/GPa) = 0.03643977
#
# Stress axis : x y z
#
# Youngs Moduli (GPa) = 55.88126 64.80638 62.56494
#
# Poissons Ratio (x) = 0.44708 -0.27061
# Poissons Ratio (y) = 0.38550 0.24158
# Poissons Ratio (z) = -0.24170 0.25024
#
# Static dielectric constant tensor:
#      x y z
#    x 2.163770 0.000000 0.111520 
#    y 0.000000 2.035930 0.000000 
#    z 0.111520 0.000000 2.080310 
# 
# From -- ./inp_files/22293.got.cif
#   From: 2010.05.17/outbox.cif.g08.bks.cpg/sg14_12_cif.got.tgz:22293.got - 2010.06.03 17:49:19.
