data_PCOD9248004
_publ_section_title
;
Structure prediction by ZEFSAII (Michael W. Deem and Ramdas Pophale) SiO2 
 PCOD9248004
Probable space group: P 21/C
;
_chemical_formula_sum "Si O2"
_cell_formula_units_Z 28
_cell_length_a 15.023804
_cell_length_b 11.260007
_cell_length_c 9.355017
_cell_angle_alpha 90.000000
_cell_angle_beta 126.391391
_cell_angle_gamma 90.000000
_cell_volume 1273.942522
_symmetry_space_group_name_H-M "P 21/C"
_symmetry_group_IT_number 14
_symmetry_cell_setting 'monoclinic'
loop_
_space_group_symop_operation_xyz
x,y,z
-x,1/2+y,1/2-z
-x,-y,-z
x,1/2-y,1/2+z
loop_
_atom_site_type_symbol
_atom_site_label
_atom_site_fract_x
_atom_site_fract_y
_atom_site_fract_z
Si Si1 0.819392 0.225700 0.999032
Si Si2 0.928773 0.357655 0.872130
Si Si3 0.516536 0.874344 0.242516
Si Si4 0.317375 0.535812 0.740172
Si Si5 0.674115 0.432977 0.919457
Si Si6 0.830898 0.593398 0.897358
Si Si7 0.364533 0.227949 0.364646
O O1 0.848611 0.211999 0.190839
O O2 0.916474 0.295377 0.012764
O O3 0.797383 0.097507 0.910546
O O4 0.712477 0.310871 0.886586
O O5 0.878729 0.490510 0.837750
O O6 0.054805 0.348886 0.942827
O O7 0.402304 0.909111 0.206832
O O8 0.534191 0.788985 0.125036
O O9 0.591926 0.812887 0.438800
O O10 0.568726 0.002559 0.253045
O O11 0.326875 0.393972 0.751217
O O12 0.344015 0.574505 0.928422
O O13 0.772211 0.524821 0.972220
O O14 0.739048 0.680326 0.741364
#
# Coordination Sequence:
#
# PCOD9248004 Si02
#       7
#     4   4   4   4   4   4   4
#     4  11  22  38  61  90 123 157 204 247 304 365
#     4  10  22  41  63  92 120 163 195 255 309 358
#     4  10  23  38  64  86 125 161 201 247 311 353
#     4  11  23  37  63  89 126 157 209 247 304 362
#     4   9  19  41  58  85 118 161 189 253 304 348
#     4   9  21  42  66  83 126 155 206 252 307 353
#     4  10  22  41  60  91 117 163 203 255 298 365
#
# _framework density 21.979016000000001
#
# number of rings (size 3 to 8) (size 9 to 14) (size 15 to 20)
#    0.000    2.000    1.429    1.714    6.000    3.429 
#    5.143    2.143    0.000    0.000    0.000    0.000 
#    0.000    0.000    0.000    0.000    0.000    0.000 
#
# Total GULP energy -156206.141887 kJ/mol
# GULP energy per Si atom -5578.790782 kJ/mol
# Density = 2.192899 g / cm^3
# Si number density = 21.979016 Si / 1000 Ang^3
#
#
#
# Elastic Constant Matrix: (Units=GPa)
#
#
# Indices 1 2 3 4 5 6 
#
# 1 70.8563 24.6154 -16.9315 0.0000 7.0463 0.0000
# 2 24.6154 63.6363 12.8903 0.0000 5.5682 0.0000
# 3 -16.9315 12.8903 20.3742 0.0000 -2.4614 0.0000
# 4 0.0000 0.0000 0.0000 25.0878 0.0000 1.1243
# 5 7.0463 5.5682 -2.4614 0.0000 19.2681 0.0000
# 6 0.0000 0.0000 0.0000 1.1243 0.0000 16.2942
#
#
#
# Elastic Compliance Matrix: (Units=1/GPa)
#
#
# Indices 1 2 3 4 5 6 
#
# 1 0.029172 -0.018479 0.035844 0.000000 -0.000749 0.000000
# 2 -0.018479 0.030644 -0.035546 0.000000 -0.006639 0.000000
# 3 0.035844 -0.035546 0.102599 0.000000 0.010271 0.000000
# 4 0.000000 0.000000 0.000000 0.039984 0.000000 -0.002759
# 5 -0.000749 -0.006639 0.010271 0.000000 0.055404 0.000000
# 6 0.000000 0.000000 0.000000 -0.002759 0.000000 0.061562
#
#
# Mechanical properties :
#
#
# Convention : Reuss Voigt Hill
#
# Bulk Modulus (GPa) = 7.93329 21.77948 14.85639
# Shear Modulus (GPa) = 12.57089 21.08286 16.82688
#
# Velocity S-wave (km/s) = 2.39414 3.10050 2.76993
# Velocity P-wave (km/s) = 3.35557 4.76951 4.12359
#
# Compressibility (1/GPa) = 0.12605112
#
# Stress axis : x y z
#
# Youngs Moduli (GPa) = 34.27906 32.63327 9.74671
#
# Poissons Ratio (x) = 0.60304 -0.34936
# Poissons Ratio (y) = 0.63345 0.34646
# Poissons Ratio (z) = -1.22869 1.15999
#
# Static dielectric constant tensor:
#      x y z
#    x 1.862950 0.000000 0.008180 
#    y 0.000000 1.819910 0.000000 
#    z 0.008180 0.000000 1.768750 
# 
# From -- ./inp_files/15581.got.cif
#   From: 2010.05.17/outbox.cif.g08.bks.cpg/sg14_8_cif.got.tgz:15581.got - 2010.06.03 17:49:19.
