data_PCOD9248409
_publ_section_title
;
Structure prediction by ZEFSAII (Michael W. Deem and Ramdas Pophale) SiO2 
 PCOD9248409
Probable space group: P 21/C
;
_chemical_formula_sum "Si O2"
_cell_formula_units_Z 32
_cell_length_a 8.591271
_cell_length_b 14.670188
_cell_length_c 11.356661
_cell_angle_alpha 90.000000
_cell_angle_beta 107.077600
_cell_angle_gamma 90.000000
_cell_volume 1368.232209
_symmetry_space_group_name_H-M "P 21/C"
_symmetry_group_IT_number 14
_symmetry_cell_setting 'monoclinic'
loop_
_space_group_symop_operation_xyz
x,y,z
-x,1/2+y,1/2-z
-x,-y,-z
x,1/2-y,1/2+z
loop_
_atom_site_type_symbol
_atom_site_label
_atom_site_fract_x
_atom_site_fract_y
_atom_site_fract_z
Si Si1 0.002092 0.908814 0.922475
Si Si2 0.935334 0.717722 0.035040
Si Si3 0.383054 0.310842 0.878108
Si Si4 0.542723 0.991478 0.146071
Si Si5 0.223431 0.849140 0.763017
Si Si6 0.689950 0.663231 0.808563
Si Si7 0.622381 0.170892 0.607967
Si Si8 0.284570 0.006020 0.281491
O O1 0.152944 0.884041 0.872767
O O2 0.973592 0.819760 0.997456
O O3 0.867367 0.934836 0.794634
O O4 0.000000 0.000000 0.000000
O O5 0.866277 0.663261 0.906195
O O6 0.775110 0.721354 0.082832
O O7 0.081538 0.666517 0.134736
O O8 0.353453 0.263798 0.746624
O O9 0.388247 0.419457 0.873520
O O10 0.557950 0.285511 0.972251
O O11 0.633867 0.077879 0.225005
O O12 0.377026 0.977017 0.182562
O O13 0.661556 0.906244 0.196213
O O14 0.500000 0.000000 0.000000
O O15 0.296116 0.749646 0.799455
O O16 0.549644 0.640763 0.871753
O O17 0.736131 0.082469 0.641960
#
# Coordination Sequence:
#
# PCOD9248409 Si02
#       8
#     4   4   4   4   4   4   4   4
#     4  12  26  44  69  99 143 182 231 281 344 415
#     4  11  24  44  65  95 142 181 227 282 350 413
#     4  11  21  41  70  96 134 183 229 279 349 409
#     4  11  25  41  70 104 136 175 238 285 342 412
#     4  12  25  44  66 105 135 180 232 282 345 402
#     4  10  22  42  68 101 136 184 225 284 348 413
#     4  10  24  41  69  98 139 172 234 289 336 405
#     4  11  22  45  66 102 130 182 227 278 346 412
#
# _framework density 23.387844000000001
#
# number of rings (size 3 to 8) (size 9 to 14) (size 15 to 20)
#    0.000    1.000    2.500    3.375    5.250    4.500 
#    2.250    0.000    0.000    0.000    0.000    0.000 
#    0.000    0.000    0.000    0.000    0.000    0.000 
#
# Total GULP energy -178699.547270 kJ/mol
# GULP energy per Si atom -5584.360852 kJ/mol
# Density = 2.333461 g / cm^3
# Si number density = 23.387844 Si / 1000 Ang^3
#
#
#
# Elastic Constant Matrix: (Units=GPa)
#
#
# Indices 1 2 3 4 5 6 
#
# 1 48.6783 10.7536 21.4833 0.0000 2.8680 0.0000
# 2 10.7536 104.4755 26.1046 0.0000 23.4709 0.0000
# 3 21.4833 26.1046 124.0219 0.0000 32.9902 0.0000
# 4 0.0000 0.0000 0.0000 45.9972 0.0000 5.4086
# 5 2.8680 23.4709 32.9902 0.0000 33.9349 0.0000
# 6 0.0000 0.0000 0.0000 5.4086 0.0000 25.4297
#
#
#
# Elastic Compliance Matrix: (Units=1/GPa)
#
#
# Indices 1 2 3 4 5 6 
#
# 1 0.022784 -0.002095 -0.004558 0.000000 0.003954 0.000000
# 2 -0.002095 0.011540 0.000013 0.000000 -0.007818 0.000000
# 3 -0.004558 0.000013 0.011802 0.000000 -0.011097 0.000000
# 4 0.000000 0.000000 0.000000 0.022298 0.000000 -0.004743
# 5 0.003954 -0.007818 -0.011097 0.000000 0.045329 0.000000
# 6 0.000000 0.000000 0.000000 -0.004743 0.000000 0.040333
#
#
# Mechanical properties :
#
#
# Convention : Reuss Voigt Hill
#
# Bulk Modulus (GPa) = 30.44306 43.76209 37.10258
# Shear Modulus (GPa) = 28.04054 35.66131 31.85093
#
# Velocity S-wave (km/s) = 3.46632 3.90908 3.69434
# Velocity P-wave (km/s) = 5.39123 6.25513 5.83918
#
# Compressibility (1/GPa) = 0.03284821
#
# Stress axis : x y z
#
# Youngs Moduli (GPa) = 43.89001 86.65391 84.73416
#
# Poissons Ratio (x) = 0.18151 0.38618
# Poissons Ratio (y) = 0.09193 -0.00113
# Poissons Ratio (z) = 0.20003 -0.00116
#
# Static dielectric constant tensor:
#      x y z
#    x 1.929040 0.000000 -0.004110 
#    y 0.000000 1.867240 0.000000 
#    z -0.004110 0.000000 1.987220 
# 
# From -- ./inp_files/25566.got.cif
#   From: 2010.05.17/outbox.cif.g08.bks.cpg/sg14_13_cif.got.tgz:25566.got - 2010.06.03 17:49:19.
