data_PCOD9248655
_publ_section_title
;
Structure prediction by ZEFSAII (Michael W. Deem and Ramdas Pophale) SiO2 
 PCOD9248655
Probable space group: P 21/C
;
_chemical_formula_sum "Si O2"
_cell_formula_units_Z 28
_cell_length_a 20.424452
_cell_length_b 5.841321
_cell_length_c 18.520373
_cell_angle_alpha 90.000000
_cell_angle_beta 142.619824
_cell_angle_gamma 90.000000
_cell_volume 1341.442682
_symmetry_space_group_name_H-M "P 21/C"
_symmetry_group_IT_number 14
_symmetry_cell_setting 'monoclinic'
loop_
_space_group_symop_operation_xyz
x,y,z
-x,1/2+y,1/2-z
-x,-y,-z
x,1/2-y,1/2+z
loop_
_atom_site_type_symbol
_atom_site_label
_atom_site_fract_x
_atom_site_fract_y
_atom_site_fract_z
Si Si1 0.288346 0.554994 0.912204
Si Si2 0.001078 0.742041 0.328517
Si Si3 0.835227 0.574697 0.064686
Si Si4 0.498609 0.250103 0.456778
Si Si5 0.880247 0.124117 0.315681
Si Si6 0.910462 0.852489 0.995369
Si Si7 0.734556 0.750581 0.744753
O O1 0.266806 0.452798 0.972650
O O2 0.187205 0.703577 0.794193
O O3 0.290758 0.344024 0.857563
O O4 0.394003 0.714420 0.996687
O O5 0.026146 0.541016 0.404793
O O6 0.930173 0.679475 0.197629
O O7 0.119637 0.823368 0.410719
O O8 0.934546 0.937365 0.310722
O O9 0.842051 0.707198 0.995024
O O10 0.500000 0.500000 0.500000
O O11 0.380455 0.255679 0.317069
O O12 0.500000 0.000000 0.500000
O O13 0.986554 0.221943 0.448129
O O14 0.795117 0.991906 0.291585
O O15 0.821623 0.915765 0.858625
#
# Coordination Sequence:
#
# PCOD9248655 Si02
#       7
#     4   4   4   4   4   4   4
#     4  11  22  38  66  88 119 166 218 264 314 384
#     4  11  20  35  54  84 124 163 204 246 309 390
#     4  11  20  36  57  84 120 166 209 248 309 381
#     4  10  22  43  68  94 121 167 218 271 319 379
#     4  11  20  35  60  90 120 160 203 254 321 384
#     4  11  24  36  57  90 132 162 202 258 328 379
#     4  11  23  40  61  91 127 158 210 269 326 370
#
# _framework density 20.873052000000001
#
# number of rings (size 3 to 8) (size 9 to 14) (size 15 to 20)
#    0.000    1.143    5.714    1.286    0.000    4.571 
#    0.000    0.000    3.143    0.000    0.000    0.000 
#    0.000    0.000    0.000    0.000    0.000    0.000 
#
# Total GULP energy -156048.863114 kJ/mol
# GULP energy per Si atom -5573.173683 kJ/mol
# Density = 2.082554 g / cm^3
# Si number density = 20.873052 Si / 1000 Ang^3
#
#
#
# Elastic Constant Matrix: (Units=GPa)
#
#
# Indices 1 2 3 4 5 6 
#
# 1 108.0434 15.5942 35.8160 0.0000 20.8166 0.0000
# 2 15.5942 50.9475 5.7297 0.0000 8.7892 0.0000
# 3 35.8160 5.7297 85.2279 0.0000 30.0982 0.0000
# 4 0.0000 0.0000 0.0000 22.0165 0.0000 3.9576
# 5 20.8166 8.7892 30.0982 0.0000 34.4892 0.0000
# 6 0.0000 0.0000 0.0000 3.9576 0.0000 28.2400
#
#
#
# Elastic Compliance Matrix: (Units=1/GPa)
#
#
# Indices 1 2 3 4 5 6 
#
# 1 0.011394 -0.002546 -0.003494 0.000000 -0.003179 0.000000
# 2 -0.002546 0.021127 0.001457 0.000000 -0.005119 0.000000
# 3 -0.003494 0.001457 0.018054 0.000000 -0.014018 0.000000
# 4 0.000000 0.000000 0.000000 0.046594 0.000000 -0.006530
# 5 -0.003179 -0.005119 -0.014018 0.000000 0.044451 0.000000
# 6 0.000000 0.000000 0.000000 -0.006530 0.000000 0.036326
#
#
# Mechanical properties :
#
#
# Convention : Reuss Voigt Hill
#
# Bulk Modulus (GPa) = 24.14971 39.83317 31.99144
# Shear Modulus (GPa) = 24.88623 29.42108 27.15365
#
# Velocity S-wave (km/s) = 3.45667 3.75844 3.61071
# Velocity P-wave (km/s) = 5.24655 6.16112 5.72214
#
# Compressibility (1/GPa) = 0.04140837
#
# Stress axis : x y z
#
# Youngs Moduli (GPa) = 87.76675 47.33375 55.38885
#
# Poissons Ratio (x) = 0.12052 0.19355
# Poissons Ratio (y) = 0.22347 -0.08073
# Poissons Ratio (z) = 0.30670 -0.06899
#
# Static dielectric constant tensor:
#      x y z
#    x 1.839990 0.000000 0.022670 
#    y 0.000000 1.889940 0.000000 
#    z 0.022670 0.000000 1.726940 
# 
# From -- ./inp_files/70082.got.cif
#   From: 2010.05.17/outbox.cif.g08.bks.cpg/sg14_36_cif.got.tgz:70082.got - 2010.06.03 17:49:19.
