data_PCOD9248303
_publ_section_title
;
Structure prediction by ZEFSAII (Michael W. Deem and Ramdas Pophale) SiO2 
 PCOD9248303
Probable space group: P 21/C
;
_chemical_formula_sum "Si O2"
_cell_formula_units_Z 28
_cell_length_a 6.876737
_cell_length_b 16.531445
_cell_length_c 14.513405
_cell_angle_alpha 90.000000
_cell_angle_beta 60.918524
_cell_angle_gamma 90.000000
_cell_volume 1441.912484
_symmetry_space_group_name_H-M "P 21/C"
_symmetry_group_IT_number 14
_symmetry_cell_setting 'monoclinic'
loop_
_space_group_symop_operation_xyz
x,y,z
-x,1/2+y,1/2-z
-x,-y,-z
x,1/2-y,1/2+z
loop_
_atom_site_type_symbol
_atom_site_label
_atom_site_fract_x
_atom_site_fract_y
_atom_site_fract_z
Si Si1 0.521995 0.209715 0.345908
Si Si2 0.796406 0.805257 0.409926
Si Si3 0.426007 0.142952 0.728370
Si Si4 0.641667 0.915175 0.769437
Si Si5 0.188471 0.508273 0.379609
Si Si6 0.015244 0.655759 0.300946
Si Si7 0.882033 0.051560 0.607325
O O1 0.392204 0.209002 0.471004
O O2 0.489349 0.290645 0.291842
O O3 0.428862 0.136760 0.303530
O O4 0.780102 0.190010 0.305122
O O5 0.697244 0.816983 0.330361
O O6 0.960490 0.728678 0.382257
O O7 0.937887 0.884919 0.399049
O O8 0.651931 0.099591 0.638987
O O9 0.269268 0.074246 0.811478
O O10 0.416790 0.951202 0.864403
O O11 0.787126 0.860245 0.801457
O O12 0.800989 0.988030 0.702325
O O13 0.092684 0.572938 0.329251
O O14 0.000000 0.500000 0.500000
O O15 0.000000 0.000000 0.500000
#
# Coordination Sequence:
#
# PCOD9248303 Si02
#       7
#     4   4   4   4   4   4   4
#     4  11  23  41  64  95 132 170 216 273 327 386
#     4  12  24  40  69  99 131 178 219 270 339 392
#     4  11  24  44  65 100 134 171 228 273 323 409
#     4  10  22  42  64  92 133 169 212 273 321 394
#     4  10  23  44  67  92 132 175 221 273 329 394
#     4  11  23  43  63  96 132 167 221 270 328 395
#     4  11  23  41  66  96 135 171 216 273 334 394
#
# _framework density 19.418652999999999
#
# number of rings (size 3 to 8) (size 9 to 14) (size 15 to 20)
#    0.000    1.143    4.286    1.714    2.000    1.143 
#    2.571    0.000    0.000    0.000    0.000    0.000 
#    0.000    0.000    0.000    0.000    0.000    0.000 
#
# Total GULP energy -156254.807822 kJ/mol
# GULP energy per Si atom -5580.528851 kJ/mol
# Density = 1.937446 g / cm^3
# Si number density = 19.418653 Si / 1000 Ang^3
#
#
#
# Elastic Constant Matrix: (Units=GPa)
#
#
# Indices 1 2 3 4 5 6 
#
# 1 77.1092 39.3886 47.4621 0.0000 -11.8020 0.0000
# 2 39.3886 113.1955 45.2178 0.0000 -8.1378 0.0000
# 3 47.4621 45.2178 127.6991 0.0000 -40.7682 0.0000
# 4 0.0000 0.0000 0.0000 33.7344 0.0000 -6.4372
# 5 -11.8020 -8.1378 -40.7682 0.0000 29.8310 0.0000
# 6 0.0000 0.0000 0.0000 -6.4372 0.0000 38.4635
#
#
#
# Elastic Compliance Matrix: (Units=1/GPa)
#
#
# Indices 1 2 3 4 5 6 
#
# 1 0.018517 -0.004165 -0.006087 0.000000 -0.002130 0.000000
# 2 -0.004165 0.011482 -0.003626 0.000000 -0.003471 0.000000
# 3 -0.006087 -0.003626 0.018259 0.000000 0.021556 0.000000
# 4 0.000000 0.000000 0.000000 0.030621 0.000000 0.005125
# 5 -0.002130 -0.003471 0.021556 0.000000 0.061192 0.000000
# 6 0.000000 0.000000 0.000000 0.005125 0.000000 0.026856
#
#
# Mechanical properties :
#
#
# Convention : Reuss Voigt Hill
#
# Bulk Modulus (GPa) = 48.77481 64.68235 56.72858
# Shear Modulus (GPa) = 24.81154 32.80146 28.80650
#
# Velocity S-wave (km/s) = 3.57839 4.11441 3.85573
# Velocity P-wave (km/s) = 6.49963 7.48017 7.00707
#
# Compressibility (1/GPa) = 0.02050239
#
# Stress axis : x y z
#
# Youngs Moduli (GPa) = 54.00445 87.08954 54.76678
#
# Poissons Ratio (x) = 0.36271 0.33339
# Poissons Ratio (y) = 0.22492 0.19859
# Poissons Ratio (z) = 0.32874 0.31579
#
# Static dielectric constant tensor:
#      x y z
#    x 1.697530 0.000000 -0.024530 
#    y 0.000000 1.717080 0.000000 
#    z -0.024530 0.000000 1.713470 
# 
# From -- ./inp_files/37805.got.cif
#   From: 2010.05.17/outbox.cif.g08.bks.cpg/sg14_19_cif.got.tgz:37805.got - 2010.06.03 17:49:19.
