data_PCOD9248554
_publ_section_title
;
Structure prediction by ZEFSAII (Michael W. Deem and Ramdas Pophale) SiO2 
 PCOD9248554
Probable space group: P 21/C
;
_chemical_formula_sum "Si O2"
_cell_formula_units_Z 32
_cell_length_a 5.613584
_cell_length_b 10.958292
_cell_length_c 24.133062
_cell_angle_alpha 90.000000
_cell_angle_beta 117.830006
_cell_angle_gamma 90.000000
_cell_volume 1312.844005
_symmetry_space_group_name_H-M "P 21/C"
_symmetry_group_IT_number 14
_symmetry_cell_setting 'monoclinic'
loop_
_space_group_symop_operation_xyz
x,y,z
-x,1/2+y,1/2-z
-x,-y,-z
x,1/2-y,1/2+z
loop_
_atom_site_type_symbol
_atom_site_label
_atom_site_fract_x
_atom_site_fract_y
_atom_site_fract_z
Si Si1 0.001522 0.808680 0.528158
Si Si2 0.707179 0.428256 0.418512
Si Si3 0.465246 0.758978 0.412082
Si Si4 0.121895 0.546451 0.932217
Si Si5 0.407001 0.967705 0.778871
Si Si6 0.805624 0.485225 0.588794
Si Si7 0.566477 0.870459 0.317424
Si Si8 0.121937 0.035042 0.233227
O O1 0.750483 0.740104 0.472438
O O2 0.137669 0.888062 0.494044
O O3 0.211468 0.713032 0.575197
O O4 0.870997 0.902224 0.557607
O O5 0.541567 0.485845 0.349508
O O6 0.483746 0.447722 0.442133
O O7 0.997384 0.493091 0.441107
O O8 0.256325 0.657135 0.408669
O O9 0.514935 0.754740 0.351468
O O10 0.343229 0.888694 0.418055
O O11 0.822940 0.572268 0.876805
O O12 0.364580 0.093710 0.738456
O O13 0.118171 0.908063 0.757972
O O14 0.624865 0.893102 0.765813
O O15 0.977105 0.522401 0.662901
O O16 0.277324 0.938380 0.287873
#
# Coordination Sequence:
#
# PCOD9248554 Si02
#       8
#     4   4   4   4   4   4   4   4
#     4  10  24  42  65  91 127 180 222 280 320 391
#     4  10  22  43  65  95 131 170 217 265 332 393
#     4  11  23  39  65  96 132 176 216 278 329 394
#     4  10  22  43  62  92 129 169 230 274 329 383
#     4   8  16  34  61  86 126 154 207 259 311 389
#     4  10  23  40  67  95 135 166 212 273 333 402
#     4   9  19  36  61  91 124 168 215 263 323 388
#     4   8  16  35  58  86 123 161 198 261 309 385
#
# _framework density 24.374562999999998
#
# number of rings (size 3 to 8) (size 9 to 14) (size 15 to 20)
#    0.750    1.750    0.000    1.125    5.250    1.000 
#    0.000    7.500    0.000    0.000    0.000    0.000 
#    0.000    0.000    0.000    0.000    0.000    0.000 
#
# Total GULP energy -178288.632432 kJ/mol
# GULP energy per Si atom -5571.519764 kJ/mol
# Density = 2.431909 g / cm^3
# Si number density = 24.374563 Si / 1000 Ang^3
#
#
#
# Elastic Constant Matrix: (Units=GPa)
#
#
# Indices 1 2 3 4 5 6 
#
# 1 176.3635 23.7683 14.5526 0.0000 6.4469 0.0000
# 2 23.7683 65.6322 18.6450 0.0000 0.3917 0.0000
# 3 14.5526 18.6450 45.8921 0.0000 14.2937 0.0000
# 4 0.0000 0.0000 0.0000 17.6568 0.0000 2.3099
# 5 6.4469 0.3917 14.2937 0.0000 36.5649 0.0000
# 6 0.0000 0.0000 0.0000 2.3099 0.0000 32.5786
#
#
#
# Elastic Compliance Matrix: (Units=1/GPa)
#
#
# Indices 1 2 3 4 5 6 
#
# 1 0.006029 -0.001918 -0.000920 0.000000 -0.000683 0.000000
# 2 -0.001918 0.018110 -0.007736 0.000000 0.003168 0.000000
# 3 -0.000920 -0.007736 0.028635 0.000000 -0.010949 0.000000
# 4 0.000000 0.000000 0.000000 0.057166 0.000000 -0.004053
# 5 -0.000683 0.003168 -0.010949 0.000000 0.031715 0.000000
# 6 0.000000 0.000000 0.000000 -0.004053 0.000000 0.030982
#
#
# Mechanical properties :
#
#
# Convention : Reuss Voigt Hill
#
# Bulk Modulus (GPa) = 31.61970 44.64662 38.13316
# Shear Modulus (GPa) = 24.47039 32.75485 28.61262
#
# Velocity S-wave (km/s) = 3.17193 3.66978 3.42990
# Velocity P-wave (km/s) = 5.13959 6.02603 5.60038
#
# Compressibility (1/GPa) = 0.03162585
#
# Stress axis : x y z
#
# Youngs Moduli (GPa) = 165.85170 55.21840 34.92199
#
# Poissons Ratio (x) = 0.10591 0.03213
# Poissons Ratio (y) = 0.31812 0.27017
# Poissons Ratio (z) = 0.15258 0.42719
#
# Static dielectric constant tensor:
#      x y z
#    x 2.002860 0.000000 -0.033850 
#    y 0.000000 1.942370 0.000000 
#    z -0.033850 0.000000 1.930290 
# 
# From -- ./inp_files/63917.got.cif
#   From: 2010.05.17/outbox.cif.g08.bks.cpg/sg14_32_cif.got.tgz:63917.got - 2010.06.03 17:49:19.
