data_PCOD9248701
_publ_section_title
;
Structure prediction by ZEFSAII (Michael W. Deem and Ramdas Pophale) SiO2 
 PCOD9248701
Probable space group: P 21/C
;
_chemical_formula_sum "Si O2"
_cell_formula_units_Z 28
_cell_length_a 8.294419
_cell_length_b 14.445759
_cell_length_c 15.036328
_cell_angle_alpha 90.000000
_cell_angle_beta 140.874129
_cell_angle_gamma 90.000000
_cell_volume 1136.882251
_symmetry_space_group_name_H-M "P 21/C"
_symmetry_group_IT_number 14
_symmetry_cell_setting 'monoclinic'
loop_
_space_group_symop_operation_xyz
x,y,z
-x,1/2+y,1/2-z
-x,-y,-z
x,1/2-y,1/2+z
loop_
_atom_site_type_symbol
_atom_site_label
_atom_site_fract_x
_atom_site_fract_y
_atom_site_fract_z
Si Si1 0.965949 0.101580 0.731979
Si Si2 0.546517 0.719613 0.199456
Si Si3 0.989665 0.804336 0.744725
Si Si4 0.108244 0.047324 0.960696
Si Si5 0.426000 0.888751 0.027467
Si Si6 0.801727 0.765972 0.474705
Si Si7 0.135507 0.913561 0.513991
O O1 0.868010 0.205429 0.702594
O O2 0.910233 0.039712 0.792977
O O3 0.891831 0.071836 0.602845
O O4 0.276214 0.109924 0.868700
O O5 0.806362 0.703629 0.252847
O O6 0.561605 0.762036 0.305160
O O7 0.399985 0.797971 0.078917
O O8 0.422801 0.618356 0.154003
O O9 0.825068 0.811290 0.583017
O O10 0.219218 0.875327 0.860436
O O11 0.354947 0.984682 0.043885
O O12 0.141403 0.156740 0.990274
O O13 0.000000 0.000000 0.000000
O O14 0.991734 0.824172 0.493284
O O15 0.000000 0.000000 0.500000
#
# Coordination Sequence:
#
# PCOD9248701 Si02
#       7
#     4   4   4   4   4   4   4
#     4  10  23  44  65 103 138 184 236 284 360 429
#     4  11  22  45  70  98 148 182 235 305 351 430
#     4  10  22  43  70 103 135 188 230 295 357 418
#     4  11  24  41  69 103 137 180 237 291 352 431
#     4  11  21  43  74  95 144 182 236 298 353 431
#     4  11  25  45  67 106 137 188 246 285 366 428
#     4  12  26  45  69 102 143 189 241 297 362 434
#
# _framework density 24.628758000000001
#
# number of rings (size 3 to 8) (size 9 to 14) (size 15 to 20)
#    0.000    1.143    4.286    2.143    4.000    3.429 
#    2.571    0.714    0.000    0.000    0.000    0.000 
#    0.000    0.000    0.000    0.000    0.000    0.000 
#
# Total GULP energy -156327.657106 kJ/mol
# GULP energy per Si atom -5583.130611 kJ/mol
# Density = 2.457270 g / cm^3
# Si number density = 24.628758 Si / 1000 Ang^3
#
#
#
# Elastic Constant Matrix: (Units=GPa)
#
#
# Indices 1 2 3 4 5 6 
#
# 1 60.8929 29.9785 34.6520 0.0000 -23.5107 0.0000
# 2 29.9785 89.5631 11.6248 0.0000 5.4288 0.0000
# 3 34.6520 11.6248 127.2759 0.0000 -32.3024 0.0000
# 4 0.0000 0.0000 0.0000 26.6644 0.0000 -4.7083
# 5 -23.5107 5.4288 -32.3024 0.0000 43.3105 0.0000
# 6 0.0000 0.0000 0.0000 -4.7083 0.0000 43.1065
#
#
#
# Elastic Compliance Matrix: (Units=1/GPa)
#
#
# Indices 1 2 3 4 5 6 
#
# 1 0.028852 -0.010115 -0.003250 0.000000 0.014506 0.000000
# 2 -0.010115 0.015106 -0.000617 0.000000 -0.007844 0.000000
# 3 -0.003250 -0.000617 0.010324 0.000000 0.006013 0.000000
# 4 0.000000 0.000000 0.000000 0.038241 0.000000 0.004177
# 5 0.014506 -0.007844 0.006013 0.000000 0.036432 0.000000
# 6 0.000000 0.000000 0.000000 0.004177 0.000000 0.023655
#
#
# Mechanical properties :
#
#
# Convention : Reuss Voigt Hill
#
# Bulk Modulus (GPa) = 37.99377 47.80472 42.89924
# Shear Modulus (GPa) = 26.40664 36.04803 31.22734
#
# Velocity S-wave (km/s) = 3.27798 3.82993 3.56465
# Velocity P-wave (km/s) = 5.45774 6.24580 5.86502
#
# Compressibility (1/GPa) = 0.02632010
#
# Stress axis : x y z
#
# Youngs Moduli (GPa) = 34.65947 66.19668 96.85940
#
# Poissons Ratio (x) = 0.66957 0.31477
# Poissons Ratio (y) = 0.35058 0.05974
# Poissons Ratio (z) = 0.11263 0.04083
#
# Static dielectric constant tensor:
#      x y z
#    x 2.042100 0.000000 -0.017300 
#    y 0.000000 1.971430 0.000000 
#    z -0.017300 0.000000 2.057540 
# 
# From -- ./inp_files/41447.got.cif
#   From: 2010.05.17/outbox.cif.g08.bks.cpg/sg14_21_cif.got.tgz:41447.got - 2010.06.03 17:49:19.
