data_PCOD9248698
_publ_section_title
;
Structure prediction by ZEFSAII (Michael W. Deem and Ramdas Pophale) SiO2 
 PCOD9248698
Probable space group: P 21/C
;
_chemical_formula_sum "Si O2"
_cell_formula_units_Z 24
_cell_length_a 13.347029
_cell_length_b 7.623811
_cell_length_c 14.300767
_cell_angle_alpha 90.000000
_cell_angle_beta 138.163328
_cell_angle_gamma 90.000000
_cell_volume 970.617368
_symmetry_space_group_name_H-M "P 21/C"
_symmetry_group_IT_number 14
_symmetry_cell_setting 'monoclinic'
loop_
_space_group_symop_operation_xyz
x,y,z
-x,1/2+y,1/2-z
-x,-y,-z
x,1/2-y,1/2+z
loop_
_atom_site_type_symbol
_atom_site_label
_atom_site_fract_x
_atom_site_fract_y
_atom_site_fract_z
Si Si1 0.353410 0.202408 0.253968
Si Si2 0.855419 0.229212 0.040565
Si Si3 0.885339 0.651822 0.646551
Si Si4 0.576075 0.087922 0.275686
Si Si5 0.028939 0.294387 0.995086
Si Si6 0.447704 0.309200 0.505234
O O1 0.419065 0.077627 0.220925
O O2 0.380447 0.397164 0.229930
O O3 0.444837 0.185700 0.413227
O O4 0.176643 0.209638 0.145041
O O5 0.986937 0.335143 0.185573
O O6 0.857717 0.045511 0.093675
O O7 0.700125 0.334097 0.931103
O O8 0.894577 0.204572 0.958131
O O9 0.944792 0.757430 0.596197
O O10 0.722945 0.704164 0.574589
O O11 0.552462 0.208792 0.167983
O O12 0.000000 0.500000 0.000000
O O13 0.500000 0.500000 0.500000
#
# Coordination Sequence:
#
# PCOD9248698 Si02
#       6
#     4   4   4   4   4   4
#     4  11  23  44  72 102 138 192 235 293 359 426
#     4  12  26  44  71 108 139 188 243 300 360 434
#     4  12  26  45  73 105 146 189 242 297 362 435
#     4  11  24  43  72 101 143 183 240 294 359 429
#     4  12  24  46  72 100 145 193 242 297 360 427
#     4  10  22  43  70 101 137 187 235 287 357 429
#
# _framework density 24.72653
#
# number of rings (size 3 to 8) (size 9 to 14) (size 15 to 20)
#    0.000    0.667    5.000    3.500    0.000    1.333 
#    0.000    0.833    0.000    0.000    0.000    0.000 
#    0.000    0.000    0.000    0.000    0.000    0.000 
#
# Total GULP energy -134218.942331 kJ/mol
# GULP energy per Si atom -5592.455930 kJ/mol
# Density = 2.467025 g / cm^3
# Si number density = 24.726530 Si / 1000 Ang^3
#
#
#
# Elastic Constant Matrix: (Units=GPa)
#
#
# Indices 1 2 3 4 5 6 
#
# 1 118.6921 1.9027 28.6526 0.0000 -5.1781 0.0000
# 2 1.9027 73.4827 27.2519 0.0000 -3.5067 0.0000
# 3 28.6526 27.2519 150.0151 0.0000 -0.3891 0.0000
# 4 0.0000 0.0000 0.0000 33.4841 0.0000 -8.4870
# 5 -5.1781 -3.5067 -0.3891 0.0000 46.4934 0.0000
# 6 0.0000 0.0000 0.0000 -8.4870 0.0000 27.9205
#
#
#
# Elastic Compliance Matrix: (Units=1/GPa)
#
#
# Indices 1 2 3 4 5 6 
#
# 1 0.008892 0.000479 -0.001783 0.000000 0.001012 0.000000
# 2 0.000479 0.014672 -0.002754 0.000000 0.001137 0.000000
# 3 -0.001783 -0.002754 0.007506 0.000000 -0.000343 0.000000
# 4 0.000000 0.000000 0.000000 0.032358 0.000000 0.009836
# 5 0.001012 0.001137 -0.000343 0.000000 0.021704 0.000000
# 6 0.000000 0.000000 0.000000 0.009836 0.000000 0.038806
#
#
# Mechanical properties :
#
#
# Convention : Reuss Voigt Hill
#
# Bulk Modulus (GPa) = 43.56396 50.86713 47.21555
# Shear Modulus (GPa) = 35.79001 40.53844 38.16423
#
# Velocity S-wave (km/s) = 3.80864 4.05343 3.93294
# Velocity P-wave (km/s) = 6.08256 6.52101 6.30560
#
# Compressibility (1/GPa) = 0.02295475
#
# Stress axis : x y z
#
# Youngs Moduli (GPa) = 112.46097 68.15797 133.22882
#
# Poissons Ratio (x) = -0.03266 0.23752
# Poissons Ratio (y) = -0.05389 0.36689
# Poissons Ratio (z) = 0.20049 0.18770
#
# Static dielectric constant tensor:
#      x y z
#    x 1.924880 0.000000 -0.016120 
#    y 0.000000 1.998250 0.000000 
#    z -0.016120 0.000000 1.961940 
# 
# From -- ./inp_files/28747.got.cif
#   From: 2010.05.17/outbox.cif.g08.bks.cpg/sg14_15_cif.got.tgz:28747.got - 2010.06.03 17:49:19.
