data_PCOD9248033
_publ_section_title
;
Structure prediction by ZEFSAII (Michael W. Deem and Ramdas Pophale) SiO2 
 PCOD9248033
Probable space group: P 21/C
;
_chemical_formula_sum "Si O2"
_cell_formula_units_Z 28
_cell_length_a 8.232773
_cell_length_b 14.728512
_cell_length_c 9.162157
_cell_angle_alpha 90.000000
_cell_angle_beta 69.296883
_cell_angle_gamma 90.000000
_cell_volume 1039.229875
_symmetry_space_group_name_H-M "P 21/C"
_symmetry_group_IT_number 14
_symmetry_cell_setting 'monoclinic'
loop_
_space_group_symop_operation_xyz
x,y,z
-x,1/2+y,1/2-z
-x,-y,-z
x,1/2-y,1/2+z
loop_
_atom_site_type_symbol
_atom_site_label
_atom_site_fract_x
_atom_site_fract_y
_atom_site_fract_z
Si Si1 0.040537 0.410449 0.640439
Si Si2 0.911896 0.264742 0.476220
Si Si3 0.232096 0.925616 0.547574
Si Si4 0.253917 0.240330 0.192378
Si Si5 0.645093 0.953776 0.142775
Si Si6 0.433520 0.854757 0.965804
Si Si7 0.616407 0.603720 0.991298
O O1 0.188800 0.361589 0.687482
O O2 0.156314 0.456190 0.479627
O O3 0.931680 0.323932 0.615790
O O4 0.912512 0.458961 0.791085
O O5 0.855293 0.159306 0.507315
O O6 0.755241 0.314505 0.442430
O O7 0.097997 0.277788 0.338888
O O8 0.408730 0.889331 0.570040
O O9 0.299181 0.018597 0.451367
O O10 0.455791 0.219868 0.160761
O O11 0.275065 0.303602 0.040731
O O12 0.634858 0.922167 0.312196
O O13 0.579604 0.053663 0.123562
O O14 0.529959 0.883623 0.084282
#
# Coordination Sequence:
#
# PCOD9248033 Si02
#       7
#     4   4   4   4   4   4   4
#     4  10  22  41  67  95 125 168 219 265 319 385
#     4  11  21  41  64  93 123 171 214 264 324 376
#     4  10  24  38  60  93 132 160 212 263 316 386
#     4  10  22  41  62  94 130 163 215 271 310 389
#     4  10  22  41  70  96 123 169 218 271 321 380
#     4  10  22  41  65  98 127 163 225 271 310 391
#     4  11  21  43  61  93 129 173 206 259 332 379
#
# _framework density 26.943028999999999
#
# number of rings (size 3 to 8) (size 9 to 14) (size 15 to 20)
#    0.000    1.714    2.857    0.857    2.000    3.429 
#   10.286    0.714    0.000    0.000    0.000    0.000 
#    0.000    0.000    0.000    0.000    0.000    0.000 
#
# Total GULP energy -156437.972237 kJ/mol
# GULP energy per Si atom -5587.070437 kJ/mol
# Density = 2.688171 g / cm^3
# Si number density = 26.943029 Si / 1000 Ang^3
#
#
#
# Elastic Constant Matrix: (Units=GPa)
#
#
# Indices 1 2 3 4 5 6 
#
# 1 97.4365 36.3679 39.0068 0.0000 -25.1368 0.0000
# 2 36.3679 113.5732 9.4689 0.0000 -14.6442 0.0000
# 3 39.0068 9.4689 71.2909 0.0000 -29.2909 0.0000
# 4 0.0000 0.0000 0.0000 39.6712 0.0000 -12.4596
# 5 -25.1368 -14.6442 -29.2909 0.0000 46.6239 0.0000
# 6 0.0000 0.0000 0.0000 -12.4596 0.0000 61.2350
#
#
#
# Elastic Compliance Matrix: (Units=1/GPa)
#
#
# Indices 1 2 3 4 5 6 
#
# 1 0.015079 -0.003924 -0.006599 0.000000 0.002752 0.000000
# 2 -0.003924 0.010198 0.001670 0.000000 0.002137 0.000000
# 3 -0.006599 0.001670 0.021795 0.000000 0.010660 0.000000
# 4 0.000000 0.000000 0.000000 0.026928 0.000000 0.005479
# 5 0.002752 0.002137 0.010660 0.000000 0.030300 0.000000
# 6 0.000000 0.000000 0.000000 0.005479 0.000000 0.017445
#
#
# Mechanical properties :
#
#
# Convention : Reuss Voigt Hill
#
# Bulk Modulus (GPa) = 34.05063 50.22086 42.13574
# Shear Modulus (GPa) = 33.50331 42.66981 38.08656
#
# Velocity S-wave (km/s) = 3.53014 3.98390 3.76386
# Velocity P-wave (km/s) = 5.41122 6.31205 5.87892
#
# Compressibility (1/GPa) = 0.02936803
#
# Stress axis : x y z
#
# Youngs Moduli (GPa) = 66.31646 98.06248 45.88118
#
# Poissons Ratio (x) = 0.38476 0.30276
# Poissons Ratio (y) = 0.26020 -0.07664
# Poissons Ratio (z) = 0.43761 -0.16380
#
# Static dielectric constant tensor:
#      x y z
#    x 2.161790 0.000000 0.036160 
#    y 0.000000 2.220550 0.000000 
#    z 0.036160 0.000000 2.146640 
# 
# From -- ./inp_files/25108.got.cif
#   From: 2010.05.17/outbox.cif.g08.bks.cpg/sg14_13_cif.got.tgz:25108.got - 2010.06.03 17:49:19.
