data_PCOD9248607
_publ_section_title
;
Structure prediction by ZEFSAII (Michael W. Deem and Ramdas Pophale) SiO2 
 PCOD9248607
Probable space group: P 21/C
;
_chemical_formula_sum "Si O2"
_cell_formula_units_Z 32
_cell_length_a 18.859237
_cell_length_b 6.149190
_cell_length_c 12.299035
_cell_angle_alpha 90.000000
_cell_angle_beta 95.324138
_cell_angle_gamma 90.000000
_cell_volume 1420.153654
_symmetry_space_group_name_H-M "P 21/C"
_symmetry_group_IT_number 14
_symmetry_cell_setting 'monoclinic'
loop_
_space_group_symop_operation_xyz
x,y,z
-x,1/2+y,1/2-z
-x,-y,-z
x,1/2-y,1/2+z
loop_
_atom_site_type_symbol
_atom_site_label
_atom_site_fract_x
_atom_site_fract_y
_atom_site_fract_z
Si Si1 0.716393 0.141853 0.782155
Si Si2 0.662026 0.971222 0.399382
Si Si3 0.899368 0.570640 0.898612
Si Si4 0.470693 0.685035 0.079299
Si Si5 0.035254 0.699277 0.439198
Si Si6 0.776628 0.658926 0.485639
Si Si7 0.175093 0.875864 0.817842
Si Si8 0.431527 0.422054 0.701968
O O1 0.702111 0.392544 0.813228
O O2 0.776669 0.163074 0.698531
O O3 0.751513 0.005645 0.886191
O O4 0.636803 0.047894 0.755136
O O5 0.717845 0.846165 0.479689
O O6 0.605803 0.797158 0.345316
O O7 0.613540 0.148254 0.450138
O O8 0.851792 0.731720 0.965371
O O9 0.848895 0.482868 0.797958
O O10 0.968736 0.696454 0.865867
O O11 0.931573 0.370748 0.970859
O O12 0.509657 0.618310 0.198045
O O13 0.467203 0.947267 0.105608
O O14 0.500000 0.500000 0.000000
O O15 0.100942 0.656166 0.370052
O O16 0.000000 0.500000 0.500000
O O17 0.780718 0.533774 0.598387
#
# Coordination Sequence:
#
# PCOD9248607 Si02
#       8
#     4   4   4   4   4   4   4   4
#     4  10  24  43  66 100 138 179 232 284 349 413
#     4  10  22  44  65  97 145 171 224 296 341 410
#     4  11  26  46  68 102 137 179 232 287 343 413
#     4  11  23  41  68  97 130 184 227 279 350 415
#     4  11  26  47  67 100 143 175 231 292 338 414
#     4  11  24  45  67 100 142 176 230 293 339 419
#     4  12  25  42  74  96 132 192 223 279 357 410
#     4  10  22  43  66  95 142 173 227 293 336 414
#
# _framework density 22.532772999999999
#
# number of rings (size 3 to 8) (size 9 to 14) (size 15 to 20)
#    0.000    1.250    3.750    0.750    1.750    5.500 
#    0.000    0.000    0.000    0.000    0.000    0.000 
#    0.000    0.000    0.000    0.000    0.000    0.000 
#
# Total GULP energy -178433.280492 kJ/mol
# GULP energy per Si atom -5576.040015 kJ/mol
# Density = 2.248149 g / cm^3
# Si number density = 22.532773 Si / 1000 Ang^3
#
#
#
# Elastic Constant Matrix: (Units=GPa)
#
#
# Indices 1 2 3 4 5 6 
#
# 1 110.3456 16.5735 11.9695 0.0000 3.8536 0.0000
# 2 16.5735 74.7995 10.0135 0.0000 9.2361 0.0000
# 3 11.9695 10.0135 37.1513 0.0000 2.9718 0.0000
# 4 0.0000 0.0000 0.0000 12.0663 0.0000 3.5793
# 5 3.8536 9.2361 2.9718 0.0000 35.1682 0.0000
# 6 0.0000 0.0000 0.0000 3.5793 0.0000 52.6072
#
#
#
# Elastic Compliance Matrix: (Units=1/GPa)
#
#
# Indices 1 2 3 4 5 6 
#
# 1 0.009619 -0.001736 -0.002601 0.000000 -0.000378 0.000000
# 2 -0.001736 0.014586 -0.003102 0.000000 -0.003378 0.000000
# 3 -0.002601 -0.003102 0.028697 0.000000 -0.001325 0.000000
# 4 0.000000 0.000000 0.000000 0.084583 0.000000 -0.005755
# 5 -0.000378 -0.003378 -0.001325 0.000000 0.029475 0.000000
# 6 0.000000 0.000000 0.000000 -0.005755 0.000000 0.019400
#
#
# Mechanical properties :
#
#
# Convention : Reuss Voigt Hill
#
# Bulk Modulus (GPa) = 26.29917 33.26771 29.78344
# Shear Modulus (GPa) = 23.37404 32.21768 27.79586
#
# Velocity S-wave (km/s) = 3.22426 3.78539 3.51604
# Velocity P-wave (km/s) = 5.05549 5.82252 5.45251
#
# Compressibility (1/GPa) = 0.03802401
#
# Stress axis : x y z
#
# Youngs Moduli (GPa) = 103.96591 68.55798 34.84692
#
# Poissons Ratio (x) = 0.11904 0.09063
# Poissons Ratio (y) = 0.18052 0.10809
# Poissons Ratio (z) = 0.27038 0.21265
#
# Static dielectric constant tensor:
#      x y z
#    x 1.859020 0.000000 -0.085900 
#    y 0.000000 1.959850 0.000000 
#    z -0.085900 0.000000 1.843530 
# 
# From -- ./inp_files/34722.got.cif
#   From: 2010.05.17/outbox.cif.g08.bks.cpg/sg14_18_cif.got.tgz:34722.got - 2010.06.03 17:49:19.
