data_PCOD9248941
_publ_section_title
;
Structure prediction by ZEFSAII (Michael W. Deem and Ramdas Pophale) SiO2 
 PCOD9248941
Probable space group: P 21/C
;
_chemical_formula_sum "Si O2"
_cell_formula_units_Z 32
_cell_length_a 20.986765
_cell_length_b 5.387370
_cell_length_c 11.796324
_cell_angle_alpha 90.000000
_cell_angle_beta 109.755563
_cell_angle_gamma 90.000000
_cell_volume 1255.234031
_symmetry_space_group_name_H-M "P 21/C"
_symmetry_group_IT_number 14
_symmetry_cell_setting 'monoclinic'
loop_
_space_group_symop_operation_xyz
x,y,z
-x,1/2+y,1/2-z
-x,-y,-z
x,1/2-y,1/2+z
loop_
_atom_site_type_symbol
_atom_site_label
_atom_site_fract_x
_atom_site_fract_y
_atom_site_fract_z
Si Si1 0.052041 0.432563 0.125966
Si Si2 0.552102 0.907961 0.436877
Si Si3 0.361050 0.226063 0.314751
Si Si4 0.575286 0.224325 0.249991
Si Si5 0.785834 0.128189 0.526213
Si Si6 0.238074 0.890469 0.224258
Si Si7 0.151365 0.281702 0.545192
Si Si8 0.064967 0.867857 0.865106
O O1 0.125877 0.418113 0.118440
O O2 0.057156 0.622724 0.228015
O O3 0.011289 0.191620 0.143333
O O4 0.000000 0.500000 0.000000
O O5 0.613917 0.787423 0.540253
O O6 0.504356 0.729934 0.333294
O O7 0.500000 0.000000 0.500000
O O8 0.576839 0.144215 0.381086
O O9 0.385792 0.493329 0.286122
O O10 0.395702 0.990199 0.269810
O O11 0.284202 0.141265 0.256161
O O12 0.747736 0.239431 0.388793
O O13 0.760366 0.193944 0.640632
O O14 0.865801 0.207713 0.573629
O O15 0.791342 0.832657 0.501946
O O16 0.167013 0.997805 0.141833
O O17 0.089945 0.371716 0.430949
#
# Coordination Sequence:
#
# PCOD9248941 Si02
#       8
#     4   4   4   4   4   4   4   4
#     4  12  23  40  67  96 137 177 235 307 374 463
#     4  10  22  44  74 110 150 196 243 310 375 448
#     4  11  27  45  71 112 145 207 252 316 376 455
#     4  11  24  45  73 109 156 193 253 307 382 447
#     4  11  25  50  72 103 146 195 256 315 389 457
#     4  11  28  46  77 104 148 202 257 316 380 458
#     4  11  24  45  68  99 141 190 242 309 386 460
#     4  11  25  40  64 102 130 185 236 308 382 460
#
# _framework density 25.493254
#
# number of rings (size 3 to 8) (size 9 to 14) (size 15 to 20)
#    0.000    1.000    1.250    4.500    7.000    4.000 
#    0.000    0.000    0.000    0.000    0.000    0.000 
#    0.000    0.000    0.000    0.000    0.000    0.000 
#
# Total GULP energy -178161.543352 kJ/mol
# GULP energy per Si atom -5567.548230 kJ/mol
# Density = 2.543523 g / cm^3
# Si number density = 25.493254 Si / 1000 Ang^3
#
#
#
# Elastic Constant Matrix: (Units=GPa)
#
#
# Indices 1 2 3 4 5 6 
#
# 1 36.1342 12.5664 28.1300 0.0000 -1.8955 0.0000
# 2 12.5664 71.0075 20.4198 0.0000 -10.5253 0.0000
# 3 28.1300 20.4198 135.7020 0.0000 -13.9735 0.0000
# 4 0.0000 0.0000 0.0000 56.8706 0.0000 7.3738
# 5 -1.8955 -10.5253 -13.9735 0.0000 39.6933 0.0000
# 6 0.0000 0.0000 0.0000 7.3738 0.0000 51.8510
#
#
#
# Elastic Compliance Matrix: (Units=1/GPa)
#
#
# Indices 1 2 3 4 5 6 
#
# 1 0.034282 -0.004438 -0.006632 0.000000 -0.001874 0.000000
# 2 -0.004438 0.015708 -0.001076 0.000000 0.003575 0.000000
# 3 -0.006632 -0.001076 0.009176 0.000000 0.002628 0.000000
# 4 0.000000 0.000000 0.000000 0.017914 0.000000 -0.002548
# 5 -0.001874 0.003575 0.002628 0.000000 0.026977 0.000000
# 6 0.000000 0.000000 0.000000 -0.002548 0.000000 0.019648
#
#
# Mechanical properties :
#
#
# Convention : Reuss Voigt Hill
#
# Bulk Modulus (GPa) = 28.67300 40.56403 34.61852
# Shear Modulus (GPa) = 31.32422 41.79814 36.56118
#
# Velocity S-wave (km/s) = 3.50912 4.05356 3.79113
# Velocity P-wave (km/s) = 5.26216 6.15262 5.72473
#
# Compressibility (1/GPa) = 0.03487601
#
# Stress axis : x y z
#
# Youngs Moduli (GPa) = 29.16956 63.66365 108.97640
#
# Poissons Ratio (x) = 0.28253 0.72270
# Poissons Ratio (y) = 0.12945 0.11722
# Poissons Ratio (z) = 0.19344 0.06848
#
# Static dielectric constant tensor:
#      x y z
#    x 1.960280 0.000000 0.056250 
#    y 0.000000 2.157610 0.000000 
#    z 0.056250 0.000000 2.016170 
# 
# From -- ./inp_files/35540.got.cif
#   From: 2010.05.17/outbox.cif.g08.bks.cpg/sg14_18_cif.got.tgz:35540.got - 2010.06.03 17:49:19.
