data_PCOD9248529
_publ_section_title
;
Structure prediction by ZEFSAII (Michael W. Deem and Ramdas Pophale) SiO2 
 PCOD9248529
Probable space group: P 21/C
;
_chemical_formula_sum "Si O2"
_cell_formula_units_Z 28
_cell_length_a 15.674133
_cell_length_b 5.084513
_cell_length_c 13.768388
_cell_angle_alpha 90.000000
_cell_angle_beta 79.119969
_cell_angle_gamma 90.000000
_cell_volume 1077.552240
_symmetry_space_group_name_H-M "P 21/C"
_symmetry_group_IT_number 14
_symmetry_cell_setting 'monoclinic'
loop_
_space_group_symop_operation_xyz
x,y,z
-x,1/2+y,1/2-z
-x,-y,-z
x,1/2-y,1/2+z
loop_
_atom_site_type_symbol
_atom_site_label
_atom_site_fract_x
_atom_site_fract_y
_atom_site_fract_z
Si Si1 0.608477 0.914343 0.522665
Si Si2 0.248769 0.791274 0.027051
Si Si3 0.896518 0.478962 0.828661
Si Si4 0.088696 0.022927 0.311038
Si Si5 0.470763 0.760283 0.199923
Si Si6 0.239220 0.314231 0.373038
Si Si7 0.676956 0.629507 0.330664
O O1 0.649957 0.204324 0.506197
O O2 0.481008 0.159102 0.407175
O O3 0.683388 0.796817 0.576916
O O4 0.614413 0.785565 0.416095
O O5 0.185059 0.570862 0.083779
O O6 0.253501 0.000074 0.113169
O O7 0.215949 0.921245 0.934914
O O8 0.902346 0.759480 0.776095
O O9 0.988412 0.451812 0.864573
O O10 0.894896 0.260497 0.742055
O O11 0.158087 0.120458 0.375206
O O12 0.474141 0.507014 0.268887
O O13 0.377165 0.894727 0.207749
O O14 0.280715 0.320844 0.256988
#
# Coordination Sequence:
#
# PCOD9248529 Si02
#       7
#     4   4   4   4   4   4   4
#     4  11  27  46  71 109 139 190 246 298 367 441
#     4  11  26  42  76 105 148 194 249 300 367 440
#     4  10  22  43  70 109 145 198 243 294 364 431
#     4  10  22  42  73 103 151 195 243 297 360 431
#     4  12  29  48  77 109 146 189 241 304 370 442
#     4  11  24  44  71 108 142 195 244 301 361 433
#     4  11  25  47  75  99 147 189 240 306 362 435
#
# _framework density 25.984819999999999
#
# number of rings (size 3 to 8) (size 9 to 14) (size 15 to 20)
#    0.000    1.143    2.857    1.286   10.000    3.429 
#    0.000    0.714    0.000    0.000    0.000    0.000 
#    0.000    0.000    0.000    0.000    0.000    0.000 
#
# Total GULP energy -156815.839755 kJ/mol
# GULP energy per Si atom -5600.565706 kJ/mol
# Density = 2.592568 g / cm^3
# Si number density = 25.984820 Si / 1000 Ang^3
#
#
#
# Elastic Constant Matrix: (Units=GPa)
#
#
# Indices 1 2 3 4 5 6 
#
# 1 113.5650 26.6976 24.0849 0.0000 -9.1969 0.0000
# 2 26.6976 114.6721 36.6050 0.0000 0.5351 0.0000
# 3 24.0849 36.6050 122.0771 0.0000 -9.7984 0.0000
# 4 0.0000 0.0000 0.0000 42.3953 0.0000 0.4097
# 5 -9.1969 0.5351 -9.7984 0.0000 30.8202 0.0000
# 6 0.0000 0.0000 0.0000 0.4097 0.0000 43.0918
#
#
#
# Elastic Compliance Matrix: (Units=1/GPa)
#
#
# Indices 1 2 3 4 5 6 
#
# 1 0.009703 -0.001908 -0.001136 0.000000 0.002567 0.000000
# 2 -0.001908 0.010056 -0.002769 0.000000 -0.001624 0.000000
# 3 -0.001136 -0.002769 0.009464 0.000000 0.002718 0.000000
# 4 0.000000 0.000000 0.000000 0.023590 0.000000 -0.000224
# 5 0.002567 -0.001624 0.002718 0.000000 0.034105 0.000000
# 6 0.000000 0.000000 0.000000 -0.000224 0.000000 0.023208
#
#
# Mechanical properties :
#
#
# Convention : Reuss Voigt Hill
#
# Bulk Modulus (GPa) = 56.83046 58.34324 57.58685
# Shear Modulus (GPa) = 39.17905 40.78989 39.98447
#
# Velocity S-wave (km/s) = 3.88721 3.96632 3.92696
# Velocity P-wave (km/s) = 6.48578 6.59372 6.53997
#
# Compressibility (1/GPa) = 0.01759620
#
# Stress axis : x y z
#
# Youngs Moduli (GPa) = 103.06079 99.43913 105.66120
#
# Poissons Ratio (x) = 0.18977 0.12004
# Poissons Ratio (y) = 0.19668 0.29261
# Poissons Ratio (z) = 0.11708 0.27538
#
# Static dielectric constant tensor:
#      x y z
#    x 2.099980 0.000000 0.020500 
#    y 0.000000 2.079720 0.000000 
#    z 0.020500 0.000000 2.018310 
# 
# From -- ./inp_files/47845.got.cif
#   From: 2010.05.17/outbox.cif.g08.bks.cpg/sg14_24_cif.got.tgz:47845.got - 2010.06.03 17:49:19.
