data_PCOD9248989
_publ_section_title
;
Structure prediction by ZEFSAII (Michael W. Deem and Ramdas Pophale) SiO2 
 PCOD9248989
Probable space group: P 21/C
;
_chemical_formula_sum "Si O2"
_cell_formula_units_Z 32
_cell_length_a 6.613779
_cell_length_b 17.087836
_cell_length_c 13.212120
_cell_angle_alpha 90.000000
_cell_angle_beta 89.697239
_cell_angle_gamma 90.000000
_cell_volume 1493.149153
_symmetry_space_group_name_H-M "P 21/C"
_symmetry_group_IT_number 14
_symmetry_cell_setting 'monoclinic'
loop_
_space_group_symop_operation_xyz
x,y,z
-x,1/2+y,1/2-z
-x,-y,-z
x,1/2-y,1/2+z
loop_
_atom_site_type_symbol
_atom_site_label
_atom_site_fract_x
_atom_site_fract_y
_atom_site_fract_z
Si Si1 0.923647 0.826140 0.888840
Si Si2 0.246676 0.929552 0.784984
Si Si3 0.967654 0.057049 0.769845
Si Si4 0.633247 0.165303 0.861326
Si Si5 0.978914 0.050415 0.399732
Si Si6 0.560035 0.917261 0.951917
Si Si7 0.024884 0.731415 0.082603
Si Si8 0.245138 0.303493 0.245112
O O1 0.793596 0.897094 0.934732
O O2 0.771901 0.766847 0.833367
O O3 0.090984 0.859952 0.812550
O O4 0.025800 0.776085 0.976397
O O5 0.451123 0.914605 0.842952
O O6 0.233008 0.945495 0.664530
O O7 0.137471 0.007918 0.829839
O O8 0.095625 0.125788 0.714811
O O9 0.794804 0.097283 0.834944
O O10 0.889875 0.994361 0.687181
O O11 0.467619 0.168755 0.773372
O O12 0.760852 0.245306 0.867701
O O13 0.529442 0.145357 0.968202
O O14 0.021194 0.140167 0.424266
O O15 0.000000 0.000000 0.500000
O O16 0.500000 0.000000 0.000000
O O17 0.852547 0.770820 0.151230
#
# Coordination Sequence:
#
# PCOD9248989 Si02
#       8
#     4   4   4   4   4   4   4   4
#     4  12  24  40  66  92 131 170 215 268 329 386
#     4  10  23  42  64  93 127 167 215 264 326 381
#     4   9  22  40  66  91 129 171 208 266 323 380
#     4  11  23  40  65  97 130 163 217 265 331 389
#     4  10  22  45  68  93 129 177 223 261 322 393
#     4  12  25  38  66  99 131 167 216 270 328 391
#     4  11  23  42  67  92 129 175 213 274 328 385
#     4  11  22  41  63  95 131 166 216 269 323 392
#
# _framework density 21.431214000000001
#
# number of rings (size 3 to 8) (size 9 to 14) (size 15 to 20)
#    0.750    0.500    3.750    2.250    3.500    1.000 
#    2.250    1.250    0.000    3.000    0.000    0.000 
#    0.000    0.000    0.000    0.000    0.000    0.000 
#
# Total GULP energy -178507.142711 kJ/mol
# GULP energy per Si atom -5578.348210 kJ/mol
# Density = 2.138244 g / cm^3
# Si number density = 21.431214 Si / 1000 Ang^3
#
#
#
# Elastic Constant Matrix: (Units=GPa)
#
#
# Indices 1 2 3 4 5 6 
#
# 1 48.8367 12.4908 7.1682 0.0000 9.4357 0.0000
# 2 12.4908 106.1516 13.6929 0.0000 -2.8681 0.0000
# 3 7.1682 13.6929 74.3060 0.0000 11.6414 0.0000
# 4 0.0000 0.0000 0.0000 43.8392 0.0000 6.1581
# 5 9.4357 -2.8681 11.6414 0.0000 26.5269 0.0000
# 6 0.0000 0.0000 0.0000 6.1581 0.0000 22.0605
#
#
#
# Elastic Compliance Matrix: (Units=1/GPa)
#
#
# Indices 1 2 3 4 5 6 
#
# 1 0.022864 -0.002865 -0.000381 0.000000 -0.008275 0.000000
# 2 -0.002865 0.010105 -0.002058 0.000000 0.003015 0.000000
# 3 -0.000381 -0.002058 0.014913 0.000000 -0.006631 0.000000
# 4 0.000000 0.000000 0.000000 0.023742 0.000000 -0.006627
# 5 -0.008275 0.003015 -0.006631 0.000000 0.043877 0.000000
# 6 0.000000 0.000000 0.000000 -0.006627 0.000000 0.047180
#
#
# Mechanical properties :
#
#
# Convention : Reuss Voigt Hill
#
# Bulk Modulus (GPa) = 26.82895 32.88868 29.85882
# Shear Modulus (GPa) = 26.92332 31.54812 29.23572
#
# Velocity S-wave (km/s) = 3.54823 3.84091 3.69747
# Velocity P-wave (km/s) = 5.41594 5.92027 5.67371
#
# Compressibility (1/GPa) = 0.03727317
#
# Stress axis : x y z
#
# Youngs Moduli (GPa) = 43.73700 98.96569 67.05642
#
# Poissons Ratio (x) = 0.28352 0.02557
# Poissons Ratio (y) = 0.12530 0.13800
# Poissons Ratio (z) = 0.01668 0.20367
#
# Static dielectric constant tensor:
#      x y z
#    x 1.787000 0.000000 0.020730 
#    y 0.000000 1.821270 0.000000 
#    z 0.020730 0.000000 1.805720 
# 
# From -- ./inp_files/37869.got.cif
#   From: 2010.05.17/outbox.cif.g08.bks.cpg/sg14_19_cif.got.tgz:37869.got - 2010.06.03 17:49:19.
