data_PCOD9248973
_publ_section_title
;
Structure prediction by ZEFSAII (Michael W. Deem and Ramdas Pophale) SiO2 
 PCOD9248973
Probable space group: P 21/C
;
_chemical_formula_sum "Si O2"
_cell_formula_units_Z 28
_cell_length_a 26.066500
_cell_length_b 7.796446
_cell_length_c 9.116862
_cell_angle_alpha 90.000000
_cell_angle_beta 35.574781
_cell_angle_gamma 90.000000
_cell_volume 1077.884893
_symmetry_space_group_name_H-M "P 21/C"
_symmetry_group_IT_number 14
_symmetry_cell_setting 'monoclinic'
loop_
_space_group_symop_operation_xyz
x,y,z
-x,1/2+y,1/2-z
-x,-y,-z
x,1/2-y,1/2+z
loop_
_atom_site_type_symbol
_atom_site_label
_atom_site_fract_x
_atom_site_fract_y
_atom_site_fract_z
Si Si1 0.601896 0.165368 0.686472
Si Si2 0.057975 0.403230 0.050993
Si Si3 0.246980 0.423228 0.468297
Si Si4 0.032909 0.778185 0.981487
Si Si5 0.314388 0.371482 0.619656
Si Si6 0.476219 0.543313 0.325765
Si Si7 0.232847 0.673583 0.005992
O O1 0.560463 0.339112 0.718823
O O2 0.702894 0.158387 0.502758
O O3 0.573970 0.025470 0.628634
O O4 0.552748 0.128459 0.953768
O O5 0.033344 0.591158 0.054831
O O6 0.041911 0.383512 0.260372
O O7 0.155107 0.374616 0.762655
O O8 0.993031 0.269676 0.122357
O O9 0.314672 0.388246 0.444163
O O10 0.264549 0.295511 0.294445
O O11 0.241937 0.625014 0.442747
O O12 0.130046 0.855017 0.775799
O O13 0.413719 0.375507 0.450945
O O14 0.267089 0.538194 0.805097
#
# Coordination Sequence:
#
# PCOD9248973 Si02
#       7
#     4   4   4   4   4   4   4
#     4  10  22  45  67 100 139 173 233 279 347 416
#     4  10  23  40  61  99 127 180 221 283 342 405
#     4  11  24  46  68 102 145 179 237 292 349 417
#     4  10  23  39  65  92 136 169 232 276 344 401
#     4  11  25  44  70 105 137 188 234 286 359 411
#     4  10  23  44  68 103 135 180 231 283 349 417
#     4  10  24  44  69  99 136 188 231 286 344 420
#
# _framework density 25.976800999999998
#
# number of rings (size 3 to 8) (size 9 to 14) (size 15 to 20)
#    0.000    1.714    1.429    0.857    6.000    5.714 
#    7.714    0.000    0.000    0.000    0.000    0.000 
#    0.000    0.000    0.000    0.000    0.000    0.000 
#
# Total GULP energy -156811.358782 kJ/mol
# GULP energy per Si atom -5600.405671 kJ/mol
# Density = 2.591768 g / cm^3
# Si number density = 25.976801 Si / 1000 Ang^3
#
#
#
# Elastic Constant Matrix: (Units=GPa)
#
#
# Indices 1 2 3 4 5 6 
#
# 1 92.1437 27.2447 12.8544 0.0000 -18.0345 0.0000
# 2 27.2447 80.8892 12.3737 0.0000 -6.6921 0.0000
# 3 12.8544 12.3737 53.0987 0.0000 -14.5101 0.0000
# 4 0.0000 0.0000 0.0000 35.7928 0.0000 -0.0346
# 5 -18.0345 -6.6921 -14.5101 0.0000 40.2734 0.0000
# 6 0.0000 0.0000 0.0000 -0.0346 0.0000 40.7326
#
#
#
# Elastic Compliance Matrix: (Units=1/GPa)
#
#
# Indices 1 2 3 4 5 6 
#
# 1 0.013079 -0.003859 -0.000934 0.000000 0.004879 0.000000
# 2 -0.003859 0.014008 -0.002403 0.000000 -0.000266 0.000000
# 3 -0.000934 -0.002403 0.021514 0.000000 0.006934 0.000000
# 4 0.000000 0.000000 0.000000 0.027939 0.000000 0.000024
# 5 0.004879 -0.000266 0.006934 0.000000 0.029469 0.000000
# 6 0.000000 0.000000 0.000000 0.000024 0.000000 0.024550
#
#
# Mechanical properties :
#
#
# Convention : Reuss Voigt Hill
#
# Bulk Modulus (GPa) = 29.23141 36.78638 33.00889
# Shear Modulus (GPa) = 31.97917 34.93700 33.45808
#
# Velocity S-wave (km/s) = 3.51246 3.67131 3.59276
# Velocity P-wave (km/s) = 5.26566 5.67127 5.47223
#
# Compressibility (1/GPa) = 0.03420978
#
# Stress axis : x y z
#
# Youngs Moduli (GPa) = 76.46008 71.38880 46.48227
#
# Poissons Ratio (x) = 0.27546 0.04340
# Poissons Ratio (y) = 0.29503 0.11169
# Poissons Ratio (z) = 0.07139 0.17154
#
# Static dielectric constant tensor:
#      x y z
#    x 1.998480 0.000000 -0.053950 
#    y 0.000000 2.084030 0.000000 
#    z -0.053950 0.000000 2.024080 
# 
# From -- ./inp_files/19711.got.cif
#   From: 2010.05.17/outbox.cif.g08.bks.cpg/sg14_10_cif.got.tgz:19711.got - 2010.06.03 17:49:19.
