data_PCOD9248365
_publ_section_title
;
Structure prediction by ZEFSAII (Michael W. Deem and Ramdas Pophale) SiO2 
 PCOD9248365
Probable space group: P 21/C
;
_chemical_formula_sum "Si O2"
_cell_formula_units_Z 28
_cell_length_a 20.825597
_cell_length_b 13.314958
_cell_length_c 5.077999
_cell_angle_alpha 90.000000
_cell_angle_beta 121.361150
_cell_angle_gamma 90.000000
_cell_volume 1202.372009
_symmetry_space_group_name_H-M "P 21/C"
_symmetry_group_IT_number 14
_symmetry_cell_setting 'monoclinic'
loop_
_space_group_symop_operation_xyz
x,y,z
-x,1/2+y,1/2-z
-x,-y,-z
x,1/2-y,1/2+z
loop_
_atom_site_type_symbol
_atom_site_label
_atom_site_fract_x
_atom_site_fract_y
_atom_site_fract_z
Si Si1 0.267133 0.689292 0.706032
Si Si2 0.598386 0.435698 0.885402
Si Si3 0.818903 0.492313 0.629192
Si Si4 0.922854 0.319810 0.051931
Si Si5 0.457312 0.313362 0.661455
Si Si6 0.661187 0.542462 0.517132
Si Si7 0.898160 0.684062 0.555984
O O1 0.250641 0.724582 0.377081
O O2 0.354189 0.661336 0.921312
O O3 0.220681 0.587885 0.651673
O O4 0.620730 0.518062 0.151614
O O5 0.511790 0.406006 0.709565
O O6 0.631090 0.465146 0.671978
O O7 0.749642 0.531154 0.659968
O O8 0.854784 0.584588 0.550879
O O9 0.879738 0.424514 0.914267
O O10 0.905955 0.259374 0.282052
O O11 0.012556 0.338291 0.237662
O O12 0.472673 0.227608 0.483133
O O13 0.371556 0.351195 0.461237
O O14 0.881711 0.727596 0.232271
#
# Coordination Sequence:
#
# PCOD9248365 Si02
#       7
#     4   4   4   4   4   4   4
#     4  11  22  37  59  94 127 155 199 256 313 375
#     4  11  22  42  63  87 122 165 207 256 315 376
#     4  11  24  41  66  94 130 172 203 256 326 376
#     4  10  22  42  66  97 127 160 208 262 314 378
#     4  12  24  41  64  88 118 163 212 262 310 366
#     4  11  25  40  61  91 125 161 206 257 313 379
#     4  10  24  43  65  91 126 170 219 259 298 366
#
# _framework density 23.287300999999999
#
# number of rings (size 3 to 8) (size 9 to 14) (size 15 to 20)
#    0.000    1.143    0.000    6.429    0.000    8.000 
#    0.000    4.286    0.000    0.000    0.000    0.000 
#    0.000    0.000    0.000    0.000    0.000    0.000 
#
# Total GULP energy -156778.858372 kJ/mol
# GULP energy per Si atom -5599.244942 kJ/mol
# Density = 2.323430 g / cm^3
# Si number density = 23.287301 Si / 1000 Ang^3
#
#
#
# Elastic Constant Matrix: (Units=GPa)
#
#
# Indices 1 2 3 4 5 6 
#
# 1 114.5845 28.0443 7.8976 0.0000 6.3905 0.0000
# 2 28.0443 49.2771 -8.0454 0.0000 17.8667 0.0000
# 3 7.8976 -8.0454 41.7825 0.0000 -9.4842 0.0000
# 4 0.0000 0.0000 0.0000 21.1426 0.0000 11.4450
# 5 6.3905 17.8667 -9.4842 0.0000 27.6516 0.0000
# 6 0.0000 0.0000 0.0000 11.4450 0.0000 54.8619
#
#
#
# Elastic Compliance Matrix: (Units=1/GPa)
#
#
# Indices 1 2 3 4 5 6 
#
# 1 0.010568 -0.006856 -0.003109 0.000000 0.000921 0.000000
# 2 -0.006856 0.031017 0.003339 0.000000 -0.017312 0.000000
# 3 -0.003109 0.003339 0.026934 0.000000 0.007799 0.000000
# 4 0.000000 0.000000 0.000000 0.053319 0.000000 -0.011123
# 5 0.000921 -0.017312 0.007799 0.000000 0.049812 0.000000
# 6 0.000000 0.000000 0.000000 -0.011123 0.000000 0.020548
#
#
# Mechanical properties :
#
#
# Convention : Reuss Voigt Hill
#
# Bulk Modulus (GPa) = 18.09362 29.04855 23.57109
# Shear Modulus (GPa) = 22.33409 32.58105 27.45757
#
# Velocity S-wave (km/s) = 3.10024 3.74450 3.43750
# Velocity P-wave (km/s) = 4.53893 5.58535 5.08911
#
# Compressibility (1/GPa) = 0.05526810
#
# Stress axis : x y z
#
# Youngs Moduli (GPa) = 94.62482 32.24014 37.12743
#
# Poissons Ratio (x) = 0.22104 0.11541
# Poissons Ratio (y) = 0.64875 -0.12396
# Poissons Ratio (z) = 0.29415 -0.10765
#
# Static dielectric constant tensor:
#      x y z
#    x 1.896450 0.000000 0.033720 
#    y 0.000000 1.863270 0.000000 
#    z 0.033720 0.000000 1.865620 
# 
# From -- ./inp_files/4379.got.cif
#   From: 2010.05.17/outbox.cif.g08.bks.cpg/sg14_3_cif.got.tgz:4379.got - 2010.06.03 17:49:19.
