data_PCOD9248769
_publ_section_title
;
Structure prediction by ZEFSAII (Michael W. Deem and Ramdas Pophale) SiO2 
 PCOD9248769
Probable space group: P 21/C
;
_chemical_formula_sum "Si O2"
_cell_formula_units_Z 28
_cell_length_a 13.275955
_cell_length_b 10.879519
_cell_length_c 13.332325
_cell_angle_alpha 90.000000
_cell_angle_beta 135.153402
_cell_angle_gamma 90.000000
_cell_volume 1358.002204
_symmetry_space_group_name_H-M "P 21/C"
_symmetry_group_IT_number 14
_symmetry_cell_setting 'monoclinic'
loop_
_space_group_symop_operation_xyz
x,y,z
-x,1/2+y,1/2-z
-x,-y,-z
x,1/2-y,1/2+z
loop_
_atom_site_type_symbol
_atom_site_label
_atom_site_fract_x
_atom_site_fract_y
_atom_site_fract_z
Si Si1 0.676169 0.333384 0.879275
Si Si2 0.048285 0.565046 0.140667
Si Si3 0.212872 0.431493 0.697032
Si Si4 0.759918 0.565962 0.054263
Si Si5 0.091817 0.689902 0.558954
Si Si6 0.620812 0.766338 0.293036
Si Si7 0.645249 0.991233 0.165230
O O1 0.824137 0.261682 0.968963
O O2 0.547411 0.242733 0.810096
O O3 0.645546 0.405899 0.753543
O O4 0.686567 0.438811 0.969416
O O5 0.066727 0.708572 0.127025
O O6 0.202466 0.512649 0.281328
O O7 0.924429 0.550450 0.134701
O O8 0.000000 0.500000 0.000000
O O9 0.261627 0.412144 0.844765
O O10 0.188241 0.575386 0.660623
O O11 0.317770 0.366244 0.692898
O O12 0.060158 0.364212 0.578826
O O13 0.695486 0.675801 0.942656
O O14 0.653754 0.860285 0.226361
O O15 0.500000 0.000000 0.000000
#
# Coordination Sequence:
#
# PCOD9248769 Si02
#       7
#     4   4   4   4   4   4   4
#     4  10  24  42  66  89 137 175 218 271 339 399
#     4  11  18  46  71  88 132 176 223 275 325 407
#     4  11  25  41  66 101 131 172 221 284 338 397
#     4  11  24  43  70  97 125 189 222 268 348 401
#     4  10  22  44  64  94 133 168 220 283 330 396
#     4  11  24  44  63  95 141 169 219 283 331 402
#     4  10  23  40  67  98 123 175 227 272 329 397
#
# _framework density 20.618525000000002
#
# number of rings (size 3 to 8) (size 9 to 14) (size 15 to 20)
#    0.000    1.429    5.714    0.000    6.000    5.143 
#    2.571    0.000    0.000    0.000    0.000    0.000 
#    0.000    0.000    0.000    0.000    0.000    0.000 
#
# Total GULP energy -156491.108992 kJ/mol
# GULP energy per Si atom -5588.968178 kJ/mol
# Density = 2.057160 g / cm^3
# Si number density = 20.618525 Si / 1000 Ang^3
#
#
#
# Elastic Constant Matrix: (Units=GPa)
#
#
# Indices 1 2 3 4 5 6 
#
# 1 29.3921 -2.8071 -5.0714 0.0000 13.3072 0.0000
# 2 -2.8071 78.4897 0.8362 0.0000 1.3432 0.0000
# 3 -5.0714 0.8362 61.4376 0.0000 6.0078 0.0000
# 4 0.0000 0.0000 0.0000 16.4028 0.0000 17.1302
# 5 13.3072 1.3432 6.0078 0.0000 30.2647 0.0000
# 6 0.0000 0.0000 0.0000 17.1302 0.0000 21.6811
#
#
#
# Elastic Compliance Matrix: (Units=1/GPa)
#
#
# Indices 1 2 3 4 5 6 
#
# 1 0.044618 0.001892 0.005694 0.000000 -0.020833 0.000000
# 2 0.001892 0.012831 0.000121 0.000000 -0.001425 0.000000
# 3 0.005694 0.000121 0.017327 0.000000 -0.005949 0.000000
# 4 0.000000 0.000000 0.000000 0.348635 0.000000 -0.275456
# 5 -0.020833 -0.001425 -0.005949 0.000000 0.043446 0.000000
# 6 0.000000 0.000000 0.000000 -0.275456 0.000000 0.263760
#
#
# Mechanical properties :
#
#
# Convention : Reuss Voigt Hill
#
# Bulk Modulus (GPa) = 11.08778 17.24833 14.16806
# Shear Modulus (GPa) = 6.70901 25.42716 16.06808
#
# Velocity S-wave (km/s) = 1.80581 3.51553 2.79463
# Velocity P-wave (km/s) = 3.12044 4.98620 4.15929
#
# Compressibility (1/GPa) = 0.09018936
#
# Stress axis : x y z
#
# Youngs Moduli (GPa) = 22.41256 77.93464 57.71416
#
# Poissons Ratio (x) = -0.14742 -0.32865
# Poissons Ratio (y) = -0.04239 -0.00697
# Poissons Ratio (z) = -0.12763 -0.00942
#
# Static dielectric constant tensor:
#      x y z
#    x 1.754020 0.000000 0.030150 
#    y 0.000000 1.739370 0.000000 
#    z 0.030150 0.000000 1.737320 
# 
# From -- ./inp_files/46958.got.cif
#   From: 2010.05.17/outbox.cif.g08.bks.cpg/sg14_24_cif.got.tgz:46958.got - 2010.06.03 17:49:19.
