data_PCOD9248817
_publ_section_title
;
Structure prediction by ZEFSAII (Michael W. Deem and Ramdas Pophale) SiO2 
 PCOD9248817
Probable space group: P 21/C
;
_chemical_formula_sum "Si O2"
_cell_formula_units_Z 28
_cell_length_a 9.747871
_cell_length_b 13.443687
_cell_length_c 14.475217
_cell_angle_alpha 90.000000
_cell_angle_beta 46.845610
_cell_angle_gamma 90.000000
_cell_volume 1383.841908
_symmetry_space_group_name_H-M "P 21/C"
_symmetry_group_IT_number 14
_symmetry_cell_setting 'monoclinic'
loop_
_space_group_symop_operation_xyz
x,y,z
-x,1/2+y,1/2-z
-x,-y,-z
x,1/2-y,1/2+z
loop_
_atom_site_type_symbol
_atom_site_label
_atom_site_fract_x
_atom_site_fract_y
_atom_site_fract_z
Si Si1 0.487806 0.827880 0.797103
Si Si2 0.737507 0.523192 0.301026
Si Si3 0.887153 0.510147 0.956171
Si Si4 0.502488 0.606776 0.881761
Si Si5 0.620142 0.669311 0.025854
Si Si6 0.221547 0.493371 0.383429
Si Si7 0.412526 0.111196 0.949817
O O1 0.647892 0.892641 0.775868
O O2 0.485258 0.718097 0.844222
O O3 0.522299 0.823514 0.671161
O O4 0.309492 0.903258 0.882419
O O5 0.677231 0.538733 0.433651
O O6 0.625754 0.421263 0.327965
O O7 0.959205 0.523745 0.188442
O O8 0.693529 0.448962 0.049361
O O9 0.819328 0.619912 0.958755
O O10 0.000000 0.500000 0.000000
O O11 0.674625 0.540296 0.759784
O O12 0.530250 0.613920 0.979590
O O13 0.617614 0.782013 0.994300
O O14 0.293412 0.403168 0.413720
O O15 0.000000 0.500000 0.500000
#
# Coordination Sequence:
#
# PCOD9248817 Si02
#       7
#     4   4   4   4   4   4   4
#     4  11  23  45  68  93 136 179 225 279 340 406
#     4  10  22  45  67  93 133 179 228 273 340 405
#     4  12  25  44  69  99 136 180 223 285 341 400
#     4  12  26  45  68 102 138 178 227 285 340 403
#     4  12  24  43  71  99 137 179 223 285 340 403
#     4  11  25  43  68  96 135 179 222 281 336 403
#     4  10  22  44  67  95 133 179 224 278 334 404
#
# _framework density 20.233526000000001
#
# number of rings (size 3 to 8) (size 9 to 14) (size 15 to 20)
#    0.000    0.857    5.714    1.286    2.000    2.286 
#    2.571    0.000    0.000    0.000    0.000    0.000 
#    0.000    0.000    0.000    0.000    0.000    0.000 
#
# Total GULP energy -155990.653851 kJ/mol
# GULP energy per Si atom -5571.094780 kJ/mol
# Density = 2.018747 g / cm^3
# Si number density = 20.233526 Si / 1000 Ang^3
#
#
#
# Elastic Constant Matrix: (Units=GPa)
#
#
# Indices 1 2 3 4 5 6 
#
# 1 89.1114 14.0380 41.3333 0.0000 3.7230 0.0000
# 2 14.0380 91.7874 14.9486 0.0000 -15.3157 0.0000
# 3 41.3333 14.9486 109.3838 0.0000 -10.3210 0.0000
# 4 0.0000 0.0000 0.0000 21.3608 0.0000 9.2867
# 5 3.7230 -15.3157 -10.3210 0.0000 49.2394 0.0000
# 6 0.0000 0.0000 0.0000 9.2867 0.0000 15.4552
#
#
#
# Elastic Compliance Matrix: (Units=1/GPa)
#
#
# Indices 1 2 3 4 5 6 
#
# 1 0.014088 -0.001739 -0.005343 0.000000 -0.002726 0.000000
# 2 -0.001739 0.011878 -0.000617 0.000000 0.003697 0.000000
# 3 -0.005343 -0.000617 0.011493 0.000000 0.002621 0.000000
# 4 0.000000 0.000000 0.000000 0.063369 0.000000 -0.038077
# 5 -0.002726 0.003697 0.002621 0.000000 0.022214 0.000000
# 6 0.000000 0.000000 0.000000 -0.038077 0.000000 0.087583
#
#
# Mechanical properties :
#
#
# Convention : Reuss Voigt Hill
#
# Bulk Modulus (GPa) = 45.33143 47.88028 46.60585
# Shear Modulus (GPa) = 21.42446 31.87525 26.64985
#
# Velocity S-wave (km/s) = 3.25754 3.97340 3.63314
# Velocity P-wave (km/s) = 6.04992 6.69072 6.37837
#
# Compressibility (1/GPa) = 0.02205975
#
# Stress axis : x y z
#
# Youngs Moduli (GPa) = 70.98172 84.18843 87.01109
#
# Poissons Ratio (x) = 0.14643 0.46491
# Poissons Ratio (y) = 0.12346 0.05371
# Poissons Ratio (z) = 0.37926 0.05196
#
# Static dielectric constant tensor:
#      x y z
#    x 1.726330 0.000000 0.030880 
#    y 0.000000 2.512150 0.000000 
#    z 0.030880 0.000000 1.758900 
# 
# From -- ./inp_files/41141.got.cif
#   From: 2010.05.17/outbox.cif.g08.bks.cpg/sg14_21_cif.got.tgz:41141.got - 2010.06.03 17:49:19.
