data_PCOD9248526
_publ_section_title
;
Structure prediction by ZEFSAII (Michael W. Deem and Ramdas Pophale) SiO2 
 PCOD9248526
Probable space group: P 21/C
;
_chemical_formula_sum "Si O2"
_cell_formula_units_Z 26
_cell_length_a 12.325223
_cell_length_b 8.270477
_cell_length_c 21.564171
_cell_angle_alpha 90.000000
_cell_angle_beta 148.691146
_cell_angle_gamma 90.000000
_cell_volume 1142.273235
_symmetry_space_group_name_H-M "P 21/C"
_symmetry_group_IT_number 14
_symmetry_cell_setting 'monoclinic'
loop_
_space_group_symop_operation_xyz
x,y,z
-x,1/2+y,1/2-z
-x,-y,-z
x,1/2-y,1/2+z
loop_
_atom_site_type_symbol
_atom_site_label
_atom_site_fract_x
_atom_site_fract_y
_atom_site_fract_z
Si Si1 0.032702 0.161812 0.742507
Si Si2 0.256174 0.657785 0.019174
Si Si3 0.571380 0.851341 0.576975
Si Si4 0.292290 0.839503 0.853439
Si Si5 0.759417 0.047768 0.895576
Si Si6 0.613451 0.164122 0.241787
Si Si7 0.000000 0.000000 0.500000
O O1 0.187795 0.312286 0.809362
O O2 0.884977 0.153083 0.610705
O O3 0.886389 0.200307 0.729578
O O4 0.171344 0.002864 0.809852
O O5 0.487163 0.629472 0.105406
O O6 0.243172 0.830087 0.047068
O O7 0.162933 0.531753 0.022057
O O8 0.454666 0.701312 0.486815
O O9 0.500000 0.000000 0.500000
O O10 0.397380 0.839458 0.837725
O O11 0.670766 0.159943 0.797004
O O12 0.602005 0.901424 0.833340
O O13 0.000000 0.000000 0.000000
O O14 0.808638 0.051387 0.357745
#
# Coordination Sequence:
#
# PCOD9248526 Si02
#       7
#     4   4   4   4   4   4   2
#     4  11  22  43  69  97 146 175 238 290 368 424
#     4  10  23  42  71  97 139 179 236 293 363 425
#     4  11  25  42  67 104 136 189 233 296 360 435
#     4  11  24  42  70 104 134 189 235 299 365 434
#     4  11  28  47  72 108 142 197 250 302 375 441
#     4  11  26  46  74 103 150 188 254 307 371 438
#     4  10  22  42  72  98 136 194 232 300 368 412
#
# _framework density 22.761628000000002
#
# number of rings (size 3 to 8) (size 9 to 14) (size 15 to 20)
#    0.000    1.231    1.538    3.231    4.308    9.846 
#    0.000    0.000    0.000    0.000    0.000    0.000 
#    0.000    0.000    0.000    0.000    0.000    0.000 
#
# Total GULP energy -144872.797914 kJ/mol
# GULP energy per Si atom -5572.030689 kJ/mol
# Density = 2.270982 g / cm^3
# Si number density = 22.761628 Si / 1000 Ang^3
#
#
#
# Elastic Constant Matrix: (Units=GPa)
#
#
# Indices 1 2 3 4 5 6 
#
# 1 151.8164 23.7116 31.5530 0.0000 33.0648 0.0000
# 2 23.7116 76.3532 15.0118 0.0000 18.4876 0.0000
# 3 31.5530 15.0118 62.2032 0.0000 30.3763 0.0000
# 4 0.0000 0.0000 0.0000 42.6256 0.0000 0.2811
# 5 33.0648 18.4876 30.3763 0.0000 36.5115 0.0000
# 6 0.0000 0.0000 0.0000 0.2811 0.0000 36.4266
#
#
#
# Elastic Compliance Matrix: (Units=1/GPa)
#
#
# Indices 1 2 3 4 5 6 
#
# 1 0.008285 -0.000867 -0.000916 0.000000 -0.006302 0.000000
# 2 -0.000867 0.015019 0.000245 0.000000 -0.007024 0.000000
# 3 -0.000916 0.000245 0.027180 0.000000 -0.021908 0.000000
# 4 0.000000 0.000000 0.000000 0.023461 0.000000 -0.000181
# 5 -0.006302 -0.007024 -0.021908 0.000000 0.054879 0.000000
# 6 0.000000 0.000000 0.000000 -0.000181 0.000000 0.027454
#
#
# Mechanical properties :
#
#
# Convention : Reuss Voigt Hill
#
# Bulk Modulus (GPa) = 21.09328 47.88062 34.48695
# Shear Modulus (GPa) = 28.54594 37.78582 33.16588
#
# Velocity S-wave (km/s) = 3.54521 4.07881 3.82133
# Velocity P-wave (km/s) = 5.10344 6.57751 5.88680
#
# Compressibility (1/GPa) = 0.04740847
#
# Stress axis : x y z
#
# Youngs Moduli (GPa) = 120.69648 66.58363 36.79155
#
# Poissons Ratio (x) = 0.05773 0.03370
# Poissons Ratio (y) = 0.10464 -0.00902
# Poissons Ratio (z) = 0.11055 -0.01632
#
# Static dielectric constant tensor:
#      x y z
#    x 1.850700 0.000000 0.052130 
#    y 0.000000 2.144300 0.000000 
#    z 0.052130 0.000000 1.855960 
# 
# From -- ./inp_files/73178.got.cif
#   From: 2010.05.17/outbox.cif.g08.bks.cpg/sg14_37_cif.got.tgz:73178.got - 2010.06.03 17:49:19.
