data_PCOD9248215
_publ_section_title
;
Structure prediction by ZEFSAII (Michael W. Deem and Ramdas Pophale) SiO2 
 PCOD9248215
Probable space group: P 21/C
;
_chemical_formula_sum "Si O2"
_cell_formula_units_Z 20
_cell_length_a 18.124000
_cell_length_b 6.289409
_cell_length_c 18.083565
_cell_angle_alpha 90.000000
_cell_angle_beta 155.463562
_cell_angle_gamma 90.000000
_cell_volume 856.013170
_symmetry_space_group_name_H-M "P 21/C"
_symmetry_group_IT_number 14
_symmetry_cell_setting 'monoclinic'
loop_
_space_group_symop_operation_xyz
x,y,z
-x,1/2+y,1/2-z
-x,-y,-z
x,1/2-y,1/2+z
loop_
_atom_site_type_symbol
_atom_site_label
_atom_site_fract_x
_atom_site_fract_y
_atom_site_fract_z
Si Si1 0.788186 0.394678 0.984327
Si Si2 0.015066 0.157642 0.581722
Si Si3 0.828188 0.143222 0.160457
Si Si4 0.389750 0.241540 0.104086
Si Si5 0.331365 0.482899 0.899209
O O1 0.736235 0.645445 0.950489
O O2 0.582672 0.309687 0.809551
O O3 0.886079 0.292931 0.146351
O O4 0.827683 0.264439 0.941688
O O5 0.173629 0.326157 0.724859
O O6 0.027017 0.005836 0.666558
O O7 0.000000 0.000000 0.500000
O O8 0.750646 0.287885 0.155646
O O9 0.693912 0.973032 0.005052
O O10 0.389533 0.390450 0.031259
O O11 0.500000 0.500000 0.000000
#
# Coordination Sequence:
#
# PCOD9248215 Si02
#       5
#     4   4   4   4   4
#     4  11  23  42  68 100 134 175 242 281 361 417
#     4  11  28  43  68 104 143 187 233 299 356 423
#     4  10  24  44  68  96 139 182 232 293 353 422
#     4  10  22  41  69  99 126 184 225 299 343 432
#     4  10  25  45  67  98 138 187 234 286 358 423
#
# _framework density 23.364128000000001
#
# number of rings (size 3 to 8) (size 9 to 14) (size 15 to 20)
#    0.000    1.600    2.000    0.000   14.000    2.400 
#    0.000    0.000    0.000    0.000    0.000    0.000 
#    0.000    0.000    0.000    0.000    0.000    0.000 
#
# Total GULP energy -111486.193412 kJ/mol
# GULP energy per Si atom -5574.309671 kJ/mol
# Density = 2.331095 g / cm^3
# Si number density = 23.364128 Si / 1000 Ang^3
#
#
#
# Elastic Constant Matrix: (Units=GPa)
#
#
# Indices 1 2 3 4 5 6 
#
# 1 152.3718 39.7250 17.2428 0.0000 30.4838 0.0000
# 2 39.7250 88.2536 19.0394 0.0000 17.9364 0.0000
# 3 17.2428 19.0394 70.6089 0.0000 10.5965 0.0000
# 4 0.0000 0.0000 0.0000 47.3997 0.0000 -5.2474
# 5 30.4838 17.9364 10.5965 0.0000 37.1806 0.0000
# 6 0.0000 0.0000 0.0000 -5.2474 0.0000 17.7723
#
#
#
# Elastic Compliance Matrix: (Units=1/GPa)
#
#
# Indices 1 2 3 4 5 6 
#
# 1 0.008386 -0.002542 -0.000538 0.000000 -0.005496 0.000000
# 2 -0.002542 0.013803 -0.002523 0.000000 -0.003856 0.000000
# 3 -0.000538 -0.002523 0.015383 0.000000 -0.002726 0.000000
# 4 0.000000 0.000000 0.000000 0.021810 0.000000 0.006440
# 5 -0.005496 -0.003856 -0.002726 0.000000 0.034039 0.000000
# 6 0.000000 0.000000 0.000000 0.006440 0.000000 0.058169
#
#
# Mechanical properties :
#
#
# Convention : Reuss Voigt Hill
#
# Bulk Modulus (GPa) = 37.92448 51.47209 44.69829
# Shear Modulus (GPa) = 29.14036 36.15232 32.64634
#
# Velocity S-wave (km/s) = 3.53544 3.93790 3.74208
# Velocity P-wave (km/s) = 5.73872 6.53867 6.15172
#
# Compressibility (1/GPa) = 0.02636819
#
# Stress axis : x y z
#
# Youngs Moduli (GPa) = 119.24712 72.44841 65.00602
#
# Poissons Ratio (x) = 0.18414 0.03495
# Poissons Ratio (y) = 0.30309 0.16398
# Poissons Ratio (z) = 0.06412 0.18276
#
# Static dielectric constant tensor:
#      x y z
#    x 2.030910 0.000000 0.197040 
#    y 0.000000 2.074900 0.000000 
#    z 0.197040 0.000000 2.089530 
# 
# From -- ./inp_files/54032.got.cif
#   From: 2010.05.17/outbox.cif.g08.bks.cpg/sg14_28_cif.got.tgz:54032.got - 2010.06.03 17:49:19.
