data_PCOD9248415
_publ_section_title
;
Structure prediction by ZEFSAII (Michael W. Deem and Ramdas Pophale) SiO2 
 PCOD9248415
Probable space group: P 21/C
;
_chemical_formula_sum "Si O2"
_cell_formula_units_Z 30
_cell_length_a 21.640614
_cell_length_b 5.036718
_cell_length_c 12.716389
_cell_angle_alpha 90.000000
_cell_angle_beta 120.339279
_cell_angle_gamma 90.000000
_cell_volume 1196.235563
_symmetry_space_group_name_H-M "P 21/C"
_symmetry_group_IT_number 14
_symmetry_cell_setting 'monoclinic'
loop_
_space_group_symop_operation_xyz
x,y,z
-x,1/2+y,1/2-z
-x,-y,-z
x,1/2-y,1/2+z
loop_
_atom_site_type_symbol
_atom_site_label
_atom_site_fract_x
_atom_site_fract_y
_atom_site_fract_z
Si Si1 0.045314 0.660370 0.767240
Si Si2 0.764793 0.854834 0.122823
Si Si3 0.404408 0.738726 0.222818
Si Si4 0.500000 0.000000 0.000000
Si Si5 0.604744 0.756573 0.925685
Si Si6 0.749819 0.124624 0.321025
Si Si7 0.867720 0.015601 0.847268
Si Si8 0.853919 0.736212 0.021694
O O1 0.077834 0.670746 0.678511
O O2 0.979659 0.447747 0.715251
O O3 0.103412 0.501138 0.885888
O O4 0.811144 0.638012 0.225357
O O5 0.741502 0.067568 0.189759
O O6 0.690059 0.752923 0.013649
O O7 0.822310 0.934429 0.083790
O O8 0.450339 0.644800 0.362844
O O9 0.417281 0.530388 0.138226
O O10 0.321856 0.726982 0.188097
O O11 0.416470 0.028368 0.182656
O O12 0.569824 0.851761 0.005214
O O13 0.818379 0.310460 0.379452
O O14 0.779514 0.869285 0.406763
O O15 0.900856 0.818754 0.961144
#
# Coordination Sequence:
#
# PCOD9248415 Si02
#       8
#     4   4   4   2   4   4   4   4
#     4  11  28  47  69 104 147 191 238 291 365 441
#     4  10  22  42  68 104 141 183 236 307 357 421
#     4  12  28  47  74 109 144 194 248 299 371 429
#     4  12  28  52  72 106 156 200 238 306 360 450
#     4  12  27  47  74 107 145 194 247 295 369 433
#     4  11  23  42  73 104 138 189 241 307 360 422
#     4  10  25  42  74 104 142 188 244 294 371 425
#     4  10  23  44  70 102 138 184 239 304 351 433
#
# _framework density 25.078672000000001
#
# number of rings (size 3 to 8) (size 9 to 14) (size 15 to 20)
#    0.000    1.067    2.667    1.600   11.200    4.267 
#    0.000    0.000    0.000    0.000    0.000    0.000 
#    0.000    0.000    0.000    0.000    0.000    0.000 
#
# Total GULP energy -167206.979541 kJ/mol
# GULP energy per Si atom -5573.565985 kJ/mol
# Density = 2.502159 g / cm^3
# Si number density = 25.078672 Si / 1000 Ang^3
#
#
#
# Elastic Constant Matrix: (Units=GPa)
#
#
# Indices 1 2 3 4 5 6 
#
# 1 117.2073 10.3413 32.4298 0.0000 -3.3291 0.0000
# 2 10.3413 58.8231 -2.4393 0.0000 -15.2499 0.0000
# 3 32.4298 -2.4393 88.3314 0.0000 -0.9766 0.0000
# 4 0.0000 0.0000 0.0000 15.3088 0.0000 -10.7700
# 5 -3.3291 -15.2499 -0.9766 0.0000 32.6145 0.0000
# 6 0.0000 0.0000 0.0000 -10.7700 0.0000 16.4535
#
#
#
# Elastic Compliance Matrix: (Units=1/GPa)
#
#
# Indices 1 2 3 4 5 6 
#
# 1 0.009694 -0.001850 -0.003610 0.000000 0.000017 0.000000
# 2 -0.001850 0.019734 0.001324 0.000000 0.009078 0.000000
# 3 -0.003610 0.001324 0.012690 0.000000 0.000631 0.000000
# 4 0.000000 0.000000 0.000000 0.121078 0.000000 0.079254
# 5 0.000017 0.009078 0.000631 0.000000 0.034926 0.000000
# 6 0.000000 0.000000 0.000000 0.079254 0.000000 0.112655
#
#
# Mechanical properties :
#
#
# Convention : Reuss Voigt Hill
#
# Bulk Modulus (GPa) = 29.54445 38.33614 33.94030
# Shear Modulus (GPa) = 15.13635 27.81070 21.47353
#
# Velocity S-wave (km/s) = 2.45940 3.33369 2.92934
# Velocity P-wave (km/s) = 4.45771 5.48976 5.00043
#
# Compressibility (1/GPa) = 0.03384730
#
# Stress axis : x y z
#
# Youngs Moduli (GPa) = 103.15199 50.67477 78.80252
#
# Poissons Ratio (x) = 0.09373 0.28448
# Poissons Ratio (y) = 0.19080 -0.10437
# Poissons Ratio (z) = 0.37239 -0.06712
#
# Static dielectric constant tensor:
#      x y z
#    x 1.961280 0.000000 0.013800 
#    y 0.000000 2.163630 0.000000 
#    z 0.013800 0.000000 2.014780 
# 
# From -- ./inp_files/34753.got.cif
#   From: 2010.05.17/outbox.cif.g08.bks.cpg/sg14_18_cif.got.tgz:34753.got - 2010.06.03 17:49:19.
