data_PCOD9248925
_publ_section_title
;
Structure prediction by ZEFSAII (Michael W. Deem and Ramdas Pophale) SiO2 
 PCOD9248925
Probable space group: P 21/C
;
_chemical_formula_sum "Si O2"
_cell_formula_units_Z 28
_cell_length_a 9.867182
_cell_length_b 5.607514
_cell_length_c 18.667331
_cell_angle_alpha 90.000000
_cell_angle_beta 98.354330
_cell_angle_gamma 90.000000
_cell_volume 1021.909824
_symmetry_space_group_name_H-M "P 21/C"
_symmetry_group_IT_number 14
_symmetry_cell_setting 'monoclinic'
loop_
_space_group_symop_operation_xyz
x,y,z
-x,1/2+y,1/2-z
-x,-y,-z
x,1/2-y,1/2+z
loop_
_atom_site_type_symbol
_atom_site_label
_atom_site_fract_x
_atom_site_fract_y
_atom_site_fract_z
Si Si1 0.070094 0.724033 0.732530
Si Si2 0.496491 0.470502 0.585666
Si Si3 0.855581 0.607029 0.011846
Si Si4 0.965374 0.499373 0.597808
Si Si5 0.736030 0.158578 0.635911
Si Si6 0.756782 0.766914 0.372764
Si Si7 0.569811 0.833204 0.232635
O O1 0.216952 0.645519 0.777385
O O2 0.982614 0.487113 0.749896
O O3 0.042013 0.713583 0.645779
O O4 0.500000 0.500000 0.500000
O O5 0.580603 0.228136 0.610138
O O6 0.344093 0.439911 0.605464
O O7 0.571319 0.655625 0.646069
O O8 0.894555 0.884954 0.023348
O O9 0.790631 0.530158 0.082240
O O10 0.750759 0.552289 0.939567
O O11 0.000000 0.500000 0.000000
O O12 0.831404 0.382555 0.621825
O O13 0.085325 0.306773 0.616016
O O14 0.707066 0.843279 0.291182
O O15 0.502407 0.581396 0.249280
#
# Coordination Sequence:
#
# PCOD9248925 Si02
#       7
#     4   4   4   4   4   4   4
#     4  10  22  44  72 108 147 191 246 314 383 448
#     4  11  27  49  76 112 157 202 261 336 403 470
#     4  12  25  42  74 106 146 194 259 312 386 464
#     4  11  24  46  71 107 149 192 258 307 384 462
#     4  11  25  45  70 107 146 193 249 319 385 457
#     4  11  26  47  76 108 150 211 256 323 389 484
#     4  10  26  54  79 113 159 214 272 323 401 495
#
# _framework density 27.399678000000002
#
# number of rings (size 3 to 8) (size 9 to 14) (size 15 to 20)
#    0.000    1.143    2.857    1.286    4.000   12.000 
#   10.286    0.000    0.000    0.000    0.000    0.000 
#    0.000    0.000    0.000    0.000    0.000    0.000 
#
# Total GULP energy -156232.175374 kJ/mol
# GULP energy per Si atom -5579.720549 kJ/mol
# Density = 2.733731 g / cm^3
# Si number density = 27.399678 Si / 1000 Ang^3
#
#
#
# Elastic Constant Matrix: (Units=GPa)
#
#
# Indices 1 2 3 4 5 6 
#
# 1 90.7578 35.1933 32.3619 0.0000 6.5616 0.0000
# 2 35.1933 99.3602 42.7975 0.0000 -4.6318 0.0000
# 3 32.3619 42.7975 209.1371 0.0000 28.5188 0.0000
# 4 0.0000 0.0000 0.0000 45.7007 0.0000 -14.4595
# 5 6.5616 -4.6318 28.5188 0.0000 43.4821 0.0000
# 6 0.0000 0.0000 0.0000 -14.4595 0.0000 38.8818
#
#
#
# Elastic Compliance Matrix: (Units=1/GPa)
#
#
# Indices 1 2 3 4 5 6 
#
# 1 0.013164 -0.004367 -0.000888 0.000000 -0.001869 0.000000
# 2 -0.004367 0.012834 -0.002446 0.000000 0.003630 0.000000
# 3 -0.000888 -0.002446 0.005971 0.000000 -0.004042 0.000000
# 4 0.000000 0.000000 0.000000 0.024799 0.000000 0.009223
# 5 -0.001869 0.003630 -0.004042 0.000000 0.026318 0.000000
# 6 0.000000 0.000000 0.000000 0.009223 0.000000 0.029149
#
#
# Mechanical properties :
#
#
# Convention : Reuss Voigt Hill
#
# Bulk Modulus (GPa) = 60.36389 68.88452 64.62420
# Shear Modulus (GPa) = 37.54926 44.87307 41.21116
#
# Velocity S-wave (km/s) = 3.70594 4.05127 3.88245
# Velocity P-wave (km/s) = 6.35537 6.86141 6.61323
#
# Compressibility (1/GPa) = 0.01656620
#
# Stress axis : x y z
#
# Youngs Moduli (GPa) = 75.96676 77.91943 167.48372
#
# Poissons Ratio (x) = 0.34027 0.14880
# Poissons Ratio (y) = 0.33175 0.40959
# Poissons Ratio (z) = 0.06749 0.19056
#
# Static dielectric constant tensor:
#      x y z
#    x 2.142270 0.000000 -0.098770 
#    y 0.000000 2.208720 0.000000 
#    z -0.098770 0.000000 2.480590 
# 
# From -- ./inp_files/66507.got.cif
#   From: 2010.05.17/outbox.cif.g08.bks.cpg/sg14_34_cif.got.tgz:66507.got - 2010.06.03 17:49:19.
