data_PCOD9248538
_publ_section_title
;
Structure prediction by ZEFSAII (Michael W. Deem and Ramdas Pophale) SiO2 
 PCOD9248538
Probable space group: P 21/C
;
_chemical_formula_sum "Si O2"
_cell_formula_units_Z 30
_cell_length_a 8.968462
_cell_length_b 14.421896
_cell_length_c 18.476742
_cell_angle_alpha 90.000000
_cell_angle_beta 33.338386
_cell_angle_gamma 90.000000
_cell_volume 1313.405236
_symmetry_space_group_name_H-M "P 21/C"
_symmetry_group_IT_number 14
_symmetry_cell_setting 'monoclinic'
loop_
_space_group_symop_operation_xyz
x,y,z
-x,1/2+y,1/2-z
-x,-y,-z
x,1/2-y,1/2+z
loop_
_atom_site_type_symbol
_atom_site_label
_atom_site_fract_x
_atom_site_fract_y
_atom_site_fract_z
Si Si1 0.500000 0.000000 0.000000
Si Si2 0.070161 0.838593 0.425385
Si Si3 0.417194 0.515571 0.367439
Si Si4 0.755956 0.273961 0.768754
Si Si5 0.939091 0.650274 0.547523
Si Si6 0.610708 0.780869 0.950254
Si Si7 0.553990 0.644969 0.837713
Si Si8 0.551132 0.949699 0.653459
O O1 0.490240 0.113718 0.010399
O O2 0.549045 0.004593 0.890731
O O3 0.927889 0.741629 0.504113
O O4 0.840526 0.914810 0.508132
O O5 0.245143 0.814555 0.283963
O O6 0.266261 0.853138 0.413554
O O7 0.209992 0.431963 0.434652
O O8 0.584797 0.523671 0.224724
O O9 0.236674 0.609864 0.444246
O O10 0.553023 0.265010 0.917549
O O11 0.658422 0.364627 0.765003
O O12 0.065628 0.283696 0.668585
O O13 0.783822 0.668925 0.685618
O O14 0.562951 0.715020 0.900171
O O15 0.578672 0.533981 0.839718
#
# Coordination Sequence:
#
# PCOD9248538 Si02
#       8
#     2   4   4   4   4   4   4   4
#     4  12  28  44  72 116 148 198 256 326 376 470
#     4  12  23  45  76 109 146 197 252 317 373 472
#     4  10  23  43  72 106 145 192 253 312 382 452
#     4  12  27  51  76 108 157 200 258 310 391 459
#     4  10  22  42  75 101 142 194 249 300 378 465
#     4  12  31  50  74 113 153 208 248 330 390 457
#     4  11  28  46  74 109 153 194 257 319 389 454
#     4  11  25  47  79 111 149 208 258 318 387 473
#
# _framework density 22.841388999999999
#
# number of rings (size 3 to 8) (size 9 to 14) (size 15 to 20)
#    0.000    0.800    2.667    2.800   13.067    0.533 
#    2.400    0.000    0.000    0.000    0.000    0.000 
#    0.000    0.000    0.000    0.000    0.000    0.000 
#
# Total GULP energy -167338.089378 kJ/mol
# GULP energy per Si atom -5577.936313 kJ/mol
# Density = 2.278940 g / cm^3
# Si number density = 22.841389 Si / 1000 Ang^3
#
#
#
# Elastic Constant Matrix: (Units=GPa)
#
#
# Indices 1 2 3 4 5 6 
#
# 1 76.5018 38.1999 36.4440 0.0000 32.4689 0.0000
# 2 38.1999 103.6061 39.1714 0.0000 25.2988 0.0000
# 3 36.4440 39.1714 102.4722 0.0000 15.4309 0.0000
# 4 0.0000 0.0000 0.0000 36.2888 0.0000 13.0296
# 5 32.4689 25.2988 15.4309 0.0000 29.7953 0.0000
# 6 0.0000 0.0000 0.0000 13.0296 0.0000 29.3436
#
#
#
# Elastic Compliance Matrix: (Units=1/GPa)
#
#
# Indices 1 2 3 4 5 6 
#
# 1 0.027264 -0.001897 -0.005141 0.000000 -0.025437 0.000000
# 2 -0.001897 0.013477 -0.003325 0.000000 -0.007654 0.000000
# 3 -0.005141 -0.003325 0.012569 0.000000 0.001915 0.000000
# 4 0.000000 0.000000 0.000000 0.032783 0.000000 -0.014557
# 5 -0.025437 -0.007654 0.001915 0.000000 0.066789 0.000000
# 6 0.000000 0.000000 0.000000 -0.014557 0.000000 0.040543
#
#
# Mechanical properties :
#
#
# Convention : Reuss Voigt Hill
#
# Bulk Modulus (GPa) = 30.68827 56.69005 43.68916
# Shear Modulus (GPa) = 22.22093 30.33654 26.27874
#
# Velocity S-wave (km/s) = 3.12242 3.64832 3.39556
# Velocity P-wave (km/s) = 5.14430 6.52839 5.87723
#
# Compressibility (1/GPa) = 0.03258574
#
# Stress axis : x y z
#
# Youngs Moduli (GPa) = 36.67851 74.19792 79.55801
#
# Poissons Ratio (x) = 0.14079 0.40897
# Poissons Ratio (y) = 0.06960 0.26449
# Poissons Ratio (z) = 0.18855 0.24667
#
# Static dielectric constant tensor:
#      x y z
#    x 1.871360 0.000000 -0.014270 
#    y 0.000000 1.921280 0.000000 
#    z -0.014270 0.000000 1.868630 
# 
# From -- ./inp_files/55938.got.cif
#   From: 2010.05.17/outbox.cif.g08.bks.cpg/sg14_28_cif.got.tgz:55938.got - 2010.06.03 17:49:19.
