data_PCOD9248020
_publ_section_title
;
Structure prediction by ZEFSAII (Michael W. Deem and Ramdas Pophale) SiO2 
 PCOD9248020
Probable space group: P 21/C
;
_chemical_formula_sum "Si O2"
_cell_formula_units_Z 24
_cell_length_a 10.800287
_cell_length_b 13.280977
_cell_length_c 12.654420
_cell_angle_alpha 90.000000
_cell_angle_beta 33.510382
_cell_angle_gamma 90.000000
_cell_volume 1002.111240
_symmetry_space_group_name_H-M "P 21/C"
_symmetry_group_IT_number 14
_symmetry_cell_setting 'monoclinic'
loop_
_space_group_symop_operation_xyz
x,y,z
-x,1/2+y,1/2-z
-x,-y,-z
x,1/2-y,1/2+z
loop_
_atom_site_type_symbol
_atom_site_label
_atom_site_fract_x
_atom_site_fract_y
_atom_site_fract_z
Si Si1 0.874347 0.266634 0.314049
Si Si2 0.201501 0.086753 0.461773
Si Si3 0.426121 0.386163 0.577979
Si Si4 0.385975 0.993324 0.693753
Si Si5 0.983296 0.389500 0.430050
Si Si6 0.036425 0.435757 0.733756
O O1 0.644105 0.317251 0.437554
O O2 0.929194 0.294633 0.397326
O O3 0.857768 0.147086 0.327585
O O4 0.076906 0.317114 0.102766
O O5 0.287917 0.115865 0.285332
O O6 0.419127 0.038682 0.364808
O O7 0.026542 0.996949 0.614784
O O8 0.500000 0.500000 0.500000
O O9 0.258172 0.370247 0.599557
O O10 0.228351 0.093988 0.806104
O O11 0.500000 0.000000 0.500000
O O12 0.200712 0.908245 0.850746
O O13 0.946336 0.479521 0.368813
#
# Coordination Sequence:
#
# PCOD9248020 Si02
#       6
#     4   4   4   4   4   4
#     4  11  24  43  63 101 132 170 232 271 332 406
#     4  11  23  44  67  97 133 179 227 273 342 401
#     4  12  23  47  71  93 141 184 217 285 344 400
#     4  11  19  38  69  85 128 174 207 272 333 381
#     4  10  22  41  61  95 131 169 217 272 331 386
#     4  11  24  43  68  99 130 176 228 274 335 406
#
# _framework density 23.949435000000001
#
# number of rings (size 3 to 8) (size 9 to 14) (size 15 to 20)
#    0.000    1.000    8.333    0.500    0.000    2.667 
#   12.000    0.000    0.000    0.000    0.000    0.000 
#    0.000    0.000    0.000    0.000    0.000    0.000 
#
# Total GULP energy -133930.715112 kJ/mol
# GULP energy per Si atom -5580.446463 kJ/mol
# Density = 2.389492 g / cm^3
# Si number density = 23.949435 Si / 1000 Ang^3
#
#
#
# Elastic Constant Matrix: (Units=GPa)
#
#
# Indices 1 2 3 4 5 6 
#
# 1 72.1346 6.9504 16.2449 0.0000 -9.6540 0.0000
# 2 6.9504 104.0151 16.8690 0.0000 8.2798 0.0000
# 3 16.2449 16.8690 115.0269 0.0000 6.9216 0.0000
# 4 0.0000 0.0000 0.0000 18.8458 0.0000 -8.3065
# 5 -9.6540 8.2798 6.9216 0.0000 52.0059 0.0000
# 6 0.0000 0.0000 0.0000 -8.3065 0.0000 28.7448
#
#
#
# Elastic Compliance Matrix: (Units=1/GPa)
#
#
# Indices 1 2 3 4 5 6 
#
# 1 0.014863 -0.000897 -0.002159 0.000000 0.003189 0.000000
# 2 -0.000897 0.010003 -0.001244 0.000000 -0.001593 0.000000
# 3 -0.002159 -0.001244 0.009267 0.000000 -0.001436 0.000000
# 4 0.000000 0.000000 0.000000 0.060807 0.000000 0.017572
# 5 0.003189 -0.001593 -0.001436 0.000000 0.020265 0.000000
# 6 0.000000 0.000000 0.000000 0.017572 0.000000 0.039867
#
#
# Mechanical properties :
#
#
# Convention : Reuss Voigt Hill
#
# Bulk Modulus (GPa) = 39.16733 41.25613 40.21173
# Shear Modulus (GPa) = 29.03885 36.66013 32.84949
#
# Velocity S-wave (km/s) = 3.48588 3.91670 3.70755
# Velocity P-wave (km/s) = 5.70890 6.14148 5.92914
#
# Compressibility (1/GPa) = 0.02553148
#
# Stress axis : x y z
#
# Youngs Moduli (GPa) = 67.28342 99.97448 107.90401
#
# Poissons Ratio (x) = 0.08966 0.23301
# Poissons Ratio (y) = 0.06034 0.13427
# Poissons Ratio (z) = 0.14529 0.12441
#
# Static dielectric constant tensor:
#      x y z
#    x 2.041810 0.000000 -0.084440 
#    y 0.000000 1.936710 0.000000 
#    z -0.084440 0.000000 1.972340 
# 
# From -- ./inp_files/44886.got.cif
#   From: 2010.05.17/outbox.cif.g08.bks.cpg/sg14_23_cif.got.tgz:44886.got - 2010.06.03 17:49:19.
