data_PCOD9248518
_publ_section_title
;
Structure prediction by ZEFSAII (Michael W. Deem and Ramdas Pophale) SiO2 
 PCOD9248518
Probable space group: P 21/C
;
_chemical_formula_sum "Si O2"
_cell_formula_units_Z 30
_cell_length_a 16.026514
_cell_length_b 10.543658
_cell_length_c 9.590073
_cell_angle_alpha 90.000000
_cell_angle_beta 135.062731
_cell_angle_gamma 90.000000
_cell_volume 1144.619866
_symmetry_space_group_name_H-M "P 21/C"
_symmetry_group_IT_number 14
_symmetry_cell_setting 'monoclinic'
loop_
_space_group_symop_operation_xyz
x,y,z
-x,1/2+y,1/2-z
-x,-y,-z
x,1/2-y,1/2+z
loop_
_atom_site_type_symbol
_atom_site_label
_atom_site_fract_x
_atom_site_fract_y
_atom_site_fract_z
Si Si1 0.430319 0.267578 0.748774
Si Si2 0.325347 0.846929 0.504105
Si Si3 0.264173 0.461539 0.708115
Si Si4 0.230585 0.479756 0.137590
Si Si5 0.500000 0.500000 0.500000
Si Si6 0.850919 0.343564 0.593998
Si Si7 0.805911 0.793056 0.636774
Si Si8 0.965304 0.333484 0.004027
O O1 0.366502 0.369052 0.774685
O O2 0.331169 0.242625 0.515683
O O3 0.538139 0.335798 0.797568
O O4 0.478128 0.138163 0.879611
O O5 0.261684 0.938547 0.536682
O O6 0.260778 0.716356 0.457918
O O7 0.319011 0.913103 0.346754
O O8 0.180913 0.396379 0.725299
O O9 0.183727 0.515730 0.489774
O O10 0.355393 0.495034 0.364495
O O11 0.112509 0.540714 0.060368
O O12 0.198521 0.346251 0.027068
O O13 0.890181 0.273077 0.499403
O O14 0.953177 0.316523 0.825201
O O15 0.904037 0.689624 0.784261
#
# Coordination Sequence:
#
# PCOD9248518 Si02
#       8
#     4   4   4   4   2   4   4   4
#     4  11  25  43  75 112 158 204 259 336 411 496
#     4  10  22  44  72 113 149 195 267 327 406 490
#     4  11  25  47  75 115 153 209 266 336 416 487
#     4   9  22  45  75 110 151 208 257 333 412 473
#     4  10  22  42  72 104 152 200 256 334 400 484
#     4  11  24  46  78 112 147 209 264 333 409 487
#     4  10  26  48  71 111 160 205 267 337 399 487
#     4  11  24  47  78 107 157 207 273 323 407 493
#
# _framework density 26.209575999999998
#
# number of rings (size 3 to 8) (size 9 to 14) (size 15 to 20)
#    0.000    1.600    1.333    1.200    5.600    5.867 
#    2.400    1.333    0.000    0.000    0.000    0.000 
#    0.000    0.000    0.000    0.000    0.000    0.000 
#
# Total GULP energy -167199.559977 kJ/mol
# GULP energy per Si atom -5573.318666 kJ/mol
# Density = 2.614992 g / cm^3
# Si number density = 26.209576 Si / 1000 Ang^3
#
#
#
# Elastic Constant Matrix: (Units=GPa)
#
#
# Indices 1 2 3 4 5 6 
#
# 1 79.2937 41.4862 49.8767 0.0000 9.2536 0.0000
# 2 41.4862 98.3875 76.0229 0.0000 11.1731 0.0000
# 3 49.8767 76.0229 192.2225 0.0000 19.4601 0.0000
# 4 0.0000 0.0000 0.0000 57.4503 0.0000 -4.8496
# 5 9.2536 11.1731 19.4601 0.0000 28.8313 0.0000
# 6 0.0000 0.0000 0.0000 -4.8496 0.0000 41.0368
#
#
#
# Elastic Compliance Matrix: (Units=1/GPa)
#
#
# Indices 1 2 3 4 5 6 
#
# 1 0.016931 -0.005293 -0.002101 0.000000 -0.001965 0.000000
# 2 -0.005293 0.016388 -0.004977 0.000000 -0.001293 0.000000
# 3 -0.002101 -0.004977 0.007999 0.000000 -0.002796 0.000000
# 4 0.000000 0.000000 0.000000 0.017582 0.000000 0.002078
# 5 -0.001965 -0.001293 -0.002796 0.000000 0.037703 0.000000
# 6 0.000000 0.000000 0.000000 0.002078 0.000000 0.024614
#
#
# Mechanical properties :
#
#
# Convention : Reuss Voigt Hill
#
# Bulk Modulus (GPa) = 60.32603 78.29725 69.31164
# Shear Modulus (GPa) = 33.00651 38.96487 35.98569
#
# Velocity S-wave (km/s) = 3.55255 3.85991 3.70942
# Velocity P-wave (km/s) = 6.31619 7.05717 6.69694
#
# Compressibility (1/GPa) = 0.01657659
#
# Stress axis : x y z
#
# Youngs Moduli (GPa) = 59.06200 61.01915 125.01538
#
# Poissons Ratio (x) = 0.32295 0.26267
# Poissons Ratio (y) = 0.31259 0.62224
# Poissons Ratio (z) = 0.12410 0.30371
#
# Static dielectric constant tensor:
#      x y z
#    x 2.101050 0.000000 -0.081580 
#    y 0.000000 2.245730 0.000000 
#    z -0.081580 0.000000 2.201230 
# 
# From -- ./inp_files/33958.got.cif
#   From: 2010.05.17/outbox.cif.g08.bks.cpg/sg14_17_cif.got.tgz:33958.got - 2010.06.03 17:49:19.
