data_PCOD9248342
_publ_section_title
;
Structure prediction by ZEFSAII (Michael W. Deem and Ramdas Pophale) SiO2 
 PCOD9248342
Probable space group: P 21/C
;
_chemical_formula_sum "Si O2"
_cell_formula_units_Z 20
_cell_length_a 21.867411
_cell_length_b 9.848552
_cell_length_c 13.774394
_cell_angle_alpha 90.000000
_cell_angle_beta 17.154623
_cell_angle_gamma 90.000000
_cell_volume 874.969088
_symmetry_space_group_name_H-M "P 21/C"
_symmetry_group_IT_number 14
_symmetry_cell_setting 'monoclinic'
loop_
_space_group_symop_operation_xyz
x,y,z
-x,1/2+y,1/2-z
-x,-y,-z
x,1/2-y,1/2+z
loop_
_atom_site_type_symbol
_atom_site_label
_atom_site_fract_x
_atom_site_fract_y
_atom_site_fract_z
Si Si1 0.636314 0.742203 0.957781
Si Si2 0.934617 0.860670 0.147435
Si Si3 0.289085 0.077243 0.332845
Si Si4 0.643708 0.512823 0.568216
Si Si5 0.954587 0.103347 0.433050
O O1 0.507794 0.603355 0.161362
O O2 0.859711 0.728360 0.670811
O O3 0.686259 0.793116 0.774364
O O4 0.532130 0.860812 0.182421
O O5 0.739500 0.889705 0.512115
O O6 0.066919 0.766246 0.020046
O O7 0.000000 0.000000 0.000000
O O8 0.110848 0.973965 0.565509
O O9 0.500000 0.000000 0.000000
O O10 0.792922 0.453571 0.257662
O O11 0.808993 0.564620 0.397899
#
# Coordination Sequence:
#
# PCOD9248342 Si02
#       5
#     4   4   4   4   4
#     4  10  22  42  66 101 137 173 229 274 341 403
#     4  11  25  41  69  99 132 181 229 275 339 402
#     4  11  25  44  67  99 136 177 226 279 338 406
#     4   9  19  39  66  94 137 178 212 280 335 392
#     4   9  21  40  64  94 135 173 226 276 331 395
#
# _framework density 22.857951
#
# number of rings (size 3 to 8) (size 9 to 14) (size 15 to 20)
#    0.000    2.000    0.000    3.600    8.400    1.600 
#    0.000    4.000    0.000    0.000    0.000    0.000 
#    0.000    0.000    0.000    0.000    0.000    0.000 
#
# Total GULP energy -111579.331954 kJ/mol
# GULP energy per Si atom -5578.966598 kJ/mol
# Density = 2.280593 g / cm^3
# Si number density = 22.857951 Si / 1000 Ang^3
#
#
#
# Elastic Constant Matrix: (Units=GPa)
#
#
# Indices 1 2 3 4 5 6 
#
# 1 64.0566 11.6955 7.3514 0.0000 5.8430 0.0000
# 2 11.6955 135.0900 18.2895 0.0000 5.0997 0.0000
# 3 7.3514 18.2895 28.2716 0.0000 10.6012 0.0000
# 4 0.0000 0.0000 0.0000 50.7016 0.0000 -5.5145
# 5 5.8430 5.0997 10.6012 0.0000 31.7577 0.0000
# 6 0.0000 0.0000 0.0000 -5.5145 0.0000 34.9381
#
#
#
# Elastic Compliance Matrix: (Units=1/GPa)
#
#
# Indices 1 2 3 4 5 6 
#
# 1 0.016290 -0.000944 -0.002924 0.000000 -0.001869 0.000000
# 2 -0.000944 0.008175 -0.005277 0.000000 0.000622 0.000000
# 3 -0.002924 -0.005277 0.044610 0.000000 -0.013506 0.000000
# 4 0.000000 0.000000 0.000000 0.020068 0.000000 0.003167
# 5 -0.001869 0.000622 -0.013506 0.000000 0.036241 0.000000
# 6 0.000000 0.000000 0.000000 0.003167 0.000000 0.029122
#
#
# Mechanical properties :
#
#
# Convention : Reuss Voigt Hill
#
# Bulk Modulus (GPa) = 19.69081 33.56566 26.62823
# Shear Modulus (GPa) = 26.35428 36.15159 31.25294
#
# Velocity S-wave (km/s) = 3.39921 3.98122 3.70167
# Velocity P-wave (km/s) = 4.90299 5.98747 5.47216
#
# Compressibility (1/GPa) = 0.05078511
#
# Stress axis : x y z
#
# Youngs Moduli (GPa) = 61.38874 122.32309 22.41672
#
# Poissons Ratio (x) = 0.11545 0.06555
# Poissons Ratio (y) = 0.05794 0.11828
# Poissons Ratio (z) = 0.17951 0.64544
#
# Static dielectric constant tensor:
#      x y z
#    x 1.846760 0.000000 -0.043810 
#    y 0.000000 1.969980 0.000000 
#    z -0.043810 0.000000 1.865120 
# 
# From -- ./inp_files/51087.got.cif
#   From: 2010.05.17/outbox.cif.g08.bks.cpg/sg14_26_cif.got.tgz:51087.got - 2010.06.03 17:49:19.
