data_PCOD9248015
_publ_section_title
;
Structure prediction by ZEFSAII (Michael W. Deem and Ramdas Pophale) SiO2 
 PCOD9248015
Probable space group: P 21/C
;
_chemical_formula_sum "Si O2"
_cell_formula_units_Z 16
_cell_length_a 14.162603
_cell_length_b 8.173318
_cell_length_c 11.406129
_cell_angle_alpha 90.000000
_cell_angle_beta 148.116654
_cell_angle_gamma 90.000000
_cell_volume 697.382751
_symmetry_space_group_name_H-M "P 21/C"
_symmetry_group_IT_number 14
_symmetry_cell_setting 'monoclinic'
loop_
_space_group_symop_operation_xyz
x,y,z
-x,1/2+y,1/2-z
-x,-y,-z
x,1/2-y,1/2+z
loop_
_atom_site_type_symbol
_atom_site_label
_atom_site_fract_x
_atom_site_fract_y
_atom_site_fract_z
Si Si1 0.125472 0.261099 0.068503
Si Si2 0.680558 0.577027 0.412823
Si Si3 0.760364 0.110642 0.236143
Si Si4 0.468750 0.307924 0.066601
O O1 0.157067 0.169050 0.979890
O O2 0.184091 0.453196 0.126391
O O3 0.267275 0.181491 0.307287
O O4 0.925042 0.263876 0.904372
O O5 0.738073 0.463967 0.582441
O O6 0.571253 0.472584 0.203520
O O7 0.549877 0.710773 0.331008
O O8 0.584943 0.196284 0.101318
#
# Coordination Sequence:
#
# PCOD9248015 Si02
#       4
#     4   4   4   4
#     4  10  22  41  61  88 124 163 206 255 307 364
#     4  11  22  39  68  93 123 170 207 252 314 368
#     4  10  23  41  61  90 128 162 204 258 305 366
#     4  11  22  41  63  92 127 161 206 257 308 367
#
# _framework density 22.942926
#
# number of rings (size 3 to 8) (size 9 to 14) (size 15 to 20)
#    0.000    1.500    0.000    6.750    0.000    7.000 
#    0.000    7.500    0.000    0.000    0.000    0.000 
#    0.000    0.000    0.000    0.000    0.000    0.000 
#
# Total GULP energy -89514.554530 kJ/mol
# GULP energy per Si atom -5594.659658 kJ/mol
# Density = 2.289071 g / cm^3
# Si number density = 22.942926 Si / 1000 Ang^3
#
#
#
# Elastic Constant Matrix: (Units=GPa)
#
#
# Indices 1 2 3 4 5 6 
#
# 1 61.0975 17.3835 1.3388 0.0000 -1.2214 0.0000
# 2 17.3835 45.4901 4.4059 0.0000 -3.0470 0.0000
# 3 1.3388 4.4059 45.9495 0.0000 15.2137 0.0000
# 4 0.0000 0.0000 0.0000 33.3149 0.0000 0.7368
# 5 -1.2214 -3.0470 15.2137 0.0000 31.3053 0.0000
# 6 0.0000 0.0000 0.0000 0.7368 0.0000 64.3416
#
#
#
# Elastic Compliance Matrix: (Units=1/GPa)
#
#
# Indices 1 2 3 4 5 6 
#
# 1 0.018365 -0.007036 0.000154 0.000000 -0.000043 0.000000
# 2 -0.007036 0.025271 -0.003506 0.000000 0.003889 0.000000
# 3 0.000154 -0.003506 0.026464 0.000000 -0.013196 0.000000
# 4 0.000000 0.000000 0.000000 0.030024 0.000000 -0.000344
# 5 -0.000043 0.003889 -0.013196 0.000000 0.038733 0.000000
# 6 0.000000 0.000000 0.000000 -0.000344 0.000000 0.015546
#
#
# Mechanical properties :
#
#
# Convention : Reuss Voigt Hill
#
# Bulk Modulus (GPa) = 20.27379 22.08818 21.18098
# Shear Modulus (GPa) = 26.09320 34.41960 30.25640
#
# Velocity S-wave (km/s) = 3.37606 3.87748 3.63542
# Velocity P-wave (km/s) = 4.90437 5.44929 5.18400
#
# Compressibility (1/GPa) = 0.04932477
#
# Stress axis : x y z
#
# Youngs Moduli (GPa) = 54.45188 39.57036 37.78729
#
# Poissons Ratio (x) = 0.27840 -0.00581
# Poissons Ratio (y) = 0.38311 0.13248
# Poissons Ratio (z) = -0.00837 0.13873
#
# Static dielectric constant tensor:
#      x y z
#    x 1.832560 0.000000 -0.054330 
#    y 0.000000 1.900860 0.000000 
#    z -0.054330 0.000000 1.857050 
# 
# From -- ./inp_files/22509.got.cif
#   From: 2010.05.17/outbox.cif.g08.bks.cpg/sg14_12_cif.got.tgz:22509.got - 2010.06.03 17:49:19.
