data_PCOD9248464
_publ_section_title
;
Structure prediction by ZEFSAII (Michael W. Deem and Ramdas Pophale) SiO2 
 PCOD9248464
Probable space group: P 21/C
;
_chemical_formula_sum "Si O2"
_cell_formula_units_Z 26
_cell_length_a 8.473850
_cell_length_b 13.269993
_cell_length_c 14.955158
_cell_angle_alpha 90.000000
_cell_angle_beta 144.704789
_cell_angle_gamma 90.000000
_cell_volume 971.654903
_symmetry_space_group_name_H-M "P 21/C"
_symmetry_group_IT_number 14
_symmetry_cell_setting 'monoclinic'
loop_
_space_group_symop_operation_xyz
x,y,z
-x,1/2+y,1/2-z
-x,-y,-z
x,1/2-y,1/2+z
loop_
_atom_site_type_symbol
_atom_site_label
_atom_site_fract_x
_atom_site_fract_y
_atom_site_fract_z
Si Si1 0.000000 0.500000 0.000000
Si Si2 0.727992 0.861488 0.286758
Si Si3 0.706044 0.228956 0.659898
Si Si4 0.027845 0.049201 0.109085
Si Si5 0.258889 0.764596 0.533877
Si Si6 0.442364 0.474260 0.076061
Si Si7 0.745972 0.630333 0.580899
O O1 0.309335 0.466883 0.182971
O O2 0.128175 0.479297 0.957617
O O3 0.723683 0.870510 0.178274
O O4 0.036897 0.842809 0.471923
O O5 0.523855 0.769915 0.210122
O O6 0.688724 0.205471 0.544635
O O7 0.555538 0.138778 0.640982
O O8 0.538874 0.331852 0.591759
O O9 0.022904 0.216269 0.831558
O O10 0.904447 0.159854 0.051890
O O11 0.343748 0.051584 0.280759
O O12 0.862743 0.974628 0.099172
O O13 0.000000 0.000000 0.000000
O O14 0.500000 0.500000 0.000000
#
# Coordination Sequence:
#
# PCOD9248464 Si02
#       7
#     2   4   4   4   4   4   4
#     4  12  24  44  72 106 148 192 254 306 376 450
#     4  10  23  42  69 104 140 188 244 306 371 451
#     4   9  20  39  65  97 135 178 243 296 360 438
#     4  11  24  42  66  98 149 190 241 310 374 442
#     4  10  22  42  69  99 143 191 240 298 383 441
#     4  11  25  44  72 105 142 195 246 307 373 448
#     4   9  20  42  65 100 136 187 241 299 367 444
#
# _framework density 26.758472000000001
#
# number of rings (size 3 to 8) (size 9 to 14) (size 15 to 20)
#    0.000    1.846    0.000    3.692    8.615    3.692 
#    5.538    0.000    0.000    0.000    0.000    0.000 
#    0.000    0.000    0.000    0.000    0.000    0.000 
#
# Total GULP energy -145093.157394 kJ/mol
# GULP energy per Si atom -5580.506054 kJ/mol
# Density = 2.669757 g / cm^3
# Si number density = 26.758472 Si / 1000 Ang^3
#
#
#
# Elastic Constant Matrix: (Units=GPa)
#
#
# Indices 1 2 3 4 5 6 
#
# 1 102.8153 16.4238 6.6940 0.0000 6.6038 0.0000
# 2 16.4238 62.7496 2.3578 0.0000 -1.2173 0.0000
# 3 6.6940 2.3578 71.0016 0.0000 7.7966 0.0000
# 4 0.0000 0.0000 0.0000 50.5628 0.0000 12.4963
# 5 6.6038 -1.2173 7.7966 0.0000 33.1877 0.0000
# 6 0.0000 0.0000 0.0000 12.4963 0.0000 40.1836
#
#
#
# Elastic Compliance Matrix: (Units=1/GPa)
#
#
# Indices 1 2 3 4 5 6 
#
# 1 0.010332 -0.002718 -0.000664 0.000000 -0.002000 0.000000
# 2 -0.002718 0.016689 -0.000436 0.000000 0.001255 0.000000
# 3 -0.000664 -0.000436 0.014523 0.000000 -0.003296 0.000000
# 4 0.000000 0.000000 0.000000 0.021424 0.000000 -0.006662
# 5 -0.002000 0.001255 -0.003296 0.000000 0.031350 0.000000
# 6 0.000000 0.000000 0.000000 -0.006662 0.000000 0.026958
#
#
# Mechanical properties :
#
#
# Convention : Reuss Voigt Hill
#
# Bulk Modulus (GPa) = 29.49204 31.94641 30.71923
# Shear Modulus (GPa) = 35.65980 38.85954 37.25967
#
# Velocity S-wave (km/s) = 3.65451 3.81495 3.73559
# Velocity P-wave (km/s) = 5.37148 5.60088 5.48738
#
# Compressibility (1/GPa) = 0.03390746
#
# Stress axis : x y z
#
# Youngs Moduli (GPa) = 96.78624 59.92148 68.85549
#
# Poissons Ratio (x) = 0.16287 0.04574
# Poissons Ratio (y) = 0.26307 0.03000
# Poissons Ratio (z) = 0.06429 0.02611
#
# Static dielectric constant tensor:
#      x y z
#    x 2.321800 0.000000 -0.036840 
#    y 0.000000 1.679210 0.000000 
#    z -0.036840 0.000000 2.144400 
# 
# From -- ./inp_files/41364.got.cif
#   From: 2010.05.17/outbox.cif.g08.bks.cpg/sg14_21_cif.got.tgz:41364.got - 2010.06.03 17:49:19.
