data_PCOD9248645
_publ_section_title
;
Structure prediction by ZEFSAII (Michael W. Deem and Ramdas Pophale) SiO2 
 PCOD9248645
Probable space group: P 21/C
;
_chemical_formula_sum "Si O2"
_cell_formula_units_Z 24
_cell_length_a 5.157755
_cell_length_b 10.757873
_cell_length_c 16.408080
_cell_angle_alpha 90.000000
_cell_angle_beta 106.445703
_cell_angle_gamma 90.000000
_cell_volume 873.179537
_symmetry_space_group_name_H-M "P 21/C"
_symmetry_group_IT_number 14
_symmetry_cell_setting 'monoclinic'
loop_
_space_group_symop_operation_xyz
x,y,z
-x,1/2+y,1/2-z
-x,-y,-z
x,1/2-y,1/2+z
loop_
_atom_site_type_symbol
_atom_site_label
_atom_site_fract_x
_atom_site_fract_y
_atom_site_fract_z
Si Si1 0.253193 0.943335 0.358111
Si Si2 0.203263 0.278302 0.452925
Si Si3 0.477528 0.298597 0.252690
Si Si4 0.829872 0.513403 0.682451
Si Si5 0.313943 0.855095 0.582818
Si Si6 0.017840 0.779706 0.894132
O O1 0.358761 0.829959 0.312263
O O2 0.042314 0.005155 0.275964
O O3 0.122417 0.863230 0.419201
O O4 0.517326 0.018519 0.407818
O O5 0.099588 0.374878 0.375192
O O6 0.009540 0.156156 0.434369
O O7 0.138183 0.324008 0.538138
O O8 0.510649 0.243250 0.457859
O O9 0.600459 0.196413 0.320485
O O10 0.431954 0.428698 0.296502
O O11 0.193291 0.248532 0.196326
O O12 0.804444 0.393016 0.624025
#
# Coordination Sequence:
#
# PCOD9248645 Si02
#       6
#     4   4   4   4   4   4
#     4  11  24  40  70  99 131 192 228 287 334 418
#     4  11  26  47  68 104 139 181 221 292 351 406
#     4  10  23  40  66 100 128 181 231 276 338 405
#     4  10  22  43  68 100 135 180 233 290 336 410
#     4  11  25  46  70  95 143 177 230 279 342 417
#     4  11  25  42  68  99 140 178 232 283 353 411
#
# _framework density 27.485758000000001
#
# number of rings (size 3 to 8) (size 9 to 14) (size 15 to 20)
#    0.000    1.333    3.333    0.500    9.333    1.333 
#    0.000    2.500    0.000    0.000    0.000    0.000 
#    0.000    0.000    0.000    0.000    0.000    0.000 
#
# Total GULP energy -134153.442730 kJ/mol
# GULP energy per Si atom -5589.726780 kJ/mol
# Density = 2.742320 g / cm^3
# Si number density = 27.485758 Si / 1000 Ang^3
#
#
#
# Elastic Constant Matrix: (Units=GPa)
#
#
# Indices 1 2 3 4 5 6 
#
# 1 65.1306 14.8933 -24.7732 0.0000 3.5468 0.0000
# 2 14.8933 72.7992 30.3022 0.0000 -14.9752 0.0000
# 3 -24.7732 30.3022 41.0338 0.0000 -17.9769 0.0000
# 4 0.0000 0.0000 0.0000 41.6609 0.0000 -2.5979
# 5 3.5468 -14.9752 -17.9769 0.0000 44.8512 0.0000
# 6 0.0000 0.0000 0.0000 -2.5979 0.0000 39.1712
#
#
#
# Elastic Compliance Matrix: (Units=1/GPa)
#
#
# Indices 1 2 3 4 5 6 
#
# 1 0.036639 -0.023909 0.042466 0.000000 0.006141 0.000000
# 2 -0.023909 0.035465 -0.041979 0.000000 -0.003094 0.000000
# 3 0.042466 -0.041979 0.089030 0.000000 0.018310 0.000000
# 4 0.000000 0.000000 0.000000 0.024103 0.000000 0.001599
# 5 0.006141 -0.003094 0.018310 0.000000 0.028116 0.000000
# 6 0.000000 0.000000 0.000000 0.001599 0.000000 0.025635
#
#
# Mechanical properties :
#
#
# Convention : Reuss Voigt Hill
#
# Bulk Modulus (GPa) = 8.74972 24.42315 16.58643
# Shear Modulus (GPa) = 15.43550 35.70609 25.57080
#
# Velocity S-wave (km/s) = 2.37234 3.60818 3.05344
# Velocity P-wave (km/s) = 3.27021 5.12481 4.29872
#
# Compressibility (1/GPa) = 0.11428938
#
# Stress axis : x y z
#
# Youngs Moduli (GPa) = 27.29343 28.19689 11.23217
#
# Poissons Ratio (x) = 0.67415 -0.47698
# Poissons Ratio (y) = 0.65255 0.47152
# Poissons Ratio (z) = -1.15904 1.18369
#
# Static dielectric constant tensor:
#      x y z
#    x 2.193920 0.000000 0.092770 
#    y 0.000000 2.174970 0.000000 
#    z 0.092770 0.000000 2.286110 
# 
# From -- ./inp_files/52981.got.cif
#   From: 2010.05.17/outbox.cif.g08.bks.cpg/sg14_27_cif.got.tgz:52981.got - 2010.06.03 17:49:19.
