data_PCOD9248050
_publ_section_title
;
Structure prediction by ZEFSAII (Michael W. Deem and Ramdas Pophale) SiO2 
 PCOD9248050
Probable space group: P 21/C
;
_chemical_formula_sum "Si O2"
_cell_formula_units_Z 24
_cell_length_a 8.868736
_cell_length_b 13.314807
_cell_length_c 9.113784
_cell_angle_alpha 90.000000
_cell_angle_beta 76.031620
_cell_angle_gamma 90.000000
_cell_volume 1044.381428
_symmetry_space_group_name_H-M "P 21/C"
_symmetry_group_IT_number 14
_symmetry_cell_setting 'monoclinic'
loop_
_space_group_symop_operation_xyz
x,y,z
-x,1/2+y,1/2-z
-x,-y,-z
x,1/2-y,1/2+z
loop_
_atom_site_type_symbol
_atom_site_label
_atom_site_fract_x
_atom_site_fract_y
_atom_site_fract_z
Si Si1 0.687497 0.081531 0.899041
Si Si2 0.704341 0.712930 0.712154
Si Si3 0.570228 0.423688 0.101620
Si Si4 0.072921 0.891592 0.540048
Si Si5 0.646157 0.627244 0.424626
Si Si6 0.027543 0.719195 0.754692
O O1 0.616492 0.046737 0.757935
O O2 0.821150 0.161827 0.845051
O O3 0.733286 0.974211 0.951453
O O4 0.539981 0.117774 0.025012
O O5 0.561493 0.659044 0.829771
O O6 0.686979 0.703477 0.544123
O O7 0.695790 0.828492 0.759648
O O8 0.869223 0.672964 0.727906
O O9 0.500000 0.500000 0.000000
O O10 0.739895 0.395980 0.000795
O O11 0.030139 0.835952 0.703385
O O12 0.030419 0.808898 0.425378
O O13 0.000000 0.000000 0.500000
#
# Coordination Sequence:
#
# PCOD9248050 Si02
#       6
#     4   4   4   4   4   4
#     4   9  22  43  63  93 135 174 222 282 341 404
#     4  11  23  38  65  96 126 174 224 272 344 407
#     4  10  22  41  66  98 130 178 226 282 341 409
#     4  11  25  47  70 102 143 181 233 289 348 413
#     4  10  22  41  63  91 129 173 220 278 335 410
#     4  11  24  44  68 101 135 181 225 288 343 411
#
# _framework density 22.98011
#
# number of rings (size 3 to 8) (size 9 to 14) (size 15 to 20)
#    0.000    1.667    0.000    3.000    7.000    0.667 
#   12.000    0.000    0.000    0.000    0.000    0.000 
#    0.000    0.000    0.000    0.000    0.000    0.000 
#
# Total GULP energy -133839.005938 kJ/mol
# GULP energy per Si atom -5576.625247 kJ/mol
# Density = 2.292781 g / cm^3
# Si number density = 22.980110 Si / 1000 Ang^3
#
#
#
# Elastic Constant Matrix: (Units=GPa)
#
#
# Indices 1 2 3 4 5 6 
#
# 1 121.6616 40.5534 0.2384 0.0000 -3.9238 0.0000
# 2 40.5534 90.0349 28.5568 0.0000 7.1488 0.0000
# 3 0.2384 28.5568 40.3992 0.0000 15.2349 0.0000
# 4 0.0000 0.0000 0.0000 35.8381 0.0000 -0.3888
# 5 -3.9238 7.1488 15.2349 0.0000 29.0033 0.0000
# 6 0.0000 0.0000 0.0000 -0.3888 0.0000 22.9594
#
#
#
# Elastic Compliance Matrix: (Units=1/GPa)
#
#
# Indices 1 2 3 4 5 6 
#
# 1 0.010188 -0.005847 0.003753 0.000000 0.000848 0.000000
# 2 -0.005847 0.017788 -0.013203 0.000000 0.001760 0.000000
# 3 0.003753 -0.013203 0.040709 0.000000 -0.017621 0.000000
# 4 0.000000 0.000000 0.000000 0.027908 0.000000 0.000473
# 5 0.000848 0.001760 -0.017621 0.000000 0.043416 0.000000
# 6 0.000000 0.000000 0.000000 0.000473 0.000000 0.043563
#
#
# Mechanical properties :
#
#
# Convention : Reuss Voigt Hill
#
# Bulk Modulus (GPa) = 26.25245 43.42144 34.83695
# Shear Modulus (GPa) = 22.03962 29.74328 25.89145
#
# Velocity S-wave (km/s) = 3.10025 3.60155 3.36026
# Velocity P-wave (km/s) = 4.92587 6.01923 5.49979
#
# Compressibility (1/GPa) = 0.03809168
#
# Stress axis : x y z
#
# Youngs Moduli (GPa) = 98.15070 56.21693 24.56471
#
# Poissons Ratio (x) = 0.32869 -0.09219
# Poissons Ratio (y) = 0.57386 0.32433
# Poissons Ratio (z) = -0.36835 0.74224
#
# Static dielectric constant tensor:
#      x y z
#    x 1.918240 0.000000 -0.018960 
#    y 0.000000 1.998580 0.000000 
#    z -0.018960 0.000000 1.898170 
# 
# From -- ./inp_files/8458.got.cif
#   From: 2010.05.17/outbox.cif.g08.bks.cpg/sg14_5_cif.got.tgz:8458.got - 2010.06.03 17:49:19.
