data_PCOD9248335
_publ_section_title
;
Structure prediction by ZEFSAII (Michael W. Deem and Ramdas Pophale) SiO2 
 PCOD9248335
Probable space group: P 21/C
;
_chemical_formula_sum "Si O2"
_cell_formula_units_Z 32
_cell_length_a 18.139081
_cell_length_b 6.598084
_cell_length_c 12.989904
_cell_angle_alpha 90.000000
_cell_angle_beta 91.969388
_cell_angle_gamma 90.000000
_cell_volume 1553.754722
_symmetry_space_group_name_H-M "P 21/C"
_symmetry_group_IT_number 14
_symmetry_cell_setting 'monoclinic'
loop_
_space_group_symop_operation_xyz
x,y,z
-x,1/2+y,1/2-z
-x,-y,-z
x,1/2-y,1/2+z
loop_
_atom_site_type_symbol
_atom_site_label
_atom_site_fract_x
_atom_site_fract_y
_atom_site_fract_z
Si Si1 0.544460 0.968484 0.898409
Si Si2 0.204261 0.026407 0.631064
Si Si3 0.672399 0.230058 0.839436
Si Si4 0.143894 0.398642 0.909415
Si Si5 0.579615 0.889690 0.260595
Si Si6 0.279892 0.153273 0.276652
Si Si7 0.989239 0.580408 0.613604
Si Si8 0.100548 0.728990 0.264047
O O1 0.560509 0.739501 0.861962
O O2 0.621454 0.087857 0.906651
O O3 0.493845 0.065881 0.806358
O O4 0.500000 0.000000 0.000000
O O5 0.264488 0.858288 0.601536
O O6 0.160883 0.925729 0.723940
O O7 0.153175 0.072416 0.531749
O O8 0.244694 0.224335 0.678199
O O9 0.620240 0.400211 0.786612
O O10 0.707654 0.078488 0.757047
O O11 0.222055 0.324035 0.866312
O O12 0.075890 0.247193 0.886962
O O13 0.128337 0.605579 0.846526
O O14 0.639775 0.752849 0.202495
O O15 0.963446 0.397690 0.684520
O O16 0.000000 0.500000 0.500000
O O17 0.064959 0.664595 0.663182
#
# Coordination Sequence:
#
# PCOD9248335 Si02
#       8
#     4   4   4   4   4   4   4   4
#     4  11  23  41  68  97 134 179 223 273 340 399
#     4  11  25  43  68  98 133 174 231 272 335 405
#     4  10  22  44  66  96 140 171 220 286 333 398
#     4  12  26  44  73  99 133 184 220 280 344 401
#     4  10  22  42  65  98 138 175 224 279 329 402
#     4  10  23  43  67  96 137 175 223 281 334 401
#     4  12  28  44  71 102 136 178 226 276 343 408
#     4  12  25  47  68 100 137 176 223 283 334 409
#
# _framework density 20.595269999999999
#
# number of rings (size 3 to 8) (size 9 to 14) (size 15 to 20)
#    0.000    1.000    5.000    0.750    3.500    6.500 
#    0.000    0.000    0.000    0.000    0.000    0.000 
#    0.000    0.000    0.000    0.000    0.000    0.000 
#
# Total GULP energy -178833.967457 kJ/mol
# GULP energy per Si atom -5588.561483 kJ/mol
# Density = 2.054839 g / cm^3
# Si number density = 20.595270 Si / 1000 Ang^3
#
#
#
# Elastic Constant Matrix: (Units=GPa)
#
#
# Indices 1 2 3 4 5 6 
#
# 1 47.0457 14.5328 -6.5641 0.0000 -5.3255 0.0000
# 2 14.5328 97.7105 26.4325 0.0000 -1.3243 0.0000
# 3 -6.5641 26.4325 49.3454 0.0000 -3.5966 0.0000
# 4 0.0000 0.0000 0.0000 19.6447 0.0000 7.4295
# 5 -5.3255 -1.3243 -3.5966 0.0000 33.5759 0.0000
# 6 0.0000 0.0000 0.0000 7.4295 0.0000 32.3264
#
#
#
# Elastic Compliance Matrix: (Units=1/GPa)
#
#
# Indices 1 2 3 4 5 6 
#
# 1 0.024262 -0.005272 0.006367 0.000000 0.004322 0.000000
# 2 -0.005272 0.013116 -0.007811 0.000000 -0.001156 0.000000
# 3 0.006367 -0.007811 0.025547 0.000000 0.003438 0.000000
# 4 0.000000 0.000000 0.000000 0.055750 0.000000 -0.012813
# 5 0.004322 -0.001156 0.003438 0.000000 0.030791 0.000000
# 6 0.000000 0.000000 0.000000 -0.012813 0.000000 0.033879
#
#
# Mechanical properties :
#
#
# Convention : Reuss Voigt Hill
#
# Bulk Modulus (GPa) = 20.20559 29.21155 24.70857
# Shear Modulus (GPa) = 23.44370 27.75610 25.59990
#
# Velocity S-wave (km/s) = 3.37754 3.67508 3.52944
# Velocity P-wave (km/s) = 5.00424 5.67650 5.35094
#
# Compressibility (1/GPa) = 0.04949124
#
# Stress axis : x y z
#
# Youngs Moduli (GPa) = 41.21640 76.24325 39.14349
#
# Poissons Ratio (x) = 0.40198 -0.24921
# Poissons Ratio (y) = 0.21731 0.30576
# Poissons Ratio (z) = -0.26241 0.59556
#
# Static dielectric constant tensor:
#      x y z
#    x 1.763170 0.000000 -0.012440 
#    y 0.000000 1.746430 0.000000 
#    z -0.012440 0.000000 1.691410 
# 
# From -- ./inp_files/34718.got.cif
#   From: 2010.05.17/outbox.cif.g08.bks.cpg/sg14_18_cif.got.tgz:34718.got - 2010.06.03 17:49:19.
