data_PCOD9248747
_publ_section_title
;
Structure prediction by ZEFSAII (Michael W. Deem and Ramdas Pophale) SiO2 
 PCOD9248747
Probable space group: P 21/C
;
_chemical_formula_sum "Si O2"
_cell_formula_units_Z 24
_cell_length_a 20.213212
_cell_length_b 5.435824
_cell_length_c 27.304047
_cell_angle_alpha 90.000000
_cell_angle_beta 19.597770
_cell_angle_gamma 90.000000
_cell_volume 1006.259739
_symmetry_space_group_name_H-M "P 21/C"
_symmetry_group_IT_number 14
_symmetry_cell_setting 'monoclinic'
loop_
_space_group_symop_operation_xyz
x,y,z
-x,1/2+y,1/2-z
-x,-y,-z
x,1/2-y,1/2+z
loop_
_atom_site_type_symbol
_atom_site_label
_atom_site_fract_x
_atom_site_fract_y
_atom_site_fract_z
Si Si1 0.129836 0.864569 0.161043
Si Si2 0.599250 0.980831 0.198557
Si Si3 0.174206 0.303262 0.378731
Si Si4 0.931041 0.461887 0.129639
Si Si5 0.292306 0.635487 0.142259
Si Si6 0.906818 0.327268 0.415353
O O1 0.265340 0.814073 0.113718
O O2 0.226289 0.849691 0.039873
O O3 0.977438 0.630784 0.263142
O O4 0.499234 0.240976 0.256366
O O5 0.635829 0.931497 0.230268
O O6 0.811428 0.014799 0.024935
O O7 0.186819 0.175130 0.317455
O O8 0.000000 0.500000 0.500000
O O9 0.094677 0.112947 0.475345
O O10 0.772558 0.275286 0.262710
O O11 0.055192 0.559509 0.089452
O O12 0.120547 0.435187 0.255089
O O13 0.500000 0.500000 0.000000
#
# Coordination Sequence:
#
# PCOD9248747 Si02
#       6
#     4   4   4   4   4   4
#     4  10  22  43  74 101 140 196 246 300 379 445
#     4  12  27  46  73 112 150 198 257 313 387 463
#     4  11  23  43  74 105 146 200 248 309 394 458
#     4  11  21  43  75 101 151 193 251 309 389 444
#     4  11  24  45  73 108 147 198 261 313 380 459
#     4  11  23  47  71 102 150 196 240 322 379 448
#
# _framework density 23.850701999999998
#
# number of rings (size 3 to 8) (size 9 to 14) (size 15 to 20)
#    0.000    1.000    5.000    1.000    2.333    0.667 
#    6.000    5.000    0.000    0.000    0.000    0.000 
#    0.000    0.000    0.000    0.000    0.000    0.000 
#
# Total GULP energy -134068.595524 kJ/mol
# GULP energy per Si atom -5586.191480 kJ/mol
# Density = 2.379642 g / cm^3
# Si number density = 23.850702 Si / 1000 Ang^3
#
#
#
# Elastic Constant Matrix: (Units=GPa)
#
#
# Indices 1 2 3 4 5 6 
#
# 1 89.5943 11.1621 12.9933 0.0000 5.3224 0.0000
# 2 11.1621 105.3979 23.2857 0.0000 -8.4611 0.0000
# 3 12.9933 23.2857 79.7529 0.0000 -8.7174 0.0000
# 4 0.0000 0.0000 0.0000 29.7716 0.0000 5.3195
# 5 5.3224 -8.4611 -8.7174 0.0000 28.0121 0.0000
# 6 0.0000 0.0000 0.0000 5.3195 0.0000 55.3435
#
#
#
# Elastic Compliance Matrix: (Units=1/GPa)
#
#
# Indices 1 2 3 4 5 6 
#
# 1 0.011766 -0.001069 -0.001951 0.000000 -0.003166 0.000000
# 2 -0.001069 0.010374 -0.002578 0.000000 0.002534 0.000000
# 3 -0.001951 -0.002578 0.014042 0.000000 0.003962 0.000000
# 4 0.000000 0.000000 0.000000 0.034176 0.000000 -0.003285
# 5 -0.003166 0.002534 0.003962 0.000000 0.038299 0.000000
# 6 0.000000 0.000000 0.000000 -0.003285 0.000000 0.018385
#
#
# Mechanical properties :
#
#
# Convention : Reuss Voigt Hill
#
# Bulk Modulus (GPa) = 40.02133 41.06970 40.54552
# Shear Modulus (GPa) = 34.11445 37.77904 35.94675
#
# Velocity S-wave (km/s) = 3.78608 3.98424 3.88642
# Velocity P-wave (km/s) = 5.99407 6.19859 6.09719
#
# Compressibility (1/GPa) = 0.02498667
#
# Stress axis : x y z
#
# Youngs Moduli (GPa) = 84.99377 96.39441 71.21384
#
# Poissons Ratio (x) = 0.10306 0.13892
# Poissons Ratio (y) = 0.09087 0.18357
# Poissons Ratio (z) = 0.16580 0.24848
#
# Static dielectric constant tensor:
#      x y z
#    x 2.066630 0.000000 0.000590 
#    y 0.000000 1.999960 0.000000 
#    z 0.000590 0.000000 1.930670 
# 
# From -- ./inp_files/80447.got.cif
#   From: 2010.05.17/outbox.cif.g08.bks.cpg/sg14_41_cif.got.tgz:80447.got - 2010.06.03 17:49:19.
