data_PCOD9249719
_publ_section_title
;
Structure prediction by ZEFSAII (Michael W. Deem and Ramdas Pophale) SiO2 
 PCOD9249719
Probable space group: P 21/C
;
_chemical_formula_sum "Si O2"
_cell_formula_units_Z 26
_cell_length_a 16.627602
_cell_length_b 8.553960
_cell_length_c 21.952605
_cell_angle_alpha 90.000000
_cell_angle_beta 21.377171
_cell_angle_gamma 90.000000
_cell_volume 1138.118082
_symmetry_space_group_name_H-M "P 21/C"
_symmetry_group_IT_number 14
_symmetry_cell_setting 'monoclinic'
loop_
_space_group_symop_operation_xyz
x,y,z
-x,1/2+y,1/2-z
-x,-y,-z
x,1/2-y,1/2+z
loop_
_atom_site_type_symbol
_atom_site_label
_atom_site_fract_x
_atom_site_fract_y
_atom_site_fract_z
Si Si1 0.884909 0.358450 0.116709
Si Si2 0.756907 0.891510 0.545428
Si Si3 0.304530 0.830407 0.569487
Si Si4 0.114997 0.334972 0.177533
Si Si5 0.517985 0.655926 0.525907
Si Si6 0.438260 0.138112 0.731807
Si Si7 0.000000 0.500000 0.500000
O O1 0.624942 0.367209 0.312162
O O2 0.000000 0.500000 0.000000
O O3 0.994715 0.380264 0.105970
O O4 0.947972 0.189541 0.046048
O O5 0.759364 0.825176 0.475759
O O6 0.621185 0.793215 0.690170
O O7 0.650225 0.060628 0.613851
O O8 0.402354 0.790111 0.566235
O O9 0.502971 0.841404 0.380910
O O10 0.137109 0.702693 0.659462
O O11 0.169035 0.993091 0.665183
O O12 0.233071 0.208404 0.136833
O O13 0.500000 0.500000 0.500000
O O14 0.228288 0.023541 0.879527
#
# Coordination Sequence:
#
# PCOD9249719 Si02
#       7
#     4   4   4   4   4   4   2
#     4  11  25  46  72 102 143 183 244 290 358 434
#     4  10  23  43  66  99 130 182 229 298 350 429
#     4  11  24  48  65 106 138 188 241 289 370 438
#     4  11  24  45  70  95 144 184 237 301 357 437
#     4  12  27  45  71 104 143 190 241 301 367 434
#     4  10  24  42  70  95 139 174 240 282 365 419
#     4  10  24  48  68 100 138 190 230 300 350 424
#
# _framework density 22.844729999999998
#
# number of rings (size 3 to 8) (size 9 to 14) (size 15 to 20)
#    0.000    1.231    1.538    3.231   10.769    1.231 
#    2.769    0.000    0.000    0.000    0.000    0.000 
#    0.000    0.000    0.000    0.000    0.000    0.000 
#
# Total GULP energy -144807.480609 kJ/mol
# GULP energy per Si atom -5569.518485 kJ/mol
# Density = 2.279273 g / cm^3
# Si number density = 22.844730 Si / 1000 Ang^3
#
#
#
# Elastic Constant Matrix: (Units=GPa)
#
#
# Indices 1 2 3 4 5 6 
#
# 1 36.9630 7.9993 -3.8906 0.0000 -4.1017 0.0000
# 2 7.9993 79.2512 -0.1853 0.0000 16.9663 0.0000
# 3 -3.8906 -0.1853 18.9825 0.0000 -6.7075 0.0000
# 4 0.0000 0.0000 0.0000 21.2146 0.0000 -3.2760
# 5 -4.1017 16.9663 -6.7075 0.0000 28.9381 0.0000
# 6 0.0000 0.0000 0.0000 -3.2760 0.0000 33.7701
#
#
#
# Elastic Compliance Matrix: (Units=1/GPa)
#
#
# Indices 1 2 3 4 5 6 
#
# 1 0.030189 -0.005044 0.009471 0.000000 0.009432 0.000000
# 2 -0.005044 0.015442 -0.004722 0.000000 -0.010863 0.000000
# 3 0.009471 -0.004722 0.061026 0.000000 0.018256 0.000000
# 4 0.000000 0.000000 0.000000 0.047854 0.000000 0.004642
# 5 0.009432 -0.010863 0.018256 0.000000 0.046494 0.000000
# 6 0.000000 0.000000 0.000000 0.004642 0.000000 0.030062
#
#
# Mechanical properties :
#
#
# Convention : Reuss Voigt Hill
#
# Bulk Modulus (GPa) = 9.42796 15.89371 12.66084
# Shear Modulus (GPa) = 18.72573 25.53611 22.13092
#
# Velocity S-wave (km/s) = 2.86614 3.34700 3.11586
# Velocity P-wave (km/s) = 3.88445 4.68069 4.30104
#
# Compressibility (1/GPa) = 0.10606743
#
# Stress axis : x y z
#
# Youngs Moduli (GPa) = 33.12439 64.75947 16.38648
#
# Poissons Ratio (x) = 0.32666 -0.15520
# Poissons Ratio (y) = 0.16709 0.07737
# Poissons Ratio (z) = -0.31372 0.30576
#
# Static dielectric constant tensor:
#      x y z
#    x 1.885340 0.000000 0.014940 
#    y 0.000000 1.859790 0.000000 
#    z 0.014940 0.000000 1.945440 
# 
# From -- ./inp_files/74233.got.cif
#   From: 2010.05.17/outbox.cif.g08.bks.cpg/sg14_38_cif.got.tgz:74233.got - 2010.06.03 17:49:19.
