data_PCOD9249189
_publ_section_title
;
Structure prediction by ZEFSAII (Michael W. Deem and Ramdas Pophale) SiO2 
 PCOD9249189
Probable space group: P 21/C
;
_chemical_formula_sum "Si O2"
_cell_formula_units_Z 22
_cell_length_a 14.827117
_cell_length_b 9.482191
_cell_length_c 12.672537
_cell_angle_alpha 90.000000
_cell_angle_beta 29.362890
_cell_angle_gamma 90.000000
_cell_volume 873.626399
_symmetry_space_group_name_H-M "P 21/C"
_symmetry_group_IT_number 14
_symmetry_cell_setting 'monoclinic'
loop_
_space_group_symop_operation_xyz
x,y,z
-x,1/2+y,1/2-z
-x,-y,-z
x,1/2-y,1/2+z
loop_
_atom_site_type_symbol
_atom_site_label
_atom_site_fract_x
_atom_site_fract_y
_atom_site_fract_z
Si Si1 0.233500 0.206667 0.664993
Si Si2 0.588107 0.093666 0.237577
Si Si3 0.621871 0.008991 0.978675
Si Si4 0.086733 0.097291 0.004813
Si Si5 0.899052 0.312159 0.903621
Si Si6 0.000000 0.500000 0.000000
O O1 0.396221 0.094302 0.495879
O O2 0.330016 0.350728 0.534879
O O3 0.155782 0.230102 0.863125
O O4 0.058797 0.195530 0.767338
O O5 0.733123 0.975753 0.128586
O O6 0.707264 0.236706 0.120733
O O7 0.536211 0.080697 0.167537
O O8 0.817258 0.070789 0.744739
O O9 0.500000 0.000000 0.000000
O O10 0.942750 0.136509 0.241443
O O11 0.000000 0.000000 0.000000
O O12 0.933146 0.434194 0.953302
#
# Coordination Sequence:
#
# PCOD9249189 Si02
#       6
#     4   4   4   4   4   2
#     4  11  26  45  71 102 147 190 241 305 363 438
#     4  12  26  47  72 109 144 195 249 303 371 442
#     4  11  26  42  73 107 137 193 246 299 367 433
#     4  12  26  48  73 107 149 194 240 304 377 435
#     4  11  26  48  74 108 145 197 245 303 364 444
#     4  10  22  48  72 102 146 186 250 296 358 438
#
# _framework density 25.182389000000001
#
# number of rings (size 3 to 8) (size 9 to 14) (size 15 to 20)
#    0.000    0.727    5.455    1.636    7.636    4.364 
#    0.000    0.000    0.000    0.000    0.000    0.000 
#    0.000    0.000    0.000    0.000    0.000    0.000 
#
# Total GULP energy -122603.376682 kJ/mol
# GULP energy per Si atom -5572.880758 kJ/mol
# Density = 2.512507 g / cm^3
# Si number density = 25.182389 Si / 1000 Ang^3
#
#
#
# Elastic Constant Matrix: (Units=GPa)
#
#
# Indices 1 2 3 4 5 6 
#
# 1 143.0268 26.9219 30.6105 0.0000 13.5609 0.0000
# 2 26.9219 24.7032 2.7357 0.0000 0.7671 0.0000
# 3 30.6105 2.7357 121.5154 0.0000 3.3700 0.0000
# 4 0.0000 0.0000 0.0000 33.6135 0.0000 9.0130
# 5 13.5609 0.7671 3.3700 0.0000 49.6616 0.0000
# 6 0.0000 0.0000 0.0000 9.0130 0.0000 42.8677
#
#
#
# Elastic Compliance Matrix: (Units=1/GPa)
#
#
# Indices 1 2 3 4 5 6 
#
# 1 0.009570 -0.010123 -0.002119 0.000000 -0.002313 0.000000
# 2 -0.010123 0.051306 0.001343 0.000000 0.001881 0.000000
# 3 -0.002119 0.001343 0.008734 0.000000 -0.000035 0.000000
# 4 0.000000 0.000000 0.000000 0.031527 0.000000 -0.006629
# 5 -0.002313 0.001881 -0.000035 0.000000 0.020741 0.000000
# 6 0.000000 0.000000 0.000000 -0.006629 0.000000 0.024721
#
#
# Mechanical properties :
#
#
# Convention : Reuss Voigt Hill
#
# Bulk Modulus (GPa) = 20.91532 45.53127 33.22330
# Shear Modulus (GPa) = 27.12466 40.49372 33.80919
#
# Velocity S-wave (km/s) = 3.28552 4.01436 3.66809
# Velocity P-wave (km/s) = 4.76618 6.29338 5.58225
#
# Compressibility (1/GPa) = 0.04781183
#
# Stress axis : x y z
#
# Youngs Moduli (GPa) = 104.49445 19.49101 114.49699
#
# Poissons Ratio (x) = 0.19731 0.24258
# Poissons Ratio (y) = 1.05779 -0.15375
# Poissons Ratio (z) = 0.22139 -0.02617
#
# Static dielectric constant tensor:
#      x y z
#    x 1.948940 0.000000 0.028240 
#    y 0.000000 2.236000 0.000000 
#    z 0.028240 0.000000 2.137240 
# 
# From -- ./inp_files/32315.got.cif
#   From: 2010.05.17/outbox.cif.g08.bks.cpg/sg14_17_cif.got.tgz:32315.got - 2010.06.03 17:49:19.
