data_PCOD9249052
_publ_section_title
;
Structure prediction by ZEFSAII (Michael W. Deem and Ramdas Pophale) SiO2 
 PCOD9249052
Probable space group: P 21/C
;
_chemical_formula_sum "Si O2"
_cell_formula_units_Z 12
_cell_length_a 8.351270
_cell_length_b 4.825580
_cell_length_c 14.181601
_cell_angle_alpha 90.000000
_cell_angle_beta 47.672070
_cell_angle_gamma 90.000000
_cell_volume 422.522398
_symmetry_space_group_name_H-M "P 21/C"
_symmetry_group_IT_number 14
_symmetry_cell_setting 'monoclinic'
loop_
_space_group_symop_operation_xyz
x,y,z
-x,1/2+y,1/2-z
-x,-y,-z
x,1/2-y,1/2+z
loop_
_atom_site_type_symbol
_atom_site_label
_atom_site_fract_x
_atom_site_fract_y
_atom_site_fract_z
Si Si1 0.820836 0.267825 0.543557
Si Si2 0.686025 0.610533 0.267574
Si Si3 0.266255 0.894534 0.623915
O O1 0.577525 0.401432 0.635720
O O2 0.854033 0.123519 0.427970
O O3 0.000000 0.500000 0.500000
O O4 0.778408 0.023908 0.635955
O O5 0.741712 0.411657 0.332586
O O6 0.767747 0.908570 0.272016
O O7 0.500000 0.000000 0.500000
#
# Coordination Sequence:
#
# PCOD9249052 Si02
#       3
#     4   4   4
#     4  11  24  48  84 121 157 215 275 329 401 488
#     4  11  24  47  74 114 165 202 256 337 404 473
#     4  10  22  45  74 109 158 207 253 330 410 469
#
# _framework density 28.400863999999999
#
# number of rings (size 3 to 8) (size 9 to 14) (size 15 to 20)
#    0.000    1.333    0.000    8.000    0.000    2.667 
#    0.000   55.000    0.000    0.000    0.000    7.000 
#    0.000    0.000    0.000    0.000    0.000    0.000 
#
# Total GULP energy -67283.013404 kJ/mol
# GULP energy per Si atom -5606.917784 kJ/mol
# Density = 2.833622 g / cm^3
# Si number density = 28.400864 Si / 1000 Ang^3
#
#
#
# Elastic Constant Matrix: (Units=GPa)
#
#
# Indices 1 2 3 4 5 6 
#
# 1 234.3350 59.6818 80.1633 0.0000 16.1598 0.0000
# 2 59.6818 117.7155 23.6982 0.0000 4.6426 0.0000
# 3 80.1633 23.6982 154.7137 0.0000 15.8875 0.0000
# 4 0.0000 0.0000 0.0000 78.0111 0.0000 12.5055
# 5 16.1598 4.6426 15.8875 0.0000 54.9659 0.0000
# 6 0.0000 0.0000 0.0000 12.5055 0.0000 72.5991
#
#
#
# Elastic Compliance Matrix: (Units=1/GPa)
#
#
# Indices 1 2 3 4 5 6 
#
# 1 0.005808 -0.002398 -0.002563 0.000000 -0.000764 0.000000
# 2 -0.002398 0.009763 -0.000248 0.000000 -0.000048 0.000000
# 3 -0.002563 -0.000248 0.007987 0.000000 -0.001534 0.000000
# 4 0.000000 0.000000 0.000000 0.013183 0.000000 -0.002271
# 5 -0.000764 -0.000048 -0.001534 0.000000 0.018865 0.000000
# 6 0.000000 0.000000 0.000000 -0.002271 0.000000 0.014165
#
#
# Mechanical properties :
#
#
# Convention : Reuss Voigt Hill
#
# Bulk Modulus (GPa) = 76.11129 92.65007 84.38068
# Shear Modulus (GPa) = 59.12261 63.99662 61.55961
#
# Velocity S-wave (km/s) = 4.56754 4.75208 4.66072
# Velocity P-wave (km/s) = 7.39416 7.92482 7.66408
#
# Compressibility (1/GPa) = 0.01313865
#
# Stress axis : x y z
#
# Youngs Moduli (GPa) = 172.18117 102.42953 125.19927
#
# Poissons Ratio (x) = 0.24566 0.32094
# Poissons Ratio (y) = 0.41296 0.03103
# Poissons Ratio (z) = 0.44138 0.02538
#
# Static dielectric constant tensor:
#      x y z
#    x 2.213570 0.000000 -0.265710 
#    y 0.000000 2.166810 0.000000 
#    z -0.265710 0.000000 2.111310 
# 
# From -- ./inp_files/38257.got.cif
#   From: 2010.05.17/outbox.cif.g08.bks.cpg/sg14_20_cif.got.tgz:38257.got - 2010.06.03 17:49:19.
