data_PCOD9249168
_publ_section_title
;
Structure prediction by ZEFSAII (Michael W. Deem and Ramdas Pophale) SiO2 
 PCOD9249168
Probable space group: P 21/C
;
_chemical_formula_sum "Si O2"
_cell_formula_units_Z 32
_cell_length_a 12.165798
_cell_length_b 13.321080
_cell_length_c 9.008813
_cell_angle_alpha 90.000000
_cell_angle_beta 88.863371
_cell_angle_gamma 90.000000
_cell_volume 1459.695091
_symmetry_space_group_name_H-M "P 21/C"
_symmetry_group_IT_number 14
_symmetry_cell_setting 'monoclinic'
loop_
_space_group_symop_operation_xyz
x,y,z
-x,1/2+y,1/2-z
-x,-y,-z
x,1/2-y,1/2+z
loop_
_atom_site_type_symbol
_atom_site_label
_atom_site_fract_x
_atom_site_fract_y
_atom_site_fract_z
Si Si1 0.700978 0.411550 0.175398
Si Si2 0.358468 0.953656 0.853220
Si Si3 0.491243 0.880988 0.113170
Si Si4 0.318065 0.380615 0.967759
Si Si5 0.433304 0.841303 0.571628
Si Si6 0.791152 0.777959 0.245572
Si Si7 0.921207 0.639308 0.463145
Si Si8 0.849949 0.413462 0.439814
O O1 0.596367 0.439127 0.282201
O O2 0.728616 0.512637 0.085396
O O3 0.794128 0.377698 0.287754
O O4 0.652082 0.331285 0.061695
O O5 0.372846 0.912216 0.689803
O O6 0.390052 0.071232 0.865537
O O7 0.455446 0.901303 0.945924
O O8 0.245941 0.925514 0.935771
O O9 0.467403 0.764973 0.139894
O O10 0.449961 0.386781 0.982003
O O11 0.287865 0.300045 0.839776
O O12 0.267023 0.341362 0.122666
O O13 0.879875 0.712482 0.335624
O O14 0.852444 0.839858 0.115388
O O15 0.896694 0.525656 0.412657
O O16 0.048994 0.650163 0.501363
#
# Coordination Sequence:
#
# PCOD9249168 Si02
#       8
#     4   4   4   4   4   4   4   4
#     4  11  23  43  59  97 140 174 219 274 330 400
#     4  10  23  41  63  95 131 185 217 273 336 406
#     4  10  23  40  61  88 137 181 229 259 333 407
#     4  11  24  39  67  99 135 174 217 283 325 401
#     4  12  25  37  64  98 139 178 224 270 327 408
#     4  10  24  42  73 100 128 168 237 280 336 391
#     4  10  22  47  71  96 123 173 229 290 338 389
#     4  10  23  45  71  88 134 180 220 276 353 397
#
# _framework density 21.922385999999999
#
# number of rings (size 3 to 8) (size 9 to 14) (size 15 to 20)
#    0.000    1.500    2.500    1.125    8.750    0.000 
#    9.000    1.875    0.000    0.000    0.000    0.000 
#    0.000    0.000    0.000    0.000    0.000    0.000 
#
# Total GULP energy -178921.565757 kJ/mol
# GULP energy per Si atom -5591.298930 kJ/mol
# Density = 2.187249 g / cm^3
# Si number density = 21.922386 Si / 1000 Ang^3
#
#
#
# Elastic Constant Matrix: (Units=GPa)
#
#
# Indices 1 2 3 4 5 6 
#
# 1 127.5400 19.2133 47.9619 0.0000 28.1371 0.0000
# 2 19.2133 64.5823 21.0209 0.0000 5.8561 0.0000
# 3 47.9619 21.0209 119.2341 0.0000 23.5879 0.0000
# 4 0.0000 0.0000 0.0000 34.4686 0.0000 4.7423
# 5 28.1371 5.8561 23.5879 0.0000 32.0506 0.0000
# 6 0.0000 0.0000 0.0000 4.7423 0.0000 26.9299
#
#
#
# Elastic Compliance Matrix: (Units=1/GPa)
#
#
# Indices 1 2 3 4 5 6 
#
# 1 0.010635 -0.001680 -0.002569 0.000000 -0.007138 0.000000
# 2 -0.001680 0.016721 -0.002293 0.000000 0.000108 0.000000
# 3 -0.002569 -0.002293 0.010880 0.000000 -0.005332 0.000000
# 4 0.000000 0.000000 0.000000 0.029732 0.000000 -0.005236
# 5 -0.007138 0.000108 -0.005332 0.000000 0.041372 0.000000
# 6 0.000000 0.000000 0.000000 -0.005236 0.000000 0.038055
#
#
# Mechanical properties :
#
#
# Convention : Reuss Voigt Hill
#
# Bulk Modulus (GPa) = 39.76294 54.19429 46.97862
# Shear Modulus (GPa) = 29.60966 33.56718 31.58842
#
# Velocity S-wave (km/s) = 3.67912 3.91728 3.80006
# Velocity P-wave (km/s) = 6.01875 6.72568 6.38201
#
# Compressibility (1/GPa) = 0.02514904
#
# Stress axis : x y z
#
# Youngs Moduli (GPa) = 94.03036 59.80622 91.91522
#
# Poissons Ratio (x) = 0.10049 0.23618
# Poissons Ratio (y) = 0.15800 0.21079
# Poissons Ratio (z) = 0.24161 0.13715
#
# Static dielectric constant tensor:
#      x y z
#    x 1.791290 0.000000 0.016580 
#    y 0.000000 1.856590 0.000000 
#    z 0.016580 0.000000 1.790690 
# 
# From -- ./inp_files/13330.got.cif
#   From: 2010.05.17/outbox.cif.g08.bks.cpg/sg14_7_cif.got.tgz:13330.got - 2010.06.03 17:49:19.
