data_PCOD9249376
_publ_section_title
;
Structure prediction by ZEFSAII (Michael W. Deem and Ramdas Pophale) SiO2 
 PCOD9249376
Probable space group: P 21/C
;
_chemical_formula_sum "Si O2"
_cell_formula_units_Z 28
_cell_length_a 5.816391
_cell_length_b 24.917873
_cell_length_c 9.877414
_cell_angle_alpha 90.000000
_cell_angle_beta 52.352863
_cell_angle_gamma 90.000000
_cell_volume 1133.486655
_symmetry_space_group_name_H-M "P 21/C"
_symmetry_group_IT_number 14
_symmetry_cell_setting 'monoclinic'
loop_
_space_group_symop_operation_xyz
x,y,z
-x,1/2+y,1/2-z
-x,-y,-z
x,1/2-y,1/2+z
loop_
_atom_site_type_symbol
_atom_site_label
_atom_site_fract_x
_atom_site_fract_y
_atom_site_fract_z
Si Si1 0.151905 0.680630 0.724899
Si Si2 0.625120 0.056813 0.130414
Si Si3 0.265266 0.090312 0.591540
Si Si4 0.372198 0.343063 0.776368
Si Si5 0.611307 0.760451 0.509710
Si Si6 0.033390 0.488499 0.719220
Si Si7 0.749671 0.148212 0.506446
O O1 0.442512 0.704781 0.554407
O O2 0.943643 0.632141 0.751139
O O3 0.242532 0.658286 0.837949
O O4 0.937481 0.731156 0.837875
O O5 0.621067 0.121783 0.119837
O O6 0.287109 0.040212 0.216466
O O7 0.797644 0.024996 0.952855
O O8 0.795051 0.042268 0.209756
O O9 0.313656 0.119152 0.430813
O O10 0.580195 0.092936 0.546736
O O11 0.134476 0.032079 0.630208
O O12 0.406403 0.283951 0.829183
O O13 0.058347 0.347270 0.821975
O O14 0.431181 0.803339 0.489848
#
# Coordination Sequence:
#
# PCOD9249376 Si02
#       7
#     4   4   4   4   4   4   4
#     4   9  19  36  54  82 114 148 190 240 292 347
#     4  10  23  41  59  85 121 153 193 246 298 349
#     4   9  20  36  58  83 110 152 192 238 290 347
#     4   9  20  36  58  83 110 152 192 238 290 347
#     4   9  19  36  54  82 114 148 190 240 292 347
#     4  10  23  41  59  85 121 153 193 246 298 349
#     4   8  18  36  56  74 120 140 184 242 288 336
#
# _framework density 24.702539999999999
#
# number of rings (size 3 to 8) (size 9 to 14) (size 15 to 20)
#    0.000    3.429    0.000    0.000    8.000    5.714 
#    7.714    0.000    0.000    0.000    0.000    0.000 
#    0.000    0.000    0.000    0.000    0.000    0.000 
#
# Total GULP energy -155953.469701 kJ/mol
# GULP energy per Si atom -5569.766775 kJ/mol
# Density = 2.464632 g / cm^3
# Si number density = 24.702540 Si / 1000 Ang^3
#
#
#
# Elastic Constant Matrix: (Units=GPa)
#
#
# Indices 1 2 3 4 5 6 
#
# 1 113.8139 30.7291 14.8554 0.0000 -20.0762 0.0000
# 2 30.7291 91.9209 14.1370 0.0000 -2.9911 0.0000
# 3 14.8554 14.1370 33.0504 0.0000 -10.9863 0.0000
# 4 0.0000 0.0000 0.0000 46.7331 0.0000 -1.4903
# 5 -20.0762 -2.9911 -10.9863 0.0000 19.6893 0.0000
# 6 0.0000 0.0000 0.0000 -1.4903 0.0000 29.8538
#
#
#
# Elastic Compliance Matrix: (Units=1/GPa)
#
#
# Indices 1 2 3 4 5 6 
#
# 1 0.011769 -0.003569 0.000056 0.000000 0.011490 0.000000
# 2 -0.003569 0.012752 -0.005422 0.000000 -0.004727 0.000000
# 3 0.000056 -0.005422 0.039650 0.000000 0.021357 0.000000
# 4 0.000000 0.000000 0.000000 0.021432 0.000000 0.001070
# 5 0.011490 -0.004727 0.021357 0.000000 0.073703 0.000000
# 6 0.000000 0.000000 0.000000 0.001070 0.000000 0.033550
#
#
# Mechanical properties :
#
#
# Convention : Reuss Voigt Hill
#
# Bulk Modulus (GPa) = 21.59756 39.80315 30.70035
# Shear Modulus (GPa) = 22.10815 31.19283 26.65049
#
# Velocity S-wave (km/s) = 2.99486 3.55736 3.28816
# Velocity P-wave (km/s) = 4.55203 5.74639 5.18372
#
# Compressibility (1/GPa) = 0.04630153
#
# Stress axis : x y z
#
# Youngs Moduli (GPa) = 84.96649 78.41829 25.22058
#
# Poissons Ratio (x) = 0.27989 -0.00141
# Poissons Ratio (y) = 0.30326 0.13674
# Poissons Ratio (z) = -0.00475 0.42516
#
# Static dielectric constant tensor:
#      x y z
#    x 2.056300 0.000000 -0.038820 
#    y 0.000000 1.993510 0.000000 
#    z -0.038820 0.000000 2.108760 
# 
# From -- ./inp_files/2163.got.cif
#   From: 2010.05.17/outbox.cif.g08.bks.cpg/sg14_2_cif.got.tgz:2163.got - 2010.06.03 17:49:19.
