data_PCOD9249849
_publ_section_title
;
Structure prediction by ZEFSAII (Michael W. Deem and Ramdas Pophale) SiO2 
 PCOD9249849
Probable space group: P 21/C
;
_chemical_formula_sum "Si O2"
_cell_formula_units_Z 30
_cell_length_a 15.012906
_cell_length_b 4.871000
_cell_length_c 17.700009
_cell_angle_alpha 90.000000
_cell_angle_beta 67.074988
_cell_angle_gamma 90.000000
_cell_volume 1192.129122
_symmetry_space_group_name_H-M "P 21/C"
_symmetry_group_IT_number 14
_symmetry_cell_setting 'monoclinic'
loop_
_space_group_symop_operation_xyz
x,y,z
-x,1/2+y,1/2-z
-x,-y,-z
x,1/2-y,1/2+z
loop_
_atom_site_type_symbol
_atom_site_label
_atom_site_fract_x
_atom_site_fract_y
_atom_site_fract_z
Si Si1 0.339888 0.289947 0.149035
Si Si2 0.000000 0.000000 0.500000
Si Si3 0.039156 0.686408 0.639341
Si Si4 0.325672 0.891306 0.806379
Si Si5 0.772854 0.896139 0.590496
Si Si6 0.379566 0.535245 0.976611
Si Si7 0.125072 0.192143 0.683659
Si Si8 0.524804 0.968173 0.124353
O O1 0.326308 0.499573 0.222189
O O2 0.231981 0.201279 0.162400
O O3 0.415486 0.058619 0.149189
O O4 0.381408 0.437482 0.061096
O O5 0.115122 0.048850 0.443898
O O6 0.971362 0.219487 0.441828
O O7 0.072262 0.373196 0.636913
O O8 0.939627 0.721493 0.719482
O O9 0.115121 0.879624 0.659215
O O10 0.285971 0.587318 0.831193
O O11 0.430159 0.939026 0.810517
O O12 0.254533 0.085988 0.879236
O O13 0.724786 0.977599 0.526219
O O14 0.411999 0.847319 0.955185
O O15 0.450222 0.344390 0.902470
#
# Coordination Sequence:
#
# PCOD9249849 Si02
#       8
#     4   2   4   4   4   4   4   4
#     4  12  24  42  74 100 126 179 229 271 333 402
#     4  12  24  42  74 100 128 180 230 272 334 404
#     4  10  24  44  64  95 134 171 214 270 329 391
#     4  10  25  44  64  97 139 174 219 280 337 400
#     4  10  24  44  64  96 138 175 218 278 337 398
#     4  10  23  44  65  95 135 173 219 276 334 397
#     4  10  24  44  65  95 135 170 214 272 328 391
#     4  10  24  44  65  95 136 173 218 278 335 396
#
# _framework density 25.165057000000001
#
# number of rings (size 3 to 8) (size 9 to 14) (size 15 to 20)
#    0.000    1.600    0.000    2.400    0.000   18.133 
#    0.000    0.000    0.000    0.000    0.000    0.000 
#    0.000    0.000    0.000    0.000    0.000    0.000 
#
# Total GULP energy -167822.047924 kJ/mol
# GULP energy per Si atom -5594.068264 kJ/mol
# Density = 2.510778 g / cm^3
# Si number density = 25.165057 Si / 1000 Ang^3
#
#
#
# Elastic Constant Matrix: (Units=GPa)
#
#
# Indices 1 2 3 4 5 6 
#
# 1 133.0402 0.8157 23.4597 0.0000 -21.5772 0.0000
# 2 0.8157 74.2222 3.6139 0.0000 -2.6613 0.0000
# 3 23.4597 3.6139 63.7182 0.0000 5.3308 0.0000
# 4 0.0000 0.0000 0.0000 25.5315 0.0000 6.1321
# 5 -21.5772 -2.6613 5.3308 0.0000 29.7211 0.0000
# 6 0.0000 0.0000 0.0000 6.1321 0.0000 16.3289
#
#
#
# Elastic Compliance Matrix: (Units=1/GPa)
#
#
# Indices 1 2 3 4 5 6 
#
# 1 0.009491 0.000373 -0.004157 0.000000 0.007670 0.000000
# 2 0.000373 0.013580 -0.001048 0.000000 0.001675 0.000000
# 3 -0.004157 -0.001048 0.017812 0.000000 -0.006307 0.000000
# 4 0.000000 0.000000 0.000000 0.043050 0.000000 -0.016167
# 5 0.007670 0.001675 -0.006307 0.000000 0.040495 0.000000
# 6 0.000000 0.000000 0.000000 -0.016167 0.000000 0.067312
#
#
# Mechanical properties :
#
#
# Convention : Reuss Voigt Hill
#
# Bulk Modulus (GPa) = 32.03150 36.30657 34.16903
# Shear Modulus (GPa) = 23.60593 30.52240 27.06417
#
# Velocity S-wave (km/s) = 3.06607 3.48643 3.28299
# Velocity P-wave (km/s) = 5.02898 5.53766 5.28943
#
# Compressibility (1/GPa) = 0.03121927
#
# Stress axis : x y z
#
# Youngs Moduli (GPa) = 105.36072 73.63763 56.14262
#
# Poissons Ratio (x) = -0.02747 0.23340
# Poissons Ratio (y) = -0.03931 0.05882
# Poissons Ratio (z) = 0.43801 0.07715
#
# Static dielectric constant tensor:
#      x y z
#    x 1.975610 0.000000 0.009750 
#    y 0.000000 1.911190 0.000000 
#    z 0.009750 0.000000 1.942840 
# 
# From -- ./inp_files/58431.got.cif
#   From: 2010.05.17/outbox.cif.g08.bks.cpg/sg14_30_cif.got.tgz:58431.got - 2010.06.03 17:49:19.
