data_PCOD9249214
_publ_section_title
;
Structure prediction by ZEFSAII (Michael W. Deem and Ramdas Pophale) SiO2 
 PCOD9249214
Probable space group: P 21/C
;
_chemical_formula_sum "Si O2"
_cell_formula_units_Z 20
_cell_length_a 6.569539
_cell_length_b 23.096955
_cell_length_c 5.386510
_cell_angle_alpha 90.000000
_cell_angle_beta 106.579764
_cell_angle_gamma 90.000000
_cell_volume 783.347586
_symmetry_space_group_name_H-M "P 21/C"
_symmetry_group_IT_number 14
_symmetry_cell_setting 'monoclinic'
loop_
_space_group_symop_operation_xyz
x,y,z
-x,1/2+y,1/2-z
-x,-y,-z
x,1/2-y,1/2+z
loop_
_atom_site_type_symbol
_atom_site_label
_atom_site_fract_x
_atom_site_fract_y
_atom_site_fract_z
Si Si1 0.672419 0.165455 0.303985
Si Si2 0.100922 0.068405 0.768349
Si Si3 0.053218 0.763424 0.305634
Si Si4 0.681021 0.459773 0.851640
Si Si5 0.716842 0.892129 0.668175
O O1 0.753692 0.216094 0.154933
O O2 0.826997 0.177186 0.594093
O O3 0.706135 0.101327 0.209063
O O4 0.434216 0.162059 0.321844
O O5 0.176443 0.108283 0.562361
O O6 0.869094 0.043818 0.621852
O O7 0.263041 0.013688 0.800466
O O8 0.131652 0.096708 0.045880
O O9 0.932957 0.743814 0.509302
O O10 0.451328 0.446039 0.889238
#
# Coordination Sequence:
#
# PCOD9249214 Si02
#       5
#     4   4   4   4   4
#     4   8  19  33  58  83 105 153 186 230 292 328
#     4  11  22  40  54  91 121 143 201 227 279 351
#     4   8  16  32  52  82 102 144 190 230 278 344
#     4   9  22  38  60  85 117 161 178 244 281 335
#     4  10  23  36  60  84 113 156 187 231 284 342
#
# _framework density 25.531452000000002
#
# number of rings (size 3 to 8) (size 9 to 14) (size 15 to 20)
#    2.400    0.400    0.000    1.200    2.800    4.800 
#    7.200    0.000    0.000    7.200    0.000    0.000 
#    0.000    0.000    0.000    0.000    0.000    0.000 
#
# Total GULP energy -111462.274725 kJ/mol
# GULP energy per Si atom -5573.113736 kJ/mol
# Density = 2.547334 g / cm^3
# Si number density = 25.531452 Si / 1000 Ang^3
#
#
#
# Elastic Constant Matrix: (Units=GPa)
#
#
# Indices 1 2 3 4 5 6 
#
# 1 109.0617 15.1891 52.3965 0.0000 0.9391 0.0000
# 2 15.1891 79.3012 -1.6802 0.0000 -11.7329 0.0000
# 3 52.3965 -1.6802 120.8937 0.0000 -17.9730 0.0000
# 4 0.0000 0.0000 0.0000 19.5059 0.0000 2.0151
# 5 0.9391 -11.7329 -17.9730 0.0000 32.9347 0.0000
# 6 0.0000 0.0000 0.0000 2.0151 0.0000 35.3423
#
#
#
# Elastic Compliance Matrix: (Units=1/GPa)
#
#
# Indices 1 2 3 4 5 6 
#
# 1 0.012690 -0.003299 -0.006284 0.000000 -0.004966 0.000000
# 2 -0.003299 0.014274 0.002610 0.000000 0.006603 0.000000
# 3 -0.006284 0.002610 0.012185 0.000000 0.007759 0.000000
# 4 0.000000 0.000000 0.000000 0.051570 0.000000 -0.002940
# 5 -0.004966 0.006603 0.007759 0.000000 0.037091 0.000000
# 6 0.000000 0.000000 0.000000 -0.002940 0.000000 0.028462
#
#
# Mechanical properties :
#
#
# Convention : Reuss Voigt Hill
#
# Bulk Modulus (GPa) = 39.67726 49.00749 44.34238
# Shear Modulus (GPa) = 27.99219 33.78000 30.88610
#
# Velocity S-wave (km/s) = 3.31476 3.64135 3.48189
# Velocity P-wave (km/s) = 5.49767 6.07585 5.79398
#
# Compressibility (1/GPa) = 0.02520335
#
# Stress axis : x y z
#
# Youngs Moduli (GPa) = 78.79917 70.05626 82.06712
#
# Poissons Ratio (x) = 0.23109 0.51574
# Poissons Ratio (y) = 0.25993 -0.21418
# Poissons Ratio (z) = 0.49520 -0.18283
#
# Static dielectric constant tensor:
#      x y z
#    x 2.003030 0.000000 -0.015960 
#    y 0.000000 2.128480 0.000000 
#    z -0.015960 0.000000 2.017490 
# 
# From -- ./inp_files/1753.got.cif
#   From: 2010.05.17/outbox.cif.g08.bks.cpg/sg14_1_cif.got.tgz:1753.got - 2010.06.03 17:49:19.
