data_PCOD9249803
_publ_section_title
;
Structure prediction by ZEFSAII (Michael W. Deem and Ramdas Pophale) SiO2 
 PCOD9249803
Probable space group: P 21/C
;
_chemical_formula_sum "Si O2"
_cell_formula_units_Z 28
_cell_length_a 9.626850
_cell_length_b 5.027924
_cell_length_c 22.852196
_cell_angle_alpha 90.000000
_cell_angle_beta 104.771210
_cell_angle_gamma 90.000000
_cell_volume 1069.561093
_symmetry_space_group_name_H-M "P 21/C"
_symmetry_group_IT_number 14
_symmetry_cell_setting 'monoclinic'
loop_
_space_group_symop_operation_xyz
x,y,z
-x,1/2+y,1/2-z
-x,-y,-z
x,1/2-y,1/2+z
loop_
_atom_site_type_symbol
_atom_site_label
_atom_site_fract_x
_atom_site_fract_y
_atom_site_fract_z
Si Si1 0.070353 0.584070 0.106891
Si Si2 0.628775 0.295435 0.230636
Si Si3 0.887834 0.451002 0.571073
Si Si4 0.405380 0.749114 0.973876
Si Si5 0.349297 0.449600 0.364673
Si Si6 0.071334 0.880850 0.234029
Si Si7 0.396088 0.880562 0.646262
O O1 0.237816 0.548453 0.107250
O O2 0.988835 0.300334 0.098597
O O3 0.074056 0.729802 0.171546
O O4 0.985621 0.805412 0.058858
O O5 0.670236 0.016028 0.205293
O O6 0.768653 0.463186 0.228950
O O7 0.623781 0.307737 0.299340
O O8 0.479815 0.382217 0.187316
O O9 0.756151 0.312300 0.521454
O O10 0.792246 0.606788 0.612038
O O11 0.386410 0.771544 0.901587
O O12 0.500000 0.500000 0.000000
O O13 0.500000 0.000000 0.000000
O O14 0.489693 0.265235 0.383026
O O15 0.984861 0.153379 0.228300
#
# Coordination Sequence:
#
# PCOD9249803 Si02
#       7
#     4   4   4   4   4   4   4
#     4  11  23  42  59  97 129 182 207 274 328 392
#     4  11  23  39  60  91 134 183 218 258 316 391
#     4  10  24  41  71  92 132 163 227 273 339 385
#     4  10  23  43  72 102 122 161 225 291 341 391
#     4  10  24  39  69  94 127 175 220 273 329 393
#     4  11  24  36  58  87 130 167 226 262 306 370
#     4  11  25  38  65  91 145 180 226 257 325 406
#
# _framework density 26.178963
#
# number of rings (size 3 to 8) (size 9 to 14) (size 15 to 20)
#    0.857    0.571    1.429    3.429   10.000    0.000 
#    0.000    0.000    0.000    5.143    0.000    0.000 
#    0.000    0.000    0.000    0.000    0.000    0.000 
#
# Total GULP energy -156143.589336 kJ/mol
# GULP energy per Si atom -5576.556762 kJ/mol
# Density = 2.611938 g / cm^3
# Si number density = 26.178963 Si / 1000 Ang^3
#
#
#
# Elastic Constant Matrix: (Units=GPa)
#
#
# Indices 1 2 3 4 5 6 
#
# 1 196.7336 73.0917 32.9010 0.0000 53.2943 0.0000
# 2 73.0917 138.1557 -4.6985 0.0000 17.5939 0.0000
# 3 32.9010 -4.6985 38.6743 0.0000 9.2643 0.0000
# 4 0.0000 0.0000 0.0000 26.7194 0.0000 13.5792
# 5 53.2943 17.5939 9.2643 0.0000 45.1513 0.0000
# 6 0.0000 0.0000 0.0000 13.5792 0.0000 46.2011
#
#
#
# Elastic Compliance Matrix: (Units=1/GPa)
#
#
# Indices 1 2 3 4 5 6 
#
# 1 0.010488 -0.004642 -0.007314 0.000000 -0.009070 0.000000
# 2 -0.004642 0.009781 0.004983 0.000000 0.000646 0.000000
# 3 -0.007314 0.004983 0.032688 0.000000 -0.000016 0.000000
# 4 0.000000 0.000000 0.000000 0.043998 0.000000 -0.012932
# 5 -0.009070 0.000646 -0.000016 0.000000 0.032605 0.000000
# 6 0.000000 0.000000 0.000000 -0.012932 0.000000 0.025445
#
#
# Mechanical properties :
#
#
# Convention : Reuss Voigt Hill
#
# Bulk Modulus (GPa) = 25.63346 64.01690 44.82518
# Shear Modulus (GPa) = 27.47930 41.76565 34.62248
#
# Velocity S-wave (km/s) = 3.24338 3.99857 3.64061
# Velocity P-wave (km/s) = 4.88251 6.76939 5.90185
#
# Compressibility (1/GPa) = 0.03901150
#
# Stress axis : x y z
#
# Youngs Moduli (GPa) = 95.34909 102.23399 30.59233
#
# Poissons Ratio (x) = 0.47460 0.22374
# Poissons Ratio (y) = 0.44264 -0.15244
# Poissons Ratio (z) = 0.69734 -0.50943
#
# Static dielectric constant tensor:
#      x y z
#    x 2.113790 0.000000 -0.023450 
#    y 0.000000 2.072970 0.000000 
#    z -0.023450 0.000000 2.230500 
# 
# From -- ./inp_files/79141.got.cif
#   From: 2010.05.17/outbox.cif.g08.bks.cpg/sg14_40_cif.got.tgz:79141.got - 2010.06.03 17:49:19.
