data_PCOD9249657
_publ_section_title
;
Structure prediction by ZEFSAII (Michael W. Deem and Ramdas Pophale) SiO2 
 PCOD9249657
Probable space group: P 21/C
;
_chemical_formula_sum "Si O2"
_cell_formula_units_Z 28
_cell_length_a 7.747768
_cell_length_b 8.850037
_cell_length_c 24.306545
_cell_angle_alpha 90.000000
_cell_angle_beta 135.600282
_cell_angle_gamma 90.000000
_cell_volume 1166.089439
_symmetry_space_group_name_H-M "P 21/C"
_symmetry_group_IT_number 14
_symmetry_cell_setting 'monoclinic'
loop_
_space_group_symop_operation_xyz
x,y,z
-x,1/2+y,1/2-z
-x,-y,-z
x,1/2-y,1/2+z
loop_
_atom_site_type_symbol
_atom_site_label
_atom_site_fract_x
_atom_site_fract_y
_atom_site_fract_z
Si Si1 0.506025 0.280355 0.190197
Si Si2 0.771630 0.548586 0.579249
Si Si3 0.760275 0.554061 0.305068
Si Si4 0.182877 0.108251 0.377315
Si Si5 0.921892 0.489093 0.919536
Si Si6 0.524415 0.783284 0.656777
Si Si7 0.272323 0.954038 0.809901
O O1 0.685601 0.392293 0.262773
O O2 0.461575 0.118718 0.208128
O O3 0.253110 0.368181 0.131037
O O4 0.609252 0.214548 0.157189
O O5 0.500000 0.500000 0.500000
O O6 0.802215 0.726733 0.590818
O O7 0.836541 0.489641 0.655025
O O8 0.000907 0.467068 0.602022
O O9 0.732745 0.673606 0.249055
O O10 0.404192 0.123039 0.382607
O O11 0.133530 0.010403 0.421133
O O12 0.946002 0.068008 0.284758
O O13 0.733486 0.344487 0.877651
O O14 0.000000 0.500000 0.000000
O O15 0.555042 0.604654 0.655660
#
# Coordination Sequence:
#
# PCOD9249657 Si02
#       7
#     4   4   4   4   4   4   4
#     4  11  24  39  71 103 135 190 239 316 358 447
#     4  11  26  42  68 106 149 188 233 308 371 438
#     4  11  21  43  67 105 137 179 248 293 373 435
#     4  11  23  44  71 101 140 188 246 297 352 446
#     4  11  27  46  67 104 150 191 240 305 379 434
#     4  10  23  42  72 101 136 188 245 301 358 438
#     4  11  22  44  70 105 134 184 249 291 367 438
#
# _framework density 24.011880000000001
#
# number of rings (size 3 to 8) (size 9 to 14) (size 15 to 20)
#    0.000    1.143    2.857    3.429    4.000    2.857 
#    5.143    1.429    0.000    0.000    0.000    0.000 
#    0.000    0.000    0.000    0.000    0.000    0.000 
#
# Total GULP energy -155955.970236 kJ/mol
# GULP energy per Si atom -5569.856080 kJ/mol
# Density = 2.395723 g / cm^3
# Si number density = 24.011880 Si / 1000 Ang^3
#
#
#
# Elastic Constant Matrix: (Units=GPa)
#
#
# Indices 1 2 3 4 5 6 
#
# 1 50.3894 3.1875 -0.7077 0.0000 -5.0389 0.0000
# 2 3.1875 70.1026 5.1934 0.0000 13.1589 0.0000
# 3 -0.7077 5.1934 96.0266 0.0000 5.1050 0.0000
# 4 0.0000 0.0000 0.0000 17.0873 0.0000 -0.8941
# 5 -5.0389 13.1589 5.1050 0.0000 32.0280 0.0000
# 6 0.0000 0.0000 0.0000 -0.8941 0.0000 45.9566
#
#
#
# Elastic Compliance Matrix: (Units=1/GPa)
#
#
# Indices 1 2 3 4 5 6 
#
# 1 0.020338 -0.001654 0.000033 0.000000 0.003874 0.000000
# 2 -0.001654 0.015616 -0.000506 0.000000 -0.006595 0.000000
# 3 0.000033 -0.000506 0.010519 0.000000 -0.001463 0.000000
# 4 0.000000 0.000000 0.000000 0.058583 0.000000 0.001140
# 5 0.003874 -0.006595 -0.001463 0.000000 0.034775 0.000000
# 6 0.000000 0.000000 0.000000 0.001140 0.000000 0.021782
#
#
# Mechanical properties :
#
#
# Convention : Reuss Voigt Hill
#
# Bulk Modulus (GPa) = 23.68630 25.76276 24.72453
# Shear Modulus (GPa) = 27.78711 32.93741 30.36226
#
# Velocity S-wave (km/s) = 3.40549 3.70768 3.55979
# Velocity P-wave (km/s) = 5.03478 5.39274 5.21683
#
# Compressibility (1/GPa) = 0.04221850
#
# Stress axis : x y z
#
# Youngs Moduli (GPa) = 49.16911 64.03874 95.06428
#
# Poissons Ratio (x) = 0.10595 -0.00318
# Poissons Ratio (y) = 0.08135 0.04811
# Poissons Ratio (z) = -0.00164 0.03241
#
# Static dielectric constant tensor:
#      x y z
#    x 2.225570 0.000000 -0.030660 
#    y 0.000000 1.980120 0.000000 
#    z -0.030660 0.000000 2.045170 
# 
# From -- ./inp_files/76511.got.cif
#   From: 2010.05.17/outbox.cif.g08.bks.cpg/sg14_39_cif.got.tgz:76511.got - 2010.06.03 17:49:19.
