data_PCOD9249217
_publ_section_title
;
Structure prediction by ZEFSAII (Michael W. Deem and Ramdas Pophale) SiO2 
 PCOD9249217
Probable space group: P 21/C
;
_chemical_formula_sum "Si O2"
_cell_formula_units_Z 28
_cell_length_a 10.782464
_cell_length_b 8.980814
_cell_length_c 25.658744
_cell_angle_alpha 90.000000
_cell_angle_beta 26.068550
_cell_angle_gamma 90.000000
_cell_volume 1091.879713
_symmetry_space_group_name_H-M "P 21/C"
_symmetry_group_IT_number 14
_symmetry_cell_setting 'monoclinic'
loop_
_space_group_symop_operation_xyz
x,y,z
-x,1/2+y,1/2-z
-x,-y,-z
x,1/2-y,1/2+z
loop_
_atom_site_type_symbol
_atom_site_label
_atom_site_fract_x
_atom_site_fract_y
_atom_site_fract_z
Si Si1 0.895121 0.753599 0.747806
Si Si2 0.953240 0.523124 0.136983
Si Si3 0.603906 0.155550 0.204526
Si Si4 0.675930 0.176690 0.582088
Si Si5 0.359688 0.735042 0.699746
Si Si6 0.181539 0.004308 0.015367
Si Si7 0.074866 0.450597 0.676262
O O1 0.035123 0.870203 0.655071
O O2 0.760640 0.844546 0.846144
O O3 0.072587 0.615007 0.701249
O O4 0.653722 0.670850 0.806263
O O5 0.647285 0.580100 0.232687
O O6 0.907729 0.358110 0.175792
O O7 0.161745 0.549891 0.010348
O O8 0.503166 0.193186 0.300428
O O9 0.696635 0.301136 0.136184
O O10 0.878841 0.054525 0.107123
O O11 0.776273 0.335302 0.519654
O O12 0.577781 0.616777 0.594992
O O13 0.224848 0.861845 0.714332
O O14 0.173798 0.024375 0.080408
#
# Coordination Sequence:
#
# PCOD9249217 Si02
#       7
#     4   4   4   4   4   4   4
#     4  11  24  44  67 101 128 176 219 284 332 397
#     4  11  23  41  66  98 138 170 228 272 326 395
#     4  10  23  36  67 101 135 176 217 277 322 394
#     4  11  23  41  70  97 137 176 225 270 338 395
#     4  11  24  42  66 100 135 175 225 275 329 399
#     4  11  22  43  69  98 133 184 222 262 343 407
#     4  11  26  45  72  96 136 169 227 279 339 397
#
# _framework density 25.643848999999999
#
# number of rings (size 3 to 8) (size 9 to 14) (size 15 to 20)
#    0.000    1.143    4.286    2.143    2.000    5.714 
#    0.000    2.143    0.000    0.000    0.000    0.000 
#    0.000    0.000    0.000    0.000    0.000    0.000 
#
# Total GULP energy -156866.341426 kJ/mol
# GULP energy per Si atom -5602.369337 kJ/mol
# Density = 2.558548 g / cm^3
# Si number density = 25.643849 Si / 1000 Ang^3
#
#
#
# Elastic Constant Matrix: (Units=GPa)
#
#
# Indices 1 2 3 4 5 6 
#
# 1 80.5865 17.9251 5.2071 0.0000 13.9137 0.0000
# 2 17.9251 110.9730 2.8412 0.0000 4.5009 0.0000
# 3 5.2071 2.8412 63.1014 0.0000 11.2921 0.0000
# 4 0.0000 0.0000 0.0000 42.3715 0.0000 9.8647
# 5 13.9137 4.5009 11.2921 0.0000 26.9027 0.0000
# 6 0.0000 0.0000 0.0000 9.8647 0.0000 29.8579
#
#
#
# Elastic Compliance Matrix: (Units=1/GPa)
#
#
# Indices 1 2 3 4 5 6 
#
# 1 0.014050 -0.001990 0.000185 0.000000 -0.007011 0.000000
# 2 -0.001990 0.009356 -0.000174 0.000000 -0.000463 0.000000
# 3 0.000185 -0.000174 0.017139 0.000000 -0.007260 0.000000
# 4 0.000000 0.000000 0.000000 0.025567 0.000000 -0.008447
# 5 -0.007011 -0.000463 -0.007260 0.000000 0.043922 0.000000
# 6 0.000000 0.000000 0.000000 -0.008447 0.000000 0.036283
#
#
# Mechanical properties :
#
#
# Convention : Reuss Voigt Hill
#
# Bulk Modulus (GPa) = 27.33207 34.06753 30.69980
# Shear Modulus (GPa) = 30.77453 35.07224 32.92338
#
# Velocity S-wave (km/s) = 3.46797 3.70221 3.58700
# Velocity P-wave (km/s) = 5.16887 5.62040 5.39935
#
# Compressibility (1/GPa) = 0.03658705
#
# Stress axis : x y z
#
# Youngs Moduli (GPa) = 71.17323 106.88493 58.34518
#
# Poissons Ratio (x) = 0.21269 -0.01078
# Poissons Ratio (y) = 0.14162 0.01016
# Poissons Ratio (z) = -0.01316 0.01862
#
# Static dielectric constant tensor:
#      x y z
#    x 2.035170 0.000000 -0.019690 
#    y 0.000000 2.046740 0.000000 
#    z -0.019690 0.000000 2.017120 
# 
# From -- ./inp_files/77115.got.cif
#   From: 2010.05.17/outbox.cif.g08.bks.cpg/sg14_39_cif.got.tgz:77115.got - 2010.06.03 17:49:19.
