data_PCOD9249451
_publ_section_title
;
Structure prediction by ZEFSAII (Michael W. Deem and Ramdas Pophale) SiO2 
 PCOD9249451
Probable space group: P 21/C
;
_chemical_formula_sum "Si O2"
_cell_formula_units_Z 20
_cell_length_a 14.865598
_cell_length_b 10.702763
_cell_length_c 18.530505
_cell_angle_alpha 90.000000
_cell_angle_beta 161.188700
_cell_angle_gamma 90.000000
_cell_volume 950.672972
_symmetry_space_group_name_H-M "P 21/C"
_symmetry_group_IT_number 14
_symmetry_cell_setting 'monoclinic'
loop_
_space_group_symop_operation_xyz
x,y,z
-x,1/2+y,1/2-z
-x,-y,-z
x,1/2-y,1/2+z
loop_
_atom_site_type_symbol
_atom_site_label
_atom_site_fract_x
_atom_site_fract_y
_atom_site_fract_z
Si Si1 0.910037 0.586552 0.138949
Si Si2 0.049087 0.928576 0.463065
Si Si3 0.504176 0.041051 0.420417
Si Si4 0.392370 0.786553 0.291573
Si Si5 0.526453 0.306550 0.485694
O O1 0.820476 0.522482 0.995725
O O2 0.228174 0.625113 0.371148
O O3 0.816451 0.484925 0.127375
O O4 0.716694 0.704402 0.013500
O O5 0.225076 0.804229 0.612586
O O6 0.743175 0.889087 0.204451
O O7 0.000000 0.000000 0.500000
O O8 0.434016 0.186002 0.368306
O O9 0.500000 0.000000 0.500000
O O10 0.324368 0.935864 0.241497
O O11 0.365656 0.737474 0.353519
#
# Coordination Sequence:
#
# PCOD9249451 Si02
#       5
#     4   4   4   4   4
#     4  10  23  41  67  99 132 183 218 269 348 392
#     4  12  25  41  65 102 135 174 224 277 334 401
#     4   8  20  41  66  97 121 174 222 267 330 379
#     4   9  23  45  62  97 133 169 230 273 322 406
#     4  11  22  43  71  92 136 176 224 279 329 397
#
# _framework density 21.037728000000001
#
# number of rings (size 3 to 8) (size 9 to 14) (size 15 to 20)
#    1.200    0.800    2.000    0.600    2.800    2.400 
#    0.000    2.000    0.000    0.000    0.000    0.000 
#    0.000    0.000    0.000    0.000    0.000    0.000 
#
# Total GULP energy -111364.294299 kJ/mol
# GULP energy per Si atom -5568.214715 kJ/mol
# Density = 2.098985 g / cm^3
# Si number density = 21.037728 Si / 1000 Ang^3
#
#
#
# Elastic Constant Matrix: (Units=GPa)
#
#
# Indices 1 2 3 4 5 6 
#
# 1 107.3732 9.0814 -7.3155 0.0000 12.7863 0.0000
# 2 9.0814 70.6374 1.2275 0.0000 0.5727 0.0000
# 3 -7.3155 1.2275 22.1393 0.0000 11.1586 0.0000
# 4 0.0000 0.0000 0.0000 28.3104 0.0000 20.2511
# 5 12.7863 0.5727 11.1586 0.0000 23.5289 0.0000
# 6 0.0000 0.0000 0.0000 20.2511 0.0000 20.6886
#
#
#
# Elastic Compliance Matrix: (Units=1/GPa)
#
#
# Indices 1 2 3 4 5 6 
#
# 1 0.011298 -0.001526 0.009059 0.000000 -0.010398 0.000000
# 2 -0.001526 0.014376 -0.002027 0.000000 0.001441 0.000000
# 3 0.009059 -0.002027 0.066665 0.000000 -0.036489 0.000000
# 4 0.000000 0.000000 0.000000 0.117821 0.000000 -0.115329
# 5 -0.010398 0.001441 -0.036489 0.000000 0.065422 0.000000
# 6 0.000000 0.000000 0.000000 -0.115329 0.000000 0.161226
#
#
# Mechanical properties :
#
#
# Convention : Reuss Voigt Hill
#
# Bulk Modulus (GPa) = 9.67573 22.90410 16.28992
# Shear Modulus (GPa) = 10.86372 27.64933 19.25653
#
# Velocity S-wave (km/s) = 2.27489 3.62922 3.02873
# Velocity P-wave (km/s) = 3.39255 5.33596 4.47112
#
# Compressibility (1/GPa) = 0.10335134
#
# Stress axis : x y z
#
# Youngs Moduli (GPa) = 88.51279 69.55802 15.00028
#
# Poissons Ratio (x) = 0.10612 -0.13588
# Poissons Ratio (y) = 0.13504 0.03041
# Poissons Ratio (z) = -0.80181 0.14101
#
# Static dielectric constant tensor:
#      x y z
#    x 1.727960 0.000000 0.015010 
#    y 0.000000 1.734330 0.000000 
#    z 0.015010 0.000000 1.773880 
# 
# From -- ./inp_files/59233.got.cif
#   From: 2010.05.17/outbox.cif.g08.bks.cpg/sg14_30_cif.got.tgz:59233.got - 2010.06.03 17:49:19.
