data_PCOD9249027
_publ_section_title
;
Structure prediction by ZEFSAII (Michael W. Deem and Ramdas Pophale) SiO2 
 PCOD9249027
Probable space group: P 21/C
;
_chemical_formula_sum "Si O2"
_cell_formula_units_Z 16
_cell_length_a 7.610752
_cell_length_b 12.086659
_cell_length_c 9.222880
_cell_angle_alpha 90.000000
_cell_angle_beta 120.244604
_cell_angle_gamma 90.000000
_cell_volume 732.917849
_symmetry_space_group_name_H-M "P 21/C"
_symmetry_group_IT_number 14
_symmetry_cell_setting 'monoclinic'
loop_
_space_group_symop_operation_xyz
x,y,z
-x,1/2+y,1/2-z
-x,-y,-z
x,1/2-y,1/2+z
loop_
_atom_site_type_symbol
_atom_site_label
_atom_site_fract_x
_atom_site_fract_y
_atom_site_fract_z
Si Si1 0.130760 0.108343 0.523465
Si Si2 0.502780 0.068478 0.853937
Si Si3 0.232024 0.463851 0.760568
Si Si4 0.902600 0.331779 0.434774
O O1 0.291608 0.122885 0.720090
O O2 0.254442 0.087518 0.426414
O O3 0.980971 0.210662 0.437309
O O4 0.000000 0.000000 0.500000
O O5 0.687066 0.156603 0.927805
O O6 0.569222 0.981758 0.754897
O O7 0.500000 0.000000 0.000000
O O8 0.133786 0.588077 0.719353
O O9 0.073065 0.390895 0.603493
#
# Coordination Sequence:
#
# PCOD9249027 Si02
#       4
#     4   4   4   4
#     4  12  25  39  73 105 136 182 234 284 353 413
#     4  10  22  45  71 103 138 181 231 290 348 411
#     4   9  22  46  66  98 140 178 235 278 351 407
#     4   9  23  43  69  96 143 178 231 286 345 408
#
# _framework density 21.830552000000001
#
# number of rings (size 3 to 8) (size 9 to 14) (size 15 to 20)
#    1.500    0.500    0.000    2.250    3.500    2.000 
#    0.000    2.500    0.000    0.000    0.000    0.000 
#    0.000    0.000    0.000    0.000    0.000    0.000 
#
# Total GULP energy -89274.742037 kJ/mol
# GULP energy per Si atom -5579.671377 kJ/mol
# Density = 2.178086 g / cm^3
# Si number density = 21.830552 Si / 1000 Ang^3
#
#
#
# Elastic Constant Matrix: (Units=GPa)
#
#
# Indices 1 2 3 4 5 6 
#
# 1 83.8152 32.2822 16.2281 0.0000 -8.0690 0.0000
# 2 32.2822 127.9656 19.7017 0.0000 -9.2138 0.0000
# 3 16.2281 19.7017 70.5198 0.0000 -6.9756 0.0000
# 4 0.0000 0.0000 0.0000 11.6684 0.0000 -3.0386
# 5 -8.0690 -9.2138 -6.9756 0.0000 39.5892 0.0000
# 6 0.0000 0.0000 0.0000 -3.0386 0.0000 19.4059
#
#
#
# Elastic Compliance Matrix: (Units=1/GPa)
#
#
# Indices 1 2 3 4 5 6 
#
# 1 0.013663 -0.002994 -0.002138 0.000000 0.001711 0.000000
# 2 -0.002994 0.008914 -0.001686 0.000000 0.001167 0.000000
# 3 -0.002138 -0.001686 0.015329 0.000000 0.001873 0.000000
# 4 0.000000 0.000000 0.000000 0.089345 0.000000 0.013990
# 5 0.001711 0.001167 0.001873 0.000000 0.026210 0.000000
# 6 0.000000 0.000000 0.000000 0.013990 0.000000 0.053721
#
#
# Mechanical properties :
#
#
# Convention : Reuss Voigt Hill
#
# Bulk Modulus (GPa) = 41.20581 46.52496 43.86538
# Shear Modulus (GPa) = 21.84290 28.40529 25.12409
#
# Velocity S-wave (km/s) = 3.16660 3.61109 3.39613
# Velocity P-wave (km/s) = 5.68209 6.22453 5.95948
#
# Compressibility (1/GPa) = 0.02426842
#
# Stress axis : x y z
#
# Youngs Moduli (GPa) = 73.18993 112.18833 65.23711
#
# Poissons Ratio (x) = 0.33594 0.13950
# Poissons Ratio (y) = 0.21916 0.10997
# Poissons Ratio (z) = 0.15650 0.18912
#
# Static dielectric constant tensor:
#      x y z
#    x 1.822860 0.000000 -0.017830 
#    y 0.000000 1.784800 0.000000 
#    z -0.017830 0.000000 1.792650 
# 
# From -- ./inp_files/7577.got.cif
#   From: 2010.05.17/outbox.cif.g08.bks.cpg/sg14_4_cif.got.tgz:7577.got - 2010.06.03 17:49:19.
