data_PCOD9249356
_publ_section_title
;
Structure prediction by ZEFSAII (Michael W. Deem and Ramdas Pophale) SiO2 
 PCOD9249356
Probable space group: P 21/C
;
_chemical_formula_sum "Si O2"
_cell_formula_units_Z 28
_cell_length_a 17.666878
_cell_length_b 10.218584
_cell_length_c 11.762394
_cell_angle_alpha 90.000000
_cell_angle_beta 148.656862
_cell_angle_gamma 90.000000
_cell_volume 1104.549322
_symmetry_space_group_name_H-M "P 21/C"
_symmetry_group_IT_number 14
_symmetry_cell_setting 'monoclinic'
loop_
_space_group_symop_operation_xyz
x,y,z
-x,1/2+y,1/2-z
-x,-y,-z
x,1/2-y,1/2+z
loop_
_atom_site_type_symbol
_atom_site_label
_atom_site_fract_x
_atom_site_fract_y
_atom_site_fract_z
Si Si1 0.156266 0.738223 0.294134
Si Si2 0.853772 0.628362 0.413830
Si Si3 0.374145 0.061578 0.559974
Si Si4 0.313140 0.396214 0.241372
Si Si5 0.448698 0.164032 0.127743
Si Si6 0.172283 0.823817 0.572150
Si Si7 0.141340 0.062227 0.831773
O O1 0.211073 0.773440 0.493836
O O2 0.115763 0.583215 0.250538
O O3 0.228748 0.744681 0.260581
O O4 0.019776 0.835574 0.106642
O O5 0.777490 0.766643 0.345247
O O6 0.837540 0.543416 0.506217
O O7 0.767545 0.567574 0.198768
O O8 0.342742 0.104143 0.647382
O O9 0.476755 0.181955 0.655000
O O10 0.448274 0.921385 0.661121
O O11 0.450535 0.388419 0.501539
O O12 0.225449 0.527485 0.149547
O O13 0.285061 0.127540 0.961438
O O14 0.995561 0.838837 0.354005
#
# Coordination Sequence:
#
# PCOD9249356 Si02
#       7
#     4   4   4   4   4   4   4
#     4  11  23  39  66 104 137 176 222 278 346 415
#     4  10  23  40  68  99 134 172 225 279 339 408
#     4  11  25  44  67  97 134 186 232 283 335 402
#     4  11  21  43  69  94 131 181 221 273 349 413
#     4  11  24  44  69  95 134 180 237 277 339 406
#     4  11  23  39  68  99 139 174 219 282 348 417
#     4  11  21  42  68  99 129 177 222 275 345 415
#
# _framework density 25.349706000000001
#
# number of rings (size 3 to 8) (size 9 to 14) (size 15 to 20)
#    0.000    1.143    4.286    2.571    2.000    2.857 
#    2.571    2.857    0.000    0.000    0.000    0.000 
#    0.000    0.000    0.000    0.000    0.000    0.000 
#
# Total GULP energy -156667.576942 kJ/mol
# GULP energy per Si atom -5595.270605 kJ/mol
# Density = 2.529201 g / cm^3
# Si number density = 25.349706 Si / 1000 Ang^3
#
#
#
# Elastic Constant Matrix: (Units=GPa)
#
#
# Indices 1 2 3 4 5 6 
#
# 1 76.3290 1.1067 59.8374 0.0000 -26.7129 0.0000
# 2 1.1067 85.6016 50.7776 0.0000 2.5513 0.0000
# 3 59.8374 50.7776 142.5418 0.0000 -46.3265 0.0000
# 4 0.0000 0.0000 0.0000 48.5905 0.0000 -10.8940
# 5 -26.7129 2.5513 -46.3265 0.0000 43.9212 0.0000
# 6 0.0000 0.0000 0.0000 -10.8940 0.0000 34.2118
#
#
#
# Elastic Compliance Matrix: (Units=1/GPa)
#
#
# Indices 1 2 3 4 5 6 
#
# 1 0.022194 0.006227 -0.011055 0.000000 0.001476 0.000000
# 2 0.006227 0.019950 -0.013492 0.000000 -0.011602 0.000000
# 3 -0.011055 -0.013492 0.022112 0.000000 0.017383 0.000000
# 4 0.000000 0.000000 0.000000 0.022162 0.000000 0.007057
# 5 0.001476 -0.011602 0.017383 0.000000 0.042674 0.000000
# 6 0.000000 0.000000 0.000000 0.007057 0.000000 0.031477
#
#
# Mechanical properties :
#
#
# Convention : Reuss Voigt Hill
#
# Bulk Modulus (GPa) = 36.21040 58.65731 47.43385
# Shear Modulus (GPa) = 24.22294 38.19475 31.20884
#
# Velocity S-wave (km/s) = 3.09455 3.88585 3.51256
# Velocity P-wave (km/s) = 5.20420 6.58199 5.93322
#
# Compressibility (1/GPa) = 0.02761638
#
# Stress axis : x y z
#
# Youngs Moduli (GPa) = 45.05680 50.12439 45.22433
#
# Poissons Ratio (x) = -0.31212 0.49997
# Poissons Ratio (y) = -0.28057 0.61015
# Poissons Ratio (z) = 0.49812 0.67626
#
# Static dielectric constant tensor:
#      x y z
#    x 2.060920 0.000000 -0.005330 
#    y 0.000000 2.022930 0.000000 
#    z -0.005330 0.000000 2.069980 
# 
# From -- ./inp_files/34996.got.cif
#   From: 2010.05.17/outbox.cif.g08.bks.cpg/sg14_18_cif.got.tgz:34996.got - 2010.06.03 17:49:19.
