data_PCOD9249751
_publ_section_title
;
Structure prediction by ZEFSAII (Michael W. Deem and Ramdas Pophale) SiO2 
 PCOD9249751
Probable space group: P 21/C
;
_chemical_formula_sum "Si O2"
_cell_formula_units_Z 20
_cell_length_a 5.418943
_cell_length_b 20.328293
_cell_length_c 9.296084
_cell_angle_alpha 90.000000
_cell_angle_beta 55.959657
_cell_angle_gamma 90.000000
_cell_volume 848.561512
_symmetry_space_group_name_H-M "P 21/C"
_symmetry_group_IT_number 14
_symmetry_cell_setting 'monoclinic'
loop_
_space_group_symop_operation_xyz
x,y,z
-x,1/2+y,1/2-z
-x,-y,-z
x,1/2-y,1/2+z
loop_
_atom_site_type_symbol
_atom_site_label
_atom_site_fract_x
_atom_site_fract_y
_atom_site_fract_z
Si Si1 0.805339 0.790663 0.556145
Si Si2 0.925829 0.102379 0.740503
Si Si3 0.743635 0.018793 0.304002
Si Si4 0.604332 0.210446 0.033470
Si Si5 0.653058 0.523926 0.304527
O O1 0.597838 0.748533 0.516649
O O2 0.608251 0.803488 0.761735
O O3 0.897460 0.853038 0.429069
O O4 0.107622 0.752355 0.506226
O O5 0.753995 0.046690 0.704505
O O6 0.726824 0.147472 0.906994
O O7 0.119341 0.053258 0.777969
O O8 0.500000 0.000000 0.500000
O O9 0.582628 0.053484 0.225744
O O10 0.032982 0.058042 0.265348
O O11 0.500000 0.500000 0.500000
#
# Coordination Sequence:
#
# PCOD9249751 Si02
#       5
#     4   4   4   4   4
#     4  12  24  43  67  95 136 177 221 271 323 392
#     4  10  26  40  72  96 140 168 230 260 346 378
#     4  10  23  43  68  93 133 168 222 271 326 392
#     4  12  24  43  67  95 136 177 221 271 323 392
#     4  10  23  43  68  93 133 168 222 271 326 392
#
# _framework density 23.569296999999999
#
# number of rings (size 3 to 8) (size 9 to 14) (size 15 to 20)
#    1.200    0.000    4.000    1.200    5.600    1.600 
#    0.000    0.000    0.000    0.000    0.000    0.000 
#    0.000    0.000    0.000    0.000    0.000    0.000 
#
# Total GULP energy -111683.518124 kJ/mol
# GULP energy per Si atom -5584.175906 kJ/mol
# Density = 2.351565 g / cm^3
# Si number density = 23.569297 Si / 1000 Ang^3
#
#
#
# Elastic Constant Matrix: (Units=GPa)
#
#
# Indices 1 2 3 4 5 6 
#
# 1 198.3138 19.9872 42.4069 0.0000 3.4888 0.0000
# 2 19.9872 83.2076 6.8521 0.0000 -4.1212 0.0000
# 3 42.4069 6.8521 162.8670 0.0000 -11.5042 0.0000
# 4 0.0000 0.0000 0.0000 46.6328 0.0000 -8.7815
# 5 3.4888 -4.1212 -11.5042 0.0000 41.8476 0.0000
# 6 0.0000 0.0000 0.0000 -8.7815 0.0000 17.0710
#
#
#
# Elastic Compliance Matrix: (Units=1/GPa)
#
#
# Indices 1 2 3 4 5 6 
#
# 1 0.005495 -0.001249 -0.001447 0.000000 -0.000979 0.000000
# 2 -0.001249 0.012391 -0.000105 0.000000 0.001296 0.000000
# 3 -0.001447 -0.000105 0.006658 0.000000 0.001941 0.000000
# 4 0.000000 0.000000 0.000000 0.023744 0.000000 0.012214
# 5 -0.000979 0.001296 0.001941 0.000000 0.024639 0.000000
# 6 0.000000 0.000000 0.000000 0.012214 0.000000 0.064862
#
#
# Mechanical properties :
#
#
# Convention : Reuss Voigt Hill
#
# Bulk Modulus (GPa) = 52.79244 64.76452 58.77848
# Shear Modulus (GPa) = 33.39878 46.11975 39.75927
#
# Velocity S-wave (km/s) = 3.76845 4.42834 4.11166
# Velocity P-wave (km/s) = 6.43292 7.32700 6.89447
#
# Compressibility (1/GPa) = 0.01894211
#
# Stress axis : x y z
#
# Youngs Moduli (GPa) = 181.97835 80.70368 150.18760
#
# Poissons Ratio (x) = 0.10082 0.21738
# Poissons Ratio (y) = 0.22734 0.01570
# Poissons Ratio (z) = 0.26340 0.00843
#
# Static dielectric constant tensor:
#      x y z
#    x 2.034470 0.000000 -0.047010 
#    y 0.000000 1.898420 0.000000 
#    z -0.047010 0.000000 1.900340 
# 
# From -- ./inp_files/6139.got.cif
#   From: 2010.05.17/outbox.cif.g08.bks.cpg/sg14_4_cif.got.tgz:6139.got - 2010.06.03 17:49:19.
