data_PCOD9249452
_publ_section_title
;
Structure prediction by ZEFSAII (Michael W. Deem and Ramdas Pophale) SiO2 
 PCOD9249452
Probable space group: P 21/C
;
_chemical_formula_sum "Si O2"
_cell_formula_units_Z 28
_cell_length_a 5.117377
_cell_length_b 29.165351
_cell_length_c 8.307722
_cell_angle_alpha 90.000000
_cell_angle_beta 121.494855
_cell_angle_gamma 90.000000
_cell_volume 1057.270849
_symmetry_space_group_name_H-M "P 21/C"
_symmetry_group_IT_number 14
_symmetry_cell_setting 'monoclinic'
loop_
_space_group_symop_operation_xyz
x,y,z
-x,1/2+y,1/2-z
-x,-y,-z
x,1/2-y,1/2+z
loop_
_atom_site_type_symbol
_atom_site_label
_atom_site_fract_x
_atom_site_fract_y
_atom_site_fract_z
Si Si1 0.107551 0.185987 0.483400
Si Si2 0.009189 0.917761 0.529167
Si Si3 0.432446 0.184455 0.007995
Si Si4 0.732021 0.351537 0.306686
Si Si5 0.955155 0.446118 0.298182
Si Si6 0.301969 0.046876 0.247653
Si Si7 0.265483 0.232615 0.241890
O O1 0.618881 0.149799 0.956219
O O2 0.971894 0.137209 0.488573
O O3 0.066317 0.199017 0.285559
O O4 0.064878 0.232533 0.570325
O O5 0.523979 0.822985 0.371083
O O6 0.878369 0.939816 0.320892
O O7 0.845976 0.926958 0.647252
O O8 0.344312 0.940173 0.647931
O O9 0.074985 0.167748 0.897404
O O10 0.435570 0.232259 0.912893
O O11 0.480739 0.199765 0.206572
O O12 0.733546 0.402660 0.240967
O O13 0.160240 0.442874 0.525446
O O14 0.775270 0.493743 0.244466
#
# Coordination Sequence:
#
# PCOD9249452 Si02
#       7
#     4   4   4   4   4   4   4
#     4  10  23  45  74 110 146 199 251 311 385 452
#     4  12  26  49  78 119 155 201 261 317 385 459
#     4  10  23  41  68 100 138 189 240 301 373 436
#     4  11  24  44  69 106 144 194 241 312 379 442
#     4  11  26  52  79 114 163 198 260 322 386 458
#     4  11  29  49  82 117 151 213 255 314 394 469
#     4   9  21  45  70 103 142 192 245 310 366 459
#
# _framework density 26.483281999999999
#
# number of rings (size 3 to 8) (size 9 to 14) (size 15 to 20)
#    0.000    1.429    0.000    3.429    2.000   12.571 
#    2.571    7.143    0.000    0.000    0.000    0.000 
#    0.000    0.000    0.000    0.000    0.000    0.000 
#
# Total GULP energy -156911.216950 kJ/mol
# GULP energy per Si atom -5603.972034 kJ/mol
# Density = 2.642300 g / cm^3
# Si number density = 26.483282 Si / 1000 Ang^3
#
#
#
# Elastic Constant Matrix: (Units=GPa)
#
#
# Indices 1 2 3 4 5 6 
#
# 1 125.8928 26.5581 38.2341 0.0000 -15.5213 0.0000
# 2 26.5581 124.3849 42.1929 0.0000 -8.4401 0.0000
# 3 38.2341 42.1929 140.8050 0.0000 -35.7048 0.0000
# 4 0.0000 0.0000 0.0000 45.2702 0.0000 -9.9425
# 5 -15.5213 -8.4401 -35.7048 0.0000 34.7838 0.0000
# 6 0.0000 0.0000 0.0000 -9.9425 0.0000 44.7654
#
#
#
# Elastic Compliance Matrix: (Units=1/GPa)
#
#
# Indices 1 2 3 4 5 6 
#
# 1 0.008928 -0.001250 -0.001509 0.000000 0.002131 0.000000
# 2 -0.001250 0.009140 -0.002675 0.000000 -0.001085 0.000000
# 3 -0.001509 -0.002675 0.010785 0.000000 0.009748 0.000000
# 4 0.000000 0.000000 0.000000 0.023222 0.000000 0.005158
# 5 0.002131 -0.001085 0.009748 0.000000 0.039443 0.000000
# 6 0.000000 0.000000 0.000000 0.005158 0.000000 0.023484
#
#
# Mechanical properties :
#
#
# Convention : Reuss Voigt Hill
#
# Bulk Modulus (GPa) = 55.59939 67.22810 61.41375
# Shear Modulus (GPa) = 37.91725 43.90372 40.91049
#
# Velocity S-wave (km/s) = 3.78794 4.07601 3.93462
# Velocity P-wave (km/s) = 6.33807 6.89870 6.62432
#
# Compressibility (1/GPa) = 0.01798581
#
# Stress axis : x y z
#
# Youngs Moduli (GPa) = 112.00626 109.40863 92.71837
#
# Poissons Ratio (x) = 0.13672 0.13995
# Poissons Ratio (y) = 0.13997 0.24800
# Poissons Ratio (z) = 0.16906 0.29264
#
# Static dielectric constant tensor:
#      x y z
#    x 2.165190 0.000000 0.086710 
#    y 0.000000 1.984830 0.000000 
#    z 0.086710 0.000000 2.218140 
# 
# From -- ./inp_files/6815.got.cif
#   From: 2010.05.17/outbox.cif.g08.bks.cpg/sg14_4_cif.got.tgz:6815.got - 2010.06.03 17:49:19.
