data_PCOD9249095
_publ_section_title
;
Structure prediction by ZEFSAII (Michael W. Deem and Ramdas Pophale) SiO2 
 PCOD9249095
Probable space group: P 21/C
;
_chemical_formula_sum "Si O2"
_cell_formula_units_Z 30
_cell_length_a 11.554552
_cell_length_b 6.541336
_cell_length_c 17.901781
_cell_angle_alpha 90.000000
_cell_angle_beta 102.271883
_cell_angle_gamma 90.000000
_cell_volume 1322.138782
_symmetry_space_group_name_H-M "P 21/C"
_symmetry_group_IT_number 14
_symmetry_cell_setting 'monoclinic'
loop_
_space_group_symop_operation_xyz
x,y,z
-x,1/2+y,1/2-z
-x,-y,-z
x,1/2-y,1/2+z
loop_
_atom_site_type_symbol
_atom_site_label
_atom_site_fract_x
_atom_site_fract_y
_atom_site_fract_z
Si Si1 0.363944 0.636281 0.558722
Si Si2 0.303741 0.795529 0.283300
Si Si3 0.226986 0.955895 0.638164
Si Si4 0.995776 0.677832 0.862427
Si Si5 0.500000 0.500000 0.000000
Si Si6 0.848516 0.654151 0.202343
Si Si7 0.442757 0.240978 0.648386
Si Si8 0.207937 0.542485 0.405582
O O1 0.272339 0.795569 0.583550
O O2 0.460529 0.777532 0.531955
O O3 0.415548 0.474464 0.623690
O O4 0.288444 0.508132 0.488169
O O5 0.220728 0.675175 0.213632
O O6 0.441199 0.769913 0.284174
O O7 0.278584 0.695605 0.360433
O O8 0.264735 0.029166 0.284289
O O9 0.104879 0.069109 0.602323
O O10 0.327390 0.127268 0.663718
O O11 0.925812 0.778735 0.783543
O O12 0.076516 0.502058 0.837563
O O13 0.084136 0.845575 0.908393
O O14 0.525577 0.615186 0.922700
O O15 0.814998 0.842388 0.145829
#
# Coordination Sequence:
#
# PCOD9249095 Si02
#       8
#     4   4   4   4   2   4   4   4
#     4  11  26  45  68 104 143 188 226 286 352 419
#     4  11  25  42  70 104 131 182 233 288 348 411
#     4  11  27  43  66 100 147 179 230 289 351 414
#     4  11  22  43  66 102 134 178 234 294 337 410
#     4  10  22  46  68  94 134 178 230 278 326 420
#     4  11  22  40  74 100 134 175 242 290 343 405
#     4  11  26  43  69  99 142 181 229 284 350 416
#     4  11  24  42  73 102 130 185 234 283 351 404
#
# _framework density 22.690508000000001
#
# number of rings (size 3 to 8) (size 9 to 14) (size 15 to 20)
#    0.000    1.067    4.000    1.200    5.600    2.667 
#    0.000    1.333    0.000    0.000    0.000    0.000 
#    0.000    0.000    0.000    0.000    0.000    0.000 
#
# Total GULP energy -167379.321990 kJ/mol
# GULP energy per Si atom -5579.310733 kJ/mol
# Density = 2.263886 g / cm^3
# Si number density = 22.690508 Si / 1000 Ang^3
#
#
#
# Elastic Constant Matrix: (Units=GPa)
#
#
# Indices 1 2 3 4 5 6 
#
# 1 69.5807 31.8671 7.4526 0.0000 15.2217 0.0000
# 2 31.8671 115.5730 14.3717 0.0000 21.6284 0.0000
# 3 7.4526 14.3717 38.6279 0.0000 12.9642 0.0000
# 4 0.0000 0.0000 0.0000 14.9683 0.0000 -7.5218
# 5 15.2217 21.6284 12.9642 0.0000 27.6108 0.0000
# 6 0.0000 0.0000 0.0000 -7.5218 0.0000 32.2047
#
#
#
# Elastic Compliance Matrix: (Units=1/GPa)
#
#
# Indices 1 2 3 4 5 6 
#
# 1 0.017499 -0.003551 0.000296 0.000000 -0.007004 0.000000
# 2 -0.003551 0.010916 -0.001381 0.000000 -0.005945 0.000000
# 3 0.000296 -0.001381 0.030907 0.000000 -0.013593 0.000000
# 4 0.000000 0.000000 0.000000 0.075692 0.000000 0.017679
# 5 -0.007004 -0.005945 -0.013593 0.000000 0.051118 0.000000
# 6 0.000000 0.000000 0.000000 0.017679 0.000000 0.035180
#
#
# Mechanical properties :
#
#
# Convention : Reuss Voigt Hill
#
# Bulk Modulus (GPa) = 19.98038 36.79605 28.38822
# Shear Modulus (GPa) = 20.22105 26.29611 23.25858
#
# Velocity S-wave (km/s) = 2.98848 3.40796 3.20509
# Velocity P-wave (km/s) = 4.55332 5.63359 5.12201
#
# Compressibility (1/GPa) = 0.05004909
#
# Stress axis : x y z
#
# Youngs Moduli (GPa) = 57.14714 91.60964 32.35526
#
# Poissons Ratio (x) = 0.32530 -0.00957
# Poissons Ratio (y) = 0.20293 0.04468
# Poissons Ratio (z) = -0.01691 0.12652
#
# Static dielectric constant tensor:
#      x y z
#    x 1.879670 0.000000 -0.012010 
#    y 0.000000 1.816680 0.000000 
#    z -0.012010 0.000000 1.796030 
# 
# From -- ./inp_files/66525.got.cif
#   From: 2010.05.17/outbox.cif.g08.bks.cpg/sg14_34_cif.got.tgz:66525.got - 2010.06.03 17:49:19.
