data_PCOD9249665
_publ_section_title
;
Structure prediction by ZEFSAII (Michael W. Deem and Ramdas Pophale) SiO2 
 PCOD9249665
Probable space group: P 21/C
;
_chemical_formula_sum "Si O2"
_cell_formula_units_Z 16
_cell_length_a 10.847864
_cell_length_b 7.122218
_cell_length_c 9.406355
_cell_angle_alpha 90.000000
_cell_angle_beta 87.840548
_cell_angle_gamma 90.000000
_cell_volume 726.226895
_symmetry_space_group_name_H-M "P 21/C"
_symmetry_group_IT_number 14
_symmetry_cell_setting 'monoclinic'
loop_
_space_group_symop_operation_xyz
x,y,z
-x,1/2+y,1/2-z
-x,-y,-z
x,1/2-y,1/2+z
loop_
_atom_site_type_symbol
_atom_site_label
_atom_site_fract_x
_atom_site_fract_y
_atom_site_fract_z
Si Si1 0.868914 0.398893 0.492838
Si Si2 0.509556 0.673036 0.108458
Si Si3 0.324855 0.325981 0.625392
Si Si4 0.237671 0.900395 0.686258
O O1 0.785255 0.533803 0.399453
O O2 0.810154 0.384051 0.651690
O O3 0.000000 0.500000 0.500000
O O4 0.140835 0.697110 0.083624
O O5 0.592392 0.630664 0.241344
O O6 0.369565 0.705150 0.161982
O O7 0.500000 0.500000 0.000000
O O8 0.584507 0.825207 0.014892
O O9 0.266919 0.117419 0.648535
#
# Coordination Sequence:
#
# PCOD9249665 Si02
#       4
#     4   4   4   4
#     4  12  30  47  73 104 149 199 244 289 356 441
#     4  10  23  42  74 109 144 180 237 303 368 424
#     4  11  24  47  73 107 148 188 235 305 367 424
#     4  11  27  46  72 108 140 190 243 301 361 425
#
# _framework density 22.031680000000001
#
# number of rings (size 3 to 8) (size 9 to 14) (size 15 to 20)
#    0.000    1.000    2.500    1.500   17.500    3.000 
#    0.000    0.000    0.000    0.000    0.000    0.000 
#    0.000    0.000    0.000    0.000    0.000    0.000 
#
# Total GULP energy -89534.641723 kJ/mol
# GULP energy per Si atom -5595.915108 kJ/mol
# Density = 2.198154 g / cm^3
# Si number density = 22.031680 Si / 1000 Ang^3
#
#
#
# Elastic Constant Matrix: (Units=GPa)
#
#
# Indices 1 2 3 4 5 6 
#
# 1 153.0812 43.2676 64.3836 0.0000 26.5488 0.0000
# 2 43.2676 94.8510 20.1448 0.0000 11.2647 0.0000
# 3 64.3836 20.1448 151.6972 0.0000 4.2382 0.0000
# 4 0.0000 0.0000 0.0000 28.4312 0.0000 15.6686
# 5 26.5488 11.2647 4.2382 0.0000 10.3858 0.0000
# 6 0.0000 0.0000 0.0000 15.6686 0.0000 32.7156
#
#
#
# Elastic Compliance Matrix: (Units=1/GPa)
#
#
# Indices 1 2 3 4 5 6 
#
# 1 0.015358 -0.001691 -0.005309 0.000000 -0.035259 0.000000
# 2 -0.001691 0.012529 -0.000695 0.000000 -0.008983 0.000000
# 3 -0.005309 -0.000695 0.008636 0.000000 0.010800 0.000000
# 4 0.000000 0.000000 0.000000 0.047785 0.000000 -0.022886
# 5 -0.035259 -0.008983 0.010800 0.000000 0.191753 0.000000
# 6 0.000000 0.000000 0.000000 -0.022886 0.000000 0.041527
#
#
# Mechanical properties :
#
#
# Convention : Reuss Voigt Hill
#
# Bulk Modulus (GPa) = 47.31926 72.80241 60.06083
# Shear Modulus (GPa) = 14.70496 32.42874 23.56685
#
# Velocity S-wave (km/s) = 2.58630 3.84072 3.27414
# Velocity P-wave (km/s) = 5.51752 7.26528 6.45087
#
# Compressibility (1/GPa) = 0.02113305
#
# Stress axis : x y z
#
# Youngs Moduli (GPa) = 65.11216 79.81721 115.79743
#
# Poissons Ratio (x) = 0.13496 0.61473
# Poissons Ratio (y) = 0.11010 0.08049
# Poissons Ratio (z) = 0.34566 0.05548
#
# Static dielectric constant tensor:
#      x y z
#    x 1.790730 0.000000 -0.016410 
#    y 0.000000 1.943260 0.000000 
#    z -0.016410 0.000000 1.775830 
# 
# From -- ./inp_files/7387.got.cif
#   From: 2010.05.17/outbox.cif.g08.bks.cpg/sg14_4_cif.got.tgz:7387.got - 2010.06.03 17:49:19.
