data_PCOD9249018
_publ_section_title
;
Structure prediction by ZEFSAII (Michael W. Deem and Ramdas Pophale) SiO2 
 PCOD9249018
Probable space group: P 21/C
;
_chemical_formula_sum "Si O2"
_cell_formula_units_Z 28
_cell_length_a 15.515600
_cell_length_b 6.121071
_cell_length_c 15.268225
_cell_angle_alpha 90.000000
_cell_angle_beta 62.616229
_cell_angle_gamma 90.000000
_cell_volume 1287.570305
_symmetry_space_group_name_H-M "P 21/C"
_symmetry_group_IT_number 14
_symmetry_cell_setting 'monoclinic'
loop_
_space_group_symop_operation_xyz
x,y,z
-x,1/2+y,1/2-z
-x,-y,-z
x,1/2-y,1/2+z
loop_
_atom_site_type_symbol
_atom_site_label
_atom_site_fract_x
_atom_site_fract_y
_atom_site_fract_z
Si Si1 0.607029 0.492143 0.096942
Si Si2 0.030567 0.813106 0.552579
Si Si3 0.441212 0.339016 0.702735
Si Si4 0.707649 0.536505 0.824289
Si Si5 0.538792 0.292978 0.424651
Si Si6 0.189371 0.088537 0.546627
Si Si7 0.846828 0.562633 0.596119
O O1 0.599525 0.658588 0.181314
O O2 0.544598 0.276587 0.143543
O O3 0.548139 0.621332 0.048769
O O4 0.719124 0.448325 0.030578
O O5 0.103144 0.646577 0.470882
O O6 0.930809 0.684198 0.614321
O O7 0.092299 0.942920 0.596027
O O8 0.000000 0.000000 0.500000
O O9 0.369495 0.214074 0.672087
O O10 0.444333 0.589326 0.675271
O O11 0.642149 0.330371 0.889825
O O12 0.774144 0.634732 0.871336
O O13 0.766921 0.494542 0.705939
O O14 0.500000 0.500000 0.500000
O O15 0.178812 0.279724 0.476724
#
# Coordination Sequence:
#
# PCOD9249018 Si02
#       7
#     4   4   4   4   4   4   4
#     4  11  22  37  63  91 131 176 228 267 332 401
#     4   9  22  44  67  95 129 169 216 288 346 399
#     4  11  22  39  61  94 130 177 223 272 323 402
#     4  11  25  42  66 104 131 179 230 275 348 422
#     4  11  24  40  59  94 139 177 221 279 329 395
#     4  11  23  41  66  98 132 175 220 284 344 406
#     4  10  22  45  70  94 132 173 227 282 342 420
#
# _framework density 21.746386999999999
#
# number of rings (size 3 to 8) (size 9 to 14) (size 15 to 20)
#    0.000    1.429    2.857    1.714    2.000    5.714 
#    7.714    0.000    0.000    0.000    0.000    0.000 
#    0.000    0.000    0.000    0.000    0.000    0.000 
#
# Total GULP energy -155918.259028 kJ/mol
# GULP energy per Si atom -5568.509251 kJ/mol
# Density = 2.169689 g / cm^3
# Si number density = 21.746387 Si / 1000 Ang^3
#
#
#
# Elastic Constant Matrix: (Units=GPa)
#
#
# Indices 1 2 3 4 5 6 
#
# 1 118.2401 40.4472 23.5040 0.0000 19.2013 0.0000
# 2 40.4472 73.1338 22.8490 0.0000 -0.5363 0.0000
# 3 23.5040 22.8490 77.0339 0.0000 13.0440 0.0000
# 4 0.0000 0.0000 0.0000 31.1912 0.0000 -4.7125
# 5 19.2013 -0.5363 13.0440 0.0000 33.5313 0.0000
# 6 0.0000 0.0000 0.0000 -4.7125 0.0000 26.2584
#
#
#
# Elastic Compliance Matrix: (Units=1/GPa)
#
#
# Indices 1 2 3 4 5 6 
#
# 1 0.011852 -0.006421 -0.000583 0.000000 -0.006663 0.000000
# 2 -0.006421 0.018691 -0.004558 0.000000 0.005749 0.000000
# 3 -0.000583 -0.004558 0.015487 0.000000 -0.005764 0.000000
# 4 0.000000 0.000000 0.000000 0.032954 0.000000 0.005914
# 5 -0.006663 0.005749 -0.005764 0.000000 0.035972 0.000000
# 6 0.000000 0.000000 0.000000 0.005914 0.000000 0.039144
#
#
# Mechanical properties :
#
#
# Convention : Reuss Voigt Hill
#
# Bulk Modulus (GPa) = 43.65981 49.11204 46.38593
# Shear Modulus (GPa) = 27.04726 30.30335 28.67531
#
# Velocity S-wave (km/s) = 3.53052 3.73700 3.63523
# Velocity P-wave (km/s) = 6.06134 6.42287 6.24472
#
# Compressibility (1/GPa) = 0.02290436
#
# Stress axis : x y z
#
# Youngs Moduli (GPa) = 84.37479 53.50100 64.56928
#
# Poissons Ratio (x) = 0.34355 0.03767
# Poissons Ratio (y) = 0.54180 0.29433
# Poissons Ratio (z) = 0.04922 0.24387
#
# Static dielectric constant tensor:
#      x y z
#    x 1.844320 0.000000 0.043590 
#    y 0.000000 1.790840 0.000000 
#    z 0.043590 0.000000 1.877050 
# 
# From -- ./inp_files/58413.got.cif
#   From: 2010.05.17/outbox.cif.g08.bks.cpg/sg14_30_cif.got.tgz:58413.got - 2010.06.03 17:49:19.
