data_PCOD9249455
_publ_section_title
;
Structure prediction by ZEFSAII (Michael W. Deem and Ramdas Pophale) SiO2 
 PCOD9249455
Probable space group: P 21/C
;
_chemical_formula_sum "Si O2"
_cell_formula_units_Z 28
_cell_length_a 8.505566
_cell_length_b 13.843931
_cell_length_c 21.099908
_cell_angle_alpha 90.000000
_cell_angle_beta 26.749973
_cell_angle_gamma 90.000000
_cell_volume 1118.279360
_symmetry_space_group_name_H-M "P 21/C"
_symmetry_group_IT_number 14
_symmetry_cell_setting 'monoclinic'
loop_
_space_group_symop_operation_xyz
x,y,z
-x,1/2+y,1/2-z
-x,-y,-z
x,1/2-y,1/2+z
loop_
_atom_site_type_symbol
_atom_site_label
_atom_site_fract_x
_atom_site_fract_y
_atom_site_fract_z
Si Si1 0.093787 0.013992 0.659778
Si Si2 0.276225 0.129285 0.886388
Si Si3 0.047419 0.447614 0.916327
Si Si4 0.132051 0.008803 0.055876
Si Si5 0.745186 0.627092 0.373856
Si Si6 0.553638 0.280042 0.698449
Si Si7 0.342187 0.175365 0.651976
O O1 0.073585 0.096065 0.721116
O O2 0.500000 0.000000 0.500000
O O3 0.941096 0.025289 0.644517
O O4 0.954894 0.914177 0.738516
O O5 0.921841 0.190214 0.033759
O O6 0.339660 0.067793 0.927082
O O7 0.545666 0.204414 0.759143
O O8 0.165260 0.051477 0.872599
O O9 0.372827 0.376553 0.789757
O O10 0.708235 0.380187 0.027694
O O11 0.000000 0.500000 0.000000
O O12 0.051285 0.087907 0.138157
O O13 0.380274 0.929102 0.998071
O O14 0.673258 0.739417 0.394067
O O15 0.315916 0.229730 0.729076
#
# Coordination Sequence:
#
# PCOD9249455 Si02
#       7
#     4   4   4   4   4   4   4
#     4  10  23  41  68 101 137 181 225 290 347 413
#     4  11  24  43  70 100 139 178 235 284 355 416
#     4  11  24  43  70 101 144 183 230 294 357 415
#     4  10  23  43  69  98 134 179 232 293 336 415
#     4  11  21  45  69  98 133 181 234 284 348 416
#     4  12  22  44  70 101 135 187 229 288 352 419
#     4  11  23  43  69  98 137 185 234 285 357 422
#
# _framework density 25.038467000000001
#
# number of rings (size 3 to 8) (size 9 to 14) (size 15 to 20)
#    0.000    1.143    4.286    0.857    0.000    8.000 
#    2.571    0.000    0.000    0.000    0.000    0.000 
#    0.000    0.000    0.000    0.000    0.000    0.000 
#
# Total GULP energy -156668.893736 kJ/mol
# GULP energy per Si atom -5595.317633 kJ/mol
# Density = 2.498148 g / cm^3
# Si number density = 25.038467 Si / 1000 Ang^3
#
#
#
# Elastic Constant Matrix: (Units=GPa)
#
#
# Indices 1 2 3 4 5 6 
#
# 1 92.2614 50.6613 41.7476 0.0000 20.3249 0.0000
# 2 50.6613 160.1123 51.1975 0.0000 4.0297 0.0000
# 3 41.7476 51.1975 81.1397 0.0000 22.5127 0.0000
# 4 0.0000 0.0000 0.0000 51.1151 0.0000 7.8017
# 5 20.3249 4.0297 22.5127 0.0000 36.0129 0.0000
# 6 0.0000 0.0000 0.0000 7.8017 0.0000 56.9096
#
#
#
# Elastic Compliance Matrix: (Units=1/GPa)
#
#
# Indices 1 2 3 4 5 6 
#
# 1 0.016073 -0.003530 -0.004398 0.000000 -0.005927 0.000000
# 2 -0.003530 0.008819 -0.004872 0.000000 0.004051 0.000000
# 3 -0.004398 -0.004872 0.020351 0.000000 -0.009695 0.000000
# 4 0.000000 0.000000 0.000000 0.019982 0.000000 -0.002739
# 5 -0.005927 0.004051 -0.009695 0.000000 0.036720 0.000000
# 6 0.000000 0.000000 0.000000 -0.002739 0.000000 0.017947
#
#
# Mechanical properties :
#
#
# Convention : Reuss Voigt Hill
#
# Bulk Modulus (GPa) = 50.90964 68.96958 59.93961
# Shear Modulus (GPa) = 32.88621 41.46798 37.17710
#
# Velocity S-wave (km/s) = 3.62806 4.07402 3.85749
# Velocity P-wave (km/s) = 6.15850 7.05234 6.62052
#
# Compressibility (1/GPa) = 0.01964265
#
# Stress axis : x y z
#
# Youngs Moduli (GPa) = 62.21648 113.39747 49.13719
#
# Poissons Ratio (x) = 0.40032 0.21609
# Poissons Ratio (y) = 0.21964 0.23940
# Poissons Ratio (z) = 0.27361 0.55247
#
# Static dielectric constant tensor:
#      x y z
#    x 2.050270 0.000000 -0.054800 
#    y 0.000000 1.982550 0.000000 
#    z -0.054800 0.000000 2.046350 
# 
# From -- ./inp_files/65808.got.cif
#   From: 2010.05.17/outbox.cif.g08.bks.cpg/sg14_33_cif.got.tgz:65808.got - 2010.06.03 17:49:19.
