data_PCOD9249697
_publ_section_title
;
Structure prediction by ZEFSAII (Michael W. Deem and Ramdas Pophale) SiO2 
 PCOD9249697
Probable space group: P 21/C
;
_chemical_formula_sum "Si O2"
_cell_formula_units_Z 26
_cell_length_a 22.632570
_cell_length_b 8.858368
_cell_length_c 17.673457
_cell_angle_alpha 90.000000
_cell_angle_beta 160.269113
_cell_angle_gamma 90.000000
_cell_volume 1196.231012
_symmetry_space_group_name_H-M "P 21/C"
_symmetry_group_IT_number 14
_symmetry_cell_setting 'monoclinic'
loop_
_space_group_symop_operation_xyz
x,y,z
-x,1/2+y,1/2-z
-x,-y,-z
x,1/2-y,1/2+z
loop_
_atom_site_type_symbol
_atom_site_label
_atom_site_fract_x
_atom_site_fract_y
_atom_site_fract_z
Si Si1 0.170213 0.107984 0.701634
Si Si2 0.014397 0.611980 0.587116
Si Si3 0.753332 0.131769 0.423987
Si Si4 0.500000 0.000000 0.000000
Si Si5 0.703676 0.570185 0.486839
Si Si6 0.971254 0.429571 0.689604
Si Si7 0.619225 0.258026 0.921743
O O1 0.115624 0.250400 0.585171
O O2 0.336713 0.032709 0.863050
O O3 0.000000 0.000000 0.500000
O O4 0.212495 0.152934 0.839733
O O5 0.000000 0.500000 0.500000
O O6 0.970813 0.522417 0.611192
O O7 0.209893 0.680997 0.829517
O O8 0.906272 0.258516 0.599501
O O9 0.647296 0.187155 0.369293
O O10 0.839721 0.968413 0.546598
O O11 0.628167 0.114906 0.202612
O O12 0.840258 0.501556 0.592788
O O13 0.562460 0.669803 0.272878
O O14 0.613696 0.421331 0.414099
#
# Coordination Sequence:
#
# PCOD9249697 Si02
#       7
#     4   4   4   2   4   4   4
#     4  12  26  48  73 109 144 193 243 300 374 436
#     4  11  27  46  69 105 148 188 244 309 366 438
#     4  10  23  44  67 104 138 190 242 297 367 438
#     4  12  26  42  80 108 148 188 250 312 364 436
#     4  11  23  43  71  96 137 187 239 296 357 440
#     4  10  25  44  74  99 142 196 245 297 373 439
#     4  10  23  43  65 102 136 182 240 288 362 439
#
# _framework density 21.734931
#
# number of rings (size 3 to 8) (size 9 to 14) (size 15 to 20)
#    0.000    1.231    3.077    0.923   10.769    2.462 
#    0.000    1.538    0.000    0.000    0.000    0.000 
#    0.000    0.000    0.000    0.000    0.000    0.000 
#
# Total GULP energy -144847.627628 kJ/mol
# GULP energy per Si atom -5571.062601 kJ/mol
# Density = 2.168546 g / cm^3
# Si number density = 21.734931 Si / 1000 Ang^3
#
#
#
# Elastic Constant Matrix: (Units=GPa)
#
#
# Indices 1 2 3 4 5 6 
#
# 1 75.6134 13.0029 19.6488 0.0000 5.6656 0.0000
# 2 13.0029 78.6363 33.4458 0.0000 0.4210 0.0000
# 3 19.6488 33.4458 73.8772 0.0000 -0.4071 0.0000
# 4 0.0000 0.0000 0.0000 33.4877 0.0000 -2.4725
# 5 5.6656 0.4210 -0.4071 0.0000 29.7691 0.0000
# 6 0.0000 0.0000 0.0000 -2.4725 0.0000 17.8201
#
#
#
# Elastic Compliance Matrix: (Units=1/GPa)
#
#
# Indices 1 2 3 4 5 6 
#
# 1 0.014489 -0.000911 -0.003457 0.000000 -0.002792 0.000000
# 2 -0.000911 0.015810 -0.006916 0.000000 -0.000145 0.000000
# 3 -0.003457 -0.006916 0.017592 0.000000 0.000996 0.000000
# 4 0.000000 0.000000 0.000000 0.030171 0.000000 0.004186
# 5 -0.002792 -0.000145 0.000996 0.000000 0.034139 0.000000
# 6 0.000000 0.000000 0.000000 0.004186 0.000000 0.056697
#
#
# Mechanical properties :
#
#
# Convention : Reuss Voigt Hill
#
# Bulk Modulus (GPa) = 39.48832 40.03579 39.76206
# Shear Modulus (GPa) = 25.01179 27.01734 26.01457
#
# Velocity S-wave (km/s) = 3.39597 3.52950 3.46338
# Velocity P-wave (km/s) = 5.79521 5.92198 5.85894
#
# Compressibility (1/GPa) = 0.02532395
#
# Stress axis : x y z
#
# Youngs Moduli (GPa) = 69.01674 63.25247 56.84453
#
# Poissons Ratio (x) = 0.05760 0.19650
# Poissons Ratio (y) = 0.06285 0.39313
# Poissons Ratio (z) = 0.23857 0.43745
#
# Static dielectric constant tensor:
#      x y z
#    x 1.771660 0.000000 0.004350 
#    y 0.000000 1.732760 0.000000 
#    z 0.004350 0.000000 1.824610 
# 
# From -- ./inp_files/61843.got.cif
#   From: 2010.05.17/outbox.cif.g08.bks.cpg/sg14_31_cif.got.tgz:61843.got - 2010.06.03 17:49:19.
