data_PCOD9249955
_publ_section_title
;
Structure prediction by ZEFSAII (Michael W. Deem and Ramdas Pophale) SiO2 
 PCOD9249955
Probable space group: P 21/C
;
_chemical_formula_sum "Si O2"
_cell_formula_units_Z 20
_cell_length_a 7.250702
_cell_length_b 12.150116
_cell_length_c 8.164794
_cell_angle_alpha 90.000000
_cell_angle_beta 104.271764
_cell_angle_gamma 90.000000
_cell_volume 697.093508
_symmetry_space_group_name_H-M "P 21/C"
_symmetry_group_IT_number 14
_symmetry_cell_setting 'monoclinic'
loop_
_space_group_symop_operation_xyz
x,y,z
-x,1/2+y,1/2-z
-x,-y,-z
x,1/2-y,1/2+z
loop_
_atom_site_type_symbol
_atom_site_label
_atom_site_fract_x
_atom_site_fract_y
_atom_site_fract_z
Si Si1 0.260412 0.595466 0.947095
Si Si2 0.441314 0.763899 0.194020
Si Si3 0.929872 0.876783 0.164407
Si Si4 0.185557 0.151544 0.339217
Si Si5 0.200629 0.912947 0.933961
O O1 0.391765 0.658399 0.838528
O O2 0.265167 0.462616 0.932709
O O3 0.040471 0.626286 0.860192
O O4 0.314149 0.653274 0.131011
O O5 0.647947 0.709332 0.232103
O O6 0.378194 0.837778 0.021104
O O7 0.870509 0.761923 0.077479
O O8 0.762528 0.965043 0.123618
O O9 0.103125 0.921988 0.092250
O O10 0.984491 0.126061 0.208012
#
# Coordination Sequence:
#
# PCOD9249955 Si02
#       5
#     4   4   4   4   4
#     4  10  23  45  62  98 133 168 216 275 318 389
#     4  11  23  43  67  92 137 165 222 267 326 381
#     4   9  19  40  66  87 130 169 213 261 324 383
#     4  11  22  40  69  91 128 176 213 264 329 385
#     4   9  20  40  60  94 126 168 213 267 313 384
#
# _framework density 28.690556999999998
#
# number of rings (size 3 to 8) (size 9 to 14) (size 15 to 20)
#    0.000    2.000    2.000    1.800    2.800    0.800 
#    3.600    4.000    0.000    0.000    0.000    0.000 
#    0.000    0.000    0.000    0.000    0.000    0.000 
#
# Total GULP energy -111570.504514 kJ/mol
# GULP energy per Si atom -5578.525226 kJ/mol
# Density = 2.862526 g / cm^3
# Si number density = 28.690557 Si / 1000 Ang^3
#
#
#
# Elastic Constant Matrix: (Units=GPa)
#
#
# Indices 1 2 3 4 5 6 
#
# 1 130.5864 71.2140 48.3741 0.0000 14.1928 0.0000
# 2 71.2140 260.7712 50.5050 0.0000 19.5543 0.0000
# 3 48.3741 50.5050 93.8665 0.0000 38.3610 0.0000
# 4 0.0000 0.0000 0.0000 34.2051 0.0000 -3.6555
# 5 14.1928 19.5543 38.3610 0.0000 29.4425 0.0000
# 6 0.0000 0.0000 0.0000 -3.6555 0.0000 42.1696
#
#
#
# Elastic Compliance Matrix: (Units=1/GPa)
#
#
# Indices 1 2 3 4 5 6 
#
# 1 0.010546 -0.002021 -0.006028 0.000000 0.004113 0.000000
# 2 -0.002021 0.004670 -0.001287 0.000000 -0.000450 0.000000
# 3 -0.006028 -0.001287 0.027625 0.000000 -0.032233 0.000000
# 4 0.000000 0.000000 0.000000 0.029509 0.000000 0.002558
# 5 0.004113 -0.000450 -0.032233 0.000000 0.074278 0.000000
# 6 0.000000 0.000000 0.000000 0.002558 0.000000 0.023936
#
#
# Mechanical properties :
#
#
# Convention : Reuss Voigt Hill
#
# Bulk Modulus (GPa) = 41.37617 91.71223 66.54420
# Shear Modulus (GPa) = 25.34318 42.17216 33.75767
#
# Velocity S-wave (km/s) = 2.97531 3.83808 3.43390
# Velocity P-wave (km/s) = 5.12407 7.18864 6.24230
#
# Compressibility (1/GPa) = 0.02416850
#
# Stress axis : x y z
#
# Youngs Moduli (GPa) = 94.82316 214.14691 36.19851
#
# Poissons Ratio (x) = 0.43276 0.21822
# Poissons Ratio (y) = 0.19162 0.04659
# Poissons Ratio (z) = 0.57163 0.27562
#
# Static dielectric constant tensor:
#      x y z
#    x 2.294610 0.000000 -0.074790 
#    y 0.000000 2.323220 0.000000 
#    z -0.074790 0.000000 2.350370 
# 
# From -- ./inp_files/23879.got.cif
#   From: 2010.05.17/outbox.cif.g08.bks.cpg/sg14_12_cif.got.tgz:23879.got - 2010.06.03 17:49:19.
