data_PCOD9249800
_publ_section_title
;
Structure prediction by ZEFSAII (Michael W. Deem and Ramdas Pophale) SiO2 
 PCOD9249800
Probable space group: P 21/C
;
_chemical_formula_sum "Si O2"
_cell_formula_units_Z 32
_cell_length_a 15.757367
_cell_length_b 8.295975
_cell_length_c 25.840072
_cell_angle_alpha 90.000000
_cell_angle_beta 25.082625
_cell_angle_gamma 90.000000
_cell_volume 1431.969001
_symmetry_space_group_name_H-M "P 21/C"
_symmetry_group_IT_number 14
_symmetry_cell_setting 'monoclinic'
loop_
_space_group_symop_operation_xyz
x,y,z
-x,1/2+y,1/2-z
-x,-y,-z
x,1/2-y,1/2+z
loop_
_atom_site_type_symbol
_atom_site_label
_atom_site_fract_x
_atom_site_fract_y
_atom_site_fract_z
Si Si1 0.173920 0.990554 0.508207
Si Si2 0.965420 0.668031 0.643155
Si Si3 0.101486 0.837452 0.268915
Si Si4 0.044762 0.024315 0.195639
Si Si5 0.512828 0.521652 0.554314
Si Si6 0.594235 0.673271 0.201421
Si Si7 0.539853 0.715841 0.846175
Si Si8 0.198898 0.511744 0.425073
O O1 0.360069 0.907527 0.435115
O O2 0.006310 0.851399 0.603494
O O3 0.260529 0.041809 0.404832
O O4 0.071723 0.140917 0.593049
O O5 0.741859 0.624667 0.750135
O O6 0.997685 0.629217 0.685260
O O7 0.124121 0.568084 0.522238
O O8 0.316053 0.876218 0.175939
O O9 0.103196 0.665756 0.239588
O O10 0.050696 0.967435 0.251583
O O11 0.266188 0.089177 0.058624
O O12 0.500000 0.500000 0.500000
O O13 0.505438 0.347663 0.585350
O O14 0.583343 0.685549 0.269366
O O15 0.365877 0.635422 0.311044
O O16 0.682313 0.845065 0.136560
O O17 0.000000 0.500000 0.500000
#
# Coordination Sequence:
#
# PCOD9249800 Si02
#       8
#     4   4   4   4   4   4   4   4
#     4  12  24  44  68 102 142 183 239 286 356 421
#     4  12  23  44  68  99 138 188 232 291 359 415
#     4  11  25  44  71 105 135 187 232 288 360 422
#     4  11  24  45  71 101 144 178 233 300 345 430
#     4  10  23  43  72 100 137 182 232 284 355 420
#     4  12  24  44  69 106 141 187 239 296 349 428
#     4  12  24  44  73 101 140 187 229 295 353 424
#     4  12  23  45  68 102 146 188 243 293 358 421
#
# _framework density 22.346852999999999
#
# number of rings (size 3 to 8) (size 9 to 14) (size 15 to 20)
#    0.000    0.500    6.250    1.500    3.500    1.500 
#    2.250    3.750    0.000    0.000    0.000    0.000 
#    0.000    0.000    0.000    0.000    0.000    0.000 
#
# Total GULP energy -178865.760117 kJ/mol
# GULP energy per Si atom -5589.555004 kJ/mol
# Density = 2.229599 g / cm^3
# Si number density = 22.346853 Si / 1000 Ang^3
#
#
#
# Elastic Constant Matrix: (Units=GPa)
#
#
# Indices 1 2 3 4 5 6 
#
# 1 48.1198 -11.6399 13.3639 0.0000 4.4173 0.0000
# 2 -11.6399 56.0845 -1.7555 0.0000 -2.1141 0.0000
# 3 13.3639 -1.7555 86.5536 0.0000 -10.4700 0.0000
# 4 0.0000 0.0000 0.0000 38.0789 0.0000 5.3217
# 5 4.4173 -2.1141 -10.4700 0.0000 43.5381 0.0000
# 6 0.0000 0.0000 0.0000 5.3217 0.0000 33.3081
#
#
#
# Elastic Compliance Matrix: (Units=1/GPa)
#
#
# Indices 1 2 3 4 5 6 
#
# 1 0.023247 0.004588 -0.003867 0.000000 -0.003066 0.000000
# 2 0.004588 0.018788 -0.000281 0.000000 0.000379 0.000000
# 3 -0.003867 -0.000281 0.012556 0.000000 0.003398 0.000000
# 4 0.000000 0.000000 0.000000 0.026861 0.000000 -0.004292
# 5 -0.003066 0.000379 0.003398 0.000000 0.024115 0.000000
# 6 0.000000 0.000000 0.000000 -0.004292 0.000000 0.030708
#
#
# Mechanical properties :
#
#
# Convention : Reuss Voigt Hill
#
# Bulk Modulus (GPa) = 18.02790 21.18833 19.60811
# Shear Modulus (GPa) = 32.49159 35.70431 34.09795
#
# Velocity S-wave (km/s) = 3.81723 4.00150 3.91045
# Velocity P-wave (km/s) = 5.24530 5.55441 5.40207
#
# Compressibility (1/GPa) = 0.05546957
#
# Stress axis : x y z
#
# Youngs Moduli (GPa) = 43.01687 53.22567 79.64346
#
# Poissons Ratio (x) = -0.24420 0.30799
# Poissons Ratio (y) = -0.19736 0.02242
# Poissons Ratio (z) = 0.16635 0.01498
#
# Static dielectric constant tensor:
#      x y z
#    x 1.810160 0.000000 -0.001740 
#    y 0.000000 1.701590 0.000000 
#    z -0.001740 0.000000 1.852680 
# 
# From -- ./inp_files/80390.got.cif
#   From: 2010.05.17/outbox.cif.g08.bks.cpg/sg14_41_cif.got.tgz:80390.got - 2010.06.03 17:49:19.
