data_PCOD9249220
_publ_section_title
;
Structure prediction by ZEFSAII (Michael W. Deem and Ramdas Pophale) SiO2 
 PCOD9249220
Probable space group: P 21/C
;
_chemical_formula_sum "Si O2"
_cell_formula_units_Z 28
_cell_length_a 13.471958
_cell_length_b 20.146287
_cell_length_c 13.323287
_cell_angle_alpha 90.000000
_cell_angle_beta 157.868433
_cell_angle_gamma 90.000000
_cell_volume 1362.299870
_symmetry_space_group_name_H-M "P 21/C"
_symmetry_group_IT_number 14
_symmetry_cell_setting 'monoclinic'
loop_
_space_group_symop_operation_xyz
x,y,z
-x,1/2+y,1/2-z
-x,-y,-z
x,1/2-y,1/2+z
loop_
_atom_site_type_symbol
_atom_site_label
_atom_site_fract_x
_atom_site_fract_y
_atom_site_fract_z
Si Si1 0.783156 0.217588 0.298134
Si Si2 0.725097 0.469202 0.280581
Si Si3 0.077485 0.353935 0.579261
Si Si4 0.257845 0.072782 0.048784
Si Si5 0.187982 0.779513 0.902856
Si Si6 0.208931 0.865822 0.506120
Si Si7 0.381884 0.306653 0.037622
O O1 0.995215 0.277412 0.495917
O O2 0.867240 0.161662 0.455892
O O3 0.758881 0.197995 0.160203
O O4 0.514819 0.249212 0.092996
O O5 0.803398 0.393009 0.339351
O O6 0.697077 0.498961 0.365582
O O7 0.000000 0.500000 0.500000
O O8 0.500000 0.500000 0.000000
O O9 0.214928 0.381288 0.608210
O O10 0.265597 0.361466 0.852083
O O11 0.512309 0.098361 0.230204
O O12 0.002199 0.085954 0.742634
O O13 0.240244 0.700571 0.966639
O O14 0.388296 0.817008 0.165350
O O15 0.883855 0.786799 0.651346
#
# Coordination Sequence:
#
# PCOD9249220 Si02
#       7
#     4   4   4   4   4   4   4
#     4  11  24  36  59  86 120 156 188 239 291 344
#     4  10  23  37  55  85 113 154 197 228 289 353
#     4  11  22  37  59  83 119 153 188 238 288 344
#     4  11  22  37  57  81 119 154 181 238 283 345
#     4  11  23  36  54  81 120 150 188 233 286 342
#     4  11  21  36  55  83 114 151 194 221 292 351
#     4  11  23  37  53  85 112 154 196 224 289 352
#
# _framework density 20.553477000000001
#
# number of rings (size 3 to 8) (size 9 to 14) (size 15 to 20)
#    0.000    1.143    4.286    4.286    6.000    0.000 
#    0.000    0.000    0.000    0.000    0.000    6.000 
#    0.000    0.000    0.000    0.000    0.000    0.000 
#
# Total GULP energy -156325.441189 kJ/mol
# GULP energy per Si atom -5583.051471 kJ/mol
# Density = 2.050670 g / cm^3
# Si number density = 20.553477 Si / 1000 Ang^3
#
#
#
# Elastic Constant Matrix: (Units=GPa)
#
#
# Indices 1 2 3 4 5 6 
#
# 1 115.9072 0.3269 34.2006 0.0000 -14.6089 0.0000
# 2 0.3269 15.9663 8.6042 0.0000 -5.2949 0.0000
# 3 34.2006 8.6042 125.7968 0.0000 -8.6208 0.0000
# 4 0.0000 0.0000 0.0000 26.4559 0.0000 -2.8275
# 5 -14.6089 -5.2949 -8.6208 0.0000 34.7299 0.0000
# 6 0.0000 0.0000 0.0000 -2.8275 0.0000 24.6488
#
#
#
# Elastic Compliance Matrix: (Units=1/GPa)
#
#
# Indices 1 2 3 4 5 6 
#
# 1 0.009874 0.002482 -0.002588 0.000000 0.003890 0.000000
# 2 0.002482 0.068516 -0.004653 0.000000 0.010335 0.000000
# 3 -0.002588 -0.004653 0.009001 0.000000 0.000436 0.000000
# 4 0.000000 0.000000 0.000000 0.038268 0.000000 0.004390
# 5 0.003890 0.010335 0.000436 0.000000 0.032114 0.000000
# 6 0.000000 0.000000 0.000000 0.004390 0.000000 0.041073
#
#
# Mechanical properties :
#
#
# Convention : Reuss Voigt Hill
#
# Bulk Modulus (GPa) = 12.84114 38.21485 25.52799
# Shear Modulus (GPa) = 21.33819 31.46951 26.40385
#
# Velocity S-wave (km/s) = 3.22557 3.91718 3.58808
# Velocity P-wave (km/s) = 4.48706 6.25238 5.44178
#
# Compressibility (1/GPa) = 0.07787472
#
# Stress axis : x y z
#
# Youngs Moduli (GPa) = 101.27169 14.59513 111.09836
#
# Poissons Ratio (x) = -0.03623 0.28750
# Poissons Ratio (y) = -0.25139 0.51693
# Poissons Ratio (z) = 0.26207 0.06791
#
# Static dielectric constant tensor:
#      x y z
#    x 1.741420 0.000000 -0.028500 
#    y 0.000000 1.832720 0.000000 
#    z -0.028500 0.000000 1.754960 
# 
# From -- ./inp_files/47594.got.cif
#   From: 2010.05.17/outbox.cif.g08.bks.cpg/sg14_24_cif.got.tgz:47594.got - 2010.06.03 17:49:19.
