data_PCOD9249960
_publ_section_title
;
Structure prediction by ZEFSAII (Michael W. Deem and Ramdas Pophale) SiO2 
 PCOD9249960
Probable space group: P 21/C
;
_chemical_formula_sum "Si O2"
_cell_formula_units_Z 20
_cell_length_a 8.598745
_cell_length_b 7.607445
_cell_length_c 16.933803
_cell_angle_alpha 90.000000
_cell_angle_beta 42.966195
_cell_angle_gamma 90.000000
_cell_volume 754.982319
_symmetry_space_group_name_H-M "P 21/C"
_symmetry_group_IT_number 14
_symmetry_cell_setting 'monoclinic'
loop_
_space_group_symop_operation_xyz
x,y,z
-x,1/2+y,1/2-z
-x,-y,-z
x,1/2-y,1/2+z
loop_
_atom_site_type_symbol
_atom_site_label
_atom_site_fract_x
_atom_site_fract_y
_atom_site_fract_z
Si Si1 0.416396 0.169994 0.652511
Si Si2 0.108989 0.162705 0.031338
Si Si3 0.395315 0.534818 0.312393
Si Si4 0.790665 0.318776 0.400333
Si Si5 0.975242 0.955905 0.317796
O O1 0.437324 0.348071 0.697640
O O2 0.572674 0.227268 0.520083
O O3 0.203766 0.078443 0.687214
O O4 0.482574 0.026415 0.694805
O O5 0.111534 0.341799 0.077825
O O6 0.845975 0.141527 0.102228
O O7 0.159009 0.996444 0.070329
O O8 0.296467 0.137822 0.894157
O O9 0.796187 0.376602 0.306881
O O10 0.971046 0.159562 0.339482
#
# Coordination Sequence:
#
# PCOD9249960 Si02
#       5
#     4   4   4   4   4
#     4  11  25  43  66 100 133 173 227 270 333 401
#     4  10  23  46  67  93 133 181 218 276 331 391
#     4  10  23  45  64  95 139 170 223 275 332 397
#     4  11  23  41  68  98 130 169 223 271 326 396
#     4  12  23  44  69  96 134 173 225 275 329 393
#
# _framework density 26.490687999999999
#
# number of rings (size 3 to 8) (size 9 to 14) (size 15 to 20)
#    0.000    1.200    4.000    0.600    2.800    4.800 
#    3.600    4.000    0.000    0.000    0.000    0.000 
#    0.000    0.000    0.000    0.000    0.000    0.000 
#
# Total GULP energy -111775.066213 kJ/mol
# GULP energy per Si atom -5588.753311 kJ/mol
# Density = 2.643039 g / cm^3
# Si number density = 26.490688 Si / 1000 Ang^3
#
#
#
# Elastic Constant Matrix: (Units=GPa)
#
#
# Indices 1 2 3 4 5 6 
#
# 1 61.3052 0.4081 -12.9246 0.0000 -15.5651 0.0000
# 2 0.4081 111.4135 -7.2357 0.0000 4.5553 0.0000
# 3 -12.9246 -7.2357 87.2580 0.0000 10.7672 0.0000
# 4 0.0000 0.0000 0.0000 47.9454 0.0000 24.8214
# 5 -15.5651 4.5553 10.7672 0.0000 28.2562 0.0000
# 6 0.0000 0.0000 0.0000 24.8214 0.0000 6.9968
#
#
#
# Elastic Compliance Matrix: (Units=1/GPa)
#
#
# Indices 1 2 3 4 5 6 
#
# 1 0.019194 -0.000378 0.001573 0.000000 0.010034 0.000000
# 2 -0.000378 0.009122 0.000952 0.000000 -0.002042 0.000000
# 3 0.001573 0.000952 0.012261 0.000000 -0.003959 0.000000
# 4 0.000000 0.000000 0.000000 -0.024932 0.000000 0.088446
# 5 0.010034 -0.002042 -0.003959 0.000000 0.042756 0.000000
# 6 0.000000 0.000000 0.000000 0.088446 0.000000 -0.170845
#
#
# Mechanical properties :
#
#
# Convention : Reuss Voigt Hill
#
# Bulk Modulus (GPa) = 22.28581 24.49691 23.39136
# Shear Modulus (GPa) = -49.12502 35.28827 -6.91837
#
# Velocity S-wave (km/s) = -4.31098 3.65376 -1.61781
# Velocity P-wave (km/s) = 4.04331 5.20263 2.31505
#
# Compressibility (1/GPa) = 0.04487160
#
# Stress axis : x y z
#
# Youngs Moduli (GPa) = 52.10029 109.62145 81.56073
#
# Poissons Ratio (x) = 0.04148 -0.12833
# Poissons Ratio (y) = 0.01971 -0.07768
# Poissons Ratio (z) = -0.08197 -0.10440
#
# Static dielectric constant tensor:
#      x y z
#    x 2.134980 0.000000 -0.078820 
#    y 0.000000 2.014820 0.000000 
#    z -0.078820 0.000000 2.172480 
# 
# From -- ./inp_files/54416.got.cif
#   From: 2010.05.17/outbox.cif.g08.bks.cpg/sg14_28_cif.got.tgz:54416.got - 2010.06.03 17:49:19.
