data_PCOD9249989
_publ_section_title
;
Structure prediction by ZEFSAII (Michael W. Deem and Ramdas Pophale) SiO2 
 PCOD9249989
Probable space group: P 21/C
;
_chemical_formula_sum "Si O2"
_cell_formula_units_Z 20
_cell_length_a 5.198438
_cell_length_b 21.520157
_cell_length_c 8.977773
_cell_angle_alpha 90.000000
_cell_angle_beta 123.841259
_cell_angle_gamma 90.000000
_cell_volume 834.200236
_symmetry_space_group_name_H-M "P 21/C"
_symmetry_group_IT_number 14
_symmetry_cell_setting 'monoclinic'
loop_
_space_group_symop_operation_xyz
x,y,z
-x,1/2+y,1/2-z
-x,-y,-z
x,1/2-y,1/2+z
loop_
_atom_site_type_symbol
_atom_site_label
_atom_site_fract_x
_atom_site_fract_y
_atom_site_fract_z
Si Si1 0.321514 0.225125 0.064419
Si Si2 0.081597 0.803530 0.347641
Si Si3 0.367091 0.500284 0.619536
Si Si4 0.273653 0.457022 0.027877
Si Si5 0.452155 0.381131 0.843914
O O1 0.104732 0.276346 0.072386
O O2 0.635398 0.257318 0.106593
O O3 0.379755 0.177941 0.219438
O O4 0.142025 0.193502 0.867895
O O5 0.244379 0.866134 0.459630
O O6 0.500000 0.500000 0.500000
O O7 0.515848 0.557186 0.760688
O O8 0.468448 0.436905 0.732766
O O9 0.000000 0.500000 0.500000
O O10 0.500000 0.500000 0.000000
O O11 0.202459 0.401561 0.890365
O O12 0.000000 0.500000 0.000000
#
# Coordination Sequence:
#
# PCOD9249989 Si02
#       5
#     4   4   4   4   4
#     4  12  25  47  72 107 147 186 243 290 351 434
#     4  12  25  47  71 107 145 188 238 295 346 436
#     4  11  25  46  70 105 138 181 247 296 346 428
#     4  10  23  45  68  98 138 180 238 291 343 422
#     4  11  26  47  77 100 151 193 231 295 376 401
#
# _framework density 23.975059000000002
#
# number of rings (size 3 to 8) (size 9 to 14) (size 15 to 20)
#    0.000    0.800    4.000    2.400    2.800    9.600 
#    3.600    0.000    0.000    0.000    0.000    0.000 
#    0.000    0.000    0.000    0.000    0.000    0.000 
#
# Total GULP energy -111859.079141 kJ/mol
# GULP energy per Si atom -5592.953957 kJ/mol
# Density = 2.392049 g / cm^3
# Si number density = 23.975059 Si / 1000 Ang^3
#
#
#
# Elastic Constant Matrix: (Units=GPa)
#
#
# Indices 1 2 3 4 5 6 
#
# 1 138.4986 13.8933 37.0204 0.0000 -8.7715 0.0000
# 2 13.8933 69.4501 25.2357 0.0000 -9.4072 0.0000
# 3 37.0204 25.2357 172.6891 0.0000 -12.6059 0.0000
# 4 0.0000 0.0000 0.0000 59.1948 0.0000 -16.5787
# 5 -8.7715 -9.4072 -12.6059 0.0000 51.7925 0.0000
# 6 0.0000 0.0000 0.0000 -16.5787 0.0000 35.7889
#
#
#
# Elastic Compliance Matrix: (Units=1/GPa)
#
#
# Indices 1 2 3 4 5 6 
#
# 1 0.007755 -0.000910 -0.001472 0.000000 0.000790 0.000000
# 2 -0.000910 0.015578 -0.001920 0.000000 0.002208 0.000000
# 3 -0.001472 -0.001920 0.006458 0.000000 0.000974 0.000000
# 4 0.000000 0.000000 0.000000 0.019412 0.000000 0.008992
# 5 0.000790 0.002208 0.000974 0.000000 0.020080 0.000000
# 6 0.000000 0.000000 0.000000 0.008992 0.000000 0.032107
#
#
# Mechanical properties :
#
#
# Convention : Reuss Voigt Hill
#
# Bulk Modulus (GPa) = 47.19833 59.21519 53.20676
# Shear Modulus (GPa) = 42.71498 49.65448 46.18473
#
# Velocity S-wave (km/s) = 4.22553 4.55586 4.39380
# Velocity P-wave (km/s) = 6.59818 7.24063 6.92686
#
# Compressibility (1/GPa) = 0.02118719
#
# Stress axis : x y z
#
# Youngs Moduli (GPa) = 128.94921 64.19475 154.84688
#
# Poissons Ratio (x) = 0.05839 0.22792
# Poissons Ratio (y) = 0.11728 0.29735
# Poissons Ratio (z) = 0.18980 0.12327
#
# Static dielectric constant tensor:
#      x y z
#    x 1.982820 0.000000 0.062870 
#    y 0.000000 2.067450 0.000000 
#    z 0.062870 0.000000 1.967890 
# 
# From -- ./inp_files/6065.got.cif
#   From: 2010.05.17/outbox.cif.g08.bks.cpg/sg14_4_cif.got.tgz:6065.got - 2010.06.03 17:49:19.
