data_PCOD9249667
_publ_section_title
;
Structure prediction by ZEFSAII (Michael W. Deem and Ramdas Pophale) SiO2 
 PCOD9249667
Probable space group: P 21/C
;
_chemical_formula_sum "Si O2"
_cell_formula_units_Z 28
_cell_length_a 12.769479
_cell_length_b 5.191993
_cell_length_c 20.271627
_cell_angle_alpha 90.000000
_cell_angle_beta 116.420613
_cell_angle_gamma 90.000000
_cell_volume 1203.612153
_symmetry_space_group_name_H-M "P 21/C"
_symmetry_group_IT_number 14
_symmetry_cell_setting 'monoclinic'
loop_
_space_group_symop_operation_xyz
x,y,z
-x,1/2+y,1/2-z
-x,-y,-z
x,1/2-y,1/2+z
loop_
_atom_site_type_symbol
_atom_site_label
_atom_site_fract_x
_atom_site_fract_y
_atom_site_fract_z
Si Si1 0.419818 0.970136 0.739520
Si Si2 0.370351 0.060630 0.875227
Si Si3 0.591643 0.199156 0.496636
Si Si4 0.994331 0.343390 0.662043
Si Si5 0.137224 0.342137 0.839250
Si Si6 0.113607 0.363759 0.559975
Si Si7 0.756452 0.376592 0.928114
O O1 0.505519 0.728420 0.751904
O O2 0.365698 0.970422 0.798204
O O3 0.319406 0.954284 0.656683
O O4 0.506175 0.130123 0.926459
O O5 0.273303 0.281222 0.862195
O O6 0.350714 0.852108 0.927135
O O7 0.684362 0.078126 0.474150
O O8 0.500000 0.000000 0.500000
O O9 0.917659 0.601875 0.636761
O O10 0.068795 0.342429 0.750183
O O11 0.087470 0.334202 0.629848
O O12 0.905326 0.103587 0.638442
O O13 0.212516 0.575545 0.571032
O O14 0.000000 0.500000 0.500000
O O15 0.138738 0.080258 0.540236
#
# Coordination Sequence:
#
# PCOD9249667 Si02
#       7
#     4   4   4   4   4   4   4
#     4  12  25  46  75 111 149 198 244 299 366 438
#     4  11  26  44  73 109 145 193 242 299 366 438
#     4  11  27  47  71 108 149 192 244 296 365 450
#     4  10  23  46  68 106 139 180 244 296 354 430
#     4  10  23  42  75 102 139 185 233 300 361 417
#     4  12  28  48  75 104 145 195 247 300 369 434
#     4  12  27  49  76 106 151 195 245 306 365 441
#
# _framework density 23.263309
#
# number of rings (size 3 to 8) (size 9 to 14) (size 15 to 20)
#    0.000    0.857    1.429    3.857    8.000    2.286 
#    0.000    0.000    0.000    0.000    0.000    0.000 
#    0.000    0.000    0.000    0.000    0.000    0.000 
#
# Total GULP energy -156782.801915 kJ/mol
# GULP energy per Si atom -5599.385783 kJ/mol
# Density = 2.321036 g / cm^3
# Si number density = 23.263309 Si / 1000 Ang^3
#
#
#
# Elastic Constant Matrix: (Units=GPa)
#
#
# Indices 1 2 3 4 5 6 
#
# 1 96.8124 18.5757 21.9470 0.0000 -13.6148 0.0000
# 2 18.5757 106.4386 12.2934 0.0000 0.3328 0.0000
# 3 21.9470 12.2934 86.0910 0.0000 -15.7919 0.0000
# 4 0.0000 0.0000 0.0000 24.5149 0.0000 4.2456
# 5 -13.6148 0.3328 -15.7919 0.0000 41.2044 0.0000
# 6 0.0000 0.0000 0.0000 4.2456 0.0000 54.6212
#
#
#
# Elastic Compliance Matrix: (Units=1/GPa)
#
#
# Indices 1 2 3 4 5 6 
#
# 1 0.011582 -0.001783 -0.002144 0.000000 0.003020 0.000000
# 2 -0.001783 0.009843 -0.001155 0.000000 -0.001111 0.000000
# 3 -0.002144 -0.001155 0.013121 0.000000 0.004330 0.000000
# 4 0.000000 0.000000 0.000000 0.041348 0.000000 -0.003214
# 5 0.003020 -0.001111 0.004330 0.000000 0.026935 0.000000
# 6 0.000000 0.000000 0.000000 -0.003214 0.000000 0.018558
#
#
# Mechanical properties :
#
#
# Convention : Reuss Voigt Hill
#
# Bulk Modulus (GPa) = 41.01304 43.88602 42.44953
# Shear Modulus (GPa) = 35.79626 39.83648 37.81637
#
# Velocity S-wave (km/s) = 3.92694 4.14263 4.03622
# Velocity P-wave (km/s) = 6.18299 6.46434 6.32523
#
# Compressibility (1/GPa) = 0.02438249
#
# Stress axis : x y z
#
# Youngs Moduli (GPa) = 86.34014 101.59368 76.21184
#
# Poissons Ratio (x) = 0.18115 0.16340
# Poissons Ratio (y) = 0.15396 0.08801
# Poissons Ratio (z) = 0.18512 0.11732
#
# Static dielectric constant tensor:
#      x y z
#    x 1.861040 0.000000 0.033680 
#    y 0.000000 1.878130 0.000000 
#    z 0.033680 0.000000 1.891680 
# 
# From -- ./inp_files/66330.got.cif
#   From: 2010.05.17/outbox.cif.g08.bks.cpg/sg14_34_cif.got.tgz:66330.got - 2010.06.03 17:49:19.
