data_PCOD9249820
_publ_section_title
;
Structure prediction by ZEFSAII (Michael W. Deem and Ramdas Pophale) SiO2 
 PCOD9249820
Probable space group: P 21/C
;
_chemical_formula_sum "Si O2"
_cell_formula_units_Z 28
_cell_length_a 5.655742
_cell_length_b 21.173020
_cell_length_c 14.733110
_cell_angle_alpha 90.000000
_cell_angle_beta 46.347261
_cell_angle_gamma 90.000000
_cell_volume 1276.519468
_symmetry_space_group_name_H-M "P 21/C"
_symmetry_group_IT_number 14
_symmetry_cell_setting 'monoclinic'
loop_
_space_group_symop_operation_xyz
x,y,z
-x,1/2+y,1/2-z
-x,-y,-z
x,1/2-y,1/2+z
loop_
_atom_site_type_symbol
_atom_site_label
_atom_site_fract_x
_atom_site_fract_y
_atom_site_fract_z
Si Si1 0.193884 0.884457 0.917043
Si Si2 0.442404 0.500938 0.622069
Si Si3 0.149978 0.069351 0.472597
Si Si4 0.117580 0.906451 0.747427
Si Si5 0.882427 0.672700 0.167904
Si Si6 0.181805 0.180291 0.819628
Si Si7 0.838228 0.372265 0.227834
O O1 0.280578 0.958046 0.906561
O O2 0.988912 0.883358 0.878902
O O3 0.525859 0.846617 0.803413
O O4 0.028310 0.857895 0.050102
O O5 0.500000 0.500000 0.500000
O O6 0.377055 0.570575 0.673647
O O7 0.120650 0.459371 0.727473
O O8 0.527770 0.063720 0.345885
O O9 0.032198 0.124848 0.435926
O O10 0.082742 0.095568 0.590843
O O11 0.000000 0.000000 0.500000
O O12 0.132730 0.845128 0.680803
O O13 0.882809 0.745824 0.146785
O O14 0.564741 0.167343 0.743131
O O15 0.042892 0.160463 0.756141
#
# Coordination Sequence:
#
# PCOD9249820 Si02
#       7
#     4   4   4   4   4   4   4
#     4  10  23  44  70  99 138 184 238 294 363 432
#     4  11  22  42  69 105 140 185 237 303 365 428
#     4  11  26  46  74 106 147 195 248 312 371 443
#     4  10  23  43  74  99 141 191 241 296 379 432
#     4  10  26  45  70 101 138 198 237 299 366 440
#     4  12  29  46  71 107 145 189 244 299 363 438
#     4  12  29  45  71 111 142 189 243 303 362 438
#
# _framework density 21.934642
#
# number of rings (size 3 to 8) (size 9 to 14) (size 15 to 20)
#    0.000    1.143    1.429    3.429   14.000    2.286 
#    0.000    0.000    0.000    0.000    0.000    0.000 
#    0.000    0.000    0.000    0.000    0.000    0.000 
#
# Total GULP energy -156376.181539 kJ/mol
# GULP energy per Si atom -5584.863626 kJ/mol
# Density = 2.188472 g / cm^3
# Si number density = 21.934642 Si / 1000 Ang^3
#
#
#
# Elastic Constant Matrix: (Units=GPa)
#
#
# Indices 1 2 3 4 5 6 
#
# 1 96.0856 57.4392 28.3806 0.0000 18.7280 0.0000
# 2 57.4392 129.9346 21.6313 0.0000 11.1920 0.0000
# 3 28.3806 21.6313 105.9171 0.0000 21.4241 0.0000
# 4 0.0000 0.0000 0.0000 16.5448 0.0000 -5.4627
# 5 18.7280 11.1920 21.4241 0.0000 34.3238 0.0000
# 6 0.0000 0.0000 0.0000 -5.4627 0.0000 30.0331
#
#
#
# Elastic Compliance Matrix: (Units=1/GPa)
#
#
# Indices 1 2 3 4 5 6 
#
# 1 0.015691 -0.006163 -0.001855 0.000000 -0.005394 0.000000
# 2 -0.006163 0.010487 -0.000548 0.000000 0.000285 0.000000
# 3 -0.001855 -0.000548 0.011227 0.000000 -0.005817 0.000000
# 4 0.000000 0.000000 0.000000 0.064304 0.000000 0.011696
# 5 -0.005394 0.000285 -0.005817 0.000000 0.035615 0.000000
# 6 0.000000 0.000000 0.000000 0.011696 0.000000 0.035424
#
#
# Mechanical properties :
#
#
# Convention : Reuss Voigt Hill
#
# Bulk Modulus (GPa) = 49.32552 60.75995 55.04273
# Shear Modulus (GPa) = 25.42757 31.14608 28.28682
#
# Velocity S-wave (km/s) = 3.40846 3.77231 3.59499
# Velocity P-wave (km/s) = 6.16656 6.83625 6.51002
#
# Compressibility (1/GPa) = 0.02027348
#
# Stress axis : x y z
#
# Youngs Moduli (GPa) = 63.73223 95.35400 89.07245
#
# Poissons Ratio (x) = 0.58765 0.16519
# Poissons Ratio (y) = 0.39277 0.04882
# Poissons Ratio (z) = 0.11820 0.05227
#
# Static dielectric constant tensor:
#      x y z
#    x 1.905990 0.000000 0.010920 
#    y 0.000000 1.887980 0.000000 
#    z 0.010920 0.000000 1.820150 
# 
# From -- ./inp_files/38056.got.cif
#   From: 2010.05.17/outbox.cif.g08.bks.cpg/sg14_20_cif.got.tgz:38056.got - 2010.06.03 17:49:19.
