data_PCOD9249642
_publ_section_title
;
Structure prediction by ZEFSAII (Michael W. Deem and Ramdas Pophale) SiO2 
 PCOD9249642
Probable space group: P 21/C
;
_chemical_formula_sum "Si O2"
_cell_formula_units_Z 24
_cell_length_a 12.720304
_cell_length_b 5.119672
_cell_length_c 24.764472
_cell_angle_alpha 90.000000
_cell_angle_beta 32.315121
_cell_angle_gamma 90.000000
_cell_volume 862.139762
_symmetry_space_group_name_H-M "P 21/C"
_symmetry_group_IT_number 14
_symmetry_cell_setting 'monoclinic'
loop_
_space_group_symop_operation_xyz
x,y,z
-x,1/2+y,1/2-z
-x,-y,-z
x,1/2-y,1/2+z
loop_
_atom_site_type_symbol
_atom_site_label
_atom_site_fract_x
_atom_site_fract_y
_atom_site_fract_z
Si Si1 0.328756 0.740940 0.042742
Si Si2 0.735477 0.226606 0.618467
Si Si3 0.239218 0.399880 0.486180
Si Si4 0.969479 0.441585 0.162278
Si Si5 0.267429 0.225801 0.813558
Si Si6 0.609880 0.334736 0.865603
O O1 0.141482 0.542131 0.127314
O O2 0.386985 0.812611 0.077890
O O3 0.506055 0.602477 0.931699
O O4 0.245914 0.967780 0.041847
O O5 0.820304 0.379448 0.530131
O O6 0.502814 0.235590 0.706669
O O7 0.771247 0.431695 0.651244
O O8 0.782931 0.934218 0.616784
O O9 0.093102 0.162740 0.557539
O O10 0.458390 0.280757 0.386954
O O11 0.832754 0.671137 0.197383
O O12 0.825782 0.223080 0.249291
#
# Coordination Sequence:
#
# PCOD9249642 Si02
#       6
#     4   4   4   4   4   4
#     4  10  25  43  69 100 136 184 233 286 360 420
#     4  10  23  42  70  98 140 185 236 291 358 430
#     4  11  24  42  69 100 134 182 230 286 355 424
#     4  11  25  41  68 104 135 177 236 286 355 417
#     4  10  23  43  68 102 136 188 236 290 360 423
#     4  10  23  47  66  97 142 181 226 296 347 426
#
# _framework density 27.837710999999999
#
# number of rings (size 3 to 8) (size 9 to 14) (size 15 to 20)
#    0.000    1.667    1.667    0.500    9.333    4.000 
#    0.000    0.000    0.000    0.000    0.000    0.000 
#    0.000    0.000    0.000    0.000    0.000    0.000 
#
# Total GULP energy -134467.299675 kJ/mol
# GULP energy per Si atom -5602.804153 kJ/mol
# Density = 2.777435 g / cm^3
# Si number density = 27.837711 Si / 1000 Ang^3
#
#
#
# Elastic Constant Matrix: (Units=GPa)
#
#
# Indices 1 2 3 4 5 6 
#
# 1 103.2469 14.2210 25.5460 0.0000 -1.9341 0.0000
# 2 14.2210 99.0265 11.5056 0.0000 6.5736 0.0000
# 3 25.5460 11.5056 109.7454 0.0000 -19.1155 0.0000
# 4 0.0000 0.0000 0.0000 29.6478 0.0000 3.4135
# 5 -1.9341 6.5736 -19.1155 0.0000 51.3173 0.0000
# 6 0.0000 0.0000 0.0000 3.4135 0.0000 48.3452
#
#
#
# Elastic Compliance Matrix: (Units=1/GPa)
#
#
# Indices 1 2 3 4 5 6 
#
# 1 0.010429 -0.001201 -0.002359 0.000000 -0.000332 0.000000
# 2 -0.001201 0.010524 -0.001140 0.000000 -0.001818 0.000000
# 3 -0.002359 -0.001140 0.010470 0.000000 0.003957 0.000000
# 4 0.000000 0.000000 0.000000 0.034006 0.000000 -0.002401
# 5 -0.000332 -0.001818 0.003957 0.000000 0.021181 0.000000
# 6 0.000000 0.000000 0.000000 -0.002401 0.000000 0.020854
#
#
# Mechanical properties :
#
#
# Convention : Reuss Voigt Hill
#
# Bulk Modulus (GPa) = 45.41270 46.06265 45.73768
# Shear Modulus (GPa) = 40.25573 43.24515 41.75044
#
# Velocity S-wave (km/s) = 3.80687 3.94569 3.87690
# Velocity P-wave (km/s) = 5.97259 6.11071 6.04204
#
# Compressibility (1/GPa) = 0.02202027
#
# Stress axis : x y z
#
# Youngs Moduli (GPa) = 95.89059 95.02056 95.51083
#
# Poissons Ratio (x) = 0.11416 0.22534
# Poissons Ratio (y) = 0.11521 0.10892
# Poissons Ratio (z) = 0.22624 0.10836
#
# Static dielectric constant tensor:
#      x y z
#    x 2.150610 0.000000 -0.038910 
#    y 0.000000 2.145790 0.000000 
#    z -0.038910 0.000000 2.181000 
# 
# From -- ./inp_files/77396.got.cif
#   From: 2010.05.17/outbox.cif.g08.bks.cpg/sg14_39_cif.got.tgz:77396.got - 2010.06.03 17:49:19.
