data_PCOD9249631
_publ_section_title
;
Structure prediction by ZEFSAII (Michael W. Deem and Ramdas Pophale) SiO2 
 PCOD9249631
Probable space group: P 21/C
;
_chemical_formula_sum "Si O2"
_cell_formula_units_Z 20
_cell_length_a 15.947203
_cell_length_b 4.997905
_cell_length_c 13.853998
_cell_angle_alpha 90.000000
_cell_angle_beta 47.818342
_cell_angle_gamma 90.000000
_cell_volume 818.233643
_symmetry_space_group_name_H-M "P 21/C"
_symmetry_group_IT_number 14
_symmetry_cell_setting 'monoclinic'
loop_
_space_group_symop_operation_xyz
x,y,z
-x,1/2+y,1/2-z
-x,-y,-z
x,1/2-y,1/2+z
loop_
_atom_site_type_symbol
_atom_site_label
_atom_site_fract_x
_atom_site_fract_y
_atom_site_fract_z
Si Si1 0.000458 0.687494 0.816736
Si Si2 0.541685 0.000539 0.772884
Si Si3 0.339492 0.126690 0.044663
Si Si4 0.764098 0.815409 0.080068
Si Si5 0.763760 0.140739 0.273781
O O1 0.016031 0.393872 0.759787
O O2 0.888862 0.699345 0.968600
O O3 0.109172 0.790550 0.790738
O O4 0.478577 0.723256 0.793410
O O5 0.670764 0.909590 0.675826
O O6 0.471947 0.121436 0.916157
O O7 0.305955 0.903385 0.146431
O O8 0.291949 0.406422 0.118984
O O9 0.275851 0.069219 0.992265
O O10 0.761799 0.031433 0.166748
#
# Coordination Sequence:
#
# PCOD9249631 Si02
#       5
#     4   4   4   4   4
#     4  12  24  45  70  98 139 184 225 289 346 401
#     4  10  23  42  70 102 137 186 226 279 347 407
#     4  11  24  45  67 100 145 173 230 284 339 410
#     4  11  25  45  72  98 143 180 231 285 339 413
#     4  12  25  43  71 104 133 186 229 279 349 410
#
# _framework density 24.442895
#
# number of rings (size 3 to 8) (size 9 to 14) (size 15 to 20)
#    0.000    0.800    4.000    3.000    0.000    8.000 
#    0.000    4.000    0.000    0.000    0.000    0.000 
#    0.000    0.000    0.000    0.000    0.000    0.000 
#
# Total GULP energy -112127.371643 kJ/mol
# GULP energy per Si atom -5606.368582 kJ/mol
# Density = 2.438726 g / cm^3
# Si number density = 24.442895 Si / 1000 Ang^3
#
#
#
# Elastic Constant Matrix: (Units=GPa)
#
#
# Indices 1 2 3 4 5 6 
#
# 1 102.0678 11.0046 51.0907 0.0000 -14.0852 0.0000
# 2 11.0046 66.5992 0.7720 0.0000 -19.5562 0.0000
# 3 51.0907 0.7720 130.5816 0.0000 -37.4170 0.0000
# 4 0.0000 0.0000 0.0000 21.0158 0.0000 -14.0049
# 5 -14.0852 -19.5562 -37.4170 0.0000 68.5726 0.0000
# 6 0.0000 0.0000 0.0000 -14.0049 0.0000 6.9965
#
#
#
# Elastic Compliance Matrix: (Units=1/GPa)
#
#
# Indices 1 2 3 4 5 6 
#
# 1 0.012484 -0.002260 -0.005122 0.000000 -0.000875 0.000000
# 2 -0.002260 0.017039 0.002422 0.000000 0.005717 0.000000
# 3 -0.005122 0.002422 0.011313 0.000000 0.005812 0.000000
# 4 0.000000 0.000000 0.000000 -0.142492 0.000000 -0.285226
# 5 -0.000875 0.005717 0.005812 0.000000 0.019205 0.000000
# 6 0.000000 0.000000 0.000000 -0.285226 0.000000 -0.428008
#
#
# Mechanical properties :
#
#
# Convention : Reuss Voigt Hill
#
# Bulk Modulus (GPa) = 32.34670 47.22035 39.78353
# Shear Modulus (GPa) = -10.19924 35.07574 12.43825
#
# Velocity S-wave (km/s) = -2.04493 3.79226 2.25826
# Velocity P-wave (km/s) = 2.77248 6.20770 4.80740
#
# Compressibility (1/GPa) = 0.03091506
#
# Stress axis : x y z
#
# Youngs Moduli (GPa) = 80.10160 58.68812 88.39439
#
# Poissons Ratio (x) = 0.13266 0.45275
# Poissons Ratio (y) = 0.18106 -0.21406
# Poissons Ratio (z) = 0.41027 -0.14212
#
# Static dielectric constant tensor:
#      x y z
#    x 1.997410 0.000000 0.006160 
#    y 0.000000 1.875920 0.000000 
#    z 0.006160 0.000000 1.920250 
# 
# From -- ./inp_files/49452.got.cif
#   From: 2010.05.17/outbox.cif.g08.bks.cpg/sg14_25_cif.got.tgz:49452.got - 2010.06.03 17:49:19.
