data_PCOD9249765
_publ_section_title
;
Structure prediction by ZEFSAII (Michael W. Deem and Ramdas Pophale) SiO2 
 PCOD9249765
Probable space group: P 21/C
;
_chemical_formula_sum "Si O2"
_cell_formula_units_Z 20
_cell_length_a 10.505986
_cell_length_b 10.890868
_cell_length_c 13.894153
_cell_angle_alpha 90.000000
_cell_angle_beta 150.636421
_cell_angle_gamma 90.000000
_cell_volume 779.538266
_symmetry_space_group_name_H-M "P 21/C"
_symmetry_group_IT_number 14
_symmetry_cell_setting 'monoclinic'
loop_
_space_group_symop_operation_xyz
x,y,z
-x,1/2+y,1/2-z
-x,-y,-z
x,1/2-y,1/2+z
loop_
_atom_site_type_symbol
_atom_site_label
_atom_site_fract_x
_atom_site_fract_y
_atom_site_fract_z
Si Si1 0.745440 0.025622 0.564115
Si Si2 0.351662 0.302175 0.889546
Si Si3 0.059913 0.826718 0.481866
Si Si4 0.745124 0.443802 0.384706
Si Si5 0.487784 0.923411 0.893830
O O1 0.627633 0.138953 0.546046
O O2 0.919870 0.085604 0.597630
O O3 0.824651 0.914728 0.686701
O O4 0.496151 0.970950 0.344623
O O5 0.228761 0.231299 0.716360
O O6 0.387411 0.206228 0.997463
O O7 0.225213 0.701512 0.579915
O O8 0.197862 0.896904 0.660764
O O9 0.656827 0.513013 0.422954
O O10 0.000000 0.500000 0.500000
O O11 0.500000 0.000000 0.000000
#
# Coordination Sequence:
#
# PCOD9249765 Si02
#       5
#     4   4   4   4   4
#     4  10  23  43  69 103 148 181 248 297 363 443
#     4  11  23  43  70 103 138 194 235 298 367 438
#     4  11  24  43  69 103 141 188 235 300 363 429
#     4  11  22  46  72 102 142 192 239 297 365 439
#     4  11  26  46  69 104 146 184 245 303 357 436
#
# _framework density 25.656213999999999
#
# number of rings (size 3 to 8) (size 9 to 14) (size 15 to 20)
#    0.000    1.200    4.000    1.200    2.800    0.800 
#    3.600    0.000    0.000    0.000    0.000    0.000 
#    0.000    0.000    0.000    0.000    0.000    0.000 
#
# Total GULP energy -111941.483721 kJ/mol
# GULP energy per Si atom -5597.074186 kJ/mol
# Density = 2.559782 g / cm^3
# Si number density = 25.656214 Si / 1000 Ang^3
#
#
#
# Elastic Constant Matrix: (Units=GPa)
#
#
# Indices 1 2 3 4 5 6 
#
# 1 118.5518 91.3782 44.3347 0.0000 -32.8428 0.0000
# 2 91.3782 141.3987 46.1800 0.0000 -3.3366 0.0000
# 3 44.3347 46.1800 126.5270 0.0000 -10.3414 0.0000
# 4 0.0000 0.0000 0.0000 55.3065 0.0000 -11.3498
# 5 -32.8428 -3.3366 -10.3414 0.0000 35.8250 0.0000
# 6 0.0000 0.0000 0.0000 -11.3498 0.0000 30.9167
#
#
#
# Elastic Compliance Matrix: (Units=1/GPa)
#
#
# Indices 1 2 3 4 5 6 
#
# 1 0.030522 -0.018519 -0.001833 0.000000 0.025728 0.000000
# 2 -0.018519 0.019266 -0.001827 0.000000 -0.015711 0.000000
# 3 -0.001833 -0.001827 0.009280 0.000000 0.000828 0.000000
# 4 0.000000 0.000000 0.000000 0.019554 0.000000 0.007178
# 5 0.025728 -0.015711 0.000828 0.000000 0.050275 0.000000
# 6 0.000000 0.000000 0.000000 0.007178 0.000000 0.034980
#
#
# Mechanical properties :
#
#
# Convention : Reuss Voigt Hill
#
# Bulk Modulus (GPa) = 67.97773 83.36259 75.67016
# Shear Modulus (GPa) = 23.45879 38.04861 30.75370
#
# Velocity S-wave (km/s) = 3.02710 3.85517 3.46596
# Velocity P-wave (km/s) = 6.22663 7.23735 6.75093
#
# Compressibility (1/GPa) = 0.01471070
#
# Stress axis : x y z
#
# Youngs Moduli (GPa) = 32.76285 51.90490 107.75680
#
# Poissons Ratio (x) = 0.96124 0.19752
# Poissons Ratio (y) = 0.60674 0.19684
# Poissons Ratio (z) = 0.06005 0.09482
#
# Static dielectric constant tensor:
#      x y z
#    x 1.989940 0.000000 0.021080 
#    y 0.000000 2.024040 0.000000 
#    z 0.021080 0.000000 2.123520 
# 
# From -- ./inp_files/44527.got.cif
#   From: 2010.05.17/outbox.cif.g08.bks.cpg/sg14_23_cif.got.tgz:44527.got - 2010.06.03 17:49:19.
