data_PCOD9249059
_publ_section_title
;
Structure prediction by ZEFSAII (Michael W. Deem and Ramdas Pophale) SiO2 
 PCOD9249059
Probable space group: P 21/C
;
_chemical_formula_sum "Si O2"
_cell_formula_units_Z 26
_cell_length_a 18.760874
_cell_length_b 5.564920
_cell_length_c 14.978081
_cell_angle_alpha 90.000000
_cell_angle_beta 133.801789
_cell_angle_gamma 90.000000
_cell_volume 1128.620955
_symmetry_space_group_name_H-M "P 21/C"
_symmetry_group_IT_number 14
_symmetry_cell_setting 'monoclinic'
loop_
_space_group_symop_operation_xyz
x,y,z
-x,1/2+y,1/2-z
-x,-y,-z
x,1/2-y,1/2+z
loop_
_atom_site_type_symbol
_atom_site_label
_atom_site_fract_x
_atom_site_fract_y
_atom_site_fract_z
Si Si1 0.812164 0.704590 0.800711
Si Si2 0.501093 0.044885 0.305900
Si Si3 0.964207 0.100059 0.336779
Si Si4 0.288449 0.075620 0.132962
Si Si5 0.000000 0.500000 0.500000
Si Si6 0.137899 0.720326 0.925426
Si Si7 0.706756 0.627157 0.036694
O O1 0.878793 0.478826 0.831274
O O2 0.756878 0.712590 0.846560
O O3 0.736161 0.762232 0.656154
O O4 0.891775 0.917503 0.870071
O O5 0.500028 0.814762 0.236831
O O6 0.603444 0.014752 0.447591
O O7 0.396127 0.012836 0.264327
O O8 0.014722 0.331920 0.422072
O O9 0.916230 0.123222 0.197986
O O10 0.049480 0.899264 0.404787
O O11 0.304425 0.163076 0.045881
O O12 0.211229 0.861033 0.054364
O O13 0.203995 0.533818 0.925610
#
# Coordination Sequence:
#
# PCOD9249059 Si02
#       7
#     4   4   4   4   2   4   4
#     4  12  25  44  69 106 143 193 246 302 373 450
#     4  10  22  45  77 108 144 197 254 317 389 457
#     4  12  27  44  70 101 147 194 247 306 369 459
#     4  11  25  45  74 104 145 191 249 308 379 456
#     4  12  26  46  60  98 146 186 240 306 362 444
#     4  12  24  46  71 101 142 199 243 296 377 453
#     4  11  23  46  73 101 147 189 242 314 378 449
#
# _framework density 23.036964999999999
#
# number of rings (size 3 to 8) (size 9 to 14) (size 15 to 20)
#    0.000    0.615    4.615    3.231    2.154    1.846 
#    0.000    0.000    0.000    5.538    0.000    0.000 
#    0.000    0.000    0.000    0.000    0.000    0.000 
#
# Total GULP energy -144947.844955 kJ/mol
# GULP energy per Si atom -5574.917114 kJ/mol
# Density = 2.298453 g / cm^3
# Si number density = 23.036965 Si / 1000 Ang^3
#
#
#
# Elastic Constant Matrix: (Units=GPa)
#
#
# Indices 1 2 3 4 5 6 
#
# 1 71.2292 18.5323 49.5586 0.0000 4.3551 0.0000
# 2 18.5323 54.6167 -0.1274 0.0000 1.1086 0.0000
# 3 49.5586 -0.1274 104.3007 0.0000 11.9581 0.0000
# 4 0.0000 0.0000 0.0000 29.1314 0.0000 3.1418
# 5 4.3551 1.1086 11.9581 0.0000 41.0544 0.0000
# 6 0.0000 0.0000 0.0000 3.1418 0.0000 34.3057
#
#
#
# Elastic Compliance Matrix: (Units=1/GPa)
#
#
# Indices 1 2 3 4 5 6 
#
# 1 0.024226 -0.008269 -0.011641 0.000000 0.001044 0.000000
# 2 -0.008269 0.021142 0.004055 0.000000 -0.000875 0.000000
# 3 -0.011641 0.004055 0.015513 0.000000 -0.003393 0.000000
# 4 0.000000 0.000000 0.000000 0.034670 0.000000 -0.003175
# 5 0.001044 -0.000875 -0.003393 0.000000 0.025259 0.000000
# 6 0.000000 0.000000 0.000000 -0.003175 0.000000 0.029440
#
#
# Mechanical properties :
#
#
# Convention : Reuss Voigt Hill
#
# Bulk Modulus (GPa) = 34.27921 40.67483 37.47702
# Shear Modulus (GPa) = 26.08477 31.71051 28.89764
#
# Velocity S-wave (km/s) = 3.36862 3.71415 3.54560
# Velocity P-wave (km/s) = 5.48110 6.00732 5.75024
#
# Compressibility (1/GPa) = 0.02917220
#
# Stress axis : x y z
#
# Youngs Moduli (GPa) = 41.27830 47.29854 64.46317
#
# Poissons Ratio (x) = 0.39109 0.75040
# Poissons Ratio (y) = 0.34131 -0.26139
# Poissons Ratio (z) = 0.48051 -0.19179
#
# Static dielectric constant tensor:
#      x y z
#    x 2.094210 0.000000 0.335910 
#    y 0.000000 1.948780 0.000000 
#    z 0.335910 0.000000 2.389660 
# 
# From -- ./inp_files/60906.got.cif
#   From: 2010.05.17/outbox.cif.g08.bks.cpg/sg14_31_cif.got.tgz:60906.got - 2010.06.03 17:49:19.
