data_PCOD9249269
_publ_section_title
;
Structure prediction by ZEFSAII (Michael W. Deem and Ramdas Pophale) SiO2 
 PCOD9249269
Probable space group: P 21/C
;
_chemical_formula_sum "Si O2"
_cell_formula_units_Z 24
_cell_length_a 8.492310
_cell_length_b 12.972903
_cell_length_c 8.472959
_cell_angle_alpha 90.000000
_cell_angle_beta 78.123200
_cell_angle_gamma 90.000000
_cell_volume 913.481915
_symmetry_space_group_name_H-M "P 21/C"
_symmetry_group_IT_number 14
_symmetry_cell_setting 'monoclinic'
loop_
_space_group_symop_operation_xyz
x,y,z
-x,1/2+y,1/2-z
-x,-y,-z
x,1/2-y,1/2+z
loop_
_atom_site_type_symbol
_atom_site_label
_atom_site_fract_x
_atom_site_fract_y
_atom_site_fract_z
Si Si1 0.045517 0.102915 0.074521
Si Si2 0.644658 0.813971 0.130098
Si Si3 0.502352 0.514774 0.305315
Si Si4 0.117125 0.815667 0.414809
Si Si5 0.169703 0.110853 0.369072
Si Si6 0.337528 0.697549 0.149816
O O1 0.230152 0.127994 0.004852
O O2 0.945037 0.199582 0.037009
O O3 0.038529 0.090776 0.261944
O O4 0.000000 0.000000 0.000000
O O5 0.751105 0.723104 0.181690
O O6 0.502969 0.754210 0.069821
O O7 0.567525 0.906368 0.245823
O O8 0.500000 0.500000 0.500000
O O9 0.679023 0.536103 0.192814
O O10 0.390156 0.609740 0.266440
O O11 0.224975 0.789706 0.241144
O O12 0.242912 0.847843 0.522427
O O13 0.947796 0.878874 0.453131
#
# Coordination Sequence:
#
# PCOD9249269 Si02
#       6
#     4   4   4   4   4   4
#     4  11  22  41  71  99 127 179 234 273 321 419
#     4  10  23  39  66  95 132 170 225 287 330 380
#     4  11  21  41  70  98 125 179 242 273 315 421
#     4  11  23  42  64  99 139 174 217 283 341 399
#     4  10  23  39  64 100 136 164 229 283 338 379
#     4  11  24  41  70  99 134 179 230 277 342 401
#
# _framework density 26.273098000000001
#
# number of rings (size 3 to 8) (size 9 to 14) (size 15 to 20)
#    0.000    1.333    3.333    2.000    4.667    0.000 
#    0.000    1.667    0.000    0.000    0.000    0.000 
#    0.000    0.000    0.000    0.000    0.000    0.000 
#
# Total GULP energy -134046.508898 kJ/mol
# GULP energy per Si atom -5585.271204 kJ/mol
# Density = 2.621330 g / cm^3
# Si number density = 26.273098 Si / 1000 Ang^3
#
#
#
# Elastic Constant Matrix: (Units=GPa)
#
#
# Indices 1 2 3 4 5 6 
#
# 1 107.9249 31.7477 48.5997 0.0000 -33.8188 0.0000
# 2 31.7477 130.4643 30.6436 0.0000 -9.4408 0.0000
# 3 48.5997 30.6436 74.4705 0.0000 -27.0424 0.0000
# 4 0.0000 0.0000 0.0000 37.8505 0.0000 -14.8231
# 5 -33.8188 -9.4408 -27.0424 0.0000 28.8760 0.0000
# 6 0.0000 0.0000 0.0000 -14.8231 0.0000 32.4179
#
#
#
# Elastic Compliance Matrix: (Units=1/GPa)
#
#
# Indices 1 2 3 4 5 6 
#
# 1 0.016391 -0.001835 -0.004832 0.000000 0.014071 0.000000
# 2 -0.001835 0.008701 -0.003228 0.000000 -0.002328 0.000000
# 3 -0.004832 -0.003228 0.023444 0.000000 0.015241 0.000000
# 4 0.000000 0.000000 0.000000 0.032183 0.000000 0.014716
# 5 0.014071 -0.002328 0.015241 0.000000 0.064623 0.000000
# 6 0.000000 0.000000 0.000000 0.014716 0.000000 0.037576
#
#
# Mechanical properties :
#
#
# Convention : Reuss Voigt Hill
#
# Bulk Modulus (GPa) = 34.78731 59.42684 47.10708
# Shear Modulus (GPa) = 23.55269 33.28681 28.41975
#
# Velocity S-wave (km/s) = 2.99734 3.56329 3.29250
# Velocity P-wave (km/s) = 5.02475 6.29265 5.69410
#
# Compressibility (1/GPa) = 0.02874612
#
# Stress axis : x y z
#
# Youngs Moduli (GPa) = 61.01010 114.92514 42.65475
#
# Poissons Ratio (x) = 0.21094 0.20609
# Poissons Ratio (y) = 0.11198 0.13769
# Poissons Ratio (z) = 0.29478 0.37097
#
# Static dielectric constant tensor:
#      x y z
#    x 2.066800 0.000000 -0.007440 
#    y 0.000000 2.068700 0.000000 
#    z -0.007440 0.000000 2.326590 
# 
# From -- ./inp_files/24093.got.cif
#   From: 2010.05.17/outbox.cif.g08.bks.cpg/sg14_13_cif.got.tgz:24093.got - 2010.06.03 17:49:19.
