data_PCOD9249244
_publ_section_title
;
Structure prediction by ZEFSAII (Michael W. Deem and Ramdas Pophale) SiO2 
 PCOD9249244
Probable space group: P 21/C
;
_chemical_formula_sum "Si O2"
_cell_formula_units_Z 28
_cell_length_a 6.356566
_cell_length_b 15.199342
_cell_length_c 16.736493
_cell_angle_alpha 90.000000
_cell_angle_beta 122.788946
_cell_angle_gamma 90.000000
_cell_volume 1359.370764
_symmetry_space_group_name_H-M "P 21/C"
_symmetry_group_IT_number 14
_symmetry_cell_setting 'monoclinic'
loop_
_space_group_symop_operation_xyz
x,y,z
-x,1/2+y,1/2-z
-x,-y,-z
x,1/2-y,1/2+z
loop_
_atom_site_type_symbol
_atom_site_label
_atom_site_fract_x
_atom_site_fract_y
_atom_site_fract_z
Si Si1 0.600176 0.357980 0.172599
Si Si2 0.709849 0.299976 0.369067
Si Si3 0.779159 0.488823 0.892957
Si Si4 0.638361 0.852300 0.654624
Si Si5 0.573996 0.578597 0.573294
Si Si6 0.262557 0.253089 0.985487
Si Si7 0.996696 0.501955 0.228801
O O1 0.731262 0.324226 0.280236
O O2 0.371492 0.421044 0.149799
O O3 0.795138 0.424154 0.169291
O O4 0.468314 0.283148 0.092640
O O5 0.470504 0.234637 0.326046
O O6 0.638341 0.382681 0.410523
O O7 0.971330 0.256077 0.451013
O O8 0.594376 0.417946 0.892365
O O9 0.878123 0.464458 0.826455
O O10 0.000000 0.500000 0.000000
O O11 0.716353 0.823349 0.582088
O O12 0.856333 0.912837 0.736922
O O13 0.500000 0.500000 0.500000
O O14 0.661327 0.660014 0.536847
O O15 0.798382 0.541400 0.673020
#
# Coordination Sequence:
#
# PCOD9249244 Si02
#       7
#     4   4   4   4   4   4   4
#     4  11  23  40  68  94 133 179 217 289 344 387
#     4  11  23  45  65  97 138 175 232 273 335 415
#     4  11  21  38  65  98 130 170 221 278 345 402
#     4  10  23  38  65  97 131 171 225 277 339 399
#     4  11  26  46  66  96 138 184 228 274 336 413
#     4  11  24  44  65 100 135 177 229 283 336 409
#     4  11  22  43  66  96 139 173 226 283 342 403
#
# _framework density 20.597767000000001
#
# number of rings (size 3 to 8) (size 9 to 14) (size 15 to 20)
#    0.000    1.143    2.857    3.429    0.000    7.429 
#    0.000    0.000    0.000    0.000    0.000    0.000 
#    0.000    0.000    0.000    0.000    0.000    0.000 
#
# Total GULP energy -156338.193122 kJ/mol
# GULP energy per Si atom -5583.506897 kJ/mol
# Density = 2.055089 g / cm^3
# Si number density = 20.597767 Si / 1000 Ang^3
#
#
#
# Elastic Constant Matrix: (Units=GPa)
#
#
# Indices 1 2 3 4 5 6 
#
# 1 97.0062 41.5060 34.8308 0.0000 9.0003 0.0000
# 2 41.5060 104.2509 48.6503 0.0000 -3.1128 0.0000
# 3 34.8308 48.6503 80.3678 0.0000 8.3328 0.0000
# 4 0.0000 0.0000 0.0000 39.6196 0.0000 -1.2671
# 5 9.0003 -3.1128 8.3328 0.0000 20.1983 0.0000
# 6 0.0000 0.0000 0.0000 -1.2671 0.0000 37.3300
#
#
#
# Elastic Compliance Matrix: (Units=1/GPa)
#
#
# Indices 1 2 3 4 5 6 
#
# 1 0.013663 -0.004345 -0.002706 0.000000 -0.005641 0.000000
# 2 -0.004345 0.015396 -0.008235 0.000000 0.007706 0.000000
# 3 -0.002706 -0.008235 0.019439 0.000000 -0.008083 0.000000
# 4 0.000000 0.000000 0.000000 0.025267 0.000000 0.000858
# 5 -0.005641 0.007706 -0.008083 0.000000 0.056545 0.000000
# 6 0.000000 0.000000 0.000000 0.000858 0.000000 0.026817
#
#
# Mechanical properties :
#
#
# Convention : Reuss Voigt Hill
#
# Bulk Modulus (GPa) = 55.79186 59.06658 57.42922
# Shear Modulus (GPa) = 25.81636 29.87208 27.84422
#
# Velocity S-wave (km/s) = 3.54412 3.81236 3.68068
# Velocity P-wave (km/s) = 6.62517 6.93666 6.78270
#
# Compressibility (1/GPa) = 0.01792376
#
# Stress axis : x y z
#
# Youngs Moduli (GPa) = 73.19099 64.95367 51.44315
#
# Poissons Ratio (x) = 0.28224 0.13921
# Poissons Ratio (y) = 0.31804 0.42366
# Poissons Ratio (z) = 0.19806 0.53492
#
# Static dielectric constant tensor:
#      x y z
#    x 1.763350 0.000000 -0.000080 
#    y 0.000000 1.754210 0.000000 
#    z -0.000080 0.000000 1.733870 
# 
# From -- ./inp_files/53365.got.cif
#   From: 2010.05.17/outbox.cif.g08.bks.cpg/sg14_27_cif.got.tgz:53365.got - 2010.06.03 17:49:19.
