data_PCOD9249957
_publ_section_title
;
Structure prediction by ZEFSAII (Michael W. Deem and Ramdas Pophale) SiO2 
 PCOD9249957
Probable space group: P 21/C
;
_chemical_formula_sum "Si O2"
_cell_formula_units_Z 32
_cell_length_a 9.710409
_cell_length_b 14.001596
_cell_length_c 11.180614
_cell_angle_alpha 90.000000
_cell_angle_beta 89.999705
_cell_angle_gamma 90.000000
_cell_volume 1520.129962
_symmetry_space_group_name_H-M "P 21/C"
_symmetry_group_IT_number 14
_symmetry_cell_setting 'monoclinic'
loop_
_space_group_symop_operation_xyz
x,y,z
-x,1/2+y,1/2-z
-x,-y,-z
x,1/2-y,1/2+z
loop_
_atom_site_type_symbol
_atom_site_label
_atom_site_fract_x
_atom_site_fract_y
_atom_site_fract_z
Si Si1 0.092746 0.521590 0.114945
Si Si2 0.015620 0.163268 0.758663
Si Si3 0.674803 0.680620 0.704029
Si Si4 0.871479 0.066104 0.967279
Si Si5 0.484380 0.836736 0.758659
Si Si6 0.628521 0.566104 0.467277
Si Si7 0.592745 0.521596 0.885055
Si Si8 0.825194 0.180617 0.204033
O O1 0.043537 0.442504 0.209876
O O2 0.250000 0.499994 0.080685
O O3 0.103452 0.622203 0.186081
O O4 0.000000 0.500000 0.000000
O O5 0.167632 0.207887 0.768872
O O6 0.928906 0.147336 0.879514
O O7 0.920390 0.229056 0.676651
O O8 0.579611 0.770949 0.676645
O O9 0.682843 0.611897 0.589733
O O10 0.603445 0.622208 0.813915
O O11 0.750000 0.000001 0.914184
O O12 0.817155 0.111894 0.089736
O O13 0.000000 0.000000 0.000000
O O14 0.571095 0.852666 0.879509
O O15 0.456457 0.942507 0.709875
O O16 0.332370 0.792114 0.768869
O O17 0.500000 0.500000 0.500000
O O18 0.500000 0.500000 0.000000
#
# Coordination Sequence:
#
# PCOD9249957 Si02
#       8
#     4   4   4   4   4   4   4   4
#     4  10  23  45  63  90 133 172 213 267 324 390
#     4  11  26  43  68 100 133 175 221 276 336 396
#     4  11  25  44  66  99 135 170 225 277 331 400
#     4  12  23  46  73  96 132 178 229 283 334 399
#     4  11  26  43  68 100 133 175 221 276 336 396
#     4  12  23  46  73  96 132 178 229 283 334 399
#     4  10  23  45  63  90 133 172 213 267 324 390
#     4  11  25  44  66  99 135 170 225 277 331 400
#
# _framework density 21.050832
#
# number of rings (size 3 to 8) (size 9 to 14) (size 15 to 20)
#    0.000    1.000    5.000    0.750    7.000    3.000 
#    0.000    0.000    0.000    0.000    0.000    0.000 
#    0.000    0.000    0.000    0.000    0.000    0.000 
#
# Total GULP energy -178683.409477 kJ/mol
# GULP energy per Si atom -5583.856546 kJ/mol
# Density = 2.100292 g / cm^3
# Si number density = 21.050832 Si / 1000 Ang^3
#
#
#
# Elastic Constant Matrix: (Units=GPa)
#
#
# Indices 1 2 3 4 5 6 
#
# 1 111.4991 41.2100 17.6761 0.0000 0.0003 0.0000
# 2 41.2100 57.0168 -8.9378 0.0000 0.0022 0.0000
# 3 17.6761 -8.9378 63.4462 0.0000 0.0008 0.0000
# 4 0.0000 0.0000 0.0000 9.1672 0.0000 -0.0006
# 5 0.0003 0.0022 0.0008 0.0000 23.8465 0.0000
# 6 0.0000 0.0000 0.0000 -0.0006 0.0000 39.4584
#
#
#
# Elastic Compliance Matrix: (Units=1/GPa)
#
#
# Indices 1 2 3 4 5 6 
#
# 1 0.013827 -0.010837 -0.005379 0.000000 0.000001 0.000000
# 2 -0.010837 0.026428 0.006742 0.000000 -0.000002 0.000000
# 3 -0.005379 0.006742 0.018210 0.000000 -0.000001 0.000000
# 4 0.000000 0.000000 0.000000 0.109084 0.000000 0.000002
# 5 0.000001 -0.000002 -0.000001 0.000000 0.041935 0.000000
# 6 0.000000 0.000000 0.000000 0.000002 0.000000 0.025343
#
#
# Mechanical properties :
#
#
# Convention : Reuss Voigt Hill
#
# Bulk Modulus (GPa) = 25.30512 36.87319 31.08916
# Shear Modulus (GPa) = 18.73041 26.62866 22.67953
#
# Velocity S-wave (km/s) = 2.98614 3.56050 3.28589
# Velocity P-wave (km/s) = 4.89249 5.87002 5.40341
#
# Compressibility (1/GPa) = 0.03951769
#
# Stress axis : x y z
#
# Youngs Moduli (GPa) = 72.32456 37.83878 54.91601
#
# Poissons Ratio (x) = 0.41004 0.29537
# Poissons Ratio (y) = 0.78375 -0.37024
# Poissons Ratio (z) = 0.38901 -0.25511
#
# Static dielectric constant tensor:
#      x y z
#    x 1.756140 0.000000 0.000000 
#    y 0.000000 1.887410 0.000000 
#    z 0.000000 0.000000 1.816280 
# 
# From -- ./inp_files/25526.got.cif
#   From: 2010.05.17/outbox.cif.g08.bks.cpg/sg14_13_cif.got.tgz:25526.got - 2010.06.03 17:49:19.
