data_PCOD9249424
_publ_section_title
;
Structure prediction by ZEFSAII (Michael W. Deem and Ramdas Pophale) SiO2 
 PCOD9249424
Probable space group: P 21/C
;
_chemical_formula_sum "Si O2"
_cell_formula_units_Z 32
_cell_length_a 11.595436
_cell_length_b 11.400151
_cell_length_c 23.395449
_cell_angle_alpha 90.000000
_cell_angle_beta 148.050411
_cell_angle_gamma 90.000000
_cell_volume 1636.540202
_symmetry_space_group_name_H-M "P 21/C"
_symmetry_group_IT_number 14
_symmetry_cell_setting 'monoclinic'
loop_
_space_group_symop_operation_xyz
x,y,z
-x,1/2+y,1/2-z
-x,-y,-z
x,1/2-y,1/2+z
loop_
_atom_site_type_symbol
_atom_site_label
_atom_site_fract_x
_atom_site_fract_y
_atom_site_fract_z
Si Si1 0.567104 0.357287 0.200766
Si Si2 0.107699 0.802408 0.078843
Si Si3 0.094355 0.436932 0.690941
Si Si4 0.670710 0.677003 0.467895
Si Si5 0.290366 0.564055 0.562848
Si Si6 0.121832 0.394534 0.082991
Si Si7 0.263140 0.061042 0.889454
Si Si8 0.727431 0.825826 0.230131
O O1 0.702215 0.267841 0.297969
O O2 0.723253 0.465246 0.248447
O O3 0.482858 0.285079 0.110917
O O4 0.355592 0.389197 0.149360
O O5 0.198266 0.921070 0.087750
O O6 0.895572 0.811558 0.028262
O O7 0.030094 0.716610 0.996535
O O8 0.196770 0.308823 0.741014
O O9 0.914336 0.428983 0.565138
O O10 0.941872 0.479524 0.679456
O O11 0.586626 0.555066 0.404289
O O12 0.726929 0.661117 0.557588
O O13 0.467266 0.665951 0.630199
O O14 0.164804 0.389312 0.169060
O O15 0.000000 0.500000 0.000000
O O16 0.233108 0.110698 0.813684
O O17 0.500000 0.000000 0.000000
#
# Coordination Sequence:
#
# PCOD9249424 Si02
#       8
#     4   4   4   4   4   4   4   4
#     4  11  24  41  69  99 135 179 216 280 347 400
#     4  11  21  39  67  98 133 176 223 273 345 412
#     4  11  25  45  69 100 135 180 237 278 340 411
#     4  10  23  41  65  99 131 169 232 279 327 405
#     4  11  21  41  69  95 130 177 227 278 334 420
#     4  11  27  41  63 108 143 168 218 287 346 409
#     4  11  23  47  68  95 129 181 237 276 327 407
#     4  12  25  44  71  99 134 186 220 287 344 395
#
# _framework density 19.553445
#
# number of rings (size 3 to 8) (size 9 to 14) (size 15 to 20)
#    0.000    1.000    7.500    0.375    3.500    1.000 
#    4.500    0.625    0.000    0.000    0.000    0.000 
#    0.000    0.000    0.000    0.000    0.000    0.000 
#
# Total GULP energy -178351.903580 kJ/mol
# GULP energy per Si atom -5573.496987 kJ/mol
# Density = 1.950894 g / cm^3
# Si number density = 19.553445 Si / 1000 Ang^3
#
#
#
# Elastic Constant Matrix: (Units=GPa)
#
#
# Indices 1 2 3 4 5 6 
#
# 1 122.8266 56.7602 61.8016 0.0000 -12.8484 0.0000
# 2 56.7602 95.0484 74.1540 0.0000 -2.9513 0.0000
# 3 61.8016 74.1540 121.8726 0.0000 -3.1157 0.0000
# 4 0.0000 0.0000 0.0000 37.5590 0.0000 0.7566
# 5 -12.8484 -2.9513 -3.1157 0.0000 40.8057 0.0000
# 6 0.0000 0.0000 0.0000 0.7566 0.0000 23.9331
#
#
#
# Elastic Compliance Matrix: (Units=1/GPa)
#
#
# Indices 1 2 3 4 5 6 
#
# 1 0.012310 -0.004653 -0.003327 0.000000 0.003285 0.000000
# 2 -0.004653 0.021799 -0.010922 0.000000 -0.000723 0.000000
# 3 -0.003327 -0.010922 0.016523 0.000000 -0.000576 0.000000
# 4 0.000000 0.000000 0.000000 0.026642 0.000000 -0.000842
# 5 0.003285 -0.000723 -0.000576 0.000000 0.025445 0.000000
# 6 0.000000 0.000000 0.000000 -0.000842 0.000000 0.041810
#
#
# Mechanical properties :
#
#
# Convention : Reuss Voigt Hill
#
# Bulk Modulus (GPa) = 77.96309 80.57547 79.26928
# Shear Modulus (GPa) = 26.79417 30.26168 28.52792
#
# Velocity S-wave (km/s) = 3.70578 3.93827 3.82379
# Velocity P-wave (km/s) = 7.63340 7.87256 7.75390
#
# Compressibility (1/GPa) = 0.01282658
#
# Stress axis : x y z
#
# Youngs Moduli (GPa) = 81.23766 45.87455 60.52092
#
# Poissons Ratio (x) = 0.21348 0.20134
# Poissons Ratio (y) = 0.37804 0.66102
# Poissons Ratio (z) = 0.27026 0.50105
#
# Static dielectric constant tensor:
#      x y z
#    x 1.730270 0.000000 -0.000170 
#    y 0.000000 1.771890 0.000000 
#    z -0.000170 0.000000 1.692160 
# 
# From -- ./inp_files/73320.got.cif
#   From: 2010.05.17/outbox.cif.g08.bks.cpg/sg14_37_cif.got.tgz:73320.got - 2010.06.03 17:49:19.
