data_PCOD9249802
_publ_section_title
;
Structure prediction by ZEFSAII (Michael W. Deem and Ramdas Pophale) SiO2 
 PCOD9249802
Probable space group: P 21/C
;
_chemical_formula_sum "Si O2"
_cell_formula_units_Z 22
_cell_length_a 13.295131
_cell_length_b 7.985429
_cell_length_c 9.018075
_cell_angle_alpha 90.000000
_cell_angle_beta 53.639168
_cell_angle_gamma 90.000000
_cell_volume 771.013576
_symmetry_space_group_name_H-M "P 21/C"
_symmetry_group_IT_number 14
_symmetry_cell_setting 'monoclinic'
loop_
_space_group_symop_operation_xyz
x,y,z
-x,1/2+y,1/2-z
-x,-y,-z
x,1/2-y,1/2+z
loop_
_atom_site_type_symbol
_atom_site_label
_atom_site_fract_x
_atom_site_fract_y
_atom_site_fract_z
Si Si1 0.622040 0.787165 0.752151
Si Si2 0.127257 0.302088 0.159410
Si Si3 0.000000 0.000000 0.500000
Si Si4 0.692095 0.473073 0.869559
Si Si5 0.780328 0.478819 0.298781
Si Si6 0.645757 0.235444 0.146753
O O1 0.741948 0.761189 0.540500
O O2 0.614431 0.614593 0.852946
O O3 0.661175 0.924817 0.839546
O O4 0.494062 0.814020 0.778882
O O5 0.169554 0.447036 0.237498
O O6 0.108588 0.127495 0.269518
O O7 0.031273 0.363924 0.122975
O O8 0.136706 0.903718 0.404548
O O9 0.666553 0.303878 0.799820
O O10 0.658208 0.418114 0.064853
O O11 0.744797 0.381897 0.475114
#
# Coordination Sequence:
#
# PCOD9249802 Si02
#       6
#     4   4   2   4   4   4
#     4  10  23  43  72 101 146 189 232 294 367 443
#     4  10  23  47  73  99 144 186 249 298 369 427
#     4  10  24  46  72  98 138 190 240 306 364 418
#     4  11  27  43  67 111 149 192 236 302 365 450
#     4  10  23  45  70 103 136 189 240 299 355 433
#     4  12  26  41  71 107 149 186 239 292 371 439
#
# _framework density 28.533866
#
# number of rings (size 3 to 8) (size 9 to 14) (size 15 to 20)
#    0.000    1.455    1.818    1.091   12.727    1.455 
#    0.000    0.909    0.000    0.000    0.000    0.000 
#    0.000    0.000    0.000    0.000    0.000    0.000 
#
# Total GULP energy -122873.359877 kJ/mol
# GULP energy per Si atom -5585.152722 kJ/mol
# Density = 2.846892 g / cm^3
# Si number density = 28.533866 Si / 1000 Ang^3
#
#
#
# Elastic Constant Matrix: (Units=GPa)
#
#
# Indices 1 2 3 4 5 6 
#
# 1 154.2588 28.2345 33.9422 0.0000 19.3482 0.0000
# 2 28.2345 103.1198 23.9773 0.0000 7.3733 0.0000
# 3 33.9422 23.9773 93.3793 0.0000 -3.1242 0.0000
# 4 0.0000 0.0000 0.0000 53.7250 0.0000 9.9676
# 5 19.3482 7.3733 -3.1242 0.0000 56.9210 0.0000
# 6 0.0000 0.0000 0.0000 9.9676 0.0000 66.6116
#
#
#
# Elastic Compliance Matrix: (Units=1/GPa)
#
#
# Indices 1 2 3 4 5 6 
#
# 1 0.007595 -0.001314 -0.002509 0.000000 -0.002549 0.000000
# 2 -0.001314 0.010667 -0.002297 0.000000 -0.001061 0.000000
# 3 -0.002509 -0.002297 0.012272 0.000000 0.001824 0.000000
# 4 0.000000 0.000000 0.000000 0.019145 0.000000 -0.002865
# 5 -0.002549 -0.001061 0.001824 0.000000 0.018672 0.000000
# 6 0.000000 0.000000 0.000000 -0.002865 0.000000 0.015441
#
#
# Mechanical properties :
#
#
# Convention : Reuss Voigt Hill
#
# Bulk Modulus (GPa) = 54.66030 58.11841 56.38936
# Shear Modulus (GPa) = 48.95782 53.09178 51.02480
#
# Velocity S-wave (km/s) = 4.14669 4.31821 4.23332
# Velocity P-wave (km/s) = 6.49035 6.72868 6.61059
#
# Compressibility (1/GPa) = 0.01829481
#
# Stress axis : x y z
#
# Youngs Moduli (GPa) = 131.66941 93.74552 81.48880
#
# Poissons Ratio (x) = 0.12318 0.20441
# Poissons Ratio (y) = 0.17300 0.18718
# Poissons Ratio (z) = 0.33029 0.21533
#
# Static dielectric constant tensor:
#      x y z
#    x 2.179750 0.000000 -0.124230 
#    y 0.000000 2.569250 0.000000 
#    z -0.124230 0.000000 2.786850 
# 
# From -- ./inp_files/31310.got.cif
#   From: 2010.05.17/outbox.cif.g08.bks.cpg/sg14_16_cif.got.tgz:31310.got - 2010.06.03 17:49:19.
