data_PCOD9249540
_publ_section_title
;
Structure prediction by ZEFSAII (Michael W. Deem and Ramdas Pophale) SiO2 
 PCOD9249540
Probable space group: P 21/C
;
_chemical_formula_sum "Si O2"
_cell_formula_units_Z 28
_cell_length_a 13.019047
_cell_length_b 8.785924
_cell_length_c 12.479146
_cell_angle_alpha 90.000000
_cell_angle_beta 129.044476
_cell_angle_gamma 90.000000
_cell_volume 1108.615342
_symmetry_space_group_name_H-M "P 21/C"
_symmetry_group_IT_number 14
_symmetry_cell_setting 'monoclinic'
loop_
_space_group_symop_operation_xyz
x,y,z
-x,1/2+y,1/2-z
-x,-y,-z
x,1/2-y,1/2+z
loop_
_atom_site_type_symbol
_atom_site_label
_atom_site_fract_x
_atom_site_fract_y
_atom_site_fract_z
Si Si1 0.037765 0.956791 0.648324
Si Si2 0.502645 0.432428 0.382562
Si Si3 0.635203 0.799385 0.852636
Si Si4 0.755646 0.544004 0.040028
Si Si5 0.092230 0.455391 0.408163
Si Si6 0.743188 0.275352 0.446610
Si Si7 0.192472 0.842473 0.229567
O O1 0.080692 0.073989 0.771478
O O2 0.902227 0.891937 0.611945
O O3 0.153637 0.832760 0.723342
O O4 0.000000 0.000000 0.500000
O O5 0.500000 0.500000 0.500000
O O6 0.394546 0.308992 0.269481
O O7 0.528200 0.574143 0.316861
O O8 0.635963 0.334178 0.458451
O O9 0.648731 0.672853 0.954709
O O10 0.778887 0.880443 0.951623
O O11 0.746381 0.452882 0.143262
O O12 0.751473 0.404177 0.953990
O O13 0.120653 0.637256 0.437467
O O14 0.956734 0.409933 0.375898
O O15 0.712168 0.334479 0.308409
#
# Coordination Sequence:
#
# PCOD9249540 Si02
#       7
#     4   4   4   4   4   4   4
#     4  11  21  38  67 105 153 197 237 293 373 470
#     4  11  28  52  78 107 147 195 265 330 382 449
#     4  11  25  49  75 108 141 197 257 313 391 453
#     4  11  23  39  69 103 149 193 243 304 381 458
#     4  10  23  42  65 106 152 190 245 300 383 459
#     4  11  23  43  68 103 144 194 248 318 382 448
#     4  11  22  40  67 108 151 193 244 305 375 468
#
# _framework density 25.256732
#
# number of rings (size 3 to 8) (size 9 to 14) (size 15 to 20)
#    0.000    1.143    4.286    1.286    0.000    6.857 
#    2.571    2.143    0.000    0.000    0.000    0.000 
#    0.000    0.000    0.000    0.000    0.000    0.000 
#
# Total GULP energy -156222.849960 kJ/mol
# GULP energy per Si atom -5579.387499 kJ/mol
# Density = 2.519925 g / cm^3
# Si number density = 25.256732 Si / 1000 Ang^3
#
#
#
# Elastic Constant Matrix: (Units=GPa)
#
#
# Indices 1 2 3 4 5 6 
#
# 1 57.1223 14.4386 7.4666 0.0000 2.9635 0.0000
# 2 14.4386 122.0894 27.5060 0.0000 12.8869 0.0000
# 3 7.4666 27.5060 87.2189 0.0000 9.8096 0.0000
# 4 0.0000 0.0000 0.0000 52.0903 0.0000 14.2251
# 5 2.9635 12.8869 9.8096 0.0000 35.7043 0.0000
# 6 0.0000 0.0000 0.0000 14.2251 0.0000 33.2806
#
#
#
# Elastic Compliance Matrix: (Units=1/GPa)
#
#
# Indices 1 2 3 4 5 6 
#
# 1 0.018129 -0.001881 -0.000893 0.000000 -0.000580 0.000000
# 2 -0.001881 0.009233 -0.002470 0.000000 -0.002498 0.000000
# 3 -0.000893 -0.002470 0.012602 0.000000 -0.002497 0.000000
# 4 0.000000 0.000000 0.000000 0.021734 0.000000 -0.009290
# 5 -0.000580 -0.002498 -0.002497 0.000000 0.029644 0.000000
# 6 0.000000 0.000000 0.000000 -0.009290 0.000000 0.034018
#
#
# Mechanical properties :
#
#
# Convention : Reuss Voigt Hill
#
# Bulk Modulus (GPa) = 33.92785 40.58366 37.25575
# Shear Modulus (GPa) = 34.32322 38.68301 36.50311
#
# Velocity S-wave (km/s) = 3.69042 3.91780 3.80581
# Velocity P-wave (km/s) = 5.62328 6.04722 5.83910
#
# Compressibility (1/GPa) = 0.02947431
#
# Stress axis : x y z
#
# Youngs Moduli (GPa) = 55.16110 108.30329 79.35495
#
# Poissons Ratio (x) = 0.20377 0.07089
# Poissons Ratio (y) = 0.10378 0.19600
# Poissons Ratio (z) = 0.04928 0.26750
#
# Static dielectric constant tensor:
#      x y z
#    x 1.944450 0.000000 -0.002030 
#    y 0.000000 2.076350 0.000000 
#    z -0.002030 0.000000 2.155900 
# 
# From -- ./inp_files/31901.got.cif
#   From: 2010.05.17/outbox.cif.g08.bks.cpg/sg14_16_cif.got.tgz:31901.got - 2010.06.03 17:49:19.
