data_PCOD9249100
_publ_section_title
;
Structure prediction by ZEFSAII (Michael W. Deem and Ramdas Pophale) SiO2 
 PCOD9249100
Probable space group: P 21/C
;
_chemical_formula_sum "Si O2"
_cell_formula_units_Z 28
_cell_length_a 5.671210
_cell_length_b 8.612359
_cell_length_c 28.488755
_cell_angle_alpha 90.000000
_cell_angle_beta 117.268287
_cell_angle_gamma 90.000000
_cell_volume 1236.830085
_symmetry_space_group_name_H-M "P 21/C"
_symmetry_group_IT_number 14
_symmetry_cell_setting 'monoclinic'
loop_
_space_group_symop_operation_xyz
x,y,z
-x,1/2+y,1/2-z
-x,-y,-z
x,1/2-y,1/2+z
loop_
_atom_site_type_symbol
_atom_site_label
_atom_site_fract_x
_atom_site_fract_y
_atom_site_fract_z
Si Si1 0.646996 0.841395 0.631200
Si Si2 0.574997 0.321922 0.798715
Si Si3 0.033329 0.348712 0.398593
Si Si4 0.901109 0.343580 0.968374
Si Si5 0.370843 0.188943 0.684661
Si Si6 0.724451 0.377401 0.536278
Si Si7 0.244971 0.814115 0.371290
O O1 0.676887 0.815930 0.689202
O O2 0.724159 0.681034 0.613961
O O3 0.351802 0.877425 0.587206
O O4 0.788121 0.998702 0.627982
O O5 0.521603 0.267522 0.741787
O O6 0.640402 0.503842 0.806892
O O7 0.787545 0.210706 0.844749
O O8 0.035626 0.516784 0.421280
O O9 0.091267 0.234844 0.447760
O O10 0.822686 0.223929 0.001756
O O11 0.000000 0.500000 0.000000
O O12 0.549899 0.212845 0.653602
O O13 0.062269 0.242927 0.659262
O O14 0.500000 0.500000 0.500000
O O15 0.639564 0.264039 0.571055
#
# Coordination Sequence:
#
# PCOD9249100 Si02
#       7
#     4   4   4   4   4   4   4
#     4  10  22  46  69 100 140 184 240 296 361 442
#     4  10  25  44  71 103 141 185 239 300 367 432
#     4  11  23  44  67 101 143 180 238 301 355 432
#     4  11  25  42  73  99 137 196 240 295 364 439
#     4  11  26  47  73 104 141 190 242 301 368 436
#     4  12  27  44  68 108 147 192 244 305 370 433
#     4  11  27  46  71 105 145 191 245 296 365 448
#
# _framework density 22.638517
#
# number of rings (size 3 to 8) (size 9 to 14) (size 15 to 20)
#    0.000    1.143    2.857    1.286   10.000    3.429 
#    0.000    0.000    0.000    0.000    0.000    0.000 
#    0.000    0.000    0.000    0.000    0.000    0.000 
#
# Total GULP energy -156205.327673 kJ/mol
# GULP energy per Si atom -5578.761703 kJ/mol
# Density = 2.258699 g / cm^3
# Si number density = 22.638517 Si / 1000 Ang^3
#
#
#
# Elastic Constant Matrix: (Units=GPa)
#
#
# Indices 1 2 3 4 5 6 
#
# 1 75.8225 23.4081 42.1102 0.0000 -8.2357 0.0000
# 2 23.4081 39.9277 19.5286 0.0000 -21.1930 0.0000
# 3 42.1102 19.5286 100.2223 0.0000 -24.8141 0.0000
# 4 0.0000 0.0000 0.0000 40.4291 0.0000 -5.5202
# 5 -8.2357 -21.1930 -24.8141 0.0000 37.0703 0.0000
# 6 0.0000 0.0000 0.0000 -5.5202 0.0000 28.9459
#
#
#
# Elastic Compliance Matrix: (Units=1/GPa)
#
#
# Indices 1 2 3 4 5 6 
#
# 1 0.020734 -0.012349 -0.008286 0.000000 -0.008000 0.000000
# 2 -0.012349 0.043758 0.002609 0.000000 0.024020 0.000000
# 3 -0.008286 0.002609 0.015420 0.000000 0.009973 0.000000
# 4 0.000000 0.000000 0.000000 0.025396 0.000000 0.004843
# 5 -0.008000 0.024020 0.009973 0.000000 0.045606 0.000000
# 6 0.000000 0.000000 0.000000 0.004843 0.000000 0.035471
#
#
# Mechanical properties :
#
#
# Convention : Reuss Voigt Hill
#
# Bulk Modulus (GPa) = 22.79984 42.89627 32.84805
# Shear Modulus (GPa) = 21.09186 30.01743 25.55465
#
# Velocity S-wave (km/s) = 3.05566 3.64530 3.36343
# Velocity P-wave (km/s) = 4.74789 6.05864 5.44287
#
# Compressibility (1/GPa) = 0.04385996
#
# Stress axis : x y z
#
# Youngs Moduli (GPa) = 48.22921 22.85288 64.84993
#
# Poissons Ratio (x) = 0.28222 0.53737
# Poissons Ratio (y) = 0.59560 -0.16922
# Poissons Ratio (z) = 0.39965 -0.05963
#
# Static dielectric constant tensor:
#      x y z
#    x 1.978620 0.000000 0.033980 
#    y 0.000000 1.849710 0.000000 
#    z 0.033980 0.000000 1.816070 
# 
# From -- ./inp_files/78869.got.cif
#   From: 2010.05.17/outbox.cif.g08.bks.cpg/sg14_40_cif.got.tgz:78869.got - 2010.06.03 17:49:19.
