data_PCOD9249538
_publ_section_title
;
Structure prediction by ZEFSAII (Michael W. Deem and Ramdas Pophale) SiO2 
 PCOD9249538
Probable space group: P 21/C
;
_chemical_formula_sum "Si O2"
_cell_formula_units_Z 26
_cell_length_a 11.325602
_cell_length_b 8.849843
_cell_length_c 10.808007
_cell_angle_alpha 90.000000
_cell_angle_beta 78.637393
_cell_angle_gamma 90.000000
_cell_volume 1062.051962
_symmetry_space_group_name_H-M "P 21/C"
_symmetry_group_IT_number 14
_symmetry_cell_setting 'monoclinic'
loop_
_space_group_symop_operation_xyz
x,y,z
-x,1/2+y,1/2-z
-x,-y,-z
x,1/2-y,1/2+z
loop_
_atom_site_type_symbol
_atom_site_label
_atom_site_fract_x
_atom_site_fract_y
_atom_site_fract_z
Si Si1 0.272467 0.518272 0.735238
Si Si2 0.500000 0.500000 0.500000
Si Si3 0.343525 0.294612 0.516494
Si Si4 0.723001 0.505413 0.843718
Si Si5 0.656138 0.297774 0.648108
Si Si6 0.140368 0.768007 0.071134
Si Si7 0.855703 0.726411 0.628169
O O1 0.358489 0.433493 0.615968
O O2 0.345241 0.622612 0.813517
O O3 0.184334 0.624422 0.673867
O O4 0.199161 0.386637 0.816769
O O5 0.439457 0.370509 0.408855
O O6 0.572594 0.354240 0.556124
O O7 0.353474 0.128494 0.565252
O O8 0.211071 0.308461 0.486907
O O9 0.645336 0.396231 0.773626
O O10 0.806742 0.397546 0.909274
O O11 0.809048 0.607783 0.739162
O O12 0.792300 0.321037 0.566580
O O13 0.997959 0.769847 0.088280
#
# Coordination Sequence:
#
# PCOD9249538 Si02
#       7
#     4   2   4   4   4   4   4
#     4  10  23  42  65 100 133 178 221 273 340 407
#     4  12  24  48  68  92 128 178 224 290 322 392
#     4  11  24  44  67  95 135 174 229 272 338 397
#     4  10  23  42  65 100 133 178 221 273 340 407
#     4  11  24  44  67  95 135 174 229 272 338 397
#     4  11  22  41  68 102 140 177 222 281 338 407
#     4  11  22  41  68 102 140 177 222 281 338 407
#
# _framework density 24.480913000000001
#
# number of rings (size 3 to 8) (size 9 to 14) (size 15 to 20)
#    0.000    1.231    3.077    1.846    0.000   11.077 
#    0.000    3.077    0.000    0.000    0.000    0.000 
#    0.000    0.000    0.000    0.000    0.000    0.000 
#
# Total GULP energy -145208.658470 kJ/mol
# GULP energy per Si atom -5584.948403 kJ/mol
# Density = 2.442519 g / cm^3
# Si number density = 24.480913 Si / 1000 Ang^3
#
#
#
# Elastic Constant Matrix: (Units=GPa)
#
#
# Indices 1 2 3 4 5 6 
#
# 1 131.8906 52.8152 25.6712 0.0000 -0.1783 0.0000
# 2 52.8152 178.1339 36.4955 0.0000 6.6604 0.0000
# 3 25.6712 36.4955 52.7665 0.0000 3.6550 0.0000
# 4 0.0000 0.0000 0.0000 67.2253 0.0000 1.9292
# 5 -0.1783 6.6604 3.6550 0.0000 28.2794 0.0000
# 6 0.0000 0.0000 0.0000 1.9292 0.0000 34.1651
#
#
#
# Elastic Compliance Matrix: (Units=1/GPa)
#
#
# Indices 1 2 3 4 5 6 
#
# 1 0.009004 -0.002090 -0.003000 0.000000 0.000937 0.000000
# 2 -0.002090 0.007052 -0.003778 0.000000 -0.001186 0.000000
# 3 -0.003000 -0.003778 0.023171 0.000000 -0.002124 0.000000
# 4 0.000000 0.000000 0.000000 0.014899 0.000000 -0.000841
# 5 0.000937 -0.001186 -0.002124 0.000000 0.035921 0.000000
# 6 0.000000 0.000000 0.000000 -0.000841 0.000000 0.029317
#
#
# Mechanical properties :
#
#
# Convention : Reuss Voigt Hill
#
# Bulk Modulus (GPa) = 46.53195 65.86165 56.19680
# Shear Modulus (GPa) = 34.65835 42.45456 38.55646
#
# Velocity S-wave (km/s) = 3.76670 4.16888 3.97288
# Velocity P-wave (km/s) = 6.16166 7.08057 6.63704
#
# Compressibility (1/GPa) = 0.02149061
#
# Stress axis : x y z
#
# Youngs Moduli (GPa) = 111.05961 141.80596 43.15685
#
# Poissons Ratio (x) = 0.29639 0.12947
# Poissons Ratio (y) = 0.23212 0.16306
# Poissons Ratio (z) = 0.33317 0.53580
#
# Static dielectric constant tensor:
#      x y z
#    x 1.975680 0.000000 -0.060420 
#    y 0.000000 1.974740 0.000000 
#    z -0.060420 0.000000 2.035350 
# 
# From -- ./inp_files/12450.got.cif
#   From: 2010.05.17/outbox.cif.g08.bks.cpg/sg14_7_cif.got.tgz:12450.got - 2010.06.03 17:49:19.
