data_PCOD9249216
_publ_section_title
;
Structure prediction by ZEFSAII (Michael W. Deem and Ramdas Pophale) SiO2 
 PCOD9249216
Probable space group: P 21/C
;
_chemical_formula_sum "Si O2"
_cell_formula_units_Z 24
_cell_length_a 10.714272
_cell_length_b 5.629802
_cell_length_c 22.080023
_cell_angle_alpha 90.000000
_cell_angle_beta 128.249493
_cell_angle_gamma 90.000000
_cell_volume 1045.931638
_symmetry_space_group_name_H-M "P 21/C"
_symmetry_group_IT_number 14
_symmetry_cell_setting 'monoclinic'
loop_
_space_group_symop_operation_xyz
x,y,z
-x,1/2+y,1/2-z
-x,-y,-z
x,1/2-y,1/2+z
loop_
_atom_site_type_symbol
_atom_site_label
_atom_site_fract_x
_atom_site_fract_y
_atom_site_fract_z
Si Si1 0.508291 0.919803 0.876346
Si Si2 0.959761 0.017838 0.767778
Si Si3 0.649986 0.401174 0.804296
Si Si4 0.977906 0.146523 0.903509
Si Si5 0.589485 0.910930 0.655419
Si Si6 0.160133 0.276445 0.562233
O O1 0.419796 0.911320 0.783905
O O2 0.473200 0.657583 0.892184
O O3 0.696626 0.935040 0.922442
O O4 0.445081 0.160314 0.887912
O O5 0.035736 0.103337 0.853806
O O6 0.963710 0.267184 0.731208
O O7 0.776029 0.943563 0.720982
O O8 0.791514 0.210950 0.844917
O O9 0.508179 0.379940 0.810447
O O10 0.746864 0.619880 0.861267
O O11 0.976119 0.902379 0.939901
O O12 0.075424 0.323902 0.976178
#
# Coordination Sequence:
#
# PCOD9249216 Si02
#       6
#     4   4   4   4   4   4
#     4  11  20  35  63  97 133 163 210 270 340 400
#     4  12  27  46  67  95 136 191 233 271 318 413
#     4  11  20  35  66 100 130 168 211 287 343 393
#     4  11  22  42  63 103 136 174 218 283 354 399
#     4  11  21  38  63  94 122 165 226 272 324 383
#     4  10  23  36  65 106 140 164 208 294 368 393
#
# _framework density 22.946048999999999
#
# number of rings (size 3 to 8) (size 9 to 14) (size 15 to 20)
#    0.000    1.000    3.333    5.500    2.333    0.000 
#    0.000    0.000    0.000   14.000    0.000    0.000 
#    0.000    0.000    0.000    0.000    0.000    0.000 
#
# Total GULP energy -133717.875131 kJ/mol
# GULP energy per Si atom -5571.578130 kJ/mol
# Density = 2.289382 g / cm^3
# Si number density = 22.946049 Si / 1000 Ang^3
#
#
#
# Elastic Constant Matrix: (Units=GPa)
#
#
# Indices 1 2 3 4 5 6 
#
# 1 44.2107 21.4982 29.0254 0.0000 8.0351 0.0000
# 2 21.4982 153.5694 15.7370 0.0000 -1.6954 0.0000
# 3 29.0254 15.7370 83.2462 0.0000 16.5761 0.0000
# 4 0.0000 0.0000 0.0000 20.4724 0.0000 11.0618
# 5 8.0351 -1.6954 16.5761 0.0000 27.0882 0.0000
# 6 0.0000 0.0000 0.0000 11.0618 0.0000 29.2637
#
#
#
# Elastic Compliance Matrix: (Units=1/GPa)
#
#
# Indices 1 2 3 4 5 6 
#
# 1 0.031188 -0.003433 -0.009498 0.000000 -0.003654 0.000000
# 2 -0.003433 0.007062 -0.000488 0.000000 0.001759 0.000000
# 3 -0.009498 -0.000488 0.016924 0.000000 -0.007569 0.000000
# 4 0.000000 0.000000 0.000000 0.061383 0.000000 -0.023203
# 5 -0.003654 0.001759 -0.007569 0.000000 0.042742 0.000000
# 6 0.000000 0.000000 0.000000 -0.023203 0.000000 0.042943
#
#
# Mechanical properties :
#
#
# Convention : Reuss Voigt Hill
#
# Bulk Modulus (GPa) = 35.29158 45.94974 40.62066
# Shear Modulus (GPa) = 20.96216 29.68258 25.32237
#
# Velocity S-wave (km/s) = 3.02576 3.60054 3.32559
# Velocity P-wave (km/s) = 5.25553 6.11177 5.69975
#
# Compressibility (1/GPa) = 0.02833537
#
# Stress axis : x y z
#
# Youngs Moduli (GPa) = 32.06367 141.60767 59.08900
#
# Poissons Ratio (x) = 0.48615 0.56121
# Poissons Ratio (y) = 0.11008 0.02885
# Poissons Ratio (z) = 0.30453 0.06914
#
# Static dielectric constant tensor:
#      x y z
#    x 1.862010 0.000000 0.017870 
#    y 0.000000 2.052750 0.000000 
#    z 0.017870 0.000000 1.920280 
# 
# From -- ./inp_files/72680.got.cif
#   From: 2010.05.17/outbox.cif.g08.bks.cpg/sg14_37_cif.got.tgz:72680.got - 2010.06.03 17:49:19.
