data_PCOD9249184
_publ_section_title
;
Structure prediction by ZEFSAII (Michael W. Deem and Ramdas Pophale) SiO2 
 PCOD9249184
Probable space group: P 21/C
;
_chemical_formula_sum "Si O2"
_cell_formula_units_Z 22
_cell_length_a 9.775400
_cell_length_b 7.538829
_cell_length_c 12.674340
_cell_angle_alpha 90.000000
_cell_angle_beta 117.746703
_cell_angle_gamma 90.000000
_cell_volume 826.635657
_symmetry_space_group_name_H-M "P 21/C"
_symmetry_group_IT_number 14
_symmetry_cell_setting 'monoclinic'
loop_
_space_group_symop_operation_xyz
x,y,z
-x,1/2+y,1/2-z
-x,-y,-z
x,1/2-y,1/2+z
loop_
_atom_site_type_symbol
_atom_site_label
_atom_site_fract_x
_atom_site_fract_y
_atom_site_fract_z
Si Si1 0.626285 0.194309 0.571380
Si Si2 0.000000 0.500000 0.000000
Si Si3 0.372497 0.185011 0.122732
Si Si4 0.166015 0.017672 0.894574
Si Si5 0.322843 0.570416 0.145006
Si Si6 0.137194 0.084661 0.312570
O O1 0.455228 0.230999 0.549242
O O2 0.723881 0.373667 0.619897
O O3 0.626060 0.143465 0.449949
O O4 0.715428 0.036367 0.663151
O O5 0.920906 0.514325 0.092581
O O6 0.145116 0.629322 0.092770
O O7 0.296990 0.357014 0.147875
O O8 0.523313 0.111031 0.233667
O O9 0.241568 0.052821 0.036153
O O10 0.165686 0.207735 0.837343
O O11 0.994470 0.944172 0.821665
#
# Coordination Sequence:
#
# PCOD9249184 Si02
#       6
#     4   2   4   4   4   4
#     4  11  24  46  71 103 139 187 239 297 362 430
#     4  10  22  48  66  96 152 184 228 302 342 434
#     4  12  25  45  71 107 147 185 242 301 362 426
#     4  12  23  44  70 103 136 188 238 291 361 425
#     4  11  25  45  72 106 148 186 238 298 355 435
#     4  11  24  43  71  99 141 189 243 290 362 432
#
# _framework density 26.613900999999998
#
# number of rings (size 3 to 8) (size 9 to 14) (size 15 to 20)
#    0.000    0.727    5.455    3.273    0.000    1.455 
#    0.000    3.636    0.000    0.000    0.000    0.000 
#    0.000    0.000    0.000    0.000    0.000    0.000 
#
# Total GULP energy -122663.182352 kJ/mol
# GULP energy per Si atom -5575.599198 kJ/mol
# Density = 2.655333 g / cm^3
# Si number density = 26.613901 Si / 1000 Ang^3
#
#
#
# Elastic Constant Matrix: (Units=GPa)
#
#
# Indices 1 2 3 4 5 6 
#
# 1 82.2758 -8.3915 36.1602 0.0000 1.2189 0.0000
# 2 -8.3915 135.6839 24.3483 0.0000 19.2631 0.0000
# 3 36.1602 24.3483 167.1303 0.0000 35.9390 0.0000
# 4 0.0000 0.0000 0.0000 32.6702 0.0000 2.0405
# 5 1.2189 19.2631 35.9390 0.0000 26.7428 0.0000
# 6 0.0000 0.0000 0.0000 2.0405 0.0000 -12.7972
#
#
#
# Elastic Compliance Matrix: (Units=1/GPa)
#
#
# Indices 1 2 3 4 5 6 
#
# 1 0.013976 0.001012 -0.004047 0.000000 0.004072 0.000000
# 2 0.001012 0.008284 -0.000187 0.000000 -0.005762 0.000000
# 3 -0.004047 -0.000187 0.009588 0.000000 -0.012567 0.000000
# 4 0.000000 0.000000 0.000000 0.030307 0.000000 0.004833
# 5 0.004072 -0.005762 -0.012567 0.000000 0.058246 0.000000
# 6 0.000000 0.000000 0.000000 0.004833 0.000000 -0.077371
#
#
# Mechanical properties :
#
#
# Convention : Reuss Voigt Hill
#
# Bulk Modulus (GPa) = 39.36121 54.36931 46.86526
# Shear Modulus (GPa) = 86.29320 31.52137 58.90728
#
# Velocity S-wave (km/s) = 5.70039 3.44524 4.70979
# Velocity P-wave (km/s) = 7.62547 6.02490 6.87195
#
# Compressibility (1/GPa) = 0.02540572
#
# Stress axis : x y z
#
# Youngs Moduli (GPa) = 71.55216 120.71036 104.29202
#
# Poissons Ratio (x) = -0.12221 0.42207
# Poissons Ratio (y) = -0.07244 0.01949
# Poissons Ratio (z) = 0.28957 0.02255
#
# Static dielectric constant tensor:
#      x y z
#    x 2.113540 0.000000 0.017060 
#    y 0.000000 2.506320 0.000000 
#    z 0.017060 0.000000 2.291680 
# 
# From -- ./inp_files/43261.got.cif
#   From: 2010.05.17/outbox.cif.g08.bks.cpg/sg14_22_cif.got.tgz:43261.got - 2010.06.03 17:49:19.
