data_PCOD9249163
_publ_section_title
;
Structure prediction by ZEFSAII (Michael W. Deem and Ramdas Pophale) SiO2 
 PCOD9249163
Probable space group: P 21/C
;
_chemical_formula_sum "Si O2"
_cell_formula_units_Z 28
_cell_length_a 22.576790
_cell_length_b 7.636744
_cell_length_c 16.402745
_cell_angle_alpha 90.000000
_cell_angle_beta 152.022872
_cell_angle_gamma 90.000000
_cell_volume 1326.691778
_symmetry_space_group_name_H-M "P 21/C"
_symmetry_group_IT_number 14
_symmetry_cell_setting 'monoclinic'
loop_
_space_group_symop_operation_xyz
x,y,z
-x,1/2+y,1/2-z
-x,-y,-z
x,1/2-y,1/2+z
loop_
_atom_site_type_symbol
_atom_site_label
_atom_site_fract_x
_atom_site_fract_y
_atom_site_fract_z
Si Si1 0.929119 0.366553 0.972008
Si Si2 0.951512 0.986005 0.824997
Si Si3 0.572247 0.958502 0.503617
Si Si4 0.669860 0.171297 0.864290
Si Si5 0.180008 0.482825 0.000820
Si Si6 0.728173 0.260218 0.112495
Si Si7 0.776787 0.872072 0.873130
O O1 0.002970 0.183082 0.069849
O O2 0.910895 0.445111 0.039161
O O3 0.790569 0.339011 0.764325
O O4 0.000000 0.500000 0.000000
O O5 0.902138 0.927327 0.676605
O O6 0.837553 0.099737 0.722177
O O7 0.074863 0.105255 0.962174
O O8 0.478741 0.841188 0.336502
O O9 0.702985 0.884019 0.697867
O O10 0.500000 0.000000 0.500000
O O11 0.607350 0.131632 0.495755
O O12 0.727472 0.359137 0.910758
O O13 0.735069 0.026432 0.884839
O O14 0.699363 0.149611 0.996187
O O15 0.251085 0.313603 0.120515
#
# Coordination Sequence:
#
# PCOD9249163 Si02
#       7
#     4   4   4   4   4   4   4
#     4  12  24  37  64 108 143 174 226 280 343 429
#     4  11  23  42  68  97 145 177 219 284 360 413
#     4  10  22  47  70  90 132 186 232 281 346 396
#     4  10  24  47  68  94 138 180 234 284 333 414
#     4  11  24  41  67 103 130 181 230 269 346 420
#     4  11  24  44  69 102 139 181 232 292 351 409
#     4  11  22  42  73  96 134 183 219 284 349 411
#
# _framework density 21.105129999999999
#
# number of rings (size 3 to 8) (size 9 to 14) (size 15 to 20)
#    0.000    1.143    2.857    3.000    8.000    0.571 
#   12.857    0.000    0.000    0.000    0.000    0.000 
#    0.000    0.000    0.000    0.000    0.000    0.000 
#
# Total GULP energy -156517.437544 kJ/mol
# GULP energy per Si atom -5589.908484 kJ/mol
# Density = 2.105709 g / cm^3
# Si number density = 21.105130 Si / 1000 Ang^3
#
#
#
# Elastic Constant Matrix: (Units=GPa)
#
#
# Indices 1 2 3 4 5 6 
#
# 1 70.4616 1.0117 22.2311 0.0000 -7.1772 0.0000
# 2 1.0117 74.3488 12.8471 0.0000 -0.2800 0.0000
# 3 22.2311 12.8471 97.5187 0.0000 -13.4378 0.0000
# 4 0.0000 0.0000 0.0000 28.6455 0.0000 -4.5962
# 5 -7.1772 -0.2800 -13.4378 0.0000 35.1891 0.0000
# 6 0.0000 0.0000 0.0000 -4.5962 0.0000 24.5580
#
#
#
# Elastic Compliance Matrix: (Units=1/GPa)
#
#
# Indices 1 2 3 4 5 6 
#
# 1 0.015421 0.000368 -0.003304 0.000000 0.001887 0.000000
# 2 0.000368 0.013785 -0.001979 0.000000 -0.000571 0.000000
# 3 -0.003304 -0.001979 0.011794 0.000000 0.003814 0.000000
# 4 0.000000 0.000000 0.000000 0.035990 0.000000 0.006736
# 5 0.001887 -0.000571 0.003814 0.000000 0.030255 0.000000
# 6 0.000000 0.000000 0.000000 0.006736 0.000000 0.041981
#
#
# Mechanical properties :
#
#
# Convention : Reuss Voigt Hill
#
# Bulk Modulus (GPa) = 32.08096 34.94545 33.51320
# Shear Modulus (GPa) = 29.50807 31.42781 30.46794
#
# Velocity S-wave (km/s) = 3.74324 3.86308 3.80363
# Velocity P-wave (km/s) = 5.82374 6.04083 5.93328
#
# Compressibility (1/GPa) = 0.03117114
#
# Stress axis : x y z
#
# Youngs Moduli (GPa) = 64.84465 72.54340 84.78948
#
# Poissons Ratio (x) = -0.02671 0.28016
# Poissons Ratio (y) = -0.02388 0.16777
# Poissons Ratio (z) = 0.21426 0.14354
#
# Static dielectric constant tensor:
#      x y z
#    x 1.781500 0.000000 -0.011680 
#    y 0.000000 1.778480 0.000000 
#    z -0.011680 0.000000 1.787770 
# 
# From -- ./inp_files/50279.got.cif
#   From: 2010.05.17/outbox.cif.g08.bks.cpg/sg14_26_cif.got.tgz:50279.got - 2010.06.03 17:49:19.
