data_PCOD9249529
_publ_section_title
;
Structure prediction by ZEFSAII (Michael W. Deem and Ramdas Pophale) SiO2 
 PCOD9249529
Probable space group: P 21/C
;
_chemical_formula_sum "Si O2"
_cell_formula_units_Z 32
_cell_length_a 22.196490
_cell_length_b 11.268091
_cell_length_c 13.014949
_cell_angle_alpha 90.000000
_cell_angle_beta 151.496582
_cell_angle_gamma 90.000000
_cell_volume 1553.415859
_symmetry_space_group_name_H-M "P 21/C"
_symmetry_group_IT_number 14
_symmetry_cell_setting 'monoclinic'
loop_
_space_group_symop_operation_xyz
x,y,z
-x,1/2+y,1/2-z
-x,-y,-z
x,1/2-y,1/2+z
loop_
_atom_site_type_symbol
_atom_site_label
_atom_site_fract_x
_atom_site_fract_y
_atom_site_fract_z
Si Si1 0.520361 0.192708 0.133078
Si Si2 0.279462 0.879151 0.394482
Si Si3 0.395707 0.434647 0.912053
Si Si4 0.747795 0.914679 0.281717
Si Si5 0.067597 0.125695 0.614396
Si Si6 0.848647 0.818516 0.034011
Si Si7 0.252185 0.689937 0.176377
Si Si8 0.068035 0.824150 0.220023
O O1 0.608947 0.154567 0.359539
O O2 0.609118 0.199206 0.165925
O O3 0.461346 0.321963 0.063289
O O4 0.401536 0.107199 0.936936
O O5 0.247173 0.769434 0.270311
O O6 0.158358 0.905763 0.285498
O O7 0.330194 0.982468 0.397872
O O8 0.284444 0.384701 0.673430
O O9 0.500000 0.500000 0.000000
O O10 0.799660 0.883102 0.246651
O O11 0.818903 0.819289 0.461545
O O12 0.776712 0.051322 0.348044
O O13 0.089614 0.163267 0.763606
O O14 0.983199 0.221443 0.429658
O O15 0.000000 0.000000 0.500000
O O16 0.944537 0.872234 0.092789
O O17 0.154923 0.729365 0.941634
#
# Coordination Sequence:
#
# PCOD9249529 Si02
#       8
#     4   4   4   4   4   4   4   4
#     4  10  24  42  63  98 131 172 221 266 335 399
#     4  11  24  39  70  95 131 177 215 281 322 400
#     4  11  24  44  66  98 132 174 219 270 334 387
#     4  10  23  42  64  95 129 174 218 268 335 393
#     4  11  23  41  70  93 127 177 220 272 327 397
#     4  10  24  44  65  93 136 171 217 278 326 396
#     4  11  22  43  66  97 133 170 218 278 327 392
#     4  10  23  44  60 102 127 167 228 260 340 383
#
# _framework density 20.599765000000001
#
# number of rings (size 3 to 8) (size 9 to 14) (size 15 to 20)
#    0.000    1.500    1.250    2.625    5.250    0.500 
#   15.750    0.000    0.000    0.000    0.000    0.000 
#    0.000    0.000    0.000    0.000    0.000    0.000 
#
# Total GULP energy -178836.532395 kJ/mol
# GULP energy per Si atom -5588.641637 kJ/mol
# Density = 2.055288 g / cm^3
# Si number density = 20.599765 Si / 1000 Ang^3
#
#
#
# Elastic Constant Matrix: (Units=GPa)
#
#
# Indices 1 2 3 4 5 6 
#
# 1 120.3562 30.8008 44.0542 0.0000 2.4566 0.0000
# 2 30.8008 81.9361 30.6143 0.0000 -10.8334 0.0000
# 3 44.0542 30.6143 80.1698 0.0000 1.3482 0.0000
# 4 0.0000 0.0000 0.0000 9.7398 0.0000 6.3966
# 5 2.4566 -10.8334 1.3482 0.0000 44.2304 0.0000
# 6 0.0000 0.0000 0.0000 6.3966 0.0000 27.6476
#
#
#
# Elastic Compliance Matrix: (Units=1/GPa)
#
#
# Indices 1 2 3 4 5 6 
#
# 1 0.010753 -0.002303 -0.005013 0.000000 -0.001008 0.000000
# 2 -0.002303 0.015345 -0.004662 0.000000 0.004028 0.000000
# 3 -0.005013 -0.004662 0.017032 0.000000 -0.001383 0.000000
# 4 0.000000 0.000000 0.000000 0.121067 0.000000 -0.028010
# 5 -0.001008 0.004028 -0.001383 0.000000 0.023694 0.000000
# 6 0.000000 0.000000 0.000000 -0.028010 0.000000 0.042650
#
#
# Mechanical properties :
#
#
# Convention : Reuss Voigt Hill
#
# Bulk Modulus (GPa) = 52.15216 54.82231 53.48724
# Shear Modulus (GPa) = 19.16536 28.12310 23.64423
#
# Velocity S-wave (km/s) = 3.05350 3.69889 3.39158
# Velocity P-wave (km/s) = 6.14847 6.70173 6.43105
#
# Compressibility (1/GPa) = 0.01917466
#
# Stress axis : x y z
#
# Youngs Moduli (GPa) = 92.99381 65.16866 58.71411
#
# Poissons Ratio (x) = 0.15006 0.29432
# Poissons Ratio (y) = 0.21414 0.27373
# Poissons Ratio (z) = 0.46616 0.30382
#
# Static dielectric constant tensor:
#      x y z
#    x 1.736760 0.000000 0.056320 
#    y 0.000000 1.725270 0.000000 
#    z 0.056320 0.000000 1.659450 
# 
# From -- ./inp_files/35296.got.cif
#   From: 2010.05.17/outbox.cif.g08.bks.cpg/sg14_18_cif.got.tgz:35296.got - 2010.06.03 17:49:19.
