data_PCOD9249313
_publ_section_title
;
Structure prediction by ZEFSAII (Michael W. Deem and Ramdas Pophale) SiO2 
 PCOD9249313
Probable space group: P 21/C
;
_chemical_formula_sum "Si O2"
_cell_formula_units_Z 26
_cell_length_a 15.999702
_cell_length_b 4.809498
_cell_length_c 13.435540
_cell_angle_alpha 90.000000
_cell_angle_beta 89.552769
_cell_angle_gamma 90.000000
_cell_volume 1033.840492
_symmetry_space_group_name_H-M "P 21/C"
_symmetry_group_IT_number 14
_symmetry_cell_setting 'monoclinic'
loop_
_space_group_symop_operation_xyz
x,y,z
-x,1/2+y,1/2-z
-x,-y,-z
x,1/2-y,1/2+z
loop_
_atom_site_type_symbol
_atom_site_label
_atom_site_fract_x
_atom_site_fract_y
_atom_site_fract_z
Si Si1 0.931787 0.047269 0.648901
Si Si2 0.500000 0.000000 0.000000
Si Si3 0.723821 0.265423 0.285092
Si Si4 0.230134 0.855359 0.438380
Si Si5 0.105038 0.456912 0.216350
Si Si6 0.462903 0.621022 0.196600
Si Si7 0.694264 0.854591 0.966367
O O1 0.864477 0.032993 0.562223
O O2 0.898524 0.854133 0.740632
O O3 0.030285 0.994433 0.638261
O O4 0.923403 0.361593 0.687960
O O5 0.487128 0.762708 0.092525
O O6 0.400596 0.074250 0.006723
O O7 0.736096 0.377939 0.173733
O O8 0.805001 0.079854 0.309980
O O9 0.636366 0.102115 0.290724
O O10 0.713767 0.525369 0.358119
O O11 0.287375 0.036973 0.509663
O O12 0.242659 0.535107 0.465857
O O13 0.503819 0.320672 0.214217
#
# Coordination Sequence:
#
# PCOD9249313 Si02
#       7
#     4   2   4   4   4   4   4
#     4   9  18  34  59  86 117 156 196 240 299 352
#     4  10  24  42  60  86 124 156 196 254 296 352
#     4  10  23  40  63  88 121 158 200 248 296 354
#     4  11  22  40  61  87 120 156 197 248 296 353
#     4   9  18  34  58  87 116 156 198 240 296 354
#     4  11  24  40  62  89 118 159 202 244 300 355
#     4  11  25  39  61  90 118 157 203 243 300 356
#
# _framework density 25.148949000000002
#
# number of rings (size 3 to 8) (size 9 to 14) (size 15 to 20)
#    0.000    1.846    0.000    3.692    0.000   12.308 
#    0.000    1.538    0.000    0.000    0.000    0.000 
#    0.000    0.000    0.000    0.000    0.000    0.000 
#
# Total GULP energy -145083.570656 kJ/mol
# GULP energy per Si atom -5580.137333 kJ/mol
# Density = 2.509171 g / cm^3
# Si number density = 25.148949 Si / 1000 Ang^3
#
#
#
# Elastic Constant Matrix: (Units=GPa)
#
#
# Indices 1 2 3 4 5 6 
#
# 1 198.0715 32.5934 46.1547 0.0000 7.0001 0.0000
# 2 32.5934 67.6629 2.3862 0.0000 4.4915 0.0000
# 3 46.1547 2.3862 75.6113 0.0000 -11.3086 0.0000
# 4 0.0000 0.0000 0.0000 23.7431 0.0000 15.6768
# 5 7.0001 4.4915 -11.3086 0.0000 37.3414 0.0000
# 6 0.0000 0.0000 0.0000 15.6768 0.0000 33.8829
#
#
#
# Elastic Compliance Matrix: (Units=1/GPa)
#
#
# Indices 1 2 3 4 5 6 
#
# 1 0.006592 -0.002881 -0.004259 0.000000 -0.002179 0.000000
# 2 -0.002881 0.016200 0.001086 0.000000 -0.001080 0.000000
# 3 -0.004259 0.001086 0.016645 0.000000 0.005709 0.000000
# 4 0.000000 0.000000 0.000000 0.060644 0.000000 -0.028058
# 5 -0.002179 -0.001080 0.005709 0.000000 0.029047 0.000000
# 6 0.000000 0.000000 0.000000 -0.028058 0.000000 0.042495
#
#
# Mechanical properties :
#
#
# Convention : Reuss Voigt Hill
#
# Bulk Modulus (GPa) = 36.59090 55.95713 46.27402
# Shear Modulus (GPa) = 25.92811 36.34090 31.13450
#
# Velocity S-wave (km/s) = 3.21437 3.80547 3.52235
# Velocity P-wave (km/s) = 5.32518 6.45038 5.91460
#
# Compressibility (1/GPa) = 0.02732920
#
# Stress axis : x y z
#
# Youngs Moduli (GPa) = 151.69590 61.72789 60.07869
#
# Poissons Ratio (x) = 0.17781 0.25587
# Poissons Ratio (y) = 0.43698 -0.06522
# Poissons Ratio (z) = 0.64607 -0.06701
#
# Static dielectric constant tensor:
#      x y z
#    x 1.966160 0.000000 0.037490 
#    y 0.000000 1.926730 0.000000 
#    z 0.037490 0.000000 2.037920 
# 
# From -- ./inp_files/45923.got.cif
#   From: 2010.05.17/outbox.cif.g08.bks.cpg/sg14_23_cif.got.tgz:45923.got - 2010.06.03 17:49:19.
