data_PCOD9249884
_publ_section_title
;
Structure prediction by ZEFSAII (Michael W. Deem and Ramdas Pophale) SiO2 
 PCOD9249884
Probable space group: P 21/C
;
_chemical_formula_sum "Si O2"
_cell_formula_units_Z 26
_cell_length_a 10.464707
_cell_length_b 9.210983
_cell_length_c 11.637303
_cell_angle_alpha 90.000000
_cell_angle_beta 90.720969
_cell_angle_gamma 90.000000
_cell_volume 1121.633604
_symmetry_space_group_name_H-M "P 21/C"
_symmetry_group_IT_number 14
_symmetry_cell_setting 'monoclinic'
loop_
_space_group_symop_operation_xyz
x,y,z
-x,1/2+y,1/2-z
-x,-y,-z
x,1/2-y,1/2+z
loop_
_atom_site_type_symbol
_atom_site_label
_atom_site_fract_x
_atom_site_fract_y
_atom_site_fract_z
Si Si1 0.583036 0.041822 0.612925
Si Si2 0.971936 0.626726 0.339853
Si Si3 0.500000 0.500000 0.500000
Si Si4 0.251102 0.854569 0.580038
Si Si5 0.507930 0.749000 0.692940
Si Si6 0.195237 0.943702 0.004077
Si Si7 0.967440 0.537020 0.869793
O O1 0.706790 0.106706 0.550550
O O2 0.510328 0.163362 0.687691
O O3 0.500000 0.000000 0.500000
O O4 0.597186 0.893093 0.687173
O O5 0.857790 0.574874 0.420490
O O6 0.983684 0.797536 0.339584
O O7 0.104701 0.561823 0.391995
O O8 0.952444 0.561624 0.214836
O O9 0.532585 0.631921 0.593674
O O10 0.652508 0.449457 0.506335
O O11 0.370173 0.816137 0.661122
O O12 0.167409 0.708733 0.569768
O O13 0.179380 0.987193 0.636800
O O14 0.000000 0.500000 0.000000
#
# Coordination Sequence:
#
# PCOD9249884 Si02
#       7
#     4   4   2   4   4   4   4
#     4  10  24  42  67 102 147 196 256 301 377 461
#     4  11  26  46  77 109 154 197 257 313 386 451
#     4  10  24  44  78 106 146 202 250 304 388 450
#     4  10  23  44  68 106 145 189 251 314 379 443
#     4  10  24  43  69 100 151 199 247 309 383 451
#     4  10  23  47  76 107 150 196 252 306 388 450
#     4  12  26  46  76 110 148 199 258 319 380 461
#
# _framework density 23.180475999999999
#
# number of rings (size 3 to 8) (size 9 to 14) (size 15 to 20)
#    0.000    1.538    1.538    0.923   12.923    3.692 
#    0.000    6.154    0.000    0.000    0.000    0.000 
#    0.000    0.000    0.000    0.000    0.000    0.000 
#
# Total GULP energy -144817.753651 kJ/mol
# GULP energy per Si atom -5569.913602 kJ/mol
# Density = 2.312772 g / cm^3
# Si number density = 23.180476 Si / 1000 Ang^3
#
#
#
# Elastic Constant Matrix: (Units=GPa)
#
#
# Indices 1 2 3 4 5 6 
#
# 1 56.3259 14.4194 5.8998 0.0000 2.6912 0.0000
# 2 14.4194 128.5400 65.6466 0.0000 -20.0445 0.0000
# 3 5.8998 65.6466 99.3593 0.0000 -4.1904 0.0000
# 4 0.0000 0.0000 0.0000 48.8850 0.0000 -10.7148
# 5 2.6912 -20.0445 -4.1904 0.0000 21.0032 0.0000
# 6 0.0000 0.0000 0.0000 -10.7148 0.0000 37.1009
#
#
#
# Elastic Compliance Matrix: (Units=1/GPa)
#
#
# Indices 1 2 3 4 5 6 
#
# 1 0.018801 -0.003440 0.000924 0.000000 -0.005507 0.000000
# 2 -0.003440 0.014746 -0.009002 0.000000 0.012718 0.000000
# 3 0.000924 -0.009002 0.015722 0.000000 -0.005573 0.000000
# 4 0.000000 0.000000 0.000000 0.021839 0.000000 0.006307
# 5 -0.005507 0.012718 -0.005573 0.000000 0.059343 0.000000
# 6 0.000000 0.000000 0.000000 0.006307 0.000000 0.028775
#
#
# Mechanical properties :
#
#
# Convention : Reuss Voigt Hill
#
# Bulk Modulus (GPa) = 38.11931 50.68408 44.40169
# Shear Modulus (GPa) = 26.17711 34.61512 30.39611
#
# Velocity S-wave (km/s) = 3.36411 3.86850 3.62509
# Velocity P-wave (km/s) = 5.61871 6.47041 6.05954
#
# Compressibility (1/GPa) = 0.02623342
#
# Stress axis : x y z
#
# Youngs Moduli (GPa) = 53.18939 67.81356 63.60369
#
# Poissons Ratio (x) = 0.23326 -0.05877
# Poissons Ratio (y) = 0.18296 0.57258
# Poissons Ratio (z) = -0.04915 0.61047
#
# Static dielectric constant tensor:
#      x y z
#    x 2.263080 0.000000 0.113510 
#    y 0.000000 1.890430 0.000000 
#    z 0.113510 0.000000 1.959730 
# 
# From -- ./inp_files/28128.got.cif
#   From: 2010.05.17/outbox.cif.g08.bks.cpg/sg14_15_cif.got.tgz:28128.got - 2010.06.03 17:49:19.
