data_PCOD9249240
_publ_section_title
;
Structure prediction by ZEFSAII (Michael W. Deem and Ramdas Pophale) SiO2 
 PCOD9249240
Probable space group: P 21/C
;
_chemical_formula_sum "Si O2"
_cell_formula_units_Z 24
_cell_length_a 5.491068
_cell_length_b 12.886787
_cell_length_c 19.180913
_cell_angle_alpha 90.000000
_cell_angle_beta 49.318906
_cell_angle_gamma 90.000000
_cell_volume 1029.295644
_symmetry_space_group_name_H-M "P 21/C"
_symmetry_group_IT_number 14
_symmetry_cell_setting 'monoclinic'
loop_
_space_group_symop_operation_xyz
x,y,z
-x,1/2+y,1/2-z
-x,-y,-z
x,1/2-y,1/2+z
loop_
_atom_site_type_symbol
_atom_site_label
_atom_site_fract_x
_atom_site_fract_y
_atom_site_fract_z
Si Si1 0.126490 0.970993 0.579557
Si Si2 0.321569 0.646874 0.165370
Si Si3 0.890571 0.901861 0.974103
Si Si4 0.018026 0.169632 0.524379
Si Si5 0.713523 0.378307 0.321644
Si Si6 0.725564 0.993143 0.212140
O O1 0.074718 0.918943 0.664634
O O2 0.089746 0.884586 0.526706
O O3 0.500000 0.000000 0.500000
O O4 0.952558 0.081749 0.595079
O O5 0.601032 0.672256 0.058738
O O6 0.231740 0.758943 0.210522
O O7 0.444945 0.572807 0.203582
O O8 0.999778 0.937796 0.877682
O O9 0.068850 0.790567 0.952740
O O10 0.520120 0.887300 0.066196
O O11 0.000000 0.000000 0.000000
O O12 0.502998 0.437020 0.301479
O O13 0.063208 0.416824 0.279635
#
# Coordination Sequence:
#
# PCOD9249240 Si02
#       6
#     4   4   4   4   4   4
#     4   9  19  37  61  91 119 167 211 256 315 376
#     4  10  23  38  64  90 126 166 204 266 329 369
#     4   9  20  40  64  91 124 172 214 259 308 381
#     4   9  19  39  64  90 127 164 216 260 316 376
#     4  10  24  42  65  89 130 168 209 259 320 379
#     4  11  24  42  61  97 125 166 214 261 313 383
#
# _framework density 23.316915000000002
#
# number of rings (size 3 to 8) (size 9 to 14) (size 15 to 20)
#    0.000    2.333    0.000    0.500    9.333    1.333 
#   15.000    0.000    0.000    0.000    0.000    0.000 
#    0.000    0.000    0.000    0.000    0.000    0.000 
#
# Total GULP energy -133664.871983 kJ/mol
# GULP energy per Si atom -5569.369666 kJ/mol
# Density = 2.326384 g / cm^3
# Si number density = 23.316915 Si / 1000 Ang^3
#
#
#
# Elastic Constant Matrix: (Units=GPa)
#
#
# Indices 1 2 3 4 5 6 
#
# 1 100.1688 57.0502 5.8995 0.0000 15.3222 0.0000
# 2 57.0502 211.6748 30.2776 0.0000 21.7095 0.0000
# 3 5.8995 30.2776 50.3985 0.0000 9.8753 0.0000
# 4 0.0000 0.0000 0.0000 23.7083 0.0000 -3.2385
# 5 15.3222 21.7095 9.8753 0.0000 27.8921 0.0000
# 6 0.0000 0.0000 0.0000 -3.2385 0.0000 18.8771
#
#
#
# Elastic Compliance Matrix: (Units=1/GPa)
#
#
# Indices 1 2 3 4 5 6 
#
# 1 0.012378 -0.003022 0.001330 0.000000 -0.004919 0.000000
# 2 -0.003022 0.006176 -0.002944 0.000000 -0.002104 0.000000
# 3 0.001330 -0.002944 0.022726 0.000000 -0.006485 0.000000
# 4 0.000000 0.000000 0.000000 0.043191 0.000000 0.007410
# 5 -0.004919 -0.002104 -0.006485 0.000000 0.042488 0.000000
# 6 0.000000 0.000000 0.000000 0.007410 0.000000 0.054245
#
#
# Mechanical properties :
#
#
# Convention : Reuss Voigt Hill
#
# Bulk Modulus (GPa) = 31.24201 60.96628 46.10414
# Shear Modulus (GPa) = 24.85760 32.02983 28.44371
#
# Velocity S-wave (km/s) = 3.26862 3.71033 3.49646
# Velocity P-wave (km/s) = 5.26053 6.67525 6.00966
#
# Compressibility (1/GPa) = 0.03200819
#
# Stress axis : x y z
#
# Youngs Moduli (GPa) = 80.78627 161.92661 44.00327
#
# Poissons Ratio (x) = 0.48934 -0.05854
# Poissons Ratio (y) = 0.24414 0.12955
# Poissons Ratio (z) = -0.10747 0.47672
#
# Static dielectric constant tensor:
#      x y z
#    x 1.983710 0.000000 -0.089790 
#    y 0.000000 1.974110 0.000000 
#    z -0.089790 0.000000 1.972050 
# 
# From -- ./inp_files/52946.got.cif
#   From: 2010.05.17/outbox.cif.g08.bks.cpg/sg14_27_cif.got.tgz:52946.got - 2010.06.03 17:49:19.
