data_PCOD9249449
_publ_section_title
;
Structure prediction by ZEFSAII (Michael W. Deem and Ramdas Pophale) SiO2 
 PCOD9249449
Probable space group: P 21/C
;
_chemical_formula_sum "Si O2"
_cell_formula_units_Z 20
_cell_length_a 7.543771
_cell_length_b 19.033157
_cell_length_c 5.226981
_cell_angle_alpha 90.000000
_cell_angle_beta 87.487444
_cell_angle_gamma 90.000000
_cell_volume 749.777724
_symmetry_space_group_name_H-M "P 21/C"
_symmetry_group_IT_number 14
_symmetry_cell_setting 'monoclinic'
loop_
_space_group_symop_operation_xyz
x,y,z
-x,1/2+y,1/2-z
-x,-y,-z
x,1/2-y,1/2+z
loop_
_atom_site_type_symbol
_atom_site_label
_atom_site_fract_x
_atom_site_fract_y
_atom_site_fract_z
Si Si1 0.750001 0.043927 0.500001
Si Si2 0.460157 0.705008 0.517446
Si Si3 0.039839 0.794992 0.982554
Si Si4 0.608952 0.591413 0.207393
Si Si5 0.108953 0.408587 0.207390
O O1 0.583620 0.087723 0.417111
O O2 0.916380 0.087725 0.582889
O O3 0.676497 0.989070 0.718142
O O4 0.823506 0.989070 0.281862
O O5 0.500584 0.756284 0.277248
O O6 0.249998 0.690541 0.499999
O O7 0.568066 0.633874 0.464369
O O8 0.999412 0.743717 0.222752
O O9 0.931930 0.866126 0.035632
O O10 0.749999 0.623966 0.000001
#
# Coordination Sequence:
#
# PCOD9249449 Si02
#       5
#     4   4   4   4   4
#     4   8  18  36  68  94 136 166 220 270 334 382
#     4  10  23  41  67  97 133 175 219 276 333 387
#     4  10  23  41  67  97 133 175 219 276 333 387
#     4   9  18  38  67  94 133 169 222 269 328 395
#     4   9  18  38  67  94 133 169 222 269 328 395
#
# _framework density 26.674571
#
# number of rings (size 3 to 8) (size 9 to 14) (size 15 to 20)
#    1.200    1.600    0.000    0.000    8.400    1.600 
#    0.000    2.000    0.000    0.000    0.000    0.000 
#    0.000    0.000    0.000    0.000    0.000    0.000 
#
# Total GULP energy -112065.418186 kJ/mol
# GULP energy per Si atom -5603.270909 kJ/mol
# Density = 2.661386 g / cm^3
# Si number density = 26.674571 Si / 1000 Ang^3
#
#
#
# Elastic Constant Matrix: (Units=GPa)
#
#
# Indices 1 2 3 4 5 6 
#
# 1 168.8959 35.0511 44.9202 0.0000 -5.0597 0.0000
# 2 35.0511 92.1128 57.0601 0.0000 -24.7498 0.0000
# 3 44.9202 57.0601 140.6667 0.0000 -17.8792 0.0000
# 4 0.0000 0.0000 0.0000 4.7445 0.0000 -25.4314
# 5 -5.0597 -24.7498 -17.8792 0.0000 25.7046 0.0000
# 6 0.0000 0.0000 0.0000 -25.4314 0.0000 28.3384
#
#
#
# Elastic Compliance Matrix: (Units=1/GPa)
#
#
# Indices 1 2 3 4 5 6 
#
# 1 0.006704 -0.002076 -0.001519 0.000000 -0.001736 0.000000
# 2 -0.002076 0.018532 -0.005088 0.000000 0.013896 0.000000
# 3 -0.001519 -0.005088 0.009870 0.000000 0.001667 0.000000
# 4 0.000000 0.000000 0.000000 -0.055316 0.000000 -0.049641
# 5 -0.001736 0.013896 0.001667 0.000000 0.053101 0.000000
# 6 0.000000 0.000000 0.000000 -0.049641 0.000000 -0.009261
#
#
# Mechanical properties :
#
#
# Convention : Reuss Voigt Hill
#
# Bulk Modulus (GPa) = 56.37515 75.08202 65.72858
# Shear Modulus (GPa) = 106.58752 29.40043 67.99398
#
# Velocity S-wave (km/s) = 6.32813 3.32353 5.05426
# Velocity P-wave (km/s) = 8.63562 6.55258 7.66519
#
# Compressibility (1/GPa) = 0.01773831
#
# Stress axis : x y z
#
# Youngs Moduli (GPa) = 149.17004 53.96121 101.31790
#
# Poissons Ratio (x) = 0.11205 0.15392
# Poissons Ratio (y) = 0.30974 0.51550
# Poissons Ratio (z) = 0.22662 0.27455
#
# Static dielectric constant tensor:
#      x y z
#    x 2.046930 0.000000 0.016690 
#    y 0.000000 2.050030 0.000000 
#    z 0.016690 0.000000 2.069430 
# 
# From -- ./inp_files/1144.got.cif
#   From: 2010.05.17/outbox.cif.g08.bks.cpg/sg14_1_cif.got.tgz:1144.got - 2010.06.03 17:49:19.
