data_PCOD9249477
_publ_section_title
;
Structure prediction by ZEFSAII (Michael W. Deem and Ramdas Pophale) SiO2 
 PCOD9249477
Probable space group: P 21/C
;
_chemical_formula_sum "Si O2"
_cell_formula_units_Z 20
_cell_length_a 7.096085
_cell_length_b 8.384313
_cell_length_c 14.174232
_cell_angle_alpha 90.000000
_cell_angle_beta 72.266423
_cell_angle_gamma 90.000000
_cell_volume 803.235932
_symmetry_space_group_name_H-M "P 21/C"
_symmetry_group_IT_number 14
_symmetry_cell_setting 'monoclinic'
loop_
_space_group_symop_operation_xyz
x,y,z
-x,1/2+y,1/2-z
-x,-y,-z
x,1/2-y,1/2+z
loop_
_atom_site_type_symbol
_atom_site_label
_atom_site_fract_x
_atom_site_fract_y
_atom_site_fract_z
Si Si1 0.884006 0.027053 0.175061
Si Si2 0.784051 0.481761 0.989705
Si Si3 0.410218 0.344152 0.140218
Si Si4 0.450491 0.499903 0.397787
Si Si5 0.786039 0.213797 0.826322
O O1 0.882324 0.202585 0.220466
O O2 0.723992 0.931901 0.263571
O O3 0.781491 0.012751 0.089427
O O4 0.087220 0.937648 0.160584
O O5 0.704165 0.633690 0.942886
O O6 0.787720 0.340207 0.911340
O O7 0.618586 0.433838 0.091104
O O8 0.000000 0.500000 0.000000
O O9 0.454466 0.162143 0.156846
O O10 0.500000 0.500000 0.500000
O O11 0.565409 0.346854 0.340344
#
# Coordination Sequence:
#
# PCOD9249477 Si02
#       5
#     4   4   4   4   4
#     4  11  26  44  73  98 144 178 232 283 338 411
#     4  10  23  41  70  95 139 176 225 278 346 401
#     4  10  23  44  64 101 132 180 228 277 335 407
#     4  12  25  43  70 100 140 176 228 284 342 402
#     4  11  25  45  66 106 131 188 228 279 346 405
#
# _framework density 24.899284000000002
#
# number of rings (size 3 to 8) (size 9 to 14) (size 15 to 20)
#    0.000    1.200    2.000    2.400    2.800   10.400 
#    0.000    0.000    0.000    0.000    0.000    0.000 
#    0.000    0.000    0.000    0.000    0.000    0.000 
#
# Total GULP energy -112082.050596 kJ/mol
# GULP energy per Si atom -5604.102530 kJ/mol
# Density = 2.484261 g / cm^3
# Si number density = 24.899284 Si / 1000 Ang^3
#
#
#
# Elastic Constant Matrix: (Units=GPa)
#
#
# Indices 1 2 3 4 5 6 
#
# 1 156.3035 21.7370 11.6645 0.0000 12.8322 0.0000
# 2 21.7370 81.5123 -5.0757 0.0000 11.2275 0.0000
# 3 11.6645 -5.0757 57.8647 0.0000 -0.9654 0.0000
# 4 0.0000 0.0000 0.0000 35.9815 0.0000 -8.9581
# 5 12.8322 11.2275 -0.9654 0.0000 38.8613 0.0000
# 6 0.0000 0.0000 0.0000 -8.9581 0.0000 40.1389
#
#
#
# Elastic Compliance Matrix: (Units=1/GPa)
#
#
# Indices 1 2 3 4 5 6 
#
# 1 0.006900 -0.001686 -0.001569 0.000000 -0.001830 0.000000
# 2 -0.001686 0.013254 0.001448 0.000000 -0.003237 0.000000
# 3 -0.001569 0.001448 0.017734 0.000000 0.000540 0.000000
# 4 0.000000 0.000000 0.000000 0.029427 0.000000 0.006567
# 5 -0.001830 -0.003237 0.000540 0.000000 0.027285 0.000000
# 6 0.000000 0.000000 0.000000 0.006567 0.000000 0.026379
#
#
# Mechanical properties :
#
#
# Convention : Reuss Voigt Hill
#
# Bulk Modulus (GPa) = 29.17633 39.14802 34.16218
# Shear Modulus (GPa) = 36.76022 40.81999 38.79010
#
# Velocity S-wave (km/s) = 3.84651 4.05335 3.95128
# Velocity P-wave (km/s) = 5.60987 6.13701 5.87935
#
# Compressibility (1/GPa) = 0.03427436
#
# Stress axis : x y z
#
# Youngs Moduli (GPa) = 144.93630 75.45137 56.38866
#
# Poissons Ratio (x) = 0.12718 0.08849
# Poissons Ratio (y) = 0.24429 -0.08167
# Poissons Ratio (z) = 0.22744 -0.10928
#
# Static dielectric constant tensor:
#      x y z
#    x 1.970310 0.000000 0.049510 
#    y 0.000000 1.974740 0.000000 
#    z 0.049510 0.000000 2.028500 
# 
# From -- ./inp_files/52658.got.cif
#   From: 2010.05.17/outbox.cif.g08.bks.cpg/sg14_27_cif.got.tgz:52658.got - 2010.06.03 17:49:19.
