data_PCOD9249296
_publ_section_title
;
Structure prediction by ZEFSAII (Michael W. Deem and Ramdas Pophale) SiO2 
 PCOD9249296
Probable space group: P 21/C
;
_chemical_formula_sum "Si O2"
_cell_formula_units_Z 28
_cell_length_a 6.458081
_cell_length_b 28.428292
_cell_length_c 9.195816
_cell_angle_alpha 90.000000
_cell_angle_beta 130.888290
_cell_angle_gamma 90.000000
_cell_volume 1276.318339
_symmetry_space_group_name_H-M "P 21/C"
_symmetry_group_IT_number 14
_symmetry_cell_setting 'monoclinic'
loop_
_space_group_symop_operation_xyz
x,y,z
-x,1/2+y,1/2-z
-x,-y,-z
x,1/2-y,1/2+z
loop_
_atom_site_type_symbol
_atom_site_label
_atom_site_fract_x
_atom_site_fract_y
_atom_site_fract_z
Si Si1 0.074151 0.147943 0.125689
Si Si2 0.882061 0.051421 0.985458
Si Si3 0.462113 0.312757 0.310323
Si Si4 0.210900 0.943611 0.721927
Si Si5 0.593419 0.977282 0.393585
Si Si6 0.481795 0.282199 0.649470
Si Si7 0.978764 0.153666 0.416066
O O1 0.096562 0.094176 0.080558
O O2 0.756295 0.162017 0.951204
O O3 0.114241 0.149194 0.318377
O O4 0.268779 0.185015 0.137869
O O5 0.634889 0.059337 0.760493
O O6 0.757032 0.052820 0.090415
O O7 0.000000 0.000000 0.000000
O O8 0.427597 0.290053 0.453949
O O9 0.459647 0.271129 0.190961
O O10 0.205858 0.344978 0.145628
O O11 0.229053 0.890571 0.672787
O O12 0.892571 0.956161 0.547322
O O13 0.386037 0.981747 0.717460
O O14 0.500000 0.000000 0.500000
O O15 0.787539 0.300452 0.827371
#
# Coordination Sequence:
#
# PCOD9249296 Si02
#       7
#     4   4   4   4   4   4   4
#     4  10  24  42  63  95 128 164 214 259 314 381
#     4  11  22  40  63  89 127 170 207 260 313 367
#     4  11  23  43  64  93 126 160 205 259 322 378
#     4  10  23  40  60  88 125 164 208 262 309 370
#     4  11  22  38  59  88 120 165 213 254 310 368
#     4  11  24  40  66  93 122 162 206 255 317 383
#     4  10  23  41  64  91 125 163 206 260 315 372
#
# _framework density 21.938101
#
# number of rings (size 3 to 8) (size 9 to 14) (size 15 to 20)
#    0.000    1.429    1.429    3.000    2.000    5.714 
#    2.571    0.000    0.000    0.000    0.000    0.000 
#    0.000    0.000    0.000    0.000    0.000    0.000 
#
# Total GULP energy -156607.305273 kJ/mol
# GULP energy per Si atom -5593.118045 kJ/mol
# Density = 2.188817 g / cm^3
# Si number density = 21.938101 Si / 1000 Ang^3
#
#
#
# Elastic Constant Matrix: (Units=GPa)
#
#
# Indices 1 2 3 4 5 6 
#
# 1 39.0773 3.4722 14.7319 0.0000 2.3832 0.0000
# 2 3.4722 72.0848 -9.3086 0.0000 -10.2479 0.0000
# 3 14.7319 -9.3086 105.5429 0.0000 -1.4186 0.0000
# 4 0.0000 0.0000 0.0000 31.5409 0.0000 1.7834
# 5 2.3832 -10.2479 -1.4186 0.0000 22.8771 0.0000
# 6 0.0000 0.0000 0.0000 1.7834 0.0000 33.9714
#
#
#
# Elastic Compliance Matrix: (Units=1/GPa)
#
#
# Indices 1 2 3 4 5 6 
#
# 1 0.027625 -0.002467 -0.004131 0.000000 -0.004239 0.000000
# 2 -0.002467 0.015245 0.001786 0.000000 0.007197 0.000000
# 3 -0.004131 0.001786 0.010234 0.000000 0.001865 0.000000
# 4 0.000000 0.000000 0.000000 0.031799 0.000000 -0.001669
# 5 -0.004239 0.007197 0.001865 0.000000 0.047493 0.000000
# 6 0.000000 0.000000 0.000000 -0.001669 0.000000 0.029524
#
#
# Mechanical properties :
#
#
# Convention : Reuss Voigt Hill
#
# Bulk Modulus (GPa) = 22.99855 26.05512 24.52683
# Shear Modulus (GPa) = 26.87633 31.53184 29.20408
#
# Velocity S-wave (km/s) = 3.50394 3.79530 3.65252
# Velocity P-wave (km/s) = 5.18423 5.57747 5.38444
#
# Compressibility (1/GPa) = 0.04348101
#
# Stress axis : x y z
#
# Youngs Moduli (GPa) = 36.19882 65.59501 97.71430
#
# Poissons Ratio (x) = 0.16180 0.40361
# Poissons Ratio (y) = 0.08929 -0.17448
# Poissons Ratio (z) = 0.14952 -0.11713
#
# Static dielectric constant tensor:
#      x y z
#    x 1.784750 0.000000 0.022310 
#    y 0.000000 1.963840 0.000000 
#    z 0.022310 0.000000 1.773630 
# 
# From -- ./inp_files/6732.got.cif
#   From: 2010.05.17/outbox.cif.g08.bks.cpg/sg14_4_cif.got.tgz:6732.got - 2010.06.03 17:49:19.
