data_PCOD9249259
_publ_section_title
;
Structure prediction by ZEFSAII (Michael W. Deem and Ramdas Pophale) SiO2 
 PCOD9249259
Probable space group: P 21/C
;
_chemical_formula_sum "Si O2"
_cell_formula_units_Z 24
_cell_length_a 25.690131
_cell_length_b 7.652757
_cell_length_c 12.909492
_cell_angle_alpha 90.000000
_cell_angle_beta 153.272634
_cell_angle_gamma 90.000000
_cell_volume 1141.459119
_symmetry_space_group_name_H-M "P 21/C"
_symmetry_group_IT_number 14
_symmetry_cell_setting 'monoclinic'
loop_
_space_group_symop_operation_xyz
x,y,z
-x,1/2+y,1/2-z
-x,-y,-z
x,1/2-y,1/2+z
loop_
_atom_site_type_symbol
_atom_site_label
_atom_site_fract_x
_atom_site_fract_y
_atom_site_fract_z
Si Si1 0.107653 0.511699 0.855836
Si Si2 0.387382 0.554525 0.652991
Si Si3 0.639677 0.061102 0.132781
Si Si4 0.144366 0.691128 0.271120
Si Si5 0.551091 0.766382 0.596843
Si Si6 0.050640 0.386467 0.243596
O O1 0.108989 0.619860 0.751853
O O2 0.112011 0.302156 0.854696
O O3 0.996607 0.561639 0.727427
O O4 0.223097 0.582152 0.118195
O O5 0.398253 0.518451 0.551208
O O6 0.277988 0.681203 0.475602
O O7 0.367636 0.380688 0.685542
O O8 0.502063 0.633621 0.909292
O O9 0.610705 0.906567 0.161292
O O10 0.562392 0.220356 0.036565
O O11 0.122016 0.546306 0.321060
O O12 0.060850 0.638683 0.028848
#
# Coordination Sequence:
#
# PCOD9249259 Si02
#       6
#     4   4   4   4   4   4
#     4  12  22  41  64  91 123 165 209 252 314 369
#     4  11  21  40  64  90 122 162 204 253 316 371
#     4  11  22  40  62  89 124 160 204 258 307 370
#     4  11  23  42  63  91 126 163 206 256 311 370
#     4  10  23  39  62  91 123 159 205 254 312 372
#     4  11  24  40  63  90 127 164 204 260 307 368
#
# _framework density 21.025718999999999
#
# number of rings (size 3 to 8) (size 9 to 14) (size 15 to 20)
#    0.000    1.000    5.000    2.500    0.000    0.000 
#    0.000    0.000    0.000    0.000    0.000    0.000 
#    0.000    0.000    0.000    0.000    0.000    0.000 
#
# Total GULP energy -134086.307954 kJ/mol
# GULP energy per Si atom -5586.929498 kJ/mol
# Density = 2.097786 g / cm^3
# Si number density = 21.025719 Si / 1000 Ang^3
#
#
#
# Elastic Constant Matrix: (Units=GPa)
#
#
# Indices 1 2 3 4 5 6 
#
# 1 60.3585 6.8534 4.3141 0.0000 2.5580 0.0000
# 2 6.8534 71.4555 -7.9975 0.0000 5.3896 0.0000
# 3 4.3141 -7.9975 39.3767 0.0000 -3.2131 0.0000
# 4 0.0000 0.0000 0.0000 41.8168 0.0000 9.2756
# 5 2.5580 5.3896 -3.2131 0.0000 26.8546 0.0000
# 6 0.0000 0.0000 0.0000 9.2756 0.0000 21.2711
#
#
#
# Elastic Compliance Matrix: (Units=1/GPa)
#
#
# Indices 1 2 3 4 5 6 
#
# 1 0.017003 -0.001777 -0.002350 0.000000 -0.001544 0.000000
# 2 -0.001777 0.014681 0.002979 0.000000 -0.002421 0.000000
# 3 -0.002350 0.002979 0.026486 0.000000 0.002795 0.000000
# 4 0.000000 0.000000 0.000000 0.026475 0.000000 -0.011545
# 5 -0.001544 -0.002421 0.002795 0.000000 0.038205 0.000000
# 6 0.000000 0.000000 0.000000 -0.011545 0.000000 0.052046
#
#
# Mechanical properties :
#
#
# Convention : Reuss Voigt Hill
#
# Bulk Modulus (GPa) = 17.89738 19.72563 18.81150
# Shear Modulus (GPa) = 25.53401 29.18986 27.36194
#
# Velocity S-wave (km/s) = 3.48863 3.73002 3.61134
# Velocity P-wave (km/s) = 4.97574 5.28704 5.13375
#
# Compressibility (1/GPa) = 0.05587410
#
# Stress axis : x y z
#
# Youngs Moduli (GPa) = 58.81363 68.11432 37.75540
#
# Poissons Ratio (x) = 0.12106 0.08872
# Poissons Ratio (y) = 0.10453 -0.11247
# Poissons Ratio (z) = 0.13820 -0.20291
#
# Static dielectric constant tensor:
#      x y z
#    x 1.742870 0.000000 0.012710 
#    y 0.000000 1.775150 0.000000 
#    z 0.012710 0.000000 1.742790 
# 
# From -- ./inp_files/28205.got.cif
#   From: 2010.05.17/outbox.cif.g08.bks.cpg/sg14_15_cif.got.tgz:28205.got - 2010.06.03 17:49:19.
