data_PCOD9249331
_publ_section_title
;
Structure prediction by ZEFSAII (Michael W. Deem and Ramdas Pophale) SiO2 
 PCOD9249331
Probable space group: P 21/C
;
_chemical_formula_sum "Si O2"
_cell_formula_units_Z 28
_cell_length_a 12.805800
_cell_length_b 8.098694
_cell_length_c 13.116310
_cell_angle_alpha 90.000000
_cell_angle_beta 69.227865
_cell_angle_gamma 90.000000
_cell_volume 1271.874275
_symmetry_space_group_name_H-M "P 21/C"
_symmetry_group_IT_number 14
_symmetry_cell_setting 'monoclinic'
loop_
_space_group_symop_operation_xyz
x,y,z
-x,1/2+y,1/2-z
-x,-y,-z
x,1/2-y,1/2+z
loop_
_atom_site_type_symbol
_atom_site_label
_atom_site_fract_x
_atom_site_fract_y
_atom_site_fract_z
Si Si1 0.420143 0.789832 0.719223
Si Si2 0.042157 0.778600 0.391240
Si Si3 0.859228 0.756300 0.116450
Si Si4 0.045719 0.014815 0.747795
Si Si5 0.349483 0.459276 0.848249
Si Si6 0.267441 0.848992 0.577944
Si Si7 0.241684 0.595048 0.426645
O O1 0.395387 0.602146 0.758810
O O2 0.549757 0.832381 0.668301
O O3 0.355486 0.838622 0.638746
O O4 0.360876 0.893446 0.830573
O O5 0.958032 0.813132 0.512079
O O6 0.037917 0.921979 0.309360
O O7 0.000774 0.614361 0.345749
O O8 0.161291 0.725379 0.394235
O O9 0.909382 0.829160 0.203023
O O10 0.758054 0.630379 0.160783
O O11 0.809866 0.916851 0.074343
O O12 0.152662 0.927915 0.658377
O O13 0.314106 0.542108 0.968098
O O14 0.246358 0.667261 0.538214
#
# Coordination Sequence:
#
# PCOD9249331 Si02
#       7
#     4   4   4   4   4   4   4
#     4  11  23  45  68  98 132 175 220 280 336 391
#     4  11  24  40  65  96 136 179 222 276 334 398
#     4  11  23  43  64  99 135 177 224 278 334 397
#     4  11  24  41  67  98 136 182 220 280 327 402
#     4  11  25  45  72  98 134 177 222 283 335 397
#     4  11  23  44  66 101 131 179 227 273 330 403
#     4  10  23  40  65  94 136 173 224 274 330 397
#
# _framework density 22.014752999999999
#
# number of rings (size 3 to 8) (size 9 to 14) (size 15 to 20)
#    0.000    1.143    4.286    3.000    4.000    4.000 
#    0.000    3.571    0.000    0.000    0.000    0.000 
#    0.000    0.000    0.000    0.000    0.000    0.000 
#
# Total GULP energy -156768.573379 kJ/mol
# GULP energy per Si atom -5598.877621 kJ/mol
# Density = 2.196465 g / cm^3
# Si number density = 22.014753 Si / 1000 Ang^3
#
#
#
# Elastic Constant Matrix: (Units=GPa)
#
#
# Indices 1 2 3 4 5 6 
#
# 1 75.2963 32.1100 31.1244 0.0000 -9.3646 0.0000
# 2 32.1100 84.4152 31.1773 0.0000 -0.3481 0.0000
# 3 31.1244 31.1773 86.8184 0.0000 -3.0404 0.0000
# 4 0.0000 0.0000 0.0000 27.2339 0.0000 1.4048
# 5 -9.3646 -0.3481 -3.0404 0.0000 30.9456 0.0000
# 6 0.0000 0.0000 0.0000 1.4048 0.0000 50.0627
#
#
#
# Elastic Compliance Matrix: (Units=1/GPa)
#
#
# Indices 1 2 3 4 5 6 
#
# 1 0.017916 -0.005172 -0.004393 0.000000 0.004932 0.000000
# 2 -0.005172 0.015154 -0.003649 0.000000 -0.001753 0.000000
# 3 -0.004393 -0.003649 0.014405 0.000000 0.000045 0.000000
# 4 0.000000 0.000000 0.000000 0.036772 0.000000 -0.001032
# 5 0.004932 -0.001753 0.000045 0.000000 0.033792 0.000000
# 6 0.000000 0.000000 0.000000 -0.001032 0.000000 0.020004
#
#
# Mechanical properties :
#
#
# Convention : Reuss Voigt Hill
#
# Bulk Modulus (GPa) = 47.51289 48.37257 47.94273
# Shear Modulus (GPa) = 29.15685 31.78966 30.47326
#
# Velocity S-wave (km/s) = 3.64321 3.80414 3.72455
# Velocity P-wave (km/s) = 6.27108 6.42774 6.34989
#
# Compressibility (1/GPa) = 0.02104692
#
# Stress axis : x y z
#
# Youngs Moduli (GPa) = 55.81726 65.98878 69.41987
#
# Poissons Ratio (x) = 0.34130 0.30494
# Poissons Ratio (y) = 0.28869 0.25333
# Poissons Ratio (z) = 0.24519 0.24081
#
# Static dielectric constant tensor:
#      x y z
#    x 1.759450 0.000000 0.015420 
#    y 0.000000 1.860010 0.000000 
#    z 0.015420 0.000000 1.777420 
# 
# From -- ./inp_files/43309.got.cif
#   From: 2010.05.17/outbox.cif.g08.bks.cpg/sg14_22_cif.got.tgz:43309.got - 2010.06.03 17:49:19.
