data_PCOD9249387
_publ_section_title
;
Structure prediction by ZEFSAII (Michael W. Deem and Ramdas Pophale) SiO2 
 PCOD9249387
Probable space group: P 21/C
;
_chemical_formula_sum "Si O2"
_cell_formula_units_Z 28
_cell_length_a 15.705613
_cell_length_b 8.735872
_cell_length_c 11.837045
_cell_angle_alpha 90.000000
_cell_angle_beta 60.222527
_cell_angle_gamma 90.000000
_cell_volume 1409.628120
_symmetry_space_group_name_H-M "P 21/C"
_symmetry_group_IT_number 14
_symmetry_cell_setting 'monoclinic'
loop_
_space_group_symop_operation_xyz
x,y,z
-x,1/2+y,1/2-z
-x,-y,-z
x,1/2-y,1/2+z
loop_
_atom_site_type_symbol
_atom_site_label
_atom_site_fract_x
_atom_site_fract_y
_atom_site_fract_z
Si Si1 0.108346 0.548879 0.650375
Si Si2 0.738300 0.748245 0.258885
Si Si3 0.085451 0.195050 0.723011
Si Si4 0.293398 0.514280 0.370192
Si Si5 0.387144 0.000066 0.041807
Si Si6 0.769762 0.201474 0.728204
Si Si7 0.889170 0.523819 0.029033
O O1 0.079750 0.379213 0.714601
O O2 0.191622 0.510005 0.505952
O O3 0.153296 0.660637 0.719311
O O4 0.014278 0.630380 0.659393
O O5 0.816748 0.848326 0.275208
O O6 0.666261 0.661105 0.391989
O O7 0.813086 0.630730 0.148755
O O8 0.684983 0.852465 0.202785
O O9 0.095834 0.109844 0.597626
O O10 0.369796 0.543511 0.421913
O O11 0.273526 0.638243 0.285762
O O12 0.325718 0.887566 0.163452
O O13 0.500000 0.000000 0.000000
O O14 0.828576 0.133987 0.580538
O O15 0.000000 0.500000 0.000000
#
# Coordination Sequence:
#
# PCOD9249387 Si02
#       7
#     4   4   4   4   4   4   4
#     4  11  24  38  55  92 132 175 217 252 301 375
#     4  11  22  40  61  92 127 164 216 259 314 384
#     4  12  22  36  59  89 133 177 215 254 304 374
#     4  11  24  41  63  95 128 165 211 267 329 374
#     4  10  23  48  69  89 125 161 212 278 325 384
#     4  10  23  41  61  92 130 162 214 262 316 384
#     4  11  20  37  58  85 128 176 212 250 305 369
#
# _framework density 19.863392999999999
#
# number of rings (size 3 to 8) (size 9 to 14) (size 15 to 20)
#    0.000    1.143    7.143    0.000    6.000    2.857 
#    0.000    0.714    0.000    0.000    0.000    0.000 
#    0.000    0.000    0.000    0.000    0.000    0.000 
#
# Total GULP energy -155994.776968 kJ/mol
# GULP energy per Si atom -5571.242035 kJ/mol
# Density = 1.981818 g / cm^3
# Si number density = 19.863393 Si / 1000 Ang^3
#
#
#
# Elastic Constant Matrix: (Units=GPa)
#
#
# Indices 1 2 3 4 5 6 
#
# 1 105.2924 25.5717 21.1153 0.0000 -18.8110 0.0000
# 2 25.5717 60.9253 12.1278 0.0000 8.0856 0.0000
# 3 21.1153 12.1278 39.1875 0.0000 2.0789 0.0000
# 4 0.0000 0.0000 0.0000 32.1757 0.0000 6.5905
# 5 -18.8110 8.0856 2.0789 0.0000 27.3445 0.0000
# 6 0.0000 0.0000 0.0000 6.5905 0.0000 19.5655
#
#
#
# Elastic Compliance Matrix: (Units=1/GPa)
#
#
# Indices 1 2 3 4 5 6 
#
# 1 0.014608 -0.006486 -0.006525 0.000000 0.012463 0.000000
# 2 -0.006486 0.021016 -0.002453 0.000000 -0.010490 0.000000
# 3 -0.006525 -0.002453 0.030114 0.000000 -0.006053 0.000000
# 4 0.000000 0.000000 0.000000 0.033383 0.000000 -0.011245
# 5 0.012463 -0.010490 -0.006053 0.000000 0.048706 0.000000
# 6 0.000000 0.000000 0.000000 -0.011245 0.000000 0.054898
#
#
# Mechanical properties :
#
#
# Convention : Reuss Voigt Hill
#
# Bulk Modulus (GPa) = 28.72681 35.89276 32.30978
# Shear Modulus (GPa) = 20.38683 25.58983 22.98833
#
# Velocity S-wave (km/s) = 3.20715 3.59317 3.40563
# Velocity P-wave (km/s) = 5.31112 5.94336 5.63611
#
# Compressibility (1/GPa) = 0.03481069
#
# Stress axis : x y z
#
# Youngs Moduli (GPa) = 68.45693 47.58180 33.20695
#
# Poissons Ratio (x) = 0.30863 0.21667
# Poissons Ratio (y) = 0.44404 0.08145
# Poissons Ratio (z) = 0.44666 0.11670
#
# Static dielectric constant tensor:
#      x y z
#    x 1.729370 0.000000 0.048490 
#    y 0.000000 1.784050 0.000000 
#    z 0.048490 0.000000 1.710940 
# 
# From -- ./inp_files/31483.got.cif
#   From: 2010.05.17/outbox.cif.g08.bks.cpg/sg14_16_cif.got.tgz:31483.got - 2010.06.03 17:49:19.
