data_PCOD9249761
_publ_section_title
;
Structure prediction by ZEFSAII (Michael W. Deem and Ramdas Pophale) SiO2 
 PCOD9249761
Probable space group: P 21/C
;
_chemical_formula_sum "Si O2"
_cell_formula_units_Z 30
_cell_length_a 8.963135
_cell_length_b 13.786143
_cell_length_c 12.656043
_cell_angle_alpha 90.000000
_cell_angle_beta 65.623284
_cell_angle_gamma 90.000000
_cell_volume 1424.453311
_symmetry_space_group_name_H-M "P 21/C"
_symmetry_group_IT_number 14
_symmetry_cell_setting 'monoclinic'
loop_
_space_group_symop_operation_xyz
x,y,z
-x,1/2+y,1/2-z
-x,-y,-z
x,1/2-y,1/2+z
loop_
_atom_site_type_symbol
_atom_site_label
_atom_site_fract_x
_atom_site_fract_y
_atom_site_fract_z
Si Si1 0.158070 0.836803 0.798311
Si Si2 0.290966 0.405910 0.997780
Si Si3 0.665555 0.383269 0.965280
Si Si4 0.583649 0.306292 0.601330
Si Si5 0.015086 0.343516 0.245174
Si Si6 0.500000 0.000000 0.000000
Si Si7 0.229644 0.307962 0.793035
Si Si8 0.859517 0.542831 0.365317
O O1 0.219926 0.883154 0.670587
O O2 0.304854 0.844623 0.836711
O O3 0.105204 0.727005 0.785920
O O4 0.998861 0.895429 0.882076
O O5 0.476298 0.386124 0.982303
O O6 0.247713 0.346302 0.905969
O O7 0.290474 0.521983 0.979893
O O8 0.161282 0.378129 0.125632
O O9 0.679470 0.283324 0.022924
O O10 0.545181 0.389981 0.529210
O O11 0.408591 0.274217 0.700641
O O12 0.098581 0.276147 0.310167
O O13 0.923796 0.436350 0.317835
O O14 0.687519 0.964624 0.973553
O O15 0.177855 0.397642 0.732283
#
# Coordination Sequence:
#
# PCOD9249761 Si02
#       8
#     4   4   4   4   4   2   4   4
#     4  11  24  42  69 100 139 173 235 283 345 414
#     4  11  23  42  72  99 133 186 226 290 347 410
#     4  11  23  43  70 104 136 176 239 284 339 425
#     4  11  23  45  68 103 137 186 222 285 348 419
#     4  11  23  43  66 103 139 174 230 295 336 415
#     4  10  24  46  68  90 144 182 228 274 362 414
#     4  10  23  43  68  99 139 178 230 281 355 416
#     4  10  23  44  65  98 137 178 232 289 334 425
#
# _framework density 21.060711999999999
#
# number of rings (size 3 to 8) (size 9 to 14) (size 15 to 20)
#    0.000    1.333    4.000    0.800    1.867    4.267 
#    2.400    0.000    0.000    0.000    0.000    0.000 
#    0.000    0.000    0.000    0.000    0.000    0.000 
#
# Total GULP energy -167186.583768 kJ/mol
# GULP energy per Si atom -5572.886126 kJ/mol
# Density = 2.101278 g / cm^3
# Si number density = 21.060712 Si / 1000 Ang^3
#
#
#
# Elastic Constant Matrix: (Units=GPa)
#
#
# Indices 1 2 3 4 5 6 
#
# 1 72.5792 11.1857 10.0419 0.0000 -17.3763 0.0000
# 2 11.1857 89.5351 6.6393 0.0000 10.2973 0.0000
# 3 10.0419 6.6393 31.0609 0.0000 -0.8145 0.0000
# 4 0.0000 0.0000 0.0000 23.4481 0.0000 -12.8750
# 5 -17.3763 10.2973 -0.8145 0.0000 24.8944 0.0000
# 6 0.0000 0.0000 0.0000 -12.8750 0.0000 20.8064
#
#
#
# Elastic Compliance Matrix: (Units=1/GPa)
#
#
# Indices 1 2 3 4 5 6 
#
# 1 0.018380 -0.003567 -0.004809 0.000000 0.014147 0.000000
# 2 -0.003567 0.012638 -0.001752 0.000000 -0.007775 0.000000
# 3 -0.004809 -0.001752 0.034084 0.000000 -0.001517 0.000000
# 4 0.000000 0.000000 0.000000 0.064595 0.000000 0.039971
# 5 0.014147 -0.007775 -0.001517 0.000000 0.053211 0.000000
# 6 0.000000 0.000000 0.000000 0.039971 0.000000 0.072796
#
#
# Mechanical properties :
#
#
# Convention : Reuss Voigt Hill
#
# Bulk Modulus (GPa) = 22.29791 27.65654 24.97723
# Shear Modulus (GPa) = 17.18746 24.85035 21.01890
#
# Velocity S-wave (km/s) = 2.85983 3.43875 3.16256
# Velocity P-wave (km/s) = 4.63845 5.37838 5.02206
#
# Compressibility (1/GPa) = 0.04484726
#
# Stress axis : x y z
#
# Youngs Moduli (GPa) = 54.40662 79.12350 29.33902
#
# Poissons Ratio (x) = 0.28221 0.14109
# Poissons Ratio (y) = 0.19405 0.05141
# Poissons Ratio (z) = 0.26163 0.13864
#
# Static dielectric constant tensor:
#      x y z
#    x 1.717190 0.000000 -0.013350 
#    y 0.000000 1.750980 0.000000 
#    z -0.013350 0.000000 1.754810 
# 
# From -- ./inp_files/40259.got.cif
#   From: 2010.05.17/outbox.cif.g08.bks.cpg/sg14_21_cif.got.tgz:40259.got - 2010.06.03 17:49:19.
