data_PCOD9249393
_publ_section_title
;
Structure prediction by ZEFSAII (Michael W. Deem and Ramdas Pophale) SiO2 
 PCOD9249393
Probable space group: P 21/C
;
_chemical_formula_sum "Si O2"
_cell_formula_units_Z 16
_cell_length_a 20.151035
_cell_length_b 4.760427
_cell_length_c 10.783118
_cell_angle_alpha 90.000000
_cell_angle_beta 33.508294
_cell_angle_gamma 90.000000
_cell_volume 571.047309
_symmetry_space_group_name_H-M "P 21/C"
_symmetry_group_IT_number 14
_symmetry_cell_setting 'monoclinic'
loop_
_space_group_symop_operation_xyz
x,y,z
-x,1/2+y,1/2-z
-x,-y,-z
x,1/2-y,1/2+z
loop_
_atom_site_type_symbol
_atom_site_label
_atom_site_fract_x
_atom_site_fract_y
_atom_site_fract_z
Si Si1 0.512206 0.222063 0.147227
Si Si2 0.854581 0.318793 0.777551
Si Si3 0.112065 0.314266 0.943021
Si Si4 0.307317 0.461662 0.301019
O O1 0.477448 0.406404 0.322192
O O2 0.409017 0.273611 0.207239
O O3 0.631687 0.355052 0.902911
O O4 0.843621 0.632326 0.745292
O O5 0.974161 0.279445 0.674616
O O6 0.881688 0.132737 0.612169
O O7 0.744007 0.182150 0.019624
O O8 0.200483 0.271237 0.414034
#
# Coordination Sequence:
#
# PCOD9249393 Si02
#       4
#     4   4   4   4
#     4  11  26  45  66  98 134 171 224 283 328 384
#     4  10  23  41  62  94 132 167 212 267 319 385
#     4  10  23  41  62  94 132 167 212 267 319 385
#     4  11  24  42  72  96 130 181 222 266 336 399
#
# _framework density 28.018695000000001
#
# number of rings (size 3 to 8) (size 9 to 14) (size 15 to 20)
#    0.000    1.500    0.000    3.000    0.000   16.000 
#    0.000    0.000    0.000    0.000    0.000    0.000 
#    0.000    0.000    0.000    0.000    0.000    0.000 
#
# Total GULP energy -90079.666712 kJ/mol
# GULP energy per Si atom -5629.979169 kJ/mol
# Density = 2.795492 g / cm^3
# Si number density = 28.018695 Si / 1000 Ang^3
#
#
#
# Elastic Constant Matrix: (Units=GPa)
#
#
# Indices 1 2 3 4 5 6 
#
# 1 152.3943 12.4431 8.6450 0.0000 -17.2099 0.0000
# 2 12.4431 110.5927 13.8244 0.0000 2.1291 0.0000
# 3 8.6450 13.8244 78.5490 0.0000 13.5707 0.0000
# 4 0.0000 0.0000 0.0000 32.6994 0.0000 -2.7261
# 5 -17.2099 2.1291 13.5707 0.0000 44.5573 0.0000
# 6 0.0000 0.0000 0.0000 -2.7261 0.0000 48.5941
#
#
#
# Elastic Compliance Matrix: (Units=1/GPa)
#
#
# Indices 1 2 3 4 5 6 
#
# 1 0.007038 -0.000703 -0.001189 0.000000 0.003114 0.000000
# 2 -0.000703 0.009316 -0.001518 0.000000 -0.000254 0.000000
# 3 -0.001189 -0.001518 0.013929 0.000000 -0.004629 0.000000
# 4 0.000000 0.000000 0.000000 0.030725 0.000000 0.001724
# 5 0.003114 -0.000254 -0.004629 0.000000 0.025068 0.000000
# 6 0.000000 0.000000 0.000000 0.001724 0.000000 0.020675
#
#
# Mechanical properties :
#
#
# Convention : Reuss Voigt Hill
#
# Bulk Modulus (GPa) = 42.62153 45.70680 44.16417
# Shear Modulus (GPa) = 41.18844 45.61172 43.40008
#
# Velocity S-wave (km/s) = 3.83826 4.03911 3.93996
# Velocity P-wave (km/s) = 5.90659 6.17259 6.04106
#
# Compressibility (1/GPa) = 0.02346232
#
# Stress axis : x y z
#
# Youngs Moduli (GPa) = 142.07601 107.34221 71.79422
#
# Poissons Ratio (x) = 0.07549 0.08536
# Poissons Ratio (y) = 0.09992 0.10900
# Poissons Ratio (z) = 0.16892 0.16297
#
# Static dielectric constant tensor:
#      x y z
#    x 2.143840 0.000000 0.012860 
#    y 0.000000 2.049160 0.000000 
#    z 0.012860 0.000000 2.118140 
# 
# From -- ./inp_files/19235.got.cif
#   From: 2010.05.17/outbox.cif.g08.bks.cpg/sg14_10_cif.got.tgz:19235.got - 2010.06.03 17:49:19.
