data_PCOD9249801
_publ_section_title
;
Structure prediction by ZEFSAII (Michael W. Deem and Ramdas Pophale) SiO2 
 PCOD9249801
Probable space group: P 21/C
;
_chemical_formula_sum "Si O2"
_cell_formula_units_Z 30
_cell_length_a 14.923725
_cell_length_b 11.486914
_cell_length_c 8.890633
_cell_angle_alpha 90.000000
_cell_angle_beta 72.237091
_cell_angle_gamma 90.000000
_cell_volume 1451.441138
_symmetry_space_group_name_H-M "P 21/C"
_symmetry_group_IT_number 14
_symmetry_cell_setting 'monoclinic'
loop_
_space_group_symop_operation_xyz
x,y,z
-x,1/2+y,1/2-z
-x,-y,-z
x,1/2-y,1/2+z
loop_
_atom_site_type_symbol
_atom_site_label
_atom_site_fract_x
_atom_site_fract_y
_atom_site_fract_z
Si Si1 0.190162 0.660961 0.256257
Si Si2 0.243931 0.461789 0.029954
Si Si3 0.500000 0.500000 0.500000
Si Si4 0.486977 0.724170 0.292300
Si Si5 0.037327 0.386833 0.070600
Si Si6 0.938503 0.287459 0.405573
Si Si7 0.440878 0.381389 0.026638
Si Si8 0.671093 0.136125 0.740412
O O1 0.236282 0.540834 0.183580
O O2 0.113337 0.689371 0.167652
O O3 0.138592 0.657061 0.443316
O O4 0.263373 0.767702 0.215448
O O5 0.147675 0.395181 0.049271
O O6 0.339440 0.391316 0.004713
O O7 0.261699 0.547371 0.881037
O O8 0.499475 0.601780 0.367895
O O9 0.404068 0.562697 0.624501
O O10 0.561872 0.819140 0.311607
O O11 0.388088 0.790569 0.353795
O O12 0.500009 0.704385 0.109124
O O13 0.984108 0.371466 0.257841
O O14 0.000000 0.500000 0.000000
O O15 0.011976 0.276872 0.977790
O O16 0.500000 0.500000 0.000000
#
# Coordination Sequence:
#
# PCOD9249801 Si02
#       8
#     4   4   2   4   4   4   4   4
#     4  11  21  42  69 104 129 179 242 286 334 425
#     4  12  23  41  70  97 136 183 231 281 351 418
#     4  12  24  40  68  98 136 186 224 290 356 394
#     4  12  24  44  66  92 141 180 227 289 343 396
#     4  11  23  47  72  99 144 174 223 299 353 422
#     4  10  23  43  72 101 136 177 223 294 361 403
#     4  12  25  45  66  98 139 181 229 287 339 409
#     4  12  23  42  68 102 134 184 240 288 338 420
#
# _framework density 20.669111999999998
#
# number of rings (size 3 to 8) (size 9 to 14) (size 15 to 20)
#    0.000    0.533    6.667    2.400    0.000    1.600 
#    0.000    0.000    0.000    0.000    0.000    0.000 
#    0.000    0.000    0.000    0.000    0.000    0.000 
#
# Total GULP energy -167033.618997 kJ/mol
# GULP energy per Si atom -5567.787300 kJ/mol
# Density = 2.062207 g / cm^3
# Si number density = 20.669112 Si / 1000 Ang^3
#
#
#
# Elastic Constant Matrix: (Units=GPa)
#
#
# Indices 1 2 3 4 5 6 
#
# 1 94.1212 21.0469 24.6148 0.0000 -7.0464 0.0000
# 2 21.0469 49.4123 31.8727 0.0000 -6.3454 0.0000
# 3 24.6148 31.8727 121.4222 0.0000 -17.5368 0.0000
# 4 0.0000 0.0000 0.0000 37.8737 0.0000 4.4958
# 5 -7.0464 -6.3454 -17.5368 0.0000 30.1247 0.0000
# 6 0.0000 0.0000 0.0000 4.4958 0.0000 44.7576
#
#
#
# Elastic Compliance Matrix: (Units=1/GPa)
#
#
# Indices 1 2 3 4 5 6 
#
# 1 0.011955 -0.004195 -0.001142 0.000000 0.001248 0.000000
# 2 -0.004195 0.025901 -0.005789 0.000000 0.001104 0.000000
# 3 -0.001142 -0.005789 0.010669 0.000000 0.004724 0.000000
# 4 0.000000 0.000000 0.000000 0.026722 0.000000 -0.002684
# 5 0.001248 0.001104 0.004724 0.000000 0.036470 0.000000
# 6 0.000000 0.000000 0.000000 -0.002684 0.000000 0.022612
#
#
# Mechanical properties :
#
#
# Convention : Reuss Voigt Hill
#
# Bulk Modulus (GPa) = 38.06270 46.66941 42.36606
# Shear Modulus (GPa) = 30.24098 35.04596 32.64347
#
# Velocity S-wave (km/s) = 3.82920 4.12220 3.97840
# Velocity P-wave (km/s) = 6.16487 6.72941 6.45332
#
# Compressibility (1/GPa) = 0.02627244
#
# Stress axis : x y z
#
# Youngs Moduli (GPa) = 83.64841 38.60914 93.72848
#
# Poissons Ratio (x) = 0.16197 0.10704
# Poissons Ratio (y) = 0.35092 0.54258
# Poissons Ratio (z) = 0.09553 0.22350
#
# Static dielectric constant tensor:
#      x y z
#    x 1.739760 0.000000 0.015360 
#    y 0.000000 1.746050 0.000000 
#    z 0.015360 0.000000 1.780280 
# 
# From -- ./inp_files/15526.got.cif
#   From: 2010.05.17/outbox.cif.g08.bks.cpg/sg14_8_cif.got.tgz:15526.got - 2010.06.03 17:49:19.
