data_PCOD9249745
_publ_section_title
;
Structure prediction by ZEFSAII (Michael W. Deem and Ramdas Pophale) SiO2 
 PCOD9249745
Probable space group: P 21/C
;
_chemical_formula_sum "Si O2"
_cell_formula_units_Z 28
_cell_length_a 5.146833
_cell_length_b 8.872136
_cell_length_c 24.711272
_cell_angle_alpha 90.000000
_cell_angle_beta 69.490989
_cell_angle_gamma 90.000000
_cell_volume 1056.879444
_symmetry_space_group_name_H-M "P 21/C"
_symmetry_group_IT_number 14
_symmetry_cell_setting 'monoclinic'
loop_
_space_group_symop_operation_xyz
x,y,z
-x,1/2+y,1/2-z
-x,-y,-z
x,1/2-y,1/2+z
loop_
_atom_site_type_symbol
_atom_site_label
_atom_site_fract_x
_atom_site_fract_y
_atom_site_fract_z
Si Si1 0.685287 0.607792 0.266177
Si Si2 0.886929 0.882664 0.307218
Si Si3 0.500037 0.596046 0.111305
Si Si4 0.280740 0.930050 0.122402
Si Si5 0.259119 0.891519 0.967694
Si Si6 0.846959 0.147078 0.144816
Si Si7 0.875874 0.096153 0.458915
O O1 0.840566 0.767434 0.261166
O O2 0.675029 0.519580 0.324700
O O3 0.361551 0.648674 0.288650
O O4 0.857278 0.495776 0.217078
O O5 0.930784 0.772361 0.354704
O O6 0.616003 0.982593 0.335721
O O7 0.828245 0.618683 0.092703
O O8 0.363478 0.536547 0.064242
O O9 0.357283 0.759090 0.125657
O O10 0.471754 0.004489 0.061725
O O11 0.969489 0.978798 0.131078
O O12 0.237786 0.814179 0.909692
O O13 0.244465 0.753667 0.010060
O O14 0.000000 0.000000 0.000000
O O15 0.000000 0.000000 0.500000
#
# Coordination Sequence:
#
# PCOD9249745 Si02
#       7
#     4   4   4   4   4   4   4
#     4  10  24  46  71 100 136 179 233 291 368 420
#     4  11  25  45  70  99 139 180 232 299 358 434
#     4  12  27  45  69 105 142 187 238 295 352 429
#     4  10  23  43  68 104 136 182 240 293 349 430
#     4  11  22  42  69  98 142 188 238 290 348 427
#     4  10  24  42  70 102 137 181 236 299 354 424
#     4  12  28  44  68 103 144 193 239 290 358 417
#
# _framework density 26.493089000000001
#
# number of rings (size 3 to 8) (size 9 to 14) (size 15 to 20)
#    0.000    1.143    1.429    3.000   12.000    4.571 
#    0.000    0.000    0.000    0.000    0.000    0.000 
#    0.000    0.000    0.000    0.000    0.000    0.000 
#
# Total GULP energy -156658.376206 kJ/mol
# GULP energy per Si atom -5594.942007 kJ/mol
# Density = 2.643279 g / cm^3
# Si number density = 26.493089 Si / 1000 Ang^3
#
#
#
# Elastic Constant Matrix: (Units=GPa)
#
#
# Indices 1 2 3 4 5 6 
#
# 1 91.0201 12.3507 23.1388 0.0000 -20.8493 0.0000
# 2 12.3507 138.7205 36.2881 0.0000 -14.0413 0.0000
# 3 23.1388 36.2881 77.4594 0.0000 -12.8982 0.0000
# 4 0.0000 0.0000 0.0000 52.7555 0.0000 -7.3005
# 5 -20.8493 -14.0413 -12.8982 0.0000 35.3159 0.0000
# 6 0.0000 0.0000 0.0000 -7.3005 0.0000 29.1460
#
#
#
# Elastic Compliance Matrix: (Units=1/GPa)
#
#
# Indices 1 2 3 4 5 6 
#
# 1 0.013273 0.000287 -0.002955 0.000000 0.006870 0.000000
# 2 0.000287 0.008354 -0.003639 0.000000 0.002162 0.000000
# 3 -0.002955 -0.003639 0.015935 0.000000 0.002628 0.000000
# 4 0.000000 0.000000 0.000000 0.019636 0.000000 0.004918
# 5 0.006870 0.002162 0.002628 0.000000 0.034191 0.000000
# 6 0.000000 0.000000 0.000000 0.004918 0.000000 0.035542
#
#
# Mechanical properties :
#
#
# Convention : Reuss Voigt Hill
#
# Bulk Modulus (GPa) = 40.08568 50.08390 45.08479
# Shear Modulus (GPa) = 33.81518 39.13830 36.47674
#
# Velocity S-wave (km/s) = 3.57652 3.84774 3.71460
# Velocity P-wave (km/s) = 5.67616 6.21978 5.95418
#
# Compressibility (1/GPa) = 0.02494656
#
# Stress axis : x y z
#
# Youngs Moduli (GPa) = 75.34275 119.70248 62.75336
#
# Poissons Ratio (x) = -0.03433 0.18544
# Poissons Ratio (y) = -0.02161 0.22839
# Poissons Ratio (z) = 0.22265 0.43565
#
# Static dielectric constant tensor:
#      x y z
#    x 2.321770 0.000000 -0.027240 
#    y 0.000000 2.005270 0.000000 
#    z -0.027240 0.000000 2.168270 
# 
# From -- ./inp_files/78765.got.cif
#   From: 2010.05.17/outbox.cif.g08.bks.cpg/sg14_40_cif.got.tgz:78765.got - 2010.06.03 17:49:19.
