data_PCOD9249231
_publ_section_title
;
Structure prediction by ZEFSAII (Michael W. Deem and Ramdas Pophale) SiO2 
 PCOD9249231
Probable space group: P 21/C
;
_chemical_formula_sum "Si O2"
_cell_formula_units_Z 28
_cell_length_a 12.546071
_cell_length_b 20.631917
_cell_length_c 13.767121
_cell_angle_alpha 90.000000
_cell_angle_beta 20.886452
_cell_angle_gamma 90.000000
_cell_volume 1270.488696
_symmetry_space_group_name_H-M "P 21/C"
_symmetry_group_IT_number 14
_symmetry_cell_setting 'monoclinic'
loop_
_space_group_symop_operation_xyz
x,y,z
-x,1/2+y,1/2-z
-x,-y,-z
x,1/2-y,1/2+z
loop_
_atom_site_type_symbol
_atom_site_label
_atom_site_fract_x
_atom_site_fract_y
_atom_site_fract_z
Si Si1 0.797959 0.101309 0.623805
Si Si2 0.542288 0.764899 0.106148
Si Si3 0.846090 0.552863 0.359702
Si Si4 0.411335 0.665164 0.377740
Si Si5 0.323443 0.274076 0.221580
Si Si6 0.044689 0.666134 0.308469
Si Si7 0.944872 0.584427 0.882284
O O1 0.679432 0.175119 0.726815
O O2 0.919162 0.080714 0.625164
O O3 0.040318 0.091178 0.333389
O O4 0.511517 0.057595 0.839059
O O5 0.385590 0.712884 0.309051
O O6 0.662983 0.734647 0.904362
O O7 0.820288 0.793842 0.930113
O O8 0.970464 0.592276 0.345976
O O9 0.975981 0.481459 0.239471
O O10 0.616525 0.703988 0.280954
O O11 0.110080 0.643198 0.686015
O O12 0.599467 0.602531 0.185532
O O13 0.043092 0.308859 0.509839
O O14 0.615326 0.316137 0.002872
#
# Coordination Sequence:
#
# PCOD9249231 Si02
#       7
#     4   4   4   4   4   4   4
#     4  11  22  37  61  88 117 158 196 240 309 356
#     4  10  23  38  64  87 126 152 197 254 296 362
#     4  11  22  39  59  86 120 159 198 243 291 358
#     4  11  23  38  56  92 117 159 195 238 309 349
#     4  11  22  40  61  86 123 156 196 252 295 360
#     4  10  23  38  60  89 115 157 204 235 304 355
#     4  12  23  38  59  86 126 153 197 245 295 359
#
# _framework density 22.038761999999998
#
# number of rings (size 3 to 8) (size 9 to 14) (size 15 to 20)
#    0.000    1.143    1.429    6.857    2.000    4.571 
#    0.000    0.000    0.000    5.143    0.000    0.000 
#    0.000    0.000    0.000    0.000    0.000    0.000 
#
# Total GULP energy -156893.663259 kJ/mol
# GULP energy per Si atom -5603.345116 kJ/mol
# Density = 2.198860 g / cm^3
# Si number density = 22.038762 Si / 1000 Ang^3
#
#
#
# Elastic Constant Matrix: (Units=GPa)
#
#
# Indices 1 2 3 4 5 6 
#
# 1 44.1768 -1.7160 9.4320 0.0000 14.0768 0.0000
# 2 -1.7160 58.5758 6.9392 0.0000 6.0548 0.0000
# 3 9.4320 6.9392 83.7321 0.0000 12.0170 0.0000
# 4 0.0000 0.0000 0.0000 30.6660 0.0000 8.8843
# 5 14.0768 6.0548 12.0170 0.0000 41.6563 0.0000
# 6 0.0000 0.0000 0.0000 8.8843 0.0000 15.2519
#
#
#
# Elastic Compliance Matrix: (Units=1/GPa)
#
#
# Indices 1 2 3 4 5 6 
#
# 1 0.025796 0.001848 -0.001846 0.000000 -0.008453 0.000000
# 2 0.001848 0.017566 -0.001260 0.000000 -0.002814 0.000000
# 3 -0.001846 -0.001260 0.012664 0.000000 -0.002846 0.000000
# 4 0.000000 0.000000 0.000000 0.039230 0.000000 -0.022851
# 5 -0.008453 -0.002814 -0.002846 0.000000 0.028093 0.000000
# 6 0.000000 0.000000 0.000000 -0.022851 0.000000 0.078877
#
#
# Mechanical properties :
#
#
# Convention : Reuss Voigt Hill
#
# Bulk Modulus (GPa) = 18.68794 23.97723 21.33258
# Shear Modulus (GPa) = 22.46413 28.97012 25.71713
#
# Velocity S-wave (km/s) = 3.19611 3.62955 3.41970
# Velocity P-wave (km/s) = 4.70300 5.33554 5.02922
#
# Compressibility (1/GPa) = 0.05351045
#
# Stress axis : x y z
#
# Youngs Moduli (GPa) = 38.76596 56.92744 78.96589
#
# Poissons Ratio (x) = -0.10521 0.14575
# Poissons Ratio (y) = -0.07165 0.09950
# Poissons Ratio (z) = 0.07155 0.07173
#
# Static dielectric constant tensor:
#      x y z
#    x 1.789540 0.000000 -0.011980 
#    y 0.000000 1.832750 0.000000 
#    z -0.011980 0.000000 1.784410 
# 
# From -- ./inp_files/37664.got.cif
#   From: 2010.05.17/outbox.cif.g08.bks.cpg/sg14_19_cif.got.tgz:37664.got - 2010.06.03 17:49:19.
