data_PCOD9249206
_publ_section_title
;
Structure prediction by ZEFSAII (Michael W. Deem and Ramdas Pophale) SiO2 
 PCOD9249206
Probable space group: P 21/C
;
_chemical_formula_sum "Si O2"
_cell_formula_units_Z 28
_cell_length_a 22.288999
_cell_length_b 7.085364
_cell_length_c 16.921516
_cell_angle_alpha 90.000000
_cell_angle_beta 156.361920
_cell_angle_gamma 90.000000
_cell_volume 1071.496754
_symmetry_space_group_name_H-M "P 21/C"
_symmetry_group_IT_number 14
_symmetry_cell_setting 'monoclinic'
loop_
_space_group_symop_operation_xyz
x,y,z
-x,1/2+y,1/2-z
-x,-y,-z
x,1/2-y,1/2+z
loop_
_atom_site_type_symbol
_atom_site_label
_atom_site_fract_x
_atom_site_fract_y
_atom_site_fract_z
Si Si1 0.081480 0.676207 0.858959
Si Si2 0.940277 0.717797 0.021439
Si Si3 0.285105 0.154308 0.360761
Si Si4 0.786912 0.423130 0.751807
Si Si5 0.201279 0.315351 0.926096
Si Si6 0.397303 0.718724 0.722174
Si Si7 0.507984 0.349247 0.341315
O O1 0.010283 0.723489 0.687283
O O2 0.143533 0.471038 0.916630
O O3 0.944053 0.685179 0.753732
O O4 0.229100 0.803415 0.050802
O O5 0.075604 0.680720 0.123107
O O6 0.827219 0.873618 0.847118
O O7 0.159367 0.476382 0.103076
O O8 0.254455 0.379707 0.342996
O O9 0.238958 0.075819 0.390048
O O10 0.461224 0.126706 0.562036
O O11 0.633241 0.307904 0.558666
O O12 0.355369 0.229634 0.146006
O O13 0.410912 0.664616 0.645883
O O14 0.442030 0.941931 0.777340
#
# Coordination Sequence:
#
# PCOD9249206 Si02
#       7
#     4   4   4   4   4   4   4
#     4  11  22  34  52  80 107 141 178 211 266 309
#     4   9  17  30  57  81 104 134 173 214 266 310
#     4   8  17  34  54  77 103 132 171 219 261 300
#     4   8  15  29  56  80 102 127 174 214 261 307
#     4  10  23  33  52  78 109 141 174 219 260 310
#     4   9  17  30  54  74 104 133 174 213 254 312
#     4   9  16  32  50  79  99 132 175 215 254 309
#
# _framework density 26.131671000000001
#
# number of rings (size 3 to 8) (size 9 to 14) (size 15 to 20)
#    0.857    2.000    1.429    0.000    2.000    1.714 
#    0.000    0.714    3.143    0.857    0.000    0.000 
#    0.000    0.000    0.000    0.000    0.000    0.000 
#
# Total GULP energy -156143.587109 kJ/mol
# GULP energy per Si atom -5576.556682 kJ/mol
# Density = 2.607219 g / cm^3
# Si number density = 26.131671 Si / 1000 Ang^3
#
#
#
# Elastic Constant Matrix: (Units=GPa)
#
#
# Indices 1 2 3 4 5 6 
#
# 1 48.9745 1.9795 48.8575 0.0000 4.6981 0.0000
# 2 1.9795 36.7701 21.2095 0.0000 2.3876 0.0000
# 3 48.8575 21.2095 237.5243 0.0000 13.7848 0.0000
# 4 0.0000 0.0000 0.0000 27.3807 0.0000 1.6877
# 5 4.6981 2.3876 13.7848 0.0000 31.0700 0.0000
# 6 0.0000 0.0000 0.0000 1.6877 0.0000 23.2760
#
#
#
# Elastic Compliance Matrix: (Units=1/GPa)
#
#
# Indices 1 2 3 4 5 6 
#
# 1 0.025882 0.001824 -0.005390 0.000000 -0.001662 0.000000
# 2 0.001824 0.028838 -0.002880 0.000000 -0.001214 0.000000
# 3 -0.005390 -0.002880 0.005662 0.000000 -0.001476 0.000000
# 4 0.000000 0.000000 0.000000 0.036686 0.000000 -0.002660
# 5 -0.001662 -0.001214 -0.001476 0.000000 0.033185 0.000000
# 6 0.000000 0.000000 0.000000 -0.002660 0.000000 0.043156
#
#
# Mechanical properties :
#
#
# Convention : Reuss Voigt Hill
#
# Bulk Modulus (GPa) = 21.05758 51.92910 36.49334
# Shear Modulus (GPa) = 24.73665 33.09351 28.91508
#
# Velocity S-wave (km/s) = 3.08005 3.56253 3.33004
# Velocity P-wave (km/s) = 4.55244 6.06938 5.36480
#
# Compressibility (1/GPa) = 0.04748883
#
# Stress axis : x y z
#
# Youngs Moduli (GPa) = 38.63717 34.67681 176.62888
#
# Poissons Ratio (x) = -0.06324 0.95205
# Poissons Ratio (y) = -0.07046 0.50864
# Poissons Ratio (z) = 0.20826 0.09986
#
# Static dielectric constant tensor:
#      x y z
#    x 2.014790 0.000000 0.034140 
#    y 0.000000 2.312800 0.000000 
#    z 0.034140 0.000000 2.205950 
# 
# From -- ./inp_files/70451.got.cif
#   From: 2010.05.17/outbox.cif.g08.bks.cpg/sg14_36_cif.got.tgz:70451.got - 2010.06.03 17:49:19.
