data_PCOD9249258
_publ_section_title
;
Structure prediction by ZEFSAII (Michael W. Deem and Ramdas Pophale) SiO2 
 PCOD9249258
Probable space group: P 21/C
;
_chemical_formula_sum "Si O2"
_cell_formula_units_Z 16
_cell_length_a 12.267019
_cell_length_b 7.615665
_cell_length_c 13.454424
_cell_angle_alpha 90.000000
_cell_angle_beta 152.489862
_cell_angle_gamma 90.000000
_cell_volume 580.584136
_symmetry_space_group_name_H-M "P 21/C"
_symmetry_group_IT_number 14
_symmetry_cell_setting 'monoclinic'
loop_
_space_group_symop_operation_xyz
x,y,z
-x,1/2+y,1/2-z
-x,-y,-z
x,1/2-y,1/2+z
loop_
_atom_site_type_symbol
_atom_site_label
_atom_site_fract_x
_atom_site_fract_y
_atom_site_fract_z
Si Si1 0.362397 0.741161 0.208652
Si Si2 0.214087 0.112531 0.568347
Si Si3 0.673696 0.737512 0.634694
Si Si4 0.813974 0.110497 0.739149
O O1 0.532820 0.835886 0.271140
O O2 0.551607 0.651529 0.440169
O O3 0.222556 0.870995 0.169758
O O4 0.198738 0.592588 0.028665
O O5 0.211732 0.124386 0.686666
O O6 0.018027 0.253423 0.376439
O O7 0.442942 0.822815 0.502469
O O8 0.823433 0.906325 0.719615
#
# Coordination Sequence:
#
# PCOD9249258 Si02
#       4
#     4   4   4   4
#     4  10  23  39  61  98 128 167 228 265 323 404
#     4  12  21  41  63  92 132 174 212 273 333 383
#     4   9  21  42  61  91 128 161 224 276 312 395
#     4   9  21  42  63  88 127 170 216 272 331 375
#
# _framework density 27.558451999999999
#
# number of rings (size 3 to 8) (size 9 to 14) (size 15 to 20)
#    1.500    0.500    0.000    3.750    0.000    0.000 
#    9.000    0.000    0.000    0.000    0.000    0.000 
#    0.000    0.000    0.000    0.000    0.000    0.000 
#
# Total GULP energy -89381.443948 kJ/mol
# GULP energy per Si atom -5586.340247 kJ/mol
# Density = 2.749573 g / cm^3
# Si number density = 27.558452 Si / 1000 Ang^3
#
#
#
# Elastic Constant Matrix: (Units=GPa)
#
#
# Indices 1 2 3 4 5 6 
#
# 1 98.1872 28.2952 8.3075 0.0000 29.8922 0.0000
# 2 28.2952 161.1737 44.1853 0.0000 22.7554 0.0000
# 3 8.3075 44.1853 69.1549 0.0000 7.0746 0.0000
# 4 0.0000 0.0000 0.0000 61.9807 0.0000 5.3435
# 5 29.8922 22.7554 7.0746 0.0000 54.6726 0.0000
# 6 0.0000 0.0000 0.0000 5.3435 0.0000 43.6601
#
#
#
# Elastic Compliance Matrix: (Units=1/GPa)
#
#
# Indices 1 2 3 4 5 6 
#
# 1 0.012471 -0.001296 -0.000028 0.000000 -0.006276 0.000000
# 2 -0.001296 0.008022 -0.004764 0.000000 -0.002014 0.000000
# 3 -0.000028 -0.004764 0.017535 0.000000 -0.000271 0.000000
# 4 0.000000 0.000000 0.000000 0.016306 0.000000 -0.001996
# 5 -0.006276 -0.002014 -0.000271 0.000000 0.022595 0.000000
# 6 0.000000 0.000000 0.000000 -0.001996 0.000000 0.023148
#
#
# Mechanical properties :
#
#
# Convention : Reuss Voigt Hill
#
# Bulk Modulus (GPa) = 38.68079 54.45466 46.56772
# Shear Modulus (GPa) = 41.36612 48.57784 44.97198
#
# Velocity S-wave (km/s) = 3.87852 4.20303 4.04403
# Velocity P-wave (km/s) = 5.84154 6.58457 6.22415
#
# Compressibility (1/GPa) = 0.02585263
#
# Stress axis : x y z
#
# Youngs Moduli (GPa) = 80.18659 124.65164 57.02780
#
# Poissons Ratio (x) = 0.16150 0.00162
# Poissons Ratio (y) = 0.10389 0.27168
# Poissons Ratio (z) = 0.00227 0.59385
#
# Static dielectric constant tensor:
#      x y z
#    x 2.106640 0.000000 -0.015740 
#    y 0.000000 2.142190 0.000000 
#    z -0.015740 0.000000 2.259050 
# 
# From -- ./inp_files/58952.got.cif
#   From: 2010.05.17/outbox.cif.g08.bks.cpg/sg14_30_cif.got.tgz:58952.got - 2010.06.03 17:49:19.
