data_PCOD9249834
_publ_section_title
;
Structure prediction by ZEFSAII (Michael W. Deem and Ramdas Pophale) SiO2 
 PCOD9249834
Probable space group: P 21/C
;
_chemical_formula_sum "Si O2"
_cell_formula_units_Z 20
_cell_length_a 11.507084
_cell_length_b 7.609365
_cell_length_c 9.257176
_cell_angle_alpha 90.000000
_cell_angle_beta 72.416376
_cell_angle_gamma 90.000000
_cell_volume 772.700794
_symmetry_space_group_name_H-M "P 21/C"
_symmetry_group_IT_number 14
_symmetry_cell_setting 'monoclinic'
loop_
_space_group_symop_operation_xyz
x,y,z
-x,1/2+y,1/2-z
-x,-y,-z
x,1/2-y,1/2+z
loop_
_atom_site_type_symbol
_atom_site_label
_atom_site_fract_x
_atom_site_fract_y
_atom_site_fract_z
Si Si1 0.405319 0.273581 0.073939
Si Si2 0.489356 0.917032 0.739582
Si Si3 0.887648 0.439053 0.201579
Si Si4 0.213377 0.635576 0.445760
Si Si5 0.863119 0.842267 0.247349
O O1 0.418454 0.095987 0.160964
O O2 0.481745 0.411404 0.142343
O O3 0.266856 0.337862 0.123007
O O4 0.461940 0.274715 0.895671
O O5 0.354871 0.883804 0.851750
O O6 0.836196 0.321069 0.092409
O O7 0.813994 0.390718 0.376151
O O8 0.880737 0.646468 0.180358
O O9 0.025862 0.388081 0.190152
O O10 0.146150 0.484030 0.377444
#
# Coordination Sequence:
#
# PCOD9249834 Si02
#       5
#     4   4   4   4   4
#     4  10  24  41  69  95 136 173 227 275 345 407
#     4  10  23  44  64 100 132 173 222 284 337 414
#     4  12  26  46  74 101 144 186 234 295 346 412
#     4  11  26  47  70 107 139 183 238 287 353 419
#     4  11  26  44  71 103 140 187 234 287 345 416
#
# _framework density 25.883240000000001
#
# number of rings (size 3 to 8) (size 9 to 14) (size 15 to 20)
#    0.000    1.200    2.000    1.800    8.400    3.200 
#    0.000    0.000    0.000    0.000    0.000    0.000 
#    0.000    0.000    0.000    0.000    0.000    0.000 
#
# Total GULP energy -112274.197192 kJ/mol
# GULP energy per Si atom -5613.709860 kJ/mol
# Density = 2.582433 g / cm^3
# Si number density = 25.883240 Si / 1000 Ang^3
#
#
#
# Elastic Constant Matrix: (Units=GPa)
#
#
# Indices 1 2 3 4 5 6 
#
# 1 68.2091 -12.6404 22.0678 0.0000 -4.2314 0.0000
# 2 -12.6404 105.3879 -1.2012 0.0000 1.3537 0.0000
# 3 22.0678 -1.2012 145.8942 0.0000 -20.6762 0.0000
# 4 0.0000 0.0000 0.0000 27.2850 0.0000 9.5518
# 5 -4.2314 1.3537 -20.6762 0.0000 25.5700 0.0000
# 6 0.0000 0.0000 0.0000 9.5518 0.0000 44.0084
#
#
#
# Elastic Compliance Matrix: (Units=1/GPa)
#
#
# Indices 1 2 3 4 5 6 
#
# 1 0.015784 0.001859 -0.002277 0.000000 0.000672 0.000000
# 2 0.001859 0.009714 -0.000260 0.000000 -0.000417 0.000000
# 3 -0.002277 -0.000260 0.008070 0.000000 0.006162 0.000000
# 4 0.000000 0.000000 0.000000 0.039664 0.000000 -0.008609
# 5 0.000672 -0.000417 0.006162 0.000000 0.044225 0.000000
# 6 0.000000 0.000000 0.000000 -0.008609 0.000000 0.024591
#
#
# Mechanical properties :
#
#
# Convention : Reuss Voigt Hill
#
# Bulk Modulus (GPa) = 31.04587 37.32705 34.18646
# Shear Modulus (GPa) = 32.43775 40.12369 36.28072
#
# Velocity S-wave (km/s) = 3.54394 3.94150 3.74800
# Velocity P-wave (km/s) = 5.36346 5.93014 5.65390
#
# Compressibility (1/GPa) = 0.03221041
#
# Stress axis : x y z
#
# Youngs Moduli (GPa) = 63.35715 102.94356 123.91781
#
# Poissons Ratio (x) = -0.19132 0.28214
# Poissons Ratio (y) = -0.11775 0.03225
# Poissons Ratio (z) = 0.14425 0.02679
#
# Static dielectric constant tensor:
#      x y z
#    x 1.974460 0.000000 -0.016700 
#    y 0.000000 2.104180 0.000000 
#    z -0.016700 0.000000 1.955610 
# 
# From -- ./inp_files/11792.got.cif
#   From: 2010.05.17/outbox.cif.g08.bks.cpg/sg14_6_cif.got.tgz:11792.got - 2010.06.03 17:49:19.
