data_PCOD9249994
_publ_section_title
;
Structure prediction by ZEFSAII (Michael W. Deem and Ramdas Pophale) SiO2 
 PCOD9249994
Probable space group: P 21/C
;
_chemical_formula_sum "Si O2"
_cell_formula_units_Z 32
_cell_length_a 18.893499
_cell_length_b 12.424403
_cell_length_c 12.570618
_cell_angle_alpha 90.000000
_cell_angle_beta 150.914442
_cell_angle_gamma 90.000000
_cell_volume 1434.444286
_symmetry_space_group_name_H-M "P 21/C"
_symmetry_group_IT_number 14
_symmetry_cell_setting 'monoclinic'
loop_
_space_group_symop_operation_xyz
x,y,z
-x,1/2+y,1/2-z
-x,-y,-z
x,1/2-y,1/2+z
loop_
_atom_site_type_symbol
_atom_site_label
_atom_site_fract_x
_atom_site_fract_y
_atom_site_fract_z
Si Si1 0.313000 0.345295 0.775676
Si Si2 0.799853 0.631684 0.815072
Si Si3 0.010333 0.556948 0.624847
Si Si4 0.642573 0.002788 0.256494
Si Si5 0.932807 0.401053 0.705402
Si Si6 0.481273 0.383159 0.216906
Si Si7 0.272200 0.716454 0.020271
Si Si8 0.697853 0.570771 0.464831
O O1 0.301334 0.217854 0.760610
O O2 0.146027 0.386332 0.563884
O O3 0.362837 0.382480 0.724825
O O4 0.404069 0.379477 0.999290
O O5 0.763871 0.519365 0.825050
O O6 0.755567 0.646084 0.634611
O O7 0.965431 0.646064 0.067940
O O8 0.019201 0.458779 0.722764
O O9 0.000000 0.500000 0.500000
O O10 0.143671 0.642150 0.799052
O O11 0.632731 0.913033 0.338676
O O12 0.652996 0.123197 0.314290
O O13 0.500000 0.000000 0.000000
O O14 0.816540 0.306415 0.528028
O O15 0.837325 0.497798 0.624574
O O16 0.599462 0.283338 0.373988
O O17 0.578264 0.490284 0.351381
#
# Coordination Sequence:
#
# PCOD9249994 Si02
#       8
#     4   4   4   4   4   4   4   4
#     4  11  25  42  69 102 140 185 230 289 361 426
#     4  12  23  42  70 103 140 178 233 296 355 412
#     4  11  23  44  69 104 142 184 237 293 346 425
#     4  12  25  43  71 107 142 181 241 294 342 425
#     4  10  23  45  69 101 139 182 234 290 354 422
#     4  11  25  45  71 100 142 187 237 287 355 422
#     4  11  24  47  71 102 144 191 235 287 363 414
#     4  10  24  45  69  97 140 184 233 291 350 425
#
# _framework density 22.308292000000002
#
# number of rings (size 3 to 8) (size 9 to 14) (size 15 to 20)
#    0.000    1.000    3.750    2.250    1.750    1.000 
#    0.000    2.500    0.000    0.000    0.000    0.000 
#    0.000    0.000    0.000    0.000    0.000    0.000 
#
# Total GULP energy -178270.966656 kJ/mol
# GULP energy per Si atom -5570.967708 kJ/mol
# Density = 2.225752 g / cm^3
# Si number density = 22.308292 Si / 1000 Ang^3
#
#
#
# Elastic Constant Matrix: (Units=GPa)
#
#
# Indices 1 2 3 4 5 6 
#
# 1 67.1436 24.1863 32.4353 0.0000 -16.4707 0.0000
# 2 24.1863 87.9183 18.7653 0.0000 -9.8865 0.0000
# 3 32.4353 18.7653 123.3740 0.0000 -10.8048 0.0000
# 4 0.0000 0.0000 0.0000 37.1090 0.0000 12.7491
# 5 -16.4707 -9.8865 -10.8048 0.0000 35.1709 0.0000
# 6 0.0000 0.0000 0.0000 12.7491 0.0000 6.7802
#
#
#
# Elastic Compliance Matrix: (Units=1/GPa)
#
#
# Indices 1 2 3 4 5 6 
#
# 1 0.019953 -0.003835 -0.004047 0.000000 0.007023 0.000000
# 2 -0.003835 0.012774 -0.000799 0.000000 0.001549 0.000000
# 3 -0.004047 -0.000799 0.009357 0.000000 0.000755 0.000000
# 4 0.000000 0.000000 0.000000 0.076125 0.000000 -0.143141
# 5 0.007023 0.001549 0.000755 0.000000 0.032389 0.000000
# 6 0.000000 0.000000 0.000000 -0.143141 0.000000 0.416642
#
#
# Mechanical properties :
#
#
# Convention : Reuss Voigt Hill
#
# Bulk Modulus (GPa) = 40.45201 47.68997 44.07099
# Shear Modulus (GPa) = 8.43393 29.34861 18.89127
#
# Velocity S-wave (km/s) = 1.94649 3.63104 2.91319
# Velocity P-wave (km/s) = 4.81916 6.24527 5.57798
#
# Compressibility (1/GPa) = 0.02472065
#
# Stress axis : x y z
#
# Youngs Moduli (GPa) = 50.11817 78.28362 106.87096
#
# Poissons Ratio (x) = 0.30026 0.43253
# Poissons Ratio (y) = 0.19223 0.08538
# Poissons Ratio (z) = 0.20284 0.06254
#
# Static dielectric constant tensor:
#      x y z
#    x 1.949240 0.000000 0.082410 
#    y 0.000000 1.872830 0.000000 
#    z 0.082410 0.000000 1.909240 
# 
# From -- ./inp_files/35284.got.cif
#   From: 2010.05.17/outbox.cif.g08.bks.cpg/sg14_18_cif.got.tgz:35284.got - 2010.06.03 17:49:19.
