data_PCOD9249897
_publ_section_title
;
Structure prediction by ZEFSAII (Michael W. Deem and Ramdas Pophale) SiO2 
 PCOD9249897
Probable space group: P 21/C
;
_chemical_formula_sum "Si O2"
_cell_formula_units_Z 24
_cell_length_a 6.018464
_cell_length_b 13.831359
_cell_length_c 14.268938
_cell_angle_alpha 90.000000
_cell_angle_beta 55.849699
_cell_angle_gamma 90.000000
_cell_volume 982.982456
_symmetry_space_group_name_H-M "P 21/C"
_symmetry_group_IT_number 14
_symmetry_cell_setting 'monoclinic'
loop_
_space_group_symop_operation_xyz
x,y,z
-x,1/2+y,1/2-z
-x,-y,-z
x,1/2-y,1/2+z
loop_
_atom_site_type_symbol
_atom_site_label
_atom_site_fract_x
_atom_site_fract_y
_atom_site_fract_z
Si Si1 0.259459 0.387160 0.937984
Si Si2 0.281206 0.753657 0.240309
Si Si3 0.289434 0.958586 0.972277
Si Si4 0.502544 0.039120 0.742654
Si Si5 0.785602 0.249186 0.031573
Si Si6 0.774920 0.640243 0.837857
O O1 0.529549 0.322753 0.856087
O O2 0.293024 0.488507 0.877574
O O3 0.198727 0.398841 0.062713
O O4 0.025286 0.320700 0.951523
O O5 0.425015 0.857407 0.227969
O O6 0.186967 0.718778 0.365472
O O7 0.003923 0.783674 0.258572
O O8 0.229459 0.850311 0.018843
O O9 0.463501 0.966183 0.836266
O O10 0.500000 0.000000 0.000000
O O11 0.000000 0.000000 0.000000
O O12 0.246999 0.058715 0.736161
O O13 0.507769 0.305320 0.092510
#
# Coordination Sequence:
#
# PCOD9249897 Si02
#       6
#     4   4   4   4   4   4
#     4  11  23  45  75 106 153 195 249 315 386 458
#     4  10  23  44  69 106 148 196 250 313 376 461
#     4  12  29  48  76 111 153 202 260 318 386 464
#     4  11  25  46  70 109 147 200 254 318 383 459
#     4  10  24  46  68 107 145 195 253 307 383 455
#     4  10  25  43  74 107 148 191 258 309 386 456
#
# _framework density 24.415492
#
# number of rings (size 3 to 8) (size 9 to 14) (size 15 to 20)
#    0.000    1.333    1.667    1.500    9.333   10.000 
#    0.000    0.000    0.000    0.000    0.000    0.000 
#    0.000    0.000    0.000    0.000    0.000    0.000 
#
# Total GULP energy -134078.185578 kJ/mol
# GULP energy per Si atom -5586.591066 kJ/mol
# Density = 2.435992 g / cm^3
# Si number density = 24.415492 Si / 1000 Ang^3
#
#
#
# Elastic Constant Matrix: (Units=GPa)
#
#
# Indices 1 2 3 4 5 6 
#
# 1 147.2928 37.0682 33.5971 0.0000 -2.7581 0.0000
# 2 37.0682 93.9262 10.7188 0.0000 9.0390 0.0000
# 3 33.5971 10.7188 84.7718 0.0000 16.4082 0.0000
# 4 0.0000 0.0000 0.0000 42.6147 0.0000 -11.9907
# 5 -2.7581 9.0390 16.4082 0.0000 37.2493 0.0000
# 6 0.0000 0.0000 0.0000 -11.9907 0.0000 36.3781
#
#
#
# Elastic Compliance Matrix: (Units=1/GPa)
#
#
# Indices 1 2 3 4 5 6 
#
# 1 0.008457 -0.003221 -0.003517 0.000000 0.002957 0.000000
# 2 -0.003221 0.012198 0.000386 0.000000 -0.003369 0.000000
# 3 -0.003517 0.000386 0.014441 0.000000 -0.006715 0.000000
# 4 0.000000 0.000000 0.000000 0.025865 0.000000 0.008525
# 5 0.002957 -0.003369 -0.006715 0.000000 0.030841 0.000000
# 6 0.000000 0.000000 0.000000 0.008525 0.000000 0.030299
#
#
# Mechanical properties :
#
#
# Convention : Reuss Voigt Hill
#
# Bulk Modulus (GPa) = 44.65651 54.30655 49.48153
# Shear Modulus (GPa) = 35.14468 39.55551 37.35010
#
# Velocity S-wave (km/s) = 3.79811 4.02941 3.91547
# Velocity P-wave (km/s) = 6.12896 6.62866 6.38370
#
# Compressibility (1/GPa) = 0.02239315
#
# Stress axis : x y z
#
# Youngs Moduli (GPa) = 118.24009 81.98125 69.24624
#
# Poissons Ratio (x) = 0.26406 0.24354
# Poissons Ratio (y) = 0.38084 -0.02674
# Poissons Ratio (z) = 0.41584 -0.03166
#
# Static dielectric constant tensor:
#      x y z
#    x 2.028310 0.000000 0.067640 
#    y 0.000000 1.924950 0.000000 
#    z 0.067640 0.000000 2.041040 
# 
# From -- ./inp_files/37241.got.cif
#   From: 2010.05.17/outbox.cif.g08.bks.cpg/sg14_19_cif.got.tgz:37241.got - 2010.06.03 17:49:19.
