data_PCOD9249570
_publ_section_title
;
Structure prediction by ZEFSAII (Michael W. Deem and Ramdas Pophale) SiO2 
 PCOD9249570
Probable space group: P 21/C
;
_chemical_formula_sum "Si O2"
_cell_formula_units_Z 32
_cell_length_a 16.004852
_cell_length_b 8.171643
_cell_length_c 24.998442
_cell_angle_alpha 90.000000
_cell_angle_beta 151.324553
_cell_angle_gamma 90.000000
_cell_volume 1568.835071
_symmetry_space_group_name_H-M "P 21/C"
_symmetry_group_IT_number 14
_symmetry_cell_setting 'monoclinic'
loop_
_space_group_symop_operation_xyz
x,y,z
-x,1/2+y,1/2-z
-x,-y,-z
x,1/2-y,1/2+z
loop_
_atom_site_type_symbol
_atom_site_label
_atom_site_fract_x
_atom_site_fract_y
_atom_site_fract_z
Si Si1 0.521820 0.572847 0.135816
Si Si2 0.778605 0.333330 0.542251
Si Si3 0.306855 0.767430 0.791819
Si Si4 0.379514 0.386752 0.152589
Si Si5 0.293846 0.528615 0.383906
Si Si6 0.982091 0.429783 0.929731
Si Si7 0.846593 0.716095 0.777503
Si Si8 0.519120 0.964034 0.833050
O O1 0.344682 0.670188 0.019942
O O2 0.581118 0.398460 0.143704
O O3 0.486178 0.518035 0.177000
O O4 0.686008 0.687544 0.214046
O O5 0.768964 0.430480 0.592352
O O6 0.686245 0.432922 0.442703
O O7 0.977610 0.311500 0.637474
O O8 0.430088 0.912234 0.838508
O O9 0.249359 0.821944 0.818344
O O10 0.147604 0.778879 0.658994
O O11 0.447627 0.207696 0.177047
O O12 0.402553 0.431080 0.227400
O O13 0.178505 0.390946 0.023298
O O14 0.500000 0.500000 0.500000
O O15 0.213443 0.369123 0.311121
O O16 0.908757 0.575871 0.852809
O O17 0.000000 0.500000 0.000000
#
# Coordination Sequence:
#
# PCOD9249570 Si02
#       8
#     4   4   4   4   4   4   4   4
#     4  11  24  44  67  97 138 168 226 277 336 405
#     4  12  24  46  70  96 134 178 225 285 333 405
#     4  10  23  42  66  98 129 174 220 277 339 399
#     4  11  24  40  66  99 135 180 219 272 335 405
#     4  11  22  46  70  90 131 177 218 276 342 392
#     4  11  22  41  67  96 133 176 221 273 333 402
#     4  11  26  44  67 100 132 177 227 278 342 401
#     4  11  23  40  65  95 134 176 218 266 339 397
#
# _framework density 20.397299
#
# number of rings (size 3 to 8) (size 9 to 14) (size 15 to 20)
#    0.000    1.000    5.000    1.500    3.500    1.500 
#    4.500    1.250    0.000    0.000    0.000    0.000 
#    0.000    0.000    0.000    0.000    0.000    0.000 
#
# Total GULP energy -178538.071208 kJ/mol
# GULP energy per Si atom -5579.314725 kJ/mol
# Density = 2.035087 g / cm^3
# Si number density = 20.397299 Si / 1000 Ang^3
#
#
#
# Elastic Constant Matrix: (Units=GPa)
#
#
# Indices 1 2 3 4 5 6 
#
# 1 58.3441 14.9274 21.5371 0.0000 6.9140 0.0000
# 2 14.9274 58.8097 19.9355 0.0000 -6.6685 0.0000
# 3 21.5371 19.9355 101.5660 0.0000 1.2015 0.0000
# 4 0.0000 0.0000 0.0000 31.8364 0.0000 1.2109
# 5 6.9140 -6.6685 1.2015 0.0000 34.8122 0.0000
# 6 0.0000 0.0000 0.0000 1.2109 0.0000 26.3164
#
#
#
# Elastic Compliance Matrix: (Units=1/GPa)
#
#
# Indices 1 2 3 4 5 6 
#
# 1 0.020079 -0.004509 -0.003317 0.000000 -0.004737 0.000000
# 2 -0.004509 0.019695 -0.002966 0.000000 0.004771 0.000000
# 3 -0.003317 -0.002966 0.011135 0.000000 -0.000294 0.000000
# 4 0.000000 0.000000 0.000000 0.031466 0.000000 -0.001448
# 5 -0.004737 0.004771 -0.000294 0.000000 0.030590 0.000000
# 6 0.000000 0.000000 0.000000 -0.001448 0.000000 0.038066
#
#
# Mechanical properties :
#
#
# Convention : Reuss Voigt Hill
#
# Bulk Modulus (GPa) = 34.10088 36.83553 35.46821
# Shear Modulus (GPa) = 27.41383 29.41433 28.41408
#
# Velocity S-wave (km/s) = 3.67003 3.80158 3.73638
# Velocity P-wave (km/s) = 5.89181 6.11290 6.00337
#
# Compressibility (1/GPa) = 0.02932475
#
# Stress axis : x y z
#
# Youngs Moduli (GPa) = 49.80294 50.77433 89.80897
#
# Poissons Ratio (x) = 0.22897 0.29786
# Poissons Ratio (y) = 0.22459 0.26637
# Poissons Ratio (z) = 0.16518 0.15059
#
# Static dielectric constant tensor:
#      x y z
#    x 1.729960 0.000000 0.028530 
#    y 0.000000 1.763710 0.000000 
#    z 0.028530 0.000000 1.744300 
# 
# From -- ./inp_files/73871.got.cif
#   From: 2010.05.17/outbox.cif.g08.bks.cpg/sg14_37_cif.got.tgz:73871.got - 2010.06.03 17:49:19.
