data_PCOD9249734
_publ_section_title
;
Structure prediction by ZEFSAII (Michael W. Deem and Ramdas Pophale) SiO2 
 PCOD9249734
Probable space group: P 21/C
;
_chemical_formula_sum "Si O2"
_cell_formula_units_Z 24
_cell_length_a 13.192595
_cell_length_b 8.500552
_cell_length_c 9.879943
_cell_angle_alpha 90.000000
_cell_angle_beta 108.827548
_cell_angle_gamma 90.000000
_cell_volume 1048.696350
_symmetry_space_group_name_H-M "P 21/C"
_symmetry_group_IT_number 14
_symmetry_cell_setting 'monoclinic'
loop_
_space_group_symop_operation_xyz
x,y,z
-x,1/2+y,1/2-z
-x,-y,-z
x,1/2-y,1/2+z
loop_
_atom_site_type_symbol
_atom_site_label
_atom_site_fract_x
_atom_site_fract_y
_atom_site_fract_z
Si Si1 0.357873 0.546602 0.222480
Si Si2 0.956993 0.792669 0.060703
Si Si3 0.083029 0.423632 0.730645
Si Si4 0.324468 0.417764 0.921119
Si Si5 0.274765 0.423760 0.451541
Si Si6 0.579062 0.402639 0.274807
O O1 0.274966 0.498085 0.302465
O O2 0.461096 0.433198 0.280942
O O3 0.397348 0.724369 0.254692
O O4 0.315270 0.519310 0.053030
O O5 0.959945 0.629088 0.141465
O O6 0.842894 0.873654 0.050793
O O7 0.958584 0.798346 0.899408
O O8 0.045837 0.909014 0.159254
O O9 0.210723 0.417261 0.795894
O O10 0.342359 0.238590 0.974206
O O11 0.408336 0.488089 0.852246
O O12 0.334185 0.540665 0.578384
#
# Coordination Sequence:
#
# PCOD9249734 Si02
#       6
#     4   4   4   4   4   4
#     4  12  26  40  67  94 129 172 217 266 328 380
#     4  10  23  43  67  97 131 169 213 264 319 382
#     4  10  23  43  67  97 131 169 213 264 319 382
#     4  11  23  43  66  94 129 172 214 268 323 380
#     4  11  23  43  66  94 129 172 214 268 323 380
#     4  12  24  44  63  96 131 168 219 270 318 390
#
# _framework density 22.885556000000001
#
# number of rings (size 3 to 8) (size 9 to 14) (size 15 to 20)
#    0.000    1.000    1.667    5.000    7.000    3.333 
#    0.000    0.000    0.000    0.000    0.000    0.000 
#    0.000    0.000    0.000    0.000    0.000    0.000 
#
# Total GULP energy -134349.257570 kJ/mol
# GULP energy per Si atom -5597.885732 kJ/mol
# Density = 2.283347 g / cm^3
# Si number density = 22.885556 Si / 1000 Ang^3
#
#
#
# Elastic Constant Matrix: (Units=GPa)
#
#
# Indices 1 2 3 4 5 6 
#
# 1 7.9394 3.1278 12.0000 0.0000 1.4319 0.0000
# 2 3.1278 68.7345 -20.4580 0.0000 -2.1952 0.0000
# 3 12.0000 -20.4580 66.0500 0.0000 0.4250 0.0000
# 4 0.0000 0.0000 0.0000 25.1678 0.0000 -5.6239
# 5 1.4319 -2.1952 0.4250 0.0000 36.6143 0.0000
# 6 0.0000 0.0000 0.0000 -5.6239 0.0000 24.1325
#
#
#
# Elastic Compliance Matrix: (Units=1/GPa)
#
#
# Indices 1 2 3 4 5 6 
#
# 1 0.202427 -0.022495 -0.043688 0.000000 -0.008758 0.000000
# 2 -0.022495 0.018556 0.009822 0.000000 0.001878 0.000000
# 3 -0.043688 0.009822 0.026107 0.000000 0.001994 0.000000
# 4 0.000000 0.000000 0.000000 0.041916 0.000000 0.009768
# 5 -0.008758 0.001878 0.001994 0.000000 0.027744 0.000000
# 6 0.000000 0.000000 0.000000 0.009768 0.000000 0.043714
#
#
# Mechanical properties :
#
#
# Convention : Reuss Voigt Hill
#
# Bulk Modulus (GPa) = 7.44221 14.67373 11.05797
# Shear Modulus (GPa) = 9.65300 27.05320 18.35310
#
# Velocity S-wave (km/s) = 2.05599 3.44191 2.83495
# Velocity P-wave (km/s) = 2.98247 4.71395 3.94439
#
# Compressibility (1/GPa) = 0.13436873
#
# Stress axis : x y z
#
# Youngs Moduli (GPa) = 4.94005 53.89155 38.30438
#
# Poissons Ratio (x) = 1.21227 1.67344
# Poissons Ratio (y) = 0.11112 -0.37623
# Poissons Ratio (z) = 0.21582 -0.52933
#
# Static dielectric constant tensor:
#      x y z
#    x 1.824670 0.000000 -0.004000 
#    y 0.000000 1.828650 0.000000 
#    z -0.004000 0.000000 1.854200 
# 
# From -- ./inp_files/15159.got.cif
#   From: 2010.05.17/outbox.cif.g08.bks.cpg/sg14_8_cif.got.tgz:15159.got - 2010.06.03 17:49:19.
