data_PCOD9249636
_publ_section_title
;
Structure prediction by ZEFSAII (Michael W. Deem and Ramdas Pophale) SiO2 
 PCOD9249636
Probable space group: P 21/C
;
_chemical_formula_sum "Si O2"
_cell_formula_units_Z 32
_cell_length_a 13.771626
_cell_length_b 11.496633
_cell_length_c 16.028403
_cell_angle_alpha 90.000000
_cell_angle_beta 145.800495
_cell_angle_gamma 90.000000
_cell_volume 1426.400106
_symmetry_space_group_name_H-M "P 21/C"
_symmetry_group_IT_number 14
_symmetry_cell_setting 'monoclinic'
loop_
_space_group_symop_operation_xyz
x,y,z
-x,1/2+y,1/2-z
-x,-y,-z
x,1/2-y,1/2+z
loop_
_atom_site_type_symbol
_atom_site_label
_atom_site_fract_x
_atom_site_fract_y
_atom_site_fract_z
Si Si1 0.998210 0.306580 0.946212
Si Si2 0.776370 0.702182 0.530508
Si Si3 0.215461 0.542121 0.797162
Si Si4 0.776515 0.018240 0.370923
Si Si5 0.584384 0.510004 0.303813
Si Si6 0.473383 0.110486 0.568596
Si Si7 0.924795 0.131004 0.040100
Si Si8 0.044899 0.862839 0.339733
O O1 0.065855 0.269873 0.903232
O O2 0.150147 0.389465 0.090741
O O3 0.968927 0.197481 0.985811
O O4 0.833244 0.391861 0.839300
O O5 0.691676 0.624977 0.398303
O O6 0.627840 0.787238 0.457577
O O7 0.854507 0.625425 0.661989
O O8 0.335367 0.630981 0.831152
O O9 0.163259 0.599303 0.846847
O O10 0.048575 0.480574 0.638880
O O11 0.344589 0.434695 0.906351
O O12 0.880093 0.066271 0.527385
O O13 0.574693 0.010572 0.245415
O O14 0.500043 0.493186 0.153974
O O15 0.726407 0.408009 0.407600
O O16 0.953733 0.228488 0.131296
#
# Coordination Sequence:
#
# PCOD9249636 Si02
#       8
#     4   4   4   4   4   4   4   4
#     4  10  23  42  70  96 133 182 227 271 338 403
#     4  12  24  41  71 100 134 182 225 282 334 405
#     4  11  22  45  65  97 137 178 220 283 335 410
#     4  10  23  46  67  97 137 183 223 279 335 410
#     4  12  25  41  67 102 137 164 229 288 328 399
#     4  11  25  41  66  98 136 173 228 279 341 394
#     4  11  25  43  69 102 133 178 231 275 343 410
#     4  11  23  43  69  96 135 185 217 270 347 404
#
# _framework density 22.434097999999999
#
# number of rings (size 3 to 8) (size 9 to 14) (size 15 to 20)
#    0.000    1.000    5.000    0.750    5.250    1.000 
#    4.500    0.000    0.000    8.250    0.000    0.000 
#    0.000    0.000    0.000    0.000    0.000    0.000 
#
# Total GULP energy -178648.513203 kJ/mol
# GULP energy per Si atom -5582.766038 kJ/mol
# Density = 2.238304 g / cm^3
# Si number density = 22.434098 Si / 1000 Ang^3
#
#
#
# Elastic Constant Matrix: (Units=GPa)
#
#
# Indices 1 2 3 4 5 6 
#
# 1 109.4439 44.3122 29.7278 0.0000 35.4663 0.0000
# 2 44.3122 72.5565 29.5052 0.0000 9.1982 0.0000
# 3 29.7278 29.5052 104.8518 0.0000 23.1168 0.0000
# 4 0.0000 0.0000 0.0000 29.0968 0.0000 5.0543
# 5 35.4663 9.1982 23.1168 0.0000 32.2378 0.0000
# 6 0.0000 0.0000 0.0000 5.0543 0.0000 30.0818
#
#
#
# Elastic Compliance Matrix: (Units=1/GPa)
#
#
# Indices 1 2 3 4 5 6 
#
# 1 0.018826 -0.009732 0.001610 0.000000 -0.019089 0.000000
# 2 -0.009732 0.020659 -0.004888 0.000000 0.008317 0.000000
# 3 0.001610 -0.004888 0.012518 0.000000 -0.009353 0.000000
# 4 0.000000 0.000000 0.000000 0.035401 0.000000 -0.005948
# 5 -0.019089 0.008317 -0.009353 0.000000 0.056353 0.000000
# 6 0.000000 0.000000 0.000000 -0.005948 0.000000 0.034242
#
#
# Mechanical properties :
#
#
# Convention : Reuss Voigt Hill
#
# Bulk Modulus (GPa) = 38.48713 54.88253 46.68483
# Shear Modulus (GPa) = 23.50915 30.50375 27.00645
#
# Velocity S-wave (km/s) = 3.24067 3.69142 3.47336
# Velocity P-wave (km/s) = 5.58529 6.53343 6.07788
#
# Compressibility (1/GPa) = 0.02598271
#
# Stress axis : x y z
#
# Youngs Moduli (GPa) = 53.11717 48.40411 79.88259
#
# Poissons Ratio (x) = 0.47108 -0.12857
# Poissons Ratio (y) = 0.51695 0.39046
# Poissons Ratio (z) = -0.08549 0.23660
#
# Static dielectric constant tensor:
#      x y z
#    x 1.869740 0.000000 -0.011620 
#    y 0.000000 1.848200 0.000000 
#    z -0.011620 0.000000 1.859580 
# 
# From -- ./inp_files/59411.got.cif
#   From: 2010.05.17/outbox.cif.g08.bks.cpg/sg14_30_cif.got.tgz:59411.got - 2010.06.03 17:49:19.
