data_PCOD9249824
_publ_section_title
;
Structure prediction by ZEFSAII (Michael W. Deem and Ramdas Pophale) SiO2 
 PCOD9249824
Probable space group: P 21/C
;
_chemical_formula_sum "Si O2"
_cell_formula_units_Z 28
_cell_length_a 5.178396
_cell_length_b 9.433813
_cell_length_c 21.972114
_cell_angle_alpha 90.000000
_cell_angle_beta 103.604092
_cell_angle_gamma 90.000000
_cell_volume 1043.267552
_symmetry_space_group_name_H-M "P 21/C"
_symmetry_group_IT_number 14
_symmetry_cell_setting 'monoclinic'
loop_
_space_group_symop_operation_xyz
x,y,z
-x,1/2+y,1/2-z
-x,-y,-z
x,1/2-y,1/2+z
loop_
_atom_site_type_symbol
_atom_site_label
_atom_site_fract_x
_atom_site_fract_y
_atom_site_fract_z
Si Si1 0.163368 0.233866 0.360423
Si Si2 0.379877 0.748503 0.534329
Si Si3 0.204083 0.506309 0.093753
Si Si4 0.888534 0.524817 0.351544
Si Si5 0.510539 0.925636 0.272649
Si Si6 0.173623 0.198220 0.041557
Si Si7 0.827707 0.152221 0.230735
O O1 0.470627 0.265943 0.392042
O O2 0.027095 0.378337 0.374442
O O3 0.031437 0.103764 0.391073
O O4 0.066735 0.207741 0.286562
O O5 0.296166 0.912552 0.538237
O O6 0.601372 0.717268 0.496463
O O7 0.115276 0.664338 0.502645
O O8 0.438680 0.488409 0.157283
O O9 0.868472 0.652394 0.926711
O O10 0.094592 0.639248 0.335212
O O11 0.709366 0.491270 0.283502
O O12 0.747383 0.587904 0.402121
O O13 0.764119 0.993398 0.251794
O O14 0.415866 0.762939 0.273604
#
# Coordination Sequence:
#
# PCOD9249824 Si02
#       7
#     4   4   4   4   4   4   4
#     4  10  25  46  73 106 147 195 248 303 372 433
#     4  12  26  50  72 111 147 201 248 310 356 439
#     4  11  24  46  75 109 145 193 251 310 365 432
#     4  11  26  46  70 110 146 196 239 309 371 449
#     4  10  23  43  75 103 146 182 247 302 379 431
#     4  12  29  45  79 106 154 193 254 297 373 433
#     4  10  23  45  71 109 143 189 238 310 369 446
#
# _framework density 26.838751999999999
#
# number of rings (size 3 to 8) (size 9 to 14) (size 15 to 20)
#    0.000    1.143    1.429    2.571    6.000   11.429 
#    0.000    0.000    0.000    0.000    0.000    0.000 
#    0.000    0.000    0.000    0.000    0.000    0.000 
#
# Total GULP energy -156749.752394 kJ/mol
# GULP energy per Si atom -5598.205443 kJ/mol
# Density = 2.677767 g / cm^3
# Si number density = 26.838752 Si / 1000 Ang^3
#
#
#
# Elastic Constant Matrix: (Units=GPa)
#
#
# Indices 1 2 3 4 5 6 
#
# 1 109.7192 34.4400 51.8166 0.0000 7.1584 0.0000
# 2 34.4400 97.3040 35.2022 0.0000 -3.0099 0.0000
# 3 51.8166 35.2022 109.4446 0.0000 6.1223 0.0000
# 4 0.0000 0.0000 0.0000 45.7811 0.0000 -7.7498
# 5 7.1584 -3.0099 6.1223 0.0000 53.1763 0.0000
# 6 0.0000 0.0000 0.0000 -7.7498 0.0000 36.8281
#
#
#
# Elastic Compliance Matrix: (Units=1/GPa)
#
#
# Indices 1 2 3 4 5 6 
#
# 1 0.012349 -0.002625 -0.004933 0.000000 -0.001243 0.000000
# 2 -0.002625 0.012252 -0.002775 0.000000 0.001366 0.000000
# 3 -0.004933 -0.002775 0.012417 0.000000 -0.000923 0.000000
# 4 0.000000 0.000000 0.000000 0.022650 0.000000 0.004766
# 5 -0.001243 0.001366 -0.000923 0.000000 0.019156 0.000000
# 6 0.000000 0.000000 0.000000 0.004766 0.000000 0.028156
#
#
# Mechanical properties :
#
#
# Convention : Reuss Voigt Hill
#
# Bulk Modulus (GPa) = 61.14978 62.15393 61.65186
# Shear Modulus (GPa) = 37.56726 40.15772 38.86249
#
# Velocity S-wave (km/s) = 3.74537 3.87235 3.80939
# Velocity P-wave (km/s) = 6.44494 6.57282 6.50920
#
# Compressibility (1/GPa) = 0.01635329
#
# Stress axis : x y z
#
# Youngs Moduli (GPa) = 80.98021 81.61884 80.53790
#
# Poissons Ratio (x) = 0.21422 0.39728
# Poissons Ratio (y) = 0.21254 0.22346
# Poissons Ratio (z) = 0.39946 0.22646
#
# Static dielectric constant tensor:
#      x y z
#    x 2.171380 0.000000 0.040630 
#    y 0.000000 2.090000 0.000000 
#    z 0.040630 0.000000 2.079100 
# 
# From -- ./inp_files/63361.got.cif
#   From: 2010.05.17/outbox.cif.g08.bks.cpg/sg14_32_cif.got.tgz:63361.got - 2010.06.03 17:49:19.
