data_PCOD9249870
_publ_section_title
;
Structure prediction by ZEFSAII (Michael W. Deem and Ramdas Pophale) SiO2 
 PCOD9249870
Probable space group: P 21/C
;
_chemical_formula_sum "Si O2"
_cell_formula_units_Z 24
_cell_length_a 7.911015
_cell_length_b 5.016351
_cell_length_c 23.940204
_cell_angle_alpha 90.000000
_cell_angle_beta 90.793261
_cell_angle_gamma 90.000000
_cell_volume 949.962248
_symmetry_space_group_name_H-M "P 21/C"
_symmetry_group_IT_number 14
_symmetry_cell_setting 'monoclinic'
loop_
_space_group_symop_operation_xyz
x,y,z
-x,1/2+y,1/2-z
-x,-y,-z
x,1/2-y,1/2+z
loop_
_atom_site_type_symbol
_atom_site_label
_atom_site_fract_x
_atom_site_fract_y
_atom_site_fract_z
Si Si1 0.783199 0.275580 0.157028
Si Si2 0.715368 0.789630 0.478858
Si Si3 0.516769 0.481487 0.787810
Si Si4 0.918583 0.307389 0.266707
Si Si5 0.842096 0.504333 0.862206
Si Si6 0.687412 0.210210 0.040559
O O1 0.634901 0.487881 0.167773
O O2 0.803061 0.154998 0.219252
O O3 0.722738 0.113600 0.103194
O O4 0.974225 0.364091 0.144033
O O5 0.785910 0.931104 0.424176
O O6 0.513540 0.746273 0.469483
O O7 0.769578 0.494936 0.497208
O O8 0.754481 0.993356 0.529280
O O9 0.516161 0.180812 0.764441
O O10 0.682698 0.580894 0.822256
O O11 0.924935 0.606463 0.244246
O O12 0.874072 0.283572 0.331583
#
# Coordination Sequence:
#
# PCOD9249870 Si02
#       6
#     4   4   4   4   4   4
#     4  11  25  45  72 101 138 177 226 280 335 402
#     4  10  23  44  67  96 133 176 226 277 331 396
#     4  12  28  44  68 102 140 180 222 270 342 408
#     4  10  24  42  66 100 138 172 216 276 334 398
#     4  11  25  45  72 101 138 177 226 280 335 402
#     4  10  23  44  67  96 133 176 226 277 331 396
#
# _framework density 25.264161000000001
#
# number of rings (size 3 to 8) (size 9 to 14) (size 15 to 20)
#    0.000    1.333    3.333    0.000    9.333    9.333 
#    0.000    0.000    0.000    0.000    0.000    0.000 
#    0.000    0.000    0.000    0.000    0.000    0.000 
#
# Total GULP energy -133612.594310 kJ/mol
# GULP energy per Si atom -5567.191430 kJ/mol
# Density = 2.520666 g / cm^3
# Si number density = 25.264161 Si / 1000 Ang^3
#
#
#
# Elastic Constant Matrix: (Units=GPa)
#
#
# Indices 1 2 3 4 5 6 
#
# 1 94.3739 29.6675 14.9359 0.0000 -8.2451 0.0000
# 2 29.6675 105.7164 12.5704 0.0000 -2.9796 0.0000
# 3 14.9359 12.5704 92.1088 0.0000 -1.4928 0.0000
# 4 0.0000 0.0000 0.0000 27.9271 0.0000 -1.0426
# 5 -8.2451 -2.9796 -1.4928 0.0000 41.6780 0.0000
# 6 0.0000 0.0000 0.0000 -1.0426 0.0000 11.1569
#
#
#
# Elastic Compliance Matrix: (Units=1/GPa)
#
#
# Indices 1 2 3 4 5 6 
#
# 1 0.011999 -0.003132 -0.001484 0.000000 0.002097 0.000000
# 2 -0.003132 0.010450 -0.000917 0.000000 0.000095 0.000000
# 3 -0.001484 -0.000917 0.011223 0.000000 0.000043 0.000000
# 4 0.000000 0.000000 0.000000 0.035933 0.000000 0.003358
# 5 0.002097 0.000095 0.000043 0.000000 0.024417 0.000000
# 6 0.000000 0.000000 0.000000 0.003358 0.000000 0.089944
#
#
# Mechanical properties :
#
#
# Convention : Reuss Voigt Hill
#
# Bulk Modulus (GPa) = 44.23543 45.17186 44.70364
# Shear Modulus (GPa) = 24.68330 31.82076 28.25203
#
# Velocity S-wave (km/s) = 3.12910 3.55282 3.34767
# Velocity P-wave (km/s) = 5.53193 5.89480 5.71625
#
# Compressibility (1/GPa) = 0.02260631
#
# Stress axis : x y z
#
# Youngs Moduli (GPa) = 83.34238 95.69569 89.10100
#
# Poissons Ratio (x) = 0.29969 0.13225
# Poissons Ratio (y) = 0.26100 0.08168
# Poissons Ratio (z) = 0.12370 0.08773
#
# Static dielectric constant tensor:
#      x y z
#    x 2.262980 0.000000 -0.040820 
#    y 0.000000 2.078490 0.000000 
#    z -0.040820 0.000000 2.039080 
# 
# From -- ./inp_files/71627.got.cif
#   From: 2010.05.17/outbox.cif.g08.bks.cpg/sg14_36_cif.got.tgz:71627.got - 2010.06.03 17:49:19.
