data_PCOD9249420
_publ_section_title
;
Structure prediction by ZEFSAII (Michael W. Deem and Ramdas Pophale) SiO2 
 PCOD9249420
Probable space group: P 21/C
;
_chemical_formula_sum "Si O2"
_cell_formula_units_Z 32
_cell_length_a 8.138271
_cell_length_b 14.536270
_cell_length_c 18.920036
_cell_angle_alpha 90.000000
_cell_angle_beta 141.186517
_cell_angle_gamma 90.000000
_cell_volume 1402.901563
_symmetry_space_group_name_H-M "P 21/C"
_symmetry_group_IT_number 14
_symmetry_cell_setting 'monoclinic'
loop_
_space_group_symop_operation_xyz
x,y,z
-x,1/2+y,1/2-z
-x,-y,-z
x,1/2-y,1/2+z
loop_
_atom_site_type_symbol
_atom_site_label
_atom_site_fract_x
_atom_site_fract_y
_atom_site_fract_z
Si Si1 0.366710 0.900570 0.180143
Si Si2 0.601073 0.174324 0.540152
Si Si3 0.277829 0.736226 0.774250
Si Si4 0.072898 0.123669 0.286645
Si Si5 0.936509 0.964370 0.329359
Si Si6 0.855719 0.381650 0.897874
Si Si7 0.275880 0.409291 0.704865
Si Si8 0.922754 0.268419 0.526410
O O1 0.312736 0.853881 0.238286
O O2 0.672178 0.910895 0.261099
O O3 0.226675 0.838484 0.075012
O O4 0.248280 0.002862 0.145931
O O5 0.532986 0.219775 0.593738
O O6 0.346980 0.126755 0.420594
O O7 0.729046 0.244491 0.526088
O O8 0.831095 0.098101 0.621781
O O9 0.234175 0.813719 0.697324
O O10 0.030142 0.771993 0.738105
O O11 0.104507 0.094938 0.216984
O O12 0.885121 0.044328 0.254774
O O13 0.007498 0.029896 0.420024
O O14 0.573217 0.413029 0.830565
O O15 0.982527 0.322597 0.001607
O O16 0.193566 0.315796 0.638603
#
# Coordination Sequence:
#
# PCOD9249420 Si02
#       8
#     4   4   4   4   4   4   4   4
#     4  10  24  45  67  97 133 174 222 266 328 393
#     4  12  24  40  69  97 133 172 222 270 331 387
#     4  10  23  41  65  96 131 176 212 273 322 390
#     4  11  23  44  65 100 135 170 221 270 329 384
#     4  10  24  43  67  94 133 172 215 273 330 387
#     4   9  22  43  63  97 132 170 222 270 324 390
#     4  11  21  43  68  93 136 171 218 273 325 383
#     4  11  23  39  68  96 126 175 216 266 325 394
#
# _framework density 22.809868000000002
#
# number of rings (size 3 to 8) (size 9 to 14) (size 15 to 20)
#    0.000    1.500    2.500    1.500    5.250    3.500 
#    0.000    1.875    0.000    0.000    0.000    0.000 
#    0.000    0.000    0.000    0.000    0.000    0.000 
#
# Total GULP energy -178379.316227 kJ/mol
# GULP energy per Si atom -5574.353632 kJ/mol
# Density = 2.275795 g / cm^3
# Si number density = 22.809868 Si / 1000 Ang^3
#
#
#
# Elastic Constant Matrix: (Units=GPa)
#
#
# Indices 1 2 3 4 5 6 
#
# 1 63.6126 14.0768 9.1456 0.0000 -9.2111 0.0000
# 2 14.0768 79.7007 14.1058 0.0000 4.5843 0.0000
# 3 9.1456 14.1058 56.3228 0.0000 -7.4320 0.0000
# 4 0.0000 0.0000 0.0000 26.9374 0.0000 -5.4763
# 5 -9.2111 4.5843 -7.4320 0.0000 35.0442 0.0000
# 6 0.0000 0.0000 0.0000 -5.4763 0.0000 35.0816
#
#
#
# Elastic Compliance Matrix: (Units=1/GPa)
#
#
# Indices 1 2 3 4 5 6 
#
# 1 0.017275 -0.003066 -0.001425 0.000000 0.004640 0.000000
# 2 -0.003066 0.013887 -0.003422 0.000000 -0.003348 0.000000
# 3 -0.001425 -0.003422 0.019396 0.000000 0.004186 0.000000
# 4 0.000000 0.000000 0.000000 0.038340 0.000000 0.005985
# 5 0.004640 -0.003348 0.004186 0.000000 0.031081 0.000000
# 6 0.000000 0.000000 0.000000 0.005985 0.000000 0.029439
#
#
# Mechanical properties :
#
#
# Convention : Reuss Voigt Hill
#
# Bulk Modulus (GPa) = 28.79189 30.47695 29.63442
# Shear Modulus (GPa) = 28.27735 30.23317 29.25526
#
# Velocity S-wave (km/s) = 3.52475 3.64461 3.58518
# Velocity P-wave (km/s) = 5.40510 5.57685 5.49165
#
# Compressibility (1/GPa) = 0.03473201
#
# Stress axis : x y z
#
# Youngs Moduli (GPa) = 57.88617 72.01183 51.55812
#
# Poissons Ratio (x) = 0.22078 0.07348
# Poissons Ratio (y) = 0.17747 0.17642
# Poissons Ratio (z) = 0.08250 0.24641
#
# Static dielectric constant tensor:
#      x y z
#    x 1.928810 0.000000 -0.055120 
#    y 0.000000 1.903990 0.000000 
#    z -0.055120 0.000000 1.880780 
# 
# From -- ./inp_files/65854.got.cif
#   From: 2010.05.17/outbox.cif.g08.bks.cpg/sg14_33_cif.got.tgz:65854.got - 2010.06.03 17:49:19.
