data_PCOD9249582
_publ_section_title
;
Structure prediction by ZEFSAII (Michael W. Deem and Ramdas Pophale) SiO2 
 PCOD9249582
Probable space group: P 21/C
;
_chemical_formula_sum "Si O2"
_cell_formula_units_Z 32
_cell_length_a 7.476571
_cell_length_b 31.494979
_cell_length_c 5.316004
_cell_angle_alpha 90.000000
_cell_angle_beta 78.549389
_cell_angle_gamma 90.000000
_cell_volume 1226.867855
_symmetry_space_group_name_H-M "P 21/C"
_symmetry_group_IT_number 14
_symmetry_cell_setting 'monoclinic'
loop_
_space_group_symop_operation_xyz
x,y,z
-x,1/2+y,1/2-z
-x,-y,-z
x,1/2-y,1/2+z
loop_
_atom_site_type_symbol
_atom_site_label
_atom_site_fract_x
_atom_site_fract_y
_atom_site_fract_z
Si Si1 0.850251 0.266002 0.281425
Si Si2 0.734336 0.733094 0.715670
Si Si3 0.316374 0.057608 0.692903
Si Si4 0.962588 0.443085 0.004541
Si Si5 0.444572 0.896197 0.726826
Si Si6 0.237139 0.643951 0.900052
Si Si7 0.233614 0.969436 0.957064
Si Si8 0.353121 0.141567 0.946947
O O1 0.763874 0.262095 0.582481
O O2 0.851386 0.312835 0.164951
O O3 0.058323 0.252509 0.284651
O O4 0.647580 0.760754 0.515255
O O5 0.735295 0.685073 0.613769
O O6 0.505564 0.071879 0.514910
O O7 0.259938 0.099289 0.865490
O O8 0.175732 0.053145 0.502023
O O9 0.316135 0.014329 0.848894
O O10 0.895553 0.395822 0.098820
O O11 0.871677 0.471498 0.250992
O O12 0.893789 0.454071 0.743100
O O13 0.293057 0.863249 0.676434
O O14 0.377747 0.931037 0.943662
O O15 0.616348 0.868730 0.768346
O O16 0.436119 0.644192 0.709491
#
# Coordination Sequence:
#
# PCOD9249582 Si02
#       8
#     4   4   4   4   4   4   4   4
#     4  10  23  42  67  96 125 162 212 265 328 388
#     4  10  24  45  67  96 129 165 210 269 324 387
#     4  11  25  40  67  98 129 177 224 274 332 387
#     4  11  24  43  66  96 130 174 224 278 325 388
#     4  10  24  43  62  96 134 178 221 267 327 393
#     4  10  23  43  62  93 131 171 213 269 324 389
#     4  11  24  44  66  94 135 175 222 279 326 388
#     4  11  24  42  66  94 133 173 217 263 329 393
#
# _framework density 26.082678999999999
#
# number of rings (size 3 to 8) (size 9 to 14) (size 15 to 20)
#    0.000    1.500    1.250    1.875    8.750    1.500 
#    2.250    0.000    0.000    0.000    0.000    0.000 
#    0.000    0.000    0.000    0.000    0.000    0.000 
#
# Total GULP energy -178864.659618 kJ/mol
# GULP energy per Si atom -5589.520613 kJ/mol
# Density = 2.602331 g / cm^3
# Si number density = 26.082679 Si / 1000 Ang^3
#
#
#
# Elastic Constant Matrix: (Units=GPa)
#
#
# Indices 1 2 3 4 5 6 
#
# 1 50.2794 7.8315 25.7528 0.0000 15.7591 0.0000
# 2 7.8315 171.3803 50.0839 0.0000 31.5806 0.0000
# 3 25.7528 50.0839 117.5901 0.0000 41.8876 0.0000
# 4 0.0000 0.0000 0.0000 40.8398 0.0000 14.6273
# 5 15.7591 31.5806 41.8876 0.0000 37.4136 0.0000
# 6 0.0000 0.0000 0.0000 14.6273 0.0000 31.2675
#
#
#
# Elastic Compliance Matrix: (Units=1/GPa)
#
#
# Indices 1 2 3 4 5 6 
#
# 1 0.023613 0.001194 -0.002957 0.000000 -0.007643 0.000000
# 2 0.001194 0.007120 -0.001620 0.000000 -0.004699 0.000000
# 3 -0.002957 -0.001620 0.014822 0.000000 -0.013982 0.000000
# 4 0.000000 0.000000 0.000000 0.029414 0.000000 -0.013760
# 5 -0.007643 -0.004699 -0.013982 0.000000 0.049567 0.000000
# 6 0.000000 0.000000 0.000000 -0.013760 0.000000 0.038419
#
#
# Mechanical properties :
#
#
# Convention : Reuss Voigt Hill
#
# Bulk Modulus (GPa) = 25.78153 56.28735 41.03444
# Shear Modulus (GPa) = 27.37437 38.94297 33.15867
#
# Velocity S-wave (km/s) = 3.24315 3.86820 3.56938
# Velocity P-wave (km/s) = 4.89183 6.44809 5.72311
#
# Compressibility (1/GPa) = 0.03878746
#
# Stress axis : x y z
#
# Youngs Moduli (GPa) = 42.34938 140.45511 67.46596
#
# Poissons Ratio (x) = -0.16764 0.19951
# Poissons Ratio (y) = -0.05055 0.10930
# Poissons Ratio (z) = 0.12524 0.22755
#
# Static dielectric constant tensor:
#      x y z
#    x 2.070010 0.000000 -0.044180 
#    y 0.000000 1.993790 0.000000 
#    z -0.044180 0.000000 2.244220 
# 
# From -- ./inp_files/2229.got.cif
#   From: 2010.05.17/outbox.cif.g08.bks.cpg/sg14_2_cif.got.tgz:2229.got - 2010.06.03 17:49:19.
