data_PCOD9249106
_publ_section_title
;
Structure prediction by ZEFSAII (Michael W. Deem and Ramdas Pophale) SiO2 
 PCOD9249106
Probable space group: P 21/C
;
_chemical_formula_sum "Si O2"
_cell_formula_units_Z 24
_cell_length_a 12.717735
_cell_length_b 7.807260
_cell_length_c 11.042200
_cell_angle_alpha 90.000000
_cell_angle_beta 112.263535
_cell_angle_gamma 90.000000
_cell_volume 1014.652818
_symmetry_space_group_name_H-M "P 21/C"
_symmetry_group_IT_number 14
_symmetry_cell_setting 'monoclinic'
loop_
_space_group_symop_operation_xyz
x,y,z
-x,1/2+y,1/2-z
-x,-y,-z
x,1/2-y,1/2+z
loop_
_atom_site_type_symbol
_atom_site_label
_atom_site_fract_x
_atom_site_fract_y
_atom_site_fract_z
Si Si1 0.548835 0.582721 0.210190
Si Si2 0.130538 0.557763 0.048197
Si Si3 0.351383 0.041121 0.749949
Si Si4 0.128325 0.950817 0.080546
Si Si5 0.261654 0.051641 0.372640
Si Si6 0.686273 0.938571 0.012033
O O1 0.585068 0.778861 0.216319
O O2 0.415254 0.558874 0.170557
O O3 0.617213 0.488520 0.132354
O O4 0.600055 0.535342 0.364058
O O5 0.218739 0.441981 0.162057
O O6 0.139405 0.748155 0.105315
O O7 0.185480 0.547808 0.937756
O O8 0.000000 0.500000 0.000000
O O9 0.355927 0.966091 0.886363
O O10 0.184073 0.051330 0.217402
O O11 0.196657 0.993059 0.988838
O O12 0.000000 0.000000 0.000000
O O13 0.291094 0.238511 0.443275
#
# Coordination Sequence:
#
# PCOD9249106 Si02
#       6
#     4   4   4   4   4   4
#     4  10  23  44  70 104 135 186 234 291 360 414
#     4  12  28  46  70 104 144 190 236 289 362 420
#     4  11  25  43  71 100 144 183 234 299 349 423
#     4  11  27  42  73 102 137 190 240 284 352 428
#     4  10  24  47  70 101 143 182 230 299 348 419
#     4  10  22  46  70 100 141 178 237 292 360 412
#
# _framework density 23.653410999999998
#
# number of rings (size 3 to 8) (size 9 to 14) (size 15 to 20)
#    0.000    1.333    1.667    1.500   14.000    0.667 
#    0.000    0.000    0.000    0.000    0.000    0.000 
#    0.000    0.000    0.000    0.000    0.000    0.000 
#
# Total GULP energy -134082.523987 kJ/mol
# GULP energy per Si atom -5586.771833 kJ/mol
# Density = 2.359957 g / cm^3
# Si number density = 23.653411 Si / 1000 Ang^3
#
#
#
# Elastic Constant Matrix: (Units=GPa)
#
#
# Indices 1 2 3 4 5 6 
#
# 1 188.7993 24.6815 56.0093 0.0000 0.1419 0.0000
# 2 24.6815 79.9723 7.4480 0.0000 0.8148 0.0000
# 3 56.0093 7.4480 74.6430 0.0000 -22.2567 0.0000
# 4 0.0000 0.0000 0.0000 21.5628 0.0000 -3.7923
# 5 0.1419 0.8148 -22.2567 0.0000 42.6583 0.0000
# 6 0.0000 0.0000 0.0000 -3.7923 0.0000 36.3092
#
#
#
# Elastic Compliance Matrix: (Units=1/GPa)
#
#
# Indices 1 2 3 4 5 6 
#
# 1 0.007411 -0.001658 -0.006387 0.000000 -0.003325 0.000000
# 2 -0.001658 0.013034 -0.000152 0.000000 -0.000323 0.000000
# 3 -0.006387 -0.000152 0.021567 0.000000 0.011277 0.000000
# 4 0.000000 0.000000 0.000000 0.047244 0.000000 0.004934
# 5 -0.003325 -0.000323 0.011277 0.000000 0.029343 0.000000
# 6 0.000000 0.000000 0.000000 0.004934 0.000000 0.028057
#
#
# Mechanical properties :
#
#
# Convention : Reuss Voigt Hill
#
# Bulk Modulus (GPa) = 39.03759 57.74357 48.39058
# Shear Modulus (GPa) = 29.13951 37.12445 33.13198
#
# Velocity S-wave (km/s) = 3.51370 3.96601 3.74669
# Velocity P-wave (km/s) = 5.74468 6.74075 6.26255
#
# Compressibility (1/GPa) = 0.02561634
#
# Stress axis : x y z
#
# Youngs Moduli (GPa) = 134.94208 76.72450 46.36719
#
# Poissons Ratio (x) = 0.12724 0.29613
# Poissons Ratio (y) = 0.22379 0.00707
# Poissons Ratio (z) = 0.86182 0.01169
#
# Static dielectric constant tensor:
#      x y z
#    x 1.934060 0.000000 -0.020960 
#    y 0.000000 1.932900 0.000000 
#    z -0.020960 0.000000 1.931170 
# 
# From -- ./inp_files/28201.got.cif
#   From: 2010.05.17/outbox.cif.g08.bks.cpg/sg14_15_cif.got.tgz:28201.got - 2010.06.03 17:49:19.
