data_PCOD9249735
_publ_section_title
;
Structure prediction by ZEFSAII (Michael W. Deem and Ramdas Pophale) SiO2 
 PCOD9249735
Probable space group: P 21/C
;
_chemical_formula_sum "Si O2"
_cell_formula_units_Z 22
_cell_length_a 5.381338
_cell_length_b 12.288706
_cell_length_c 13.106872
_cell_angle_alpha 90.000000
_cell_angle_beta 108.212624
_cell_angle_gamma 90.000000
_cell_volume 823.331704
_symmetry_space_group_name_H-M "P 21/C"
_symmetry_group_IT_number 14
_symmetry_cell_setting 'monoclinic'
loop_
_space_group_symop_operation_xyz
x,y,z
-x,1/2+y,1/2-z
-x,-y,-z
x,1/2-y,1/2+z
loop_
_atom_site_type_symbol
_atom_site_label
_atom_site_fract_x
_atom_site_fract_y
_atom_site_fract_z
Si Si1 0.674462 0.506078 0.755703
Si Si2 0.442546 0.876259 0.391965
Si Si3 0.113090 0.345801 0.897013
Si Si4 0.500000 0.000000 0.000000
Si Si5 0.156187 0.787123 0.982633
Si Si6 0.281043 0.248121 0.221086
O O1 0.440632 0.527647 0.809040
O O2 0.888585 0.423893 0.826580
O O3 0.574100 0.478689 0.631062
O O4 0.804312 0.626871 0.768190
O O5 0.253884 0.830186 0.453588
O O6 0.711682 0.895187 0.489703
O O7 0.474402 0.771022 0.320982
O O8 0.303672 0.306961 0.831674
O O9 0.979621 0.237917 0.927430
O O10 0.635720 0.117912 0.986171
O O11 0.926620 0.816255 0.873747
#
# Coordination Sequence:
#
# PCOD9249735 Si02
#       6
#     4   4   4   2   4   4
#     4  10  23  43  67  97 134 173 232 272 341 407
#     4   9  23  42  65  94 129 174 224 277 324 409
#     4  11  21  45  67  95 133 178 223 283 332 403
#     4  12  24  42  66 104 134 174 224 282 340 412
#     4  11  24  42  68  96 137 174 225 278 338 404
#     4   9  22  43  63  96 135 172 218 283 335 396
#
# _framework density 26.720700000000001
#
# number of rings (size 3 to 8) (size 9 to 14) (size 15 to 20)
#    1.091    0.727    1.818    1.636    2.545    0.727 
#    3.273    2.727    0.000    0.000    0.000    0.000 
#    0.000    0.000    0.000    0.000    0.000    0.000 
#
# Total GULP energy -122502.285787 kJ/mol
# GULP energy per Si atom -5568.285718 kJ/mol
# Density = 2.665988 g / cm^3
# Si number density = 26.720700 Si / 1000 Ang^3
#
#
#
# Elastic Constant Matrix: (Units=GPa)
#
#
# Indices 1 2 3 4 5 6 
#
# 1 41.2162 20.1347 23.5046 0.0000 -3.0755 0.0000
# 2 20.1347 117.2661 42.7836 0.0000 4.4142 0.0000
# 3 23.5046 42.7836 187.1141 0.0000 -0.0430 0.0000
# 4 0.0000 0.0000 0.0000 35.9749 0.0000 -2.3770
# 5 -3.0755 4.4142 -0.0430 0.0000 26.8773 0.0000
# 6 0.0000 0.0000 0.0000 -2.3770 0.0000 32.7794
#
#
#
# Elastic Compliance Matrix: (Units=1/GPa)
#
#
# Indices 1 2 3 4 5 6 
#
# 1 0.027988 -0.004002 -0.002600 0.000000 0.003856 0.000000
# 2 -0.004002 0.009940 -0.001770 0.000000 -0.002093 0.000000
# 3 -0.002600 -0.001770 0.006076 0.000000 0.000003 0.000000
# 4 0.000000 0.000000 0.000000 0.027931 0.000000 0.002025
# 5 0.003856 -0.002093 0.000003 0.000000 0.037991 0.000000
# 6 0.000000 0.000000 0.000000 0.002025 0.000000 0.030654
#
#
# Mechanical properties :
#
#
# Convention : Reuss Voigt Hill
#
# Bulk Modulus (GPa) = 36.68607 57.60469 47.14538
# Shear Modulus (GPa) = 30.04635 36.40455 33.22545
#
# Velocity S-wave (km/s) = 3.35693 3.69509 3.53006
# Velocity P-wave (km/s) = 5.36513 6.30950 5.85638
#
# Compressibility (1/GPa) = 0.02725830
#
# Stress axis : x y z
#
# Youngs Moduli (GPa) = 35.72998 100.60866 164.58993
#
# Poissons Ratio (x) = 0.40265 0.42789
# Poissons Ratio (y) = 0.14300 0.29139
# Poissons Ratio (z) = 0.09289 0.17812
#
# Static dielectric constant tensor:
#      x y z
#    x 2.090880 0.000000 0.012130 
#    y 0.000000 2.085210 0.000000 
#    z 0.012130 0.000000 1.987250 
# 
# From -- ./inp_files/20726.got.cif
#   From: 2010.05.17/outbox.cif.g08.bks.cpg/sg14_11_cif.got.tgz:20726.got - 2010.06.03 17:49:19.
