data_PCOD9249038
_publ_section_title
;
Structure prediction by ZEFSAII (Michael W. Deem and Ramdas Pophale) SiO2 
 PCOD9249038
Probable space group: P 21/C
;
_chemical_formula_sum "Si O2"
_cell_formula_units_Z 32
_cell_length_a 22.236979
_cell_length_b 11.040763
_cell_length_c 8.907447
_cell_angle_alpha 90.000000
_cell_angle_beta 149.834300
_cell_angle_gamma 90.000000
_cell_volume 1098.920595
_symmetry_space_group_name_H-M "P 21/C"
_symmetry_group_IT_number 14
_symmetry_cell_setting 'monoclinic'
loop_
_space_group_symop_operation_xyz
x,y,z
-x,1/2+y,1/2-z
-x,-y,-z
x,1/2-y,1/2+z
loop_
_atom_site_type_symbol
_atom_site_label
_atom_site_fract_x
_atom_site_fract_y
_atom_site_fract_z
Si Si1 0.389603 0.828696 0.268181
Si Si2 0.492461 0.121696 0.780454
Si Si3 0.338779 0.424812 0.209305
Si Si4 0.217993 0.296269 0.189912
Si Si5 0.814361 0.346835 0.232333
Si Si6 0.039983 0.482483 0.274449
Si Si7 0.039451 0.325997 0.547593
Si Si8 0.787340 0.970175 0.075463
O O1 0.445685 0.737228 0.507791
O O2 0.481658 0.873850 0.340008
O O3 0.289571 0.748698 0.963391
O O4 0.312760 0.932993 0.183141
O O5 0.554985 0.999345 0.980146
O O6 0.365377 0.122011 0.595641
O O7 0.317208 0.306767 0.267752
O O8 0.243264 0.533339 0.970768
O O9 0.131880 0.242961 0.137815
O O10 0.272286 0.400228 0.416902
O O11 0.113777 0.349904 0.856903
O O12 0.888479 0.393962 0.536299
O O13 0.911869 0.284987 0.334688
O O14 0.010130 0.433285 0.372368
O O15 0.149242 0.403735 0.430929
O O16 0.915142 0.481050 0.917000
#
# Coordination Sequence:
#
# PCOD9249038 Si02
#       8
#     4   4   4   4   4   4   4   4
#     4  11  24  41  70 104 132 179 240 297 355 422
#     4  10  23  44  72 100 129 176 246 306 355 409
#     4  10  22  45  72  92 136 189 232 297 364 407
#     4  12  24  43  64 101 144 192 232 290 350 430
#     4  11  23  42  69 100 141 187 237 284 354 430
#     4  11  23  40  61  98 141 190 232 278 344 432
#     4  12  26  39  65 102 143 195 239 278 346 434
#     4  11  24  39  64 100 146 185 228 291 352 421
#
# _framework density 29.119482999999999
#
# number of rings (size 3 to 8) (size 9 to 14) (size 15 to 20)
#    0.000    1.000    3.750    2.625    7.000    1.000 
#    0.000    0.000    0.000    3.000    0.000    0.000 
#    0.000    0.000    0.000    0.000    0.000    0.000 
#
# Total GULP energy -178659.035734 kJ/mol
# GULP energy per Si atom -5583.094867 kJ/mol
# Density = 2.905321 g / cm^3
# Si number density = 29.119483 Si / 1000 Ang^3
#
#
#
# Elastic Constant Matrix: (Units=GPa)
#
#
# Indices 1 2 3 4 5 6 
#
# 1 221.4075 34.6185 16.8690 0.0000 3.6421 0.0000
# 2 34.6185 38.0131 -10.4825 0.0000 4.3528 0.0000
# 3 16.8690 -10.4825 73.0226 0.0000 -0.4554 0.0000
# 4 0.0000 0.0000 0.0000 24.4716 0.0000 -0.8201
# 5 3.6421 4.3528 -0.4554 0.0000 49.3517 0.0000
# 6 0.0000 0.0000 0.0000 -0.8201 0.0000 60.2291
#
#
#
# Elastic Compliance Matrix: (Units=1/GPa)
#
#
# Indices 1 2 3 4 5 6 
#
# 1 0.005558 -0.005647 -0.002094 0.000000 0.000069 0.000000
# 2 -0.005647 0.033411 0.006085 0.000000 -0.002474 0.000000
# 3 -0.002094 0.006085 0.015050 0.000000 -0.000243 0.000000
# 4 0.000000 0.000000 0.000000 0.040882 0.000000 0.000557
# 5 0.000069 -0.002474 -0.000243 0.000000 0.020474 0.000000
# 6 0.000000 0.000000 0.000000 0.000557 0.000000 0.016611
#
#
# Mechanical properties :
#
#
# Convention : Reuss Voigt Hill
#
# Bulk Modulus (GPa) = 19.72107 46.05036 32.88572
# Shear Modulus (GPa) = 32.85159 46.23970 39.54565
#
# Velocity S-wave (km/s) = 3.36246 3.98921 3.68917
# Velocity P-wave (km/s) = 4.67568 6.08827 5.42812
#
# Compressibility (1/GPa) = 0.05070718
#
# Stress axis : x y z
#
# Youngs Moduli (GPa) = 179.92364 29.93053 66.44433
#
# Poissons Ratio (x) = 0.16902 0.13914
# Poissons Ratio (y) = 1.01601 -0.40433
# Poissons Ratio (z) = 0.37678 -0.18213
#
# Static dielectric constant tensor:
#      x y z
#    x 2.331880 0.000000 0.043030 
#    y 0.000000 2.571810 0.000000 
#    z 0.043030 0.000000 2.297000 
# 
# From -- ./inp_files/19083.got.cif
#   From: 2010.05.17/outbox.cif.g08.bks.cpg/sg14_10_cif.got.tgz:19083.got - 2010.06.03 17:49:19.
