data_PCOD9249374
_publ_section_title
;
Structure prediction by ZEFSAII (Michael W. Deem and Ramdas Pophale) SiO2 
 PCOD9249374
Probable space group: P 21/C
;
_chemical_formula_sum "Si O2"
_cell_formula_units_Z 28
_cell_length_a 6.055885
_cell_length_b 25.615381
_cell_length_c 7.420851
_cell_angle_alpha 90.000000
_cell_angle_beta 67.866593
_cell_angle_gamma 90.000000
_cell_volume 1066.321306
_symmetry_space_group_name_H-M "P 21/C"
_symmetry_group_IT_number 14
_symmetry_cell_setting 'monoclinic'
loop_
_space_group_symop_operation_xyz
x,y,z
-x,1/2+y,1/2-z
-x,-y,-z
x,1/2-y,1/2+z
loop_
_atom_site_type_symbol
_atom_site_label
_atom_site_fract_x
_atom_site_fract_y
_atom_site_fract_z
Si Si1 0.760992 0.657756 0.024178
Si Si2 0.093971 0.477732 0.281572
Si Si3 0.099149 0.912778 0.627278
Si Si4 0.761871 0.168042 0.167412
Si Si5 0.561275 0.449701 0.353834
Si Si6 0.507271 0.351129 0.227203
Si Si7 0.845478 0.266343 0.993410
O O1 0.728073 0.648980 0.821435
O O2 0.916737 0.709500 0.996151
O O3 0.513977 0.665120 0.202217
O O4 0.871443 0.607642 0.090401
O O5 0.130284 0.526581 0.137844
O O6 0.361728 0.458220 0.253708
O O7 0.000000 0.500000 0.500000
O O8 0.853960 0.449971 0.273702
O O9 0.114165 0.886498 0.822838
O O10 0.309383 0.885050 0.452418
O O11 0.817921 0.204528 0.983507
O O12 0.855589 0.207242 0.294636
O O13 0.500000 0.500000 0.500000
O O14 0.501409 0.387352 0.407107
O O15 0.621265 0.293611 0.168221
#
# Coordination Sequence:
#
# PCOD9249374 Si02
#       7
#     4   4   4   4   4   4   4
#     4   8  18  36  58  80 122 148 198 244 302 358
#     4  10  23  41  58  85 123 156 201 249 307 359
#     4   9  20  36  59  84 113 158 199 249 299 361
#     4   9  19  36  56  88 115 153 200 246 304 363
#     4  10  23  41  58  85 123 156 201 249 307 359
#     4   9  20  36  59  84 113 158 199 249 299 361
#     4   9  19  36  56  88 115 153 200 246 304 363
#
# _framework density 26.258503999999999
#
# number of rings (size 3 to 8) (size 9 to 14) (size 15 to 20)
#    0.000    3.429    0.000    0.000    8.000    5.714 
#    5.143    2.857    0.000    0.000    0.000    0.000 
#    0.000    0.000    0.000    0.000    0.000    0.000 
#
# Total GULP energy -155918.263912 kJ/mol
# GULP energy per Si atom -5568.509425 kJ/mol
# Density = 2.619874 g / cm^3
# Si number density = 26.258504 Si / 1000 Ang^3
#
#
#
# Elastic Constant Matrix: (Units=GPa)
#
#
# Indices 1 2 3 4 5 6 
#
# 1 184.5766 47.1512 12.6271 0.0000 13.3312 0.0000
# 2 47.1512 81.9074 -0.1394 0.0000 5.1822 0.0000
# 3 12.6271 -0.1394 49.9076 0.0000 0.7553 0.0000
# 4 0.0000 0.0000 0.0000 42.3700 0.0000 -4.1484
# 5 13.3312 5.1822 0.7553 0.0000 12.6447 0.0000
# 6 0.0000 0.0000 0.0000 -4.1484 0.0000 23.4465
#
#
#
# Elastic Compliance Matrix: (Units=1/GPa)
#
#
# Indices 1 2 3 4 5 6 
#
# 1 0.006858 -0.003593 -0.001659 0.000000 -0.005659 0.000000
# 2 -0.003593 0.014417 0.000982 0.000000 -0.002179 0.000000
# 3 -0.001659 0.000982 0.020458 0.000000 0.000125 0.000000
# 4 0.000000 0.000000 0.000000 0.024018 0.000000 0.004249
# 5 -0.005659 -0.002179 0.000125 0.000000 0.085936 0.000000
# 6 0.000000 0.000000 0.000000 0.004249 0.000000 0.043402
#
#
# Mechanical properties :
#
#
# Convention : Reuss Voigt Hill
#
# Bulk Modulus (GPa) = 30.12739 48.40772 39.26755
# Shear Modulus (GPa) = 23.28922 32.80910 28.04916
#
# Velocity S-wave (km/s) = 2.98135 3.53861 3.27187
# Velocity P-wave (km/s) = 4.83214 5.93050 5.40927
#
# Compressibility (1/GPa) = 0.03319239
#
# Stress axis : x y z
#
# Youngs Moduli (GPa) = 145.81990 69.36449 48.88127
#
# Poissons Ratio (x) = 0.24920 0.08112
# Poissons Ratio (y) = 0.52387 -0.04801
# Poissons Ratio (z) = 0.24198 -0.06813
#
# Static dielectric constant tensor:
#      x y z
#    x 2.111320 0.000000 0.121160 
#    y 0.000000 2.313450 0.000000 
#    z 0.121160 0.000000 2.333940 
# 
# From -- ./inp_files/6672.got.cif
#   From: 2010.05.17/outbox.cif.g08.bks.cpg/sg14_4_cif.got.tgz:6672.got - 2010.06.03 17:49:19.
