data_PCOD9249629
_publ_section_title
;
Structure prediction by ZEFSAII (Michael W. Deem and Ramdas Pophale) SiO2 
 PCOD9249629
Probable space group: P 21/C
;
_chemical_formula_sum "Si O2"
_cell_formula_units_Z 32
_cell_length_a 18.324882
_cell_length_b 8.349459
_cell_length_c 24.234336
_cell_angle_alpha 90.000000
_cell_angle_beta 158.033275
_cell_angle_gamma 90.000000
_cell_volume 1387.015378
_symmetry_space_group_name_H-M "P 21/C"
_symmetry_group_IT_number 14
_symmetry_cell_setting 'monoclinic'
loop_
_space_group_symop_operation_xyz
x,y,z
-x,1/2+y,1/2-z
-x,-y,-z
x,1/2-y,1/2+z
loop_
_atom_site_type_symbol
_atom_site_label
_atom_site_fract_x
_atom_site_fract_y
_atom_site_fract_z
Si Si1 0.426320 0.126534 0.157711
Si Si2 0.649964 0.145247 0.604591
Si Si3 0.721516 0.222429 0.941221
Si Si4 0.707388 0.175125 0.257762
Si Si5 0.941730 0.599196 0.763399
Si Si6 0.948892 0.773608 0.151633
Si Si7 0.007733 0.334490 0.537980
Si Si8 0.335374 0.333356 0.327466
O O1 0.558517 0.155451 0.303981
O O2 0.549809 0.203712 0.194805
O O3 0.386351 0.940324 0.117832
O O4 0.215933 0.209978 0.010439
O O5 0.678386 0.208640 0.686081
O O6 0.865444 0.116129 0.732780
O O7 0.548436 0.278418 0.494725
O O8 0.500000 0.000000 0.500000
O O9 0.866135 0.172930 0.992117
O O10 0.858489 0.305185 0.082430
O O11 0.917881 0.202792 0.433274
O O12 0.676893 0.998867 0.213076
O O13 0.869066 0.658306 0.653228
O O14 0.985817 0.410138 0.796933
O O15 0.786988 0.643761 0.701973
O O16 0.000000 0.500000 0.500000
O O17 0.221938 0.294770 0.710357
#
# Coordination Sequence:
#
# PCOD9249629 Si02
#       8
#     4   4   4   4   4   4   4   4
#     4  11  25  44  69 100 136 178 223 280 339 408
#     4  12  28  44  69 101 135 180 229 281 338 397
#     4  10  24  44  70  98 139 172 226 282 338 410
#     4  11  24  45  69  99 132 180 225 279 341 406
#     4  11  25  44  69 101 133 180 224 276 344 403
#     4  12  27  44  71  97 140 180 224 280 338 403
#     4  10  23  42  70 100 131 173 224 280 338 404
#     4  11  24  45  68  96 138 173 225 278 334 408
#
# _framework density 23.071121999999999
#
# number of rings (size 3 to 8) (size 9 to 14) (size 15 to 20)
#    0.000    1.000    1.250    3.750   12.250    1.000 
#    0.000    0.000    0.000    0.000    0.000    0.000 
#    0.000    0.000    0.000    0.000    0.000    0.000 
#
# Total GULP energy -179251.724350 kJ/mol
# GULP energy per Si atom -5601.616386 kJ/mol
# Density = 2.301861 g / cm^3
# Si number density = 23.071122 Si / 1000 Ang^3
#
#
#
# Elastic Constant Matrix: (Units=GPa)
#
#
# Indices 1 2 3 4 5 6 
#
# 1 37.7190 -3.0383 7.5822 0.0000 -7.6005 0.0000
# 2 -3.0383 60.5553 -8.3129 0.0000 -2.1227 0.0000
# 3 7.5822 -8.3129 106.7068 0.0000 -3.2999 0.0000
# 4 0.0000 0.0000 0.0000 45.0274 0.0000 -6.6361
# 5 -7.6005 -2.1227 -3.2999 0.0000 25.5585 0.0000
# 6 0.0000 0.0000 0.0000 -6.6361 0.0000 32.8781
#
#
#
# Elastic Compliance Matrix: (Units=1/GPa)
#
#
# Indices 1 2 3 4 5 6 
#
# 1 0.028666 0.001506 -0.001659 0.000000 0.008436 0.000000
# 2 0.001506 0.016834 0.001267 0.000000 0.002010 0.000000
# 3 -0.001659 0.001267 0.009614 0.000000 0.000853 0.000000
# 4 0.000000 0.000000 0.000000 0.022890 0.000000 0.004620
# 5 0.008436 0.002010 0.000853 0.000000 0.041912 0.000000
# 6 0.000000 0.000000 0.000000 0.004620 0.000000 0.031348
#
#
# Mechanical properties :
#
#
# Convention : Reuss Voigt Hill
#
# Bulk Modulus (GPa) = 17.43900 21.93812 19.68856
# Shear Modulus (GPa) = 29.73541 34.60945 32.17243
#
# Velocity S-wave (km/s) = 3.59396 3.87734 3.73834
# Velocity P-wave (km/s) = 4.97969 5.43825 5.21401
#
# Compressibility (1/GPa) = 0.05734274
#
# Stress axis : x y z
#
# Youngs Moduli (GPa) = 34.88401 59.40463 104.01070
#
# Poissons Ratio (x) = -0.08948 0.17252
# Poissons Ratio (y) = -0.05255 -0.13173
# Poissons Ratio (z) = 0.05786 -0.07524
#
# Static dielectric constant tensor:
#      x y z
#    x 1.844400 0.000000 0.033000 
#    y 0.000000 1.851980 0.000000 
#    z 0.033000 0.000000 1.868160 
# 
# From -- ./inp_files/78018.got.cif
#   From: 2010.05.17/outbox.cif.g08.bks.cpg/sg14_40_cif.got.tgz:78018.got - 2010.06.03 17:49:19.
