data_PCOD9249046
_publ_section_title
;
Structure prediction by ZEFSAII (Michael W. Deem and Ramdas Pophale) SiO2 
 PCOD9249046
Probable space group: P 21/C
;
_chemical_formula_sum "Si O2"
_cell_formula_units_Z 28
_cell_length_a 5.015704
_cell_length_b 18.739929
_cell_length_c 14.231591
_cell_angle_alpha 90.000000
_cell_angle_beta 52.657667
_cell_angle_gamma 90.000000
_cell_volume 1063.492346
_symmetry_space_group_name_H-M "P 21/C"
_symmetry_group_IT_number 14
_symmetry_cell_setting 'monoclinic'
loop_
_space_group_symop_operation_xyz
x,y,z
-x,1/2+y,1/2-z
-x,-y,-z
x,1/2-y,1/2+z
loop_
_atom_site_type_symbol
_atom_site_label
_atom_site_fract_x
_atom_site_fract_y
_atom_site_fract_z
Si Si1 0.030569 0.683046 0.270101
Si Si2 0.509710 0.418492 0.535379
Si Si3 0.809370 0.706436 0.110652
Si Si4 0.565546 0.487848 0.704841
Si Si5 0.604561 0.640140 0.633164
Si Si6 0.232454 0.018407 0.636572
Si Si7 0.064784 0.329930 0.125409
O O1 0.836792 0.618584 0.359181
O O2 0.007250 0.683853 0.161461
O O3 0.843516 0.754272 0.348576
O O4 0.418800 0.689777 0.213402
O O5 0.500000 0.500000 0.500000
O O6 0.666325 0.429471 0.605728
O O7 0.586443 0.372572 0.425543
O O8 0.844242 0.791469 0.081094
O O9 0.892062 0.668112 0.995428
O O10 0.736964 0.562835 0.635737
O O11 0.655253 0.480103 0.793068
O O12 0.160371 0.498731 0.791997
O O13 0.324044 0.659489 0.768382
O O14 0.244057 0.104253 0.637413
O O15 0.500000 0.000000 0.500000
#
# Coordination Sequence:
#
# PCOD9249046 Si02
#       7
#     4   4   4   4   4   4   4
#     4  11  25  43  68 101 131 175 227 272 336 396
#     4  10  22  45  73  98 139 177 232 280 334 400
#     4  11  24  42  70  97 137 169 223 278 331 402
#     4  10  23  41  65  92 130 172 223 266 330 388
#     4   9  20  46  66 101 129 179 218 277 332 398
#     4  11  24  41  64  95 134 174 217 269 331 395
#     4  10  23  44  68  97 136 176 218 276 338 397
#
# _framework density 26.328353
#
# number of rings (size 3 to 8) (size 9 to 14) (size 15 to 20)
#    0.000    1.714    1.429    1.286    4.000    4.571 
#    0.000   20.714    0.000    0.000    0.000    0.000 
#    0.000    0.000    0.000    0.000    0.000    0.000 
#
# Total GULP energy -156777.738751 kJ/mol
# GULP energy per Si atom -5599.204955 kJ/mol
# Density = 2.626843 g / cm^3
# Si number density = 26.328353 Si / 1000 Ang^3
#
#
#
# Elastic Constant Matrix: (Units=GPa)
#
#
# Indices 1 2 3 4 5 6 
#
# 1 110.6451 17.6583 37.1982 0.0000 22.5873 0.0000
# 2 17.6583 82.2904 33.9588 0.0000 -7.6128 0.0000
# 3 37.1982 33.9588 157.3600 0.0000 9.2245 0.0000
# 4 0.0000 0.0000 0.0000 53.9586 0.0000 3.5280
# 5 22.5873 -7.6128 9.2245 0.0000 38.4709 0.0000
# 6 0.0000 0.0000 0.0000 3.5280 0.0000 19.5036
#
#
#
# Elastic Compliance Matrix: (Units=1/GPa)
#
#
# Indices 1 2 3 4 5 6 
#
# 1 0.011383 -0.002322 -0.001796 0.000000 -0.006712 0.000000
# 2 -0.002322 0.014261 -0.002814 0.000000 0.004860 0.000000
# 3 -0.001796 -0.002814 0.007462 0.000000 -0.001292 0.000000
# 4 0.000000 0.000000 0.000000 0.018755 0.000000 -0.003392
# 5 -0.006712 0.004860 -0.001292 0.000000 0.031206 0.000000
# 6 0.000000 0.000000 0.000000 -0.003392 0.000000 0.051886
#
#
# Mechanical properties :
#
#
# Convention : Reuss Voigt Hill
#
# Bulk Modulus (GPa) = 51.96925 58.65847 55.31386
# Shear Modulus (GPa) = 32.21017 39.81863 36.01440
#
# Velocity S-wave (km/s) = 3.50151 3.89316 3.70252
# Velocity P-wave (km/s) = 6.01076 6.52203 6.27161
#
# Compressibility (1/GPa) = 0.01924215
#
# Stress axis : x y z
#
# Youngs Moduli (GPa) = 87.85389 70.12087 134.00668
#
# Poissons Ratio (x) = 0.16284 0.24069
# Poissons Ratio (y) = 0.20402 0.37703
# Poissons Ratio (z) = 0.15779 0.19729
#
# Static dielectric constant tensor:
#      x y z
#    x 2.192780 0.000000 -0.064500 
#    y 0.000000 2.145170 0.000000 
#    z -0.064500 0.000000 2.015180 
# 
# From -- ./inp_files/37638.got.cif
#   From: 2010.05.17/outbox.cif.g08.bks.cpg/sg14_19_cif.got.tgz:37638.got - 2010.06.03 17:49:19.
