data_PCOD9249117
_publ_section_title
;
Structure prediction by ZEFSAII (Michael W. Deem and Ramdas Pophale) SiO2 
 PCOD9249117
Probable space group: P 21/C
;
_chemical_formula_sum "Si O2"
_cell_formula_units_Z 24
_cell_length_a 10.985870
_cell_length_b 8.102368
_cell_length_c 11.329697
_cell_angle_alpha 90.000000
_cell_angle_beta 100.783278
_cell_angle_gamma 90.000000
_cell_volume 990.666283
_symmetry_space_group_name_H-M "P 21/C"
_symmetry_group_IT_number 14
_symmetry_cell_setting 'monoclinic'
loop_
_space_group_symop_operation_xyz
x,y,z
-x,1/2+y,1/2-z
-x,-y,-z
x,1/2-y,1/2+z
loop_
_atom_site_type_symbol
_atom_site_label
_atom_site_fract_x
_atom_site_fract_y
_atom_site_fract_z
Si Si1 0.683356 0.385594 0.348962
Si Si2 0.705264 0.535121 0.598076
Si Si3 0.149621 0.944397 0.318871
Si Si4 0.469814 0.925782 0.727690
Si Si5 0.692819 0.869794 0.470985
Si Si6 0.890052 0.801394 0.304182
O O1 0.729660 0.426602 0.487102
O O2 0.790082 0.160609 0.776344
O O3 0.578109 0.246943 0.330028
O O4 0.613392 0.546057 0.281061
O O5 0.603167 0.454808 0.663343
O O6 0.658089 0.712431 0.542395
O O7 0.825717 0.577712 0.696767
O O8 0.029393 0.859255 0.350437
O O9 0.250896 0.987669 0.436055
O O10 0.113049 0.118896 0.251681
O O11 0.419800 0.060886 0.625910
O O12 0.804520 0.815289 0.404236
#
# Coordination Sequence:
#
# PCOD9249117 Si02
#       6
#     4   4   4   4   4   4
#     4  12  26  45  68 101 135 180 225 280 338 397
#     4  10  23  47  68  97 136 179 224 282 327 399
#     4  11  25  42  69  98 139 176 226 277 338 397
#     4  11  27  43  71  98 137 176 231 274 337 402
#     4  10  22  46  71  94 138 180 226 275 339 392
#     4  10  23  43  68 100 134 181 221 280 333 399
#
# _framework density 24.226118
#
# number of rings (size 3 to 8) (size 9 to 14) (size 15 to 20)
#    0.000    1.333    1.667    2.000   11.667    1.333 
#    0.000    0.000    0.000    0.000    0.000    0.000 
#    0.000    0.000    0.000    0.000    0.000    0.000 
#
# Total GULP energy -134583.260367 kJ/mol
# GULP energy per Si atom -5607.635849 kJ/mol
# Density = 2.417098 g / cm^3
# Si number density = 24.226118 Si / 1000 Ang^3
#
#
#
# Elastic Constant Matrix: (Units=GPa)
#
#
# Indices 1 2 3 4 5 6 
#
# 1 84.3665 6.6604 21.8693 0.0000 -9.1019 0.0000
# 2 6.6604 62.6705 5.1405 0.0000 -4.5870 0.0000
# 3 21.8693 5.1405 103.7882 0.0000 -11.8096 0.0000
# 4 0.0000 0.0000 0.0000 23.5670 0.0000 6.5831
# 5 -9.1019 -4.5870 -11.8096 0.0000 22.2377 0.0000
# 6 0.0000 0.0000 0.0000 6.5831 0.0000 31.9383
#
#
#
# Elastic Compliance Matrix: (Units=1/GPa)
#
#
# Indices 1 2 3 4 5 6 
#
# 1 0.012926 -0.000904 -0.002233 0.000000 0.003918 0.000000
# 2 -0.000904 0.016284 -0.000294 0.000000 0.002833 0.000000
# 3 -0.002233 -0.000294 0.010653 0.000000 0.004683 0.000000
# 4 0.000000 0.000000 0.000000 0.045025 0.000000 -0.009280
# 5 0.003918 0.002833 0.004683 0.000000 0.049644 0.000000
# 6 0.000000 0.000000 0.000000 -0.009280 0.000000 0.033223
#
#
# Mechanical properties :
#
#
# Convention : Reuss Voigt Hill
#
# Bulk Modulus (GPa) = 30.30142 35.35173 32.82658
# Shear Modulus (GPa) = 26.93733 30.02559 28.48146
#
# Velocity S-wave (km/s) = 3.33815 3.52432 3.43250
# Velocity P-wave (km/s) = 5.23379 5.58437 5.41192
#
# Compressibility (1/GPa) = 0.03300175
#
# Stress axis : x y z
#
# Youngs Moduli (GPa) = 77.36365 61.41014 93.87103
#
# Poissons Ratio (x) = 0.05550 0.20962
# Poissons Ratio (y) = 0.06992 0.02757
# Poissons Ratio (z) = 0.17275 0.01804
#
# Static dielectric constant tensor:
#      x y z
#    x 1.867780 0.000000 -0.017180 
#    y 0.000000 1.991780 0.000000 
#    z -0.017180 0.000000 1.883840 
# 
# From -- ./inp_files/28191.got.cif
#   From: 2010.05.17/outbox.cif.g08.bks.cpg/sg14_15_cif.got.tgz:28191.got - 2010.06.03 17:49:19.
