data_PCOD9249444
_publ_section_title
;
Structure prediction by ZEFSAII (Michael W. Deem and Ramdas Pophale) SiO2 
 PCOD9249444
Probable space group: P 21/C
;
_chemical_formula_sum "Si O2"
_cell_formula_units_Z 24
_cell_length_a 10.916738
_cell_length_b 11.193979
_cell_length_c 18.205116
_cell_angle_alpha 90.000000
_cell_angle_beta 32.547132
_cell_angle_gamma 90.000000
_cell_volume 1196.871755
_symmetry_space_group_name_H-M "P 21/C"
_symmetry_group_IT_number 14
_symmetry_cell_setting 'monoclinic'
loop_
_space_group_symop_operation_xyz
x,y,z
-x,1/2+y,1/2-z
-x,-y,-z
x,1/2-y,1/2+z
loop_
_atom_site_type_symbol
_atom_site_label
_atom_site_fract_x
_atom_site_fract_y
_atom_site_fract_z
Si Si1 0.156013 0.299550 0.604819
Si Si2 0.369106 0.452001 0.994073
Si Si3 0.796206 0.101939 0.182685
Si Si4 0.049247 0.385668 0.822256
Si Si5 0.481872 0.503181 0.421416
Si Si6 0.905903 0.361059 0.461321
O O1 0.231868 0.166759 0.584096
O O2 0.361421 0.376766 0.464304
O O3 0.943414 0.308175 0.657983
O O4 0.086095 0.359298 0.717025
O O5 0.549770 0.415086 0.841262
O O6 0.500000 0.500000 0.000000
O O7 0.188430 0.545324 0.053603
O O8 0.806532 0.143008 0.093667
O O9 0.920891 0.972956 0.127065
O O10 0.269224 0.463599 0.734762
O O11 0.026265 0.260567 0.876113
O O12 0.500000 0.500000 0.500000
O O13 0.301414 0.603836 0.487864
#
# Coordination Sequence:
#
# PCOD9249444 Si02
#       6
#     4   4   4   4   4   4
#     4  10  23  41  67  92 137 166 215 279 324 389
#     4  12  25  40  69 101 129 171 222 275 329 395
#     4  10  23  46  65  95 131 177 215 266 340 388
#     4  11  24  38  71  97 126 167 224 268 329 395
#     4   9  22  40  63  97 128 172 217 271 326 384
#     4  10  23  44  68  91 134 176 216 273 329 397
#
# _framework density 20.052271999999999
#
# number of rings (size 3 to 8) (size 9 to 14) (size 15 to 20)
#    0.000    1.667    1.667    1.000   14.000    1.333 
#    6.000    1.667    0.000    0.000    0.000    0.000 
#    0.000    0.000    0.000    0.000    0.000    0.000 
#
# Total GULP energy -134068.162361 kJ/mol
# GULP energy per Si atom -5586.173432 kJ/mol
# Density = 2.000663 g / cm^3
# Si number density = 20.052272 Si / 1000 Ang^3
#
#
#
# Elastic Constant Matrix: (Units=GPa)
#
#
# Indices 1 2 3 4 5 6 
#
# 1 69.5224 30.5242 47.8875 0.0000 -5.8878 0.0000
# 2 30.5242 79.7765 15.5469 0.0000 -10.4673 0.0000
# 3 47.8875 15.5469 84.2034 0.0000 -3.3063 0.0000
# 4 0.0000 0.0000 0.0000 31.2112 0.0000 1.6378
# 5 -5.8878 -10.4673 -3.3063 0.0000 23.0973 0.0000
# 6 0.0000 0.0000 0.0000 1.6378 0.0000 22.8074
#
#
#
# Elastic Compliance Matrix: (Units=1/GPa)
#
#
# Indices 1 2 3 4 5 6 
#
# 1 0.027696 -0.007608 -0.014285 0.000000 0.001568 0.000000
# 2 -0.007608 0.015849 0.001615 0.000000 0.005475 0.000000
# 3 -0.014285 0.001615 0.019698 0.000000 -0.000090 0.000000
# 4 0.000000 0.000000 0.000000 0.032161 0.000000 -0.002309
# 5 0.001568 0.005475 -0.000090 0.000000 0.046163 0.000000
# 6 0.000000 0.000000 0.000000 -0.002309 0.000000 0.044011
#
#
# Mechanical properties :
#
#
# Convention : Reuss Voigt Hill
#
# Bulk Modulus (GPa) = 44.07412 46.82437 45.44924
# Shear Modulus (GPa) = 21.39518 24.72611 23.06064
#
# Velocity S-wave (km/s) = 3.26999 3.51534 3.39488
# Velocity P-wave (km/s) = 6.02366 6.31495 6.17103
#
# Compressibility (1/GPa) = 0.02268905
#
# Stress axis : x y z
#
# Youngs Moduli (GPa) = 36.10566 63.09385 50.76560
#
# Poissons Ratio (x) = 0.48000 0.72519
# Poissons Ratio (y) = 0.27468 -0.08200
# Poissons Ratio (z) = 0.51577 -0.10191
#
# Static dielectric constant tensor:
#      x y z
#    x 1.698430 0.000000 -0.018740 
#    y 0.000000 1.474500 0.000000 
#    z -0.018740 0.000000 1.707320 
# 
# From -- ./inp_files/28753.got.cif
#   From: 2010.05.17/outbox.cif.g08.bks.cpg/sg14_15_cif.got.tgz:28753.got - 2010.06.03 17:49:19.
