data_PCOD9249069
_publ_section_title
;
Structure prediction by ZEFSAII (Michael W. Deem and Ramdas Pophale) SiO2 
 PCOD9249069
Probable space group: P 21/C
;
_chemical_formula_sum "Si O2"
_cell_formula_units_Z 24
_cell_length_a 20.638535
_cell_length_b 12.154403
_cell_length_c 14.247953
_cell_angle_alpha 90.000000
_cell_angle_beta 17.040134
_cell_angle_gamma 90.000000
_cell_volume 1047.355446
_symmetry_space_group_name_H-M "P 21/C"
_symmetry_group_IT_number 14
_symmetry_cell_setting 'monoclinic'
loop_
_space_group_symop_operation_xyz
x,y,z
-x,1/2+y,1/2-z
-x,-y,-z
x,1/2-y,1/2+z
loop_
_atom_site_type_symbol
_atom_site_label
_atom_site_fract_x
_atom_site_fract_y
_atom_site_fract_z
Si Si1 0.779064 0.300218 0.422456
Si Si2 0.264042 0.963383 0.782354
Si Si3 0.029011 0.982179 0.572182
Si Si4 0.042175 0.760607 0.030841
Si Si5 0.208424 0.932853 0.500790
Si Si6 0.342971 0.070778 0.476593
O O1 0.778662 0.194419 0.488865
O O2 0.544705 0.356602 0.731378
O O3 0.926126 0.403757 0.251448
O O4 0.859175 0.263485 0.208344
O O5 0.500000 0.000000 0.500000
O O6 0.275272 0.994853 0.657027
O O7 0.219247 0.831940 0.845148
O O8 0.046507 0.028218 0.121998
O O9 0.944403 0.855853 0.702254
O O10 0.240723 0.965009 0.347093
O O11 0.000000 0.000000 0.500000
O O12 0.845543 0.844934 0.289997
O O13 0.373085 0.995305 0.343639
#
# Coordination Sequence:
#
# PCOD9249069 Si02
#       6
#     4   4   4   4   4   4
#     4  11  23  43  69  99 136 187 232 281 360 412
#     4  11  22  41  69 103 133 181 243 287 347 417
#     4  10  25  43  66  97 142 182 226 289 358 410
#     4  10  22  46  64  98 142 177 227 301 336 417
#     4  11  23  44  69  98 141 183 236 291 344 420
#     4  11  23  40  70 101 138 181 240 287 340 419
#
# _framework density 22.914856
#
# number of rings (size 3 to 8) (size 9 to 14) (size 15 to 20)
#    0.000    1.333    3.333    2.000    9.333    1.333 
#    0.000    3.333    0.000    0.000    0.000    0.000 
#    0.000    0.000    0.000    0.000    0.000    0.000 
#
# Total GULP energy -133780.569872 kJ/mol
# GULP energy per Si atom -5574.190411 kJ/mol
# Density = 2.286270 g / cm^3
# Si number density = 22.914856 Si / 1000 Ang^3
#
#
#
# Elastic Constant Matrix: (Units=GPa)
#
#
# Indices 1 2 3 4 5 6 
#
# 1 155.0681 92.4658 -16.4995 0.0000 10.4726 0.0000
# 2 92.4658 319.2102 -89.8923 0.0000 -4.4943 0.0000
# 3 -16.4995 -89.8923 203.9487 0.0000 -2.7341 0.0000
# 4 0.0000 0.0000 0.0000 18.7225 0.0000 -14.3611
# 5 10.4726 -4.4943 -2.7341 0.0000 16.5099 0.0000
# 6 0.0000 0.0000 0.0000 -14.3611 0.0000 13.6453
#
#
#
# Elastic Compliance Matrix: (Units=1/GPa)
#
#
# Indices 1 2 3 4 5 6 
#
# 1 0.008404 -0.002686 -0.000587 0.000000 -0.006159 0.000000
# 2 -0.002686 0.004461 0.001792 0.000000 0.003215 0.000000
# 3 -0.000587 0.001792 0.005670 0.000000 0.001799 0.000000
# 4 0.000000 0.000000 0.000000 0.277163 0.000000 0.291703
# 5 -0.006159 0.003215 0.001799 0.000000 0.065650 0.000000
# 6 0.000000 0.000000 0.000000 0.291703 0.000000 0.380290
#
#
# Mechanical properties :
#
#
# Convention : Reuss Voigt Hill
#
# Bulk Modulus (GPa) = 64.21703 72.26389 68.24046
# Shear Modulus (GPa) = 6.66852 55.91906 31.29379
#
# Velocity S-wave (km/s) = 1.70776 4.94530 3.69949
# Velocity P-wave (km/s) = 5.65452 8.01325 6.93491
#
# Compressibility (1/GPa) = 0.01557219
#
# Stress axis : x y z
#
# Youngs Moduli (GPa) = 118.98793 224.17578 176.37800
#
# Poissons Ratio (x) = 0.60223 0.10349
# Poissons Ratio (y) = 0.31965 -0.31605
# Poissons Ratio (z) = 0.06981 -0.40170
#
# Static dielectric constant tensor:
#      x y z
#    x 2.033860 0.000000 0.184830 
#    y 0.000000 1.779330 0.000000 
#    z 0.184830 0.000000 2.196640 
# 
# From -- ./inp_files/50416.got.cif
#   From: 2010.05.17/outbox.cif.g08.bks.cpg/sg14_26_cif.got.tgz:50416.got - 2010.06.03 17:49:19.
