data_PCOD9249131
_publ_section_title
;
Structure prediction by ZEFSAII (Michael W. Deem and Ramdas Pophale) SiO2 
 PCOD9249131
Probable space group: P 21/C
;
_chemical_formula_sum "Si O2"
_cell_formula_units_Z 20
_cell_length_a 18.945085
_cell_length_b 5.769752
_cell_length_c 9.876584
_cell_angle_alpha 90.000000
_cell_angle_beta 134.273297
_cell_angle_gamma 90.000000
_cell_volume 773.008912
_symmetry_space_group_name_H-M "P 21/C"
_symmetry_group_IT_number 14
_symmetry_cell_setting 'monoclinic'
loop_
_space_group_symop_operation_xyz
x,y,z
-x,1/2+y,1/2-z
-x,-y,-z
x,1/2-y,1/2+z
loop_
_atom_site_type_symbol
_atom_site_label
_atom_site_fract_x
_atom_site_fract_y
_atom_site_fract_z
Si Si1 0.391647 0.043682 0.156665
Si Si2 0.210013 0.981203 0.740988
Si Si3 0.931071 0.855891 0.008696
Si Si4 0.131907 0.726655 0.390342
Si Si5 0.424943 0.960313 0.777219
O O1 0.506449 0.051495 0.266809
O O2 0.378385 0.799954 0.220351
O O3 0.367566 0.294173 0.189575
O O4 0.321317 0.029606 0.930749
O O5 0.181371 0.917820 0.550641
O O6 0.178109 0.783616 0.804561
O O7 0.134046 0.186865 0.669089
O O8 0.013945 0.739334 0.214548
O O9 0.856813 0.995295 0.005369
O O10 0.000000 0.000000 0.000000
O O11 0.500000 0.000000 0.000000
#
# Coordination Sequence:
#
# PCOD9249131 Si02
#       5
#     4   4   4   4   4
#     4  10  25  43  69 108 136 182 241 289 368 426
#     4  12  28  42  71 106 139 188 243 306 350 441
#     4  12  24  45  68  98 142 189 239 295 365 429
#     4  12  25  44  68  97 141 186 239 295 366 416
#     4  10  22  46  73  97 143 186 225 297 367 439
#
# _framework density 25.872924000000001
#
# number of rings (size 3 to 8) (size 9 to 14) (size 15 to 20)
#    0.000    0.800    4.000    2.400    5.600    1.600 
#    0.000    0.000    0.000    0.000    0.000    0.000 
#    0.000    0.000    0.000    0.000    0.000    0.000 
#
# Total GULP energy -111775.869150 kJ/mol
# GULP energy per Si atom -5588.793457 kJ/mol
# Density = 2.581404 g / cm^3
# Si number density = 25.872924 Si / 1000 Ang^3
#
#
#
# Elastic Constant Matrix: (Units=GPa)
#
#
# Indices 1 2 3 4 5 6 
#
# 1 66.5676 24.1287 8.2427 0.0000 3.4843 0.0000
# 2 24.1287 158.3715 56.8460 0.0000 -1.7667 0.0000
# 3 8.2427 56.8460 138.4059 0.0000 4.6934 0.0000
# 4 0.0000 0.0000 0.0000 41.4293 0.0000 -4.0515
# 5 3.4843 -1.7667 4.6934 0.0000 37.8305 0.0000
# 6 0.0000 0.0000 0.0000 -4.0515 0.0000 33.1636
#
#
#
# Elastic Compliance Matrix: (Units=1/GPa)
#
#
# Indices 1 2 3 4 5 6 
#
# 1 0.015997 -0.002502 0.000129 0.000000 -0.001606 0.000000
# 2 -0.002502 0.007817 -0.003095 0.000000 0.000979 0.000000
# 3 0.000129 -0.003095 0.008530 0.000000 -0.001215 0.000000
# 4 0.000000 0.000000 0.000000 0.024429 0.000000 0.002984
# 5 -0.001606 0.000979 -0.001215 0.000000 0.026778 0.000000
# 6 0.000000 0.000000 0.000000 0.002984 0.000000 0.030518
#
#
# Mechanical properties :
#
#
# Convention : Reuss Voigt Hill
#
# Bulk Modulus (GPa) = 46.70804 60.19776 53.45290
# Shear Modulus (GPa) = 37.83843 40.75984 39.29914
#
# Velocity S-wave (km/s) = 3.82838 3.97342 3.90157
# Velocity P-wave (km/s) = 6.13466 6.66093 6.40320
#
# Compressibility (1/GPa) = 0.02140959
#
# Stress axis : x y z
#
# Youngs Moduli (GPa) = 62.51122 127.92293 117.23655
#
# Poissons Ratio (x) = 0.32000 -0.01515
# Poissons Ratio (y) = 0.15637 0.36284
# Poissons Ratio (z) = -0.00808 0.39591
#
# Static dielectric constant tensor:
#      x y z
#    x 2.068640 0.000000 0.012250 
#    y 0.000000 2.128380 0.000000 
#    z 0.012250 0.000000 1.981280 
# 
# From -- ./inp_files/35565.got.cif
#   From: 2010.05.17/outbox.cif.g08.bks.cpg/sg14_18_cif.got.tgz:35565.got - 2010.06.03 17:49:19.
