data_PCOD9249428
_publ_section_title
;
Structure prediction by ZEFSAII (Michael W. Deem and Ramdas Pophale) SiO2 
 PCOD9249428
Probable space group: P 21/C
;
_chemical_formula_sum "Si O2"
_cell_formula_units_Z 20
_cell_length_a 8.812929
_cell_length_b 17.240009
_cell_length_c 12.319832
_cell_angle_alpha 90.000000
_cell_angle_beta 29.543516
_cell_angle_gamma 90.000000
_cell_volume 922.962068
_symmetry_space_group_name_H-M "P 21/C"
_symmetry_group_IT_number 14
_symmetry_cell_setting 'monoclinic'
loop_
_space_group_symop_operation_xyz
x,y,z
-x,1/2+y,1/2-z
-x,-y,-z
x,1/2-y,1/2+z
loop_
_atom_site_type_symbol
_atom_site_label
_atom_site_fract_x
_atom_site_fract_y
_atom_site_fract_z
Si Si1 0.239120 0.101686 0.917450
Si Si2 0.765642 0.809736 0.875046
Si Si3 0.953897 0.337600 0.214033
Si Si4 0.966935 0.409174 0.987695
Si Si5 0.165445 0.463072 0.237042
O O1 0.601479 0.097927 0.708590
O O2 0.190518 0.098207 0.819933
O O3 0.139443 0.169581 0.059648
O O4 0.059754 0.028736 0.078224
O O5 0.888031 0.722297 0.801162
O O6 0.903204 0.872882 0.705145
O O7 0.401010 0.813956 0.080905
O O8 0.003381 0.421464 0.237866
O O9 0.087971 0.353307 0.009695
O O10 0.000000 0.500000 0.000000
O O11 0.500000 0.500000 0.000000
#
# Coordination Sequence:
#
# PCOD9249428 Si02
#       5
#     4   4   4   4   4
#     4  10  23  41  66 101 131 176 230 278 342 411
#     4  11  26  44  67  99 143 177 228 289 351 417
#     4  11  27  42  68 101 135 182 229 280 357 414
#     4  11  23  45  70  95 134 182 230 286 341 415
#     4  11  23  42  71 101 138 181 232 288 341 418
#
# _framework density 21.669363000000001
#
# number of rings (size 3 to 8) (size 9 to 14) (size 15 to 20)
#    0.000    1.200    0.000    4.800    8.400    6.400 
#    0.000    0.000    0.000    0.000    0.000    0.000 
#    0.000    0.000    0.000    0.000    0.000    0.000 
#
# Total GULP energy -111469.523647 kJ/mol
# GULP energy per Si atom -5573.476182 kJ/mol
# Density = 2.162004 g / cm^3
# Si number density = 21.669363 Si / 1000 Ang^3
#
#
#
# Elastic Constant Matrix: (Units=GPa)
#
#
# Indices 1 2 3 4 5 6 
#
# 1 95.0574 31.3245 27.1187 0.0000 17.4182 0.0000
# 2 31.3245 92.0251 27.4106 0.0000 9.2540 0.0000
# 3 27.1187 27.4106 78.3654 0.0000 15.9395 0.0000
# 4 0.0000 0.0000 0.0000 23.8377 0.0000 5.1383
# 5 17.4182 9.2540 15.9395 0.0000 34.2494 0.0000
# 6 0.0000 0.0000 0.0000 5.1383 0.0000 53.1912
#
#
#
# Elastic Compliance Matrix: (Units=1/GPa)
#
#
# Indices 1 2 3 4 5 6 
#
# 1 0.013155 -0.003277 -0.002458 0.000000 -0.004661 0.000000
# 2 -0.003277 0.013011 -0.003359 0.000000 -0.000286 0.000000
# 3 -0.002458 -0.003359 0.015848 0.000000 -0.005218 0.000000
# 4 0.000000 0.000000 0.000000 0.042843 0.000000 -0.004139
# 5 -0.004661 -0.000286 -0.005218 0.000000 0.034073 0.000000
# 6 0.000000 0.000000 0.000000 -0.004139 0.000000 0.019200
#
#
# Mechanical properties :
#
#
# Convention : Reuss Voigt Hill
#
# Bulk Modulus (GPa) = 41.97131 48.57283 45.27207
# Shear Modulus (GPa) = 30.43955 34.22860 32.33407
#
# Velocity S-wave (km/s) = 3.75204 3.97871 3.86703
# Velocity P-wave (km/s) = 6.17911 6.60083 6.39345
#
# Compressibility (1/GPa) = 0.02382580
#
# Stress axis : x y z
#
# Youngs Moduli (GPa) = 76.01571 76.85631 63.10124
#
# Poissons Ratio (x) = 0.25186 0.15511
# Poissons Ratio (y) = 0.24910 0.21195
# Poissons Ratio (z) = 0.18686 0.25816
#
# Static dielectric constant tensor:
#      x y z
#    x 1.860370 0.000000 0.076330 
#    y 0.000000 1.920220 0.000000 
#    z 0.076330 0.000000 1.780880 
# 
# From -- ./inp_files/5762.got.cif
#   From: 2010.05.17/outbox.cif.g08.bks.cpg/sg14_3_cif.got.tgz:5762.got - 2010.06.03 17:49:19.
