data_PCOD9249855
_publ_section_title
;
Structure prediction by ZEFSAII (Michael W. Deem and Ramdas Pophale) SiO2 
 PCOD9249855
Probable space group: P 21/C
;
_chemical_formula_sum "Si O2"
_cell_formula_units_Z 26
_cell_length_a 11.610894
_cell_length_b 9.077632
_cell_length_c 19.373006
_cell_angle_alpha 90.000000
_cell_angle_beta 30.498916
_cell_angle_gamma 90.000000
_cell_volume 1036.311151
_symmetry_space_group_name_H-M "P 21/C"
_symmetry_group_IT_number 14
_symmetry_cell_setting 'monoclinic'
loop_
_space_group_symop_operation_xyz
x,y,z
-x,1/2+y,1/2-z
-x,-y,-z
x,1/2-y,1/2+z
loop_
_atom_site_type_symbol
_atom_site_label
_atom_site_fract_x
_atom_site_fract_y
_atom_site_fract_z
Si Si1 0.383508 0.265772 0.853216
Si Si2 0.178881 0.468371 0.710348
Si Si3 0.363243 0.496770 0.460245
Si Si4 0.307464 0.814557 0.431867
Si Si5 0.818354 0.645482 0.833435
Si Si6 0.000000 0.500000 0.000000
Si Si7 0.430771 0.559255 0.126118
O O1 0.507546 0.190912 0.725171
O O2 0.199559 0.384353 0.925170
O O3 0.575403 0.348050 0.800935
O O4 0.288282 0.138835 0.952199
O O5 0.285299 0.489386 0.579104
O O6 0.360706 0.498740 0.676272
O O7 0.114684 0.295734 0.738806
O O8 0.985040 0.591729 0.807805
O O9 0.283853 0.649226 0.469619
O O10 0.414251 0.917311 0.435639
O O11 0.082086 0.881441 0.516252
O O12 0.790690 0.509737 0.794078
O O13 0.570588 0.655062 0.997809
#
# Coordination Sequence:
#
# PCOD9249855 Si02
#       7
#     4   4   4   4   4   2   4
#     4  11  24  45  71 102 137 187 230 294 347 413
#     4  11  26  41  69 104 133 182 225 288 349 421
#     4  11  24  45  67  99 143 168 231 288 345 414
#     4  11  24  45  72 100 137 188 229 293 349 416
#     4  11  24  42  68  99 133 181 230 280 351 415
#     4  10  26  46  70 100 136 184 244 276 346 414
#     4  10  23  44  66  94 140 175 225 290 340 408
#
# _framework density 25.088989999999999
#
# number of rings (size 3 to 8) (size 9 to 14) (size 15 to 20)
#    0.000    1.231    3.077    1.846    4.308    8.000 
#    0.000    0.000    0.000    0.000    0.000    0.000 
#    0.000    0.000    0.000    0.000    0.000    0.000 
#
# Total GULP energy -145129.733676 kJ/mol
# GULP energy per Si atom -5581.912834 kJ/mol
# Density = 2.503189 g / cm^3
# Si number density = 25.088990 Si / 1000 Ang^3
#
#
#
# Elastic Constant Matrix: (Units=GPa)
#
#
# Indices 1 2 3 4 5 6 
#
# 1 138.5110 41.2726 18.3307 0.0000 -10.9042 0.0000
# 2 41.2726 116.1550 7.6645 0.0000 0.7519 0.0000
# 3 18.3307 7.6645 41.9663 0.0000 8.4464 0.0000
# 4 0.0000 0.0000 0.0000 27.1317 0.0000 8.3445
# 5 -10.9042 0.7519 8.4464 0.0000 38.5694 0.0000
# 6 0.0000 0.0000 0.0000 8.3445 0.0000 42.2370
#
#
#
# Elastic Compliance Matrix: (Units=1/GPa)
#
#
# Indices 1 2 3 4 5 6 
#
# 1 0.008897 -0.002916 -0.004050 0.000000 0.003459 0.000000
# 2 -0.002916 0.009672 -0.000302 0.000000 -0.000947 0.000000
# 3 -0.004050 -0.000302 0.027075 0.000000 -0.007068 0.000000
# 4 0.000000 0.000000 0.000000 0.039242 0.000000 -0.007753
# 5 0.003459 -0.000947 -0.007068 0.000000 0.028472 0.000000
# 6 0.000000 0.000000 0.000000 -0.007753 0.000000 0.025208
#
#
# Mechanical properties :
#
#
# Convention : Reuss Voigt Hill
#
# Bulk Modulus (GPa) = 32.14636 47.90756 40.02696
# Shear Modulus (GPa) = 30.58670 36.87859 33.73264
#
# Velocity S-wave (km/s) = 3.49539 3.83810 3.67075
# Velocity P-wave (km/s) = 5.39732 6.22719 5.82705
#
# Compressibility (1/GPa) = 0.03110772
#
# Stress axis : x y z
#
# Youngs Moduli (GPa) = 112.39844 103.39638 36.93406
#
# Poissons Ratio (x) = 0.30155 0.14957
# Poissons Ratio (y) = 0.32781 0.01115
# Poissons Ratio (z) = 0.45518 0.03121
#
# Static dielectric constant tensor:
#      x y z
#    x 3.401980 0.000000 0.398400 
#    y 0.000000 1.941370 0.000000 
#    z 0.398400 0.000000 2.225560 
# 
# From -- ./inp_files/66774.got.cif
#   From: 2010.05.17/outbox.cif.g08.bks.cpg/sg14_34_cif.got.tgz:66774.got - 2010.06.03 17:49:19.
