data_PCOD9249769
_publ_section_title
;
Structure prediction by ZEFSAII (Michael W. Deem and Ramdas Pophale) SiO2 
 PCOD9249769
Probable space group: P 21/C
;
_chemical_formula_sum "Si O2"
_cell_formula_units_Z 20
_cell_length_a 7.551354
_cell_length_b 10.716866
_cell_length_c 11.594039
_cell_angle_alpha 90.000000
_cell_angle_beta 119.719406
_cell_angle_gamma 90.000000
_cell_volume 814.852561
_symmetry_space_group_name_H-M "P 21/C"
_symmetry_group_IT_number 14
_symmetry_cell_setting 'monoclinic'
loop_
_space_group_symop_operation_xyz
x,y,z
-x,1/2+y,1/2-z
-x,-y,-z
x,1/2-y,1/2+z
loop_
_atom_site_type_symbol
_atom_site_label
_atom_site_fract_x
_atom_site_fract_y
_atom_site_fract_z
Si Si1 0.779443 0.950746 0.892138
Si Si2 0.071523 0.305448 0.052754
Si Si3 0.790170 0.446449 0.798710
Si Si4 0.452007 0.098831 0.386716
Si Si5 0.330230 0.836941 0.986343
O O1 0.772200 0.805663 0.924191
O O2 0.751406 0.943458 0.745527
O O3 0.639888 0.051532 0.911909
O O4 0.000000 0.000000 0.000000
O O5 0.160357 0.407950 0.168261
O O6 0.872639 0.241003 0.044346
O O7 0.991224 0.374855 0.912364
O O8 0.614494 0.414439 0.834767
O O9 0.721251 0.396727 0.653239
O O10 0.486879 0.237520 0.445567
O O11 0.500000 0.000000 0.500000
#
# Coordination Sequence:
#
# PCOD9249769 Si02
#       5
#     4   4   4   4   4
#     4  10  24  45  71 102 138 191 239 291 364 427
#     4   9  22  42  69 103 147 187 231 304 363 430
#     4  10  23  43  69 110 140 189 249 288 367 440
#     4  11  27  45  72  97 151 188 235 308 363 424
#     4  10  24  43  73 104 144 184 247 300 361 448
#
# _framework density 24.544316999999999
#
# number of rings (size 3 to 8) (size 9 to 14) (size 15 to 20)
#    0.000    2.000    0.000    0.000   14.000    8.800 
#    0.000    0.000    0.000    0.000    0.000    0.000 
#    0.000    0.000    0.000    0.000    0.000    0.000 
#
# Total GULP energy -111893.349726 kJ/mol
# GULP energy per Si atom -5594.667486 kJ/mol
# Density = 2.448845 g / cm^3
# Si number density = 24.544317 Si / 1000 Ang^3
#
#
#
# Elastic Constant Matrix: (Units=GPa)
#
#
# Indices 1 2 3 4 5 6 
#
# 1 46.9424 26.7715 35.4914 0.0000 -10.7664 0.0000
# 2 26.7715 220.6053 116.3574 0.0000 -7.0265 0.0000
# 3 35.4914 116.3574 227.8333 0.0000 -1.2624 0.0000
# 4 0.0000 0.0000 0.0000 45.3350 0.0000 9.8206
# 5 -10.7664 -7.0265 -1.2624 0.0000 36.0078 0.0000
# 6 0.0000 0.0000 0.0000 9.8206 0.0000 47.8559
#
#
#
# Elastic Compliance Matrix: (Units=1/GPa)
#
#
# Indices 1 2 3 4 5 6 
#
# 1 0.026299 -0.001113 -0.003487 0.000000 0.007524 0.000000
# 2 -0.001113 0.006295 -0.003037 0.000000 0.000789 0.000000
# 3 -0.003487 -0.003037 0.006476 0.000000 -0.001408 0.000000
# 4 0.000000 0.000000 0.000000 0.023084 0.000000 -0.004737
# 5 0.007524 0.000789 -0.001408 0.000000 0.030126 0.000000
# 6 0.000000 0.000000 0.000000 -0.004737 0.000000 0.021868
#
#
# Mechanical properties :
#
#
# Convention : Reuss Voigt Hill
#
# Bulk Modulus (GPa) = 42.02327 94.73573 68.37950
# Shear Modulus (GPa) = 36.40209 46.95710 41.67960
#
# Velocity S-wave (km/s) = 3.85530 4.37871 4.12532
# Velocity P-wave (km/s) = 6.08082 8.01534 7.11415
#
# Compressibility (1/GPa) = 0.02379634
#
# Stress axis : x y z
#
# Youngs Moduli (GPa) = 38.02385 158.85182 154.42247
#
# Poissons Ratio (x) = 0.17676 0.53845
# Poissons Ratio (y) = 0.04231 0.46903
# Poissons Ratio (z) = 0.13258 0.48248
#
# Static dielectric constant tensor:
#      x y z
#    x 2.111590 0.000000 0.126140 
#    y 0.000000 1.922830 0.000000 
#    z 0.126140 0.000000 1.984740 
# 
# From -- ./inp_files/23936.got.cif
#   From: 2010.05.17/outbox.cif.g08.bks.cpg/sg14_12_cif.got.tgz:23936.got - 2010.06.03 17:49:19.
