data_PCOD9249698
_publ_section_title
;
Structure prediction by ZEFSAII (Michael W. Deem and Ramdas Pophale) SiO2 
 PCOD9249698
Probable space group: P 21/C
;
_chemical_formula_sum "Si O2"
_cell_formula_units_Z 20
_cell_length_a 7.600474
_cell_length_b 5.128852
_cell_length_c 19.329889
_cell_angle_alpha 90.000000
_cell_angle_beta 104.423493
_cell_angle_gamma 90.000000
_cell_volume 729.762191
_symmetry_space_group_name_H-M "P 21/C"
_symmetry_group_IT_number 14
_symmetry_cell_setting 'monoclinic'
loop_
_space_group_symop_operation_xyz
x,y,z
-x,1/2+y,1/2-z
-x,-y,-z
x,1/2-y,1/2+z
loop_
_atom_site_type_symbol
_atom_site_label
_atom_site_fract_x
_atom_site_fract_y
_atom_site_fract_z
Si Si1 0.775845 0.013610 0.150740
Si Si2 0.687698 0.131242 0.996274
Si Si3 0.826731 0.886816 0.442439
Si Si4 0.914500 0.345766 0.815731
Si Si5 0.437643 0.557031 0.703063
O O1 0.790316 0.163736 0.080138
O O2 0.563824 0.004653 0.150117
O O3 0.879363 0.739360 0.150688
O O4 0.874843 0.113059 0.230495
O O5 0.789894 0.904787 0.963378
O O6 0.500000 0.000000 0.000000
O O7 0.674873 0.404242 0.954361
O O8 0.852050 0.932366 0.363143
O O9 0.000000 0.000000 0.500000
O O10 0.773877 0.116666 0.822105
O O11 0.474790 0.321192 0.758432
#
# Coordination Sequence:
#
# PCOD9249698 Si02
#       5
#     4   4   4   4   4
#     4  11  25  44  75 111 142 191 255 300 370 441
#     4  12  28  50  77 109 152 200 250 307 374 454
#     4  12  27  49  72 108 153 196 245 305 381 445
#     4  11  25  43  76 105 148 191 247 309 370 436
#     4  10  23  43  65 103 144 182 234 306 370 430
#
# _framework density 27.406186000000002
#
# number of rings (size 3 to 8) (size 9 to 14) (size 15 to 20)
#    0.000    0.800    2.000    3.600    2.800   12.800 
#    0.000    0.000    0.000    0.000    0.000    0.000 
#    0.000    0.000    0.000    0.000    0.000    0.000 
#
# Total GULP energy -112125.048975 kJ/mol
# GULP energy per Si atom -5606.252449 kJ/mol
# Density = 2.734381 g / cm^3
# Si number density = 27.406186 Si / 1000 Ang^3
#
#
#
# Elastic Constant Matrix: (Units=GPa)
#
#
# Indices 1 2 3 4 5 6 
#
# 1 67.8595 10.2982 27.0490 0.0000 -12.1112 0.0000
# 2 10.2982 108.3767 33.7573 0.0000 -10.3299 0.0000
# 3 27.0490 33.7573 185.1379 0.0000 -26.2337 0.0000
# 4 0.0000 0.0000 0.0000 47.4696 0.0000 6.2692
# 5 -12.1112 -10.3299 -26.2337 0.0000 43.9013 0.0000
# 6 0.0000 0.0000 0.0000 6.2692 0.0000 40.5413
#
#
#
# Elastic Compliance Matrix: (Units=1/GPa)
#
#
# Indices 1 2 3 4 5 6 
#
# 1 0.016122 -0.000671 -0.001776 0.000000 0.003229 0.000000
# 2 -0.000671 0.009884 -0.001530 0.000000 0.001226 0.000000
# 3 -0.001776 -0.001530 0.006358 0.000000 0.002949 0.000000
# 4 0.000000 0.000000 0.000000 0.021505 0.000000 -0.003326
# 5 0.003229 0.001226 0.002949 0.000000 0.025720 0.000000
# 6 0.000000 0.000000 0.000000 -0.003326 0.000000 0.025180
#
#
# Mechanical properties :
#
#
# Convention : Reuss Voigt Hill
#
# Bulk Modulus (GPa) = 40.96707 55.95370 48.46038
# Shear Modulus (GPa) = 41.36977 45.73374 43.55176
#
# Velocity S-wave (km/s) = 3.88945 4.08945 3.99070
# Velocity P-wave (km/s) = 5.92883 6.53903 6.24139
#
# Compressibility (1/GPa) = 0.02440985
#
# Stress axis : x y z
#
# Youngs Moduli (GPa) = 62.02635 101.16919 157.28824
#
# Poissons Ratio (x) = 0.06790 0.27928
# Poissons Ratio (y) = 0.04163 0.24073
# Poissons Ratio (z) = 0.11013 0.15484
#
# Static dielectric constant tensor:
#      x y z
#    x 2.175820 0.000000 0.038050 
#    y 0.000000 2.109270 0.000000 
#    z 0.038050 0.000000 2.197360 
# 
# From -- ./inp_files/53997.got.cif
#   From: 2010.05.17/outbox.cif.g08.bks.cpg/sg14_27_cif.got.tgz:53997.got - 2010.06.03 17:49:19.
