data_PCOD9249875
_publ_section_title
;
Structure prediction by ZEFSAII (Michael W. Deem and Ramdas Pophale) SiO2 
 PCOD9249875
Probable space group: P 21/C
;
_chemical_formula_sum "Si O2"
_cell_formula_units_Z 28
_cell_length_a 13.186013
_cell_length_b 8.215068
_cell_length_c 19.505191
_cell_angle_alpha 90.000000
_cell_angle_beta 32.328448
_cell_angle_gamma 90.000000
_cell_volume 1129.909088
_symmetry_space_group_name_H-M "P 21/C"
_symmetry_group_IT_number 14
_symmetry_cell_setting 'monoclinic'
loop_
_space_group_symop_operation_xyz
x,y,z
-x,1/2+y,1/2-z
-x,-y,-z
x,1/2-y,1/2+z
loop_
_atom_site_type_symbol
_atom_site_label
_atom_site_fract_x
_atom_site_fract_y
_atom_site_fract_z
Si Si1 0.360691 0.288088 0.799175
Si Si2 0.623162 0.456403 0.326307
Si Si3 0.974787 0.339210 0.450463
Si Si4 0.573336 0.505695 0.108109
Si Si5 0.752730 0.940170 0.893305
Si Si6 0.131931 0.802258 0.631309
Si Si7 0.186076 0.852980 0.817785
O O1 0.402590 0.442307 0.727254
O O2 0.155820 0.223949 0.890119
O O3 0.358076 0.355048 0.878019
O O4 0.509183 0.148784 0.692113
O O5 0.419731 0.379336 0.461609
O O6 0.676774 0.571793 0.358902
O O7 0.793977 0.327939 0.220955
O O8 0.017355 0.522063 0.399860
O O9 0.939292 0.230834 0.405462
O O10 0.810894 0.343502 0.600741
O O11 0.377738 0.560203 0.185050
O O12 0.718148 0.445539 0.967491
O O13 0.779185 0.132638 0.894219
O O14 0.955490 0.853722 0.779013
#
# Coordination Sequence:
#
# PCOD9249875 Si02
#       7
#     4   4   4   4   4   4   4
#     4  11  21  42  68  97 134 170 211 278 331 391
#     4  11  23  46  64  96 131 180 218 268 321 399
#     4  10  23  44  67  99 136 163 221 273 332 394
#     4  11  24  41  69  99 132 168 217 273 337 389
#     4  11  28  43  68  93 133 179 226 266 323 389
#     4  12  25  46  64  99 129 178 221 278 320 393
#     4  10  24  42  69 101 129 174 210 275 335 394
#
# _framework density 24.780754000000002
#
# number of rings (size 3 to 8) (size 9 to 14) (size 15 to 20)
#    0.000    1.143    2.857    2.571    6.000    1.143 
#    2.571    1.429    0.000    0.000    0.000    0.000 
#    0.000    0.000    0.000    0.000    0.000    0.000 
#
# Total GULP energy -156694.839316 kJ/mol
# GULP energy per Si atom -5596.244261 kJ/mol
# Density = 2.472435 g / cm^3
# Si number density = 24.780754 Si / 1000 Ang^3
#
#
#
# Elastic Constant Matrix: (Units=GPa)
#
#
# Indices 1 2 3 4 5 6 
#
# 1 34.3010 -13.1053 1.6030 0.0000 1.9591 0.0000
# 2 -13.1053 50.1306 20.6804 0.0000 6.0019 0.0000
# 3 1.6030 20.6804 110.9394 0.0000 -2.0298 0.0000
# 4 0.0000 0.0000 0.0000 52.2548 0.0000 -0.1089
# 5 1.9591 6.0019 -2.0298 0.0000 18.9845 0.0000
# 6 0.0000 0.0000 0.0000 -0.1089 0.0000 25.8429
#
#
#
# Elastic Compliance Matrix: (Units=1/GPa)
#
#
# Indices 1 2 3 4 5 6 
#
# 1 0.033806 0.010782 -0.002630 0.000000 -0.007178 0.000000
# 2 0.010782 0.026101 -0.005203 0.000000 -0.009920 0.000000
# 3 -0.002630 -0.005203 0.010077 0.000000 0.002994 0.000000
# 4 0.000000 0.000000 0.000000 0.019137 0.000000 0.000081
# 5 -0.007178 -0.009920 0.002994 0.000000 0.056872 0.000000
# 6 0.000000 0.000000 0.000000 0.000081 0.000000 0.038696
#
#
# Mechanical properties :
#
#
# Convention : Reuss Voigt Hill
#
# Bulk Modulus (GPa) = 13.17832 23.74745 18.46289
# Shear Modulus (GPa) = 24.49986 31.82930 28.16458
#
# Velocity S-wave (km/s) = 3.14772 3.58779 3.37493
# Velocity P-wave (km/s) = 4.30585 5.17367 4.75958
#
# Compressibility (1/GPa) = 0.07588218
#
# Stress axis : x y z
#
# Youngs Moduli (GPa) = 29.58052 38.31333 99.24026
#
# Poissons Ratio (x) = -0.41309 0.26097
# Poissons Ratio (y) = -0.31894 0.51632
# Poissons Ratio (z) = 0.07779 0.19933
#
# Static dielectric constant tensor:
#      x y z
#    x 1.955680 0.000000 -0.053850 
#    y 0.000000 1.987190 0.000000 
#    z -0.053850 0.000000 1.964090 
# 
# From -- ./inp_files/68295.got.cif
#   From: 2010.05.17/outbox.cif.g08.bks.cpg/sg14_35_cif.got.tgz:68295.got - 2010.06.03 17:49:19.
