data_PCOD9249877
_publ_section_title
;
Structure prediction by ZEFSAII (Michael W. Deem and Ramdas Pophale) SiO2 
 PCOD9249877
Probable space group: P 21/C
;
_chemical_formula_sum "Si O2"
_cell_formula_units_Z 32
_cell_length_a 11.471832
_cell_length_b 18.343918
_cell_length_c 9.798095
_cell_angle_alpha 90.000000
_cell_angle_beta 37.110690
_cell_angle_gamma 90.000000
_cell_volume 1244.058283
_symmetry_space_group_name_H-M "P 21/C"
_symmetry_group_IT_number 14
_symmetry_cell_setting 'monoclinic'
loop_
_space_group_symop_operation_xyz
x,y,z
-x,1/2+y,1/2-z
-x,-y,-z
x,1/2-y,1/2+z
loop_
_atom_site_type_symbol
_atom_site_label
_atom_site_fract_x
_atom_site_fract_y
_atom_site_fract_z
Si Si1 0.993638 0.348744 0.788602
Si Si2 0.297155 0.457798 0.600025
Si Si3 0.219532 0.898531 0.778386
Si Si4 0.484163 0.629306 0.375861
Si Si5 0.854981 0.714459 0.977054
Si Si6 0.583430 0.501192 0.109007
Si Si7 0.008770 0.939472 0.245209
Si Si8 0.219303 0.730662 0.806027
O O1 0.933174 0.384836 0.702933
O O2 0.140503 0.283615 0.622528
O O3 0.113754 0.403829 0.768310
O O4 0.800777 0.313218 0.033657
O O5 0.428742 0.432107 0.602439
O O6 0.439856 0.452828 0.336711
O O7 0.176323 0.533190 0.692896
O O8 0.285408 0.814759 0.752373
O O9 0.376015 0.952763 0.563919
O O10 0.103923 0.939508 0.006760
O O11 0.488364 0.582251 0.229445
O O12 0.321135 0.677911 0.601418
O O13 0.645378 0.690759 0.211458
O O14 0.950041 0.643781 0.820414
O O15 0.996334 0.734979 0.967769
O O16 0.807234 0.516693 0.947519
#
# Coordination Sequence:
#
# PCOD9249877 Si02
#       8
#     4   4   4   4   4   4   4   4
#     4  11  23  44  71 100 137 182 239 288 348 414
#     4  12  25  42  71 104 137 184 232 280 357 415
#     4  11  24  46  73  98 142 190 231 290 353 413
#     4  11  25  43  71 104 138 181 234 291 347 415
#     4  10  23  44  68 100 133 180 231 295 342 408
#     4  11  25  43  66 104 144 178 230 285 351 417
#     4  11  24  46  68 100 142 184 227 288 349 420
#     4  11  23  47  72 101 138 182 240 294 345 408
#
# _framework density 25.722266000000001
#
# number of rings (size 3 to 8) (size 9 to 14) (size 15 to 20)
#    0.000    1.000    3.750    2.250    1.750    3.500 
#    0.000    1.250    0.000    0.000    0.000    0.000 
#    0.000    0.000    0.000    0.000    0.000    0.000 
#
# Total GULP energy -178676.757631 kJ/mol
# GULP energy per Si atom -5583.648676 kJ/mol
# Density = 2.566372 g / cm^3
# Si number density = 25.722266 Si / 1000 Ang^3
#
#
#
# Elastic Constant Matrix: (Units=GPa)
#
#
# Indices 1 2 3 4 5 6 
#
# 1 56.4057 31.2693 23.1795 0.0000 2.4439 0.0000
# 2 31.2693 128.9773 36.3033 0.0000 -11.1786 0.0000
# 3 23.1795 36.3033 150.5805 0.0000 -5.1186 0.0000
# 4 0.0000 0.0000 0.0000 52.6402 0.0000 5.5240
# 5 2.4439 -11.1786 -5.1186 0.0000 23.7235 0.0000
# 6 0.0000 0.0000 0.0000 5.5240 0.0000 37.6236
#
#
#
# Elastic Compliance Matrix: (Units=1/GPa)
#
#
# Indices 1 2 3 4 5 6 
#
# 1 0.021697 -0.005058 -0.002294 0.000000 -0.005113 0.000000
# 2 -0.005058 0.009798 -0.001419 0.000000 0.004832 0.000000
# 3 -0.002294 -0.001419 0.007376 0.000000 0.001159 0.000000
# 4 0.000000 0.000000 0.000000 0.019294 0.000000 -0.002833
# 5 -0.005113 0.004832 0.001159 0.000000 0.045206 0.000000
# 6 0.000000 0.000000 0.000000 -0.002833 0.000000 0.026995
#
#
# Mechanical properties :
#
#
# Convention : Reuss Voigt Hill
#
# Bulk Modulus (GPa) = 46.88737 57.49641 52.19189
# Shear Modulus (GPa) = 32.25451 39.14489 35.69970
#
# Velocity S-wave (km/s) = 3.54496 3.90529 3.72948
# Velocity P-wave (km/s) = 5.91807 6.53731 6.23538
#
# Compressibility (1/GPa) = 0.02132770
#
# Stress axis : x y z
#
# Youngs Moduli (GPa) = 46.08961 102.06457 135.57971
#
# Poissons Ratio (x) = 0.51620 0.31107
# Poissons Ratio (y) = 0.23310 0.19244
# Poissons Ratio (z) = 0.10575 0.14487
#
# Static dielectric constant tensor:
#      x y z
#    x 2.143250 0.000000 0.048870 
#    y 0.000000 2.056130 0.000000 
#    z 0.048870 0.000000 2.042420 
# 
# From -- ./inp_files/32978.got.cif
#   From: 2010.05.17/outbox.cif.g08.bks.cpg/sg14_17_cif.got.tgz:32978.got - 2010.06.03 17:49:19.
