data_PCOD9249250
_publ_section_title
;
Structure prediction by ZEFSAII (Michael W. Deem and Ramdas Pophale) SiO2 
 PCOD9249250
Probable space group: P 21/C
;
_chemical_formula_sum "Si O2"
_cell_formula_units_Z 28
_cell_length_a 9.343660
_cell_length_b 12.732191
_cell_length_c 13.739017
_cell_angle_alpha 90.000000
_cell_angle_beta 135.697933
_cell_angle_gamma 90.000000
_cell_volume 1141.578085
_symmetry_space_group_name_H-M "P 21/C"
_symmetry_group_IT_number 14
_symmetry_cell_setting 'monoclinic'
loop_
_space_group_symop_operation_xyz
x,y,z
-x,1/2+y,1/2-z
-x,-y,-z
x,1/2-y,1/2+z
loop_
_atom_site_type_symbol
_atom_site_label
_atom_site_fract_x
_atom_site_fract_y
_atom_site_fract_z
Si Si1 0.674483 0.282792 0.811203
Si Si2 0.191507 0.276871 0.876213
Si Si3 0.182720 0.449235 0.460763
Si Si4 0.007371 0.852608 0.387201
Si Si5 0.171687 0.561695 0.255308
Si Si6 0.455367 0.874823 0.558710
Si Si7 0.709403 0.457343 0.284330
O O1 0.665327 0.364487 0.718658
O O2 0.531946 0.306570 0.834474
O O3 0.661760 0.164471 0.772569
O O4 0.899404 0.305896 0.969213
O O5 0.199291 0.175230 0.949134
O O6 0.413810 0.321578 0.960825
O O7 0.110057 0.232171 0.733189
O O8 0.030600 0.366223 0.828869
O O9 0.240903 0.514892 0.392605
O O10 0.295400 0.491140 0.610855
O O11 0.941056 0.471312 0.359859
O O12 0.212534 0.881228 0.424334
O O13 0.880944 0.959437 0.335206
O O14 0.555194 0.984001 0.637984
#
# Coordination Sequence:
#
# PCOD9249250 Si02
#       7
#     4   4   4   4   4   4   4
#     4  10  23  43  65  98 133 179 219 280 341 404
#     4  11  21  43  68  96 134 179 222 282 343 399
#     4  10  23  38  69  95 128 182 227 276 337 416
#     4   9  24  43  66  99 139 176 224 281 339 412
#     4  11  20  41  69  94 132 175 228 270 345 405
#     4  10  25  43  65 103 134 179 226 284 335 410
#     4  11  21  44  63  95 135 178 231 274 344 403
#
# _framework density 24.527449000000001
#
# number of rings (size 3 to 8) (size 9 to 14) (size 15 to 20)
#    0.857    0.857    2.857    1.286    2.000    2.857 
#    5.143    1.429    0.000    0.000    0.000    0.000 
#    0.000    0.000    0.000    0.000    0.000    0.000 
#
# Total GULP energy -156845.619873 kJ/mol
# GULP energy per Si atom -5601.629281 kJ/mol
# Density = 2.447162 g / cm^3
# Si number density = 24.527449 Si / 1000 Ang^3
#
#
#
# Elastic Constant Matrix: (Units=GPa)
#
#
# Indices 1 2 3 4 5 6 
#
# 1 81.8496 21.5748 18.6779 0.0000 -7.0788 0.0000
# 2 21.5748 124.2046 52.1637 0.0000 -15.2149 0.0000
# 3 18.6779 52.1637 97.9193 0.0000 -15.9482 0.0000
# 4 0.0000 0.0000 0.0000 27.3639 0.0000 -4.0823
# 5 -7.0788 -15.2149 -15.9482 0.0000 32.5864 0.0000
# 6 0.0000 0.0000 0.0000 -4.0823 0.0000 38.2699
#
#
#
# Elastic Compliance Matrix: (Units=1/GPa)
#
#
# Indices 1 2 3 4 5 6 
#
# 1 0.013066 -0.001476 -0.001474 0.000000 0.001428 0.000000
# 2 -0.001476 0.010703 -0.005062 0.000000 0.002199 0.000000
# 3 -0.001474 -0.005062 0.013858 0.000000 0.004099 0.000000
# 4 0.000000 0.000000 0.000000 0.037135 0.000000 0.003961
# 5 0.001428 0.002199 0.004099 0.000000 0.034031 0.000000
# 6 0.000000 0.000000 0.000000 0.003961 0.000000 0.026553
#
#
# Mechanical properties :
#
#
# Convention : Reuss Voigt Hill
#
# Bulk Modulus (GPa) = 46.28720 54.31182 50.29951
# Shear Modulus (GPa) = 31.53181 33.74784 32.63982
#
# Velocity S-wave (km/s) = 3.58938 3.71337 3.65190
# Velocity P-wave (km/s) = 6.00756 6.36999 6.19143
#
# Compressibility (1/GPa) = 0.02160424
#
# Stress axis : x y z
#
# Youngs Moduli (GPa) = 76.53261 93.43223 72.16188
#
# Poissons Ratio (x) = 0.13789 0.10633
# Poissons Ratio (y) = 0.11295 0.36528
# Poissons Ratio (z) = 0.11277 0.47295
#
# Static dielectric constant tensor:
#      x y z
#    x 1.959630 0.000000 -0.022870 
#    y 0.000000 1.882960 0.000000 
#    z -0.022870 0.000000 1.934560 
# 
# From -- ./inp_files/40099.got.cif
#   From: 2010.05.17/outbox.cif.g08.bks.cpg/sg14_21_cif.got.tgz:40099.got - 2010.06.03 17:49:19.
