data_PCOD9249806
_publ_section_title
;
Structure prediction by ZEFSAII (Michael W. Deem and Ramdas Pophale) SiO2 
 PCOD9249806
Probable space group: P 21/C
;
_chemical_formula_sum "Si O2"
_cell_formula_units_Z 20
_cell_length_a 8.737885
_cell_length_b 4.736458
_cell_length_c 19.863153
_cell_angle_alpha 90.000000
_cell_angle_beta 120.429424
_cell_angle_gamma 90.000000
_cell_volume 708.831912
_symmetry_space_group_name_H-M "P 21/C"
_symmetry_group_IT_number 14
_symmetry_cell_setting 'monoclinic'
loop_
_space_group_symop_operation_xyz
x,y,z
-x,1/2+y,1/2-z
-x,-y,-z
x,1/2-y,1/2+z
loop_
_atom_site_type_symbol
_atom_site_label
_atom_site_fract_x
_atom_site_fract_y
_atom_site_fract_z
Si Si1 0.594195 0.221137 0.876194
Si Si2 0.096107 0.686574 0.965946
Si Si3 0.664694 0.996582 0.588961
Si Si4 0.866538 0.068491 0.227018
Si Si5 0.259765 0.248171 0.667692
O O1 0.409171 0.279140 0.872324
O O2 0.220237 0.070172 0.725908
O O3 0.613120 0.016989 0.816026
O O4 0.741292 0.138548 0.965613
O O5 0.935989 0.857570 0.897110
O O6 0.341255 0.473222 0.133393
O O7 0.000000 0.500000 0.000000
O O8 0.824983 0.976781 0.572392
O O9 0.500000 0.000000 0.500000
O O10 0.729715 0.265466 0.647413
O O11 0.009035 0.319815 0.275424
#
# Coordination Sequence:
#
# PCOD9249806 Si02
#       5
#     4   4   4   4   4
#     4  10  23  43  72 115 161 216 268 349 425 512
#     4   9  19  42  76 117 157 213 274 347 417 524
#     4  10  23  49  80 124 171 224 288 360 441 521
#     4  12  26  48  80 122 170 229 296 367 438 533
#     4  11  22  44  73 112 162 214 278 339 429 522
#
# _framework density 28.215432
#
# number of rings (size 3 to 8) (size 9 to 14) (size 15 to 20)
#    0.000    1.600    2.000    1.800    0.000    1.600 
#    7.200   13.000    0.000    0.000    0.000    0.000 
#    0.000    0.200    0.000    0.800    0.000    0.000 
#
# Total GULP energy -111844.916086 kJ/mol
# GULP energy per Si atom -5592.245804 kJ/mol
# Density = 2.815121 g / cm^3
# Si number density = 28.215432 Si / 1000 Ang^3
#
#
#
# Elastic Constant Matrix: (Units=GPa)
#
#
# Indices 1 2 3 4 5 6 
#
# 1 250.4056 90.3099 58.0950 0.0000 -16.0877 0.0000
# 2 90.3099 162.0710 49.4743 0.0000 -9.2907 0.0000
# 3 58.0950 49.4743 152.6268 0.0000 4.5466 0.0000
# 4 0.0000 0.0000 0.0000 39.1614 0.0000 -15.2881
# 5 -16.0877 -9.2907 4.5466 0.0000 42.7562 0.0000
# 6 0.0000 0.0000 0.0000 -15.2881 0.0000 67.7832
#
#
#
# Elastic Compliance Matrix: (Units=1/GPa)
#
#
# Indices 1 2 3 4 5 6 
#
# 1 0.005276 -0.002466 -0.001256 0.000000 0.001583 0.000000
# 2 -0.002466 0.008130 -0.001727 0.000000 0.001023 0.000000
# 3 -0.001256 -0.001727 0.007639 0.000000 -0.001660 0.000000
# 4 0.000000 0.000000 0.000000 0.028001 0.000000 0.006315
# 5 0.001583 0.001023 -0.001660 0.000000 0.024383 0.000000
# 6 0.000000 0.000000 0.000000 0.006315 0.000000 0.016177
#
#
# Mechanical properties :
#
#
# Convention : Reuss Voigt Hill
#
# Bulk Modulus (GPa) = 98.54972 106.76243 102.65608
# Shear Modulus (GPa) = 48.12939 54.42177 51.27558
#
# Velocity S-wave (km/s) = 4.13459 4.39657 4.26759
# Velocity P-wave (km/s) = 7.60240 7.98082 7.79391
#
# Compressibility (1/GPa) = 0.01014716
#
# Stress axis : x y z
#
# Youngs Moduli (GPa) = 189.54141 123.00175 130.90041
#
# Poissons Ratio (x) = 0.30328 0.16442
# Poissons Ratio (y) = 0.46735 0.22610
# Poissons Ratio (z) = 0.23808 0.21246
#
# Static dielectric constant tensor:
#      x y z
#    x 2.127350 0.000000 0.056390 
#    y 0.000000 2.141360 0.000000 
#    z 0.056390 0.000000 2.402450 
# 
# From -- ./inp_files/72802.got.cif
#   From: 2010.05.17/outbox.cif.g08.bks.cpg/sg14_37_cif.got.tgz:72802.got - 2010.06.03 17:49:19.
