data_PCOD9249588
_publ_section_title
;
Structure prediction by ZEFSAII (Michael W. Deem and Ramdas Pophale) SiO2 
 PCOD9249588
Probable space group: P 21/C
;
_chemical_formula_sum "Si O2"
_cell_formula_units_Z 32
_cell_length_a 28.566009
_cell_length_b 11.015577
_cell_length_c 8.804263
_cell_angle_alpha 90.000000
_cell_angle_beta 32.212395
_cell_angle_gamma 90.000000
_cell_volume 1476.812537
_symmetry_space_group_name_H-M "P 21/C"
_symmetry_group_IT_number 14
_symmetry_cell_setting 'monoclinic'
loop_
_space_group_symop_operation_xyz
x,y,z
-x,1/2+y,1/2-z
-x,-y,-z
x,1/2-y,1/2+z
loop_
_atom_site_type_symbol
_atom_site_label
_atom_site_fract_x
_atom_site_fract_y
_atom_site_fract_z
Si Si1 0.956432 0.618736 0.046947
Si Si2 0.960163 0.875675 0.176943
Si Si3 0.621907 0.797139 0.596419
Si Si4 0.519164 0.885024 0.171500
Si Si5 0.757080 0.914297 0.742279
Si Si6 0.359313 0.585472 0.612322
Si Si7 0.238962 0.026758 0.933981
Si Si8 0.338740 0.668674 0.012432
O O1 0.974675 0.623556 0.817429
O O2 0.988654 0.745850 0.030242
O O3 0.851451 0.596329 0.354843
O O4 0.000000 0.500000 0.000000
O O5 0.855640 0.878742 0.434962
O O6 0.000000 0.000000 0.000000
O O7 0.576473 0.863849 0.861624
O O8 0.548675 0.721992 0.704031
O O9 0.693777 0.698652 0.452438
O O10 0.679046 0.889960 0.341131
O O11 0.548707 0.014378 0.157374
O O12 0.419707 0.879746 0.392470
O O13 0.759657 0.992325 0.889249
O O14 0.713365 0.983548 0.721952
O O15 0.342839 0.689547 0.535678
O O16 0.352084 0.638935 0.800022
O O17 0.252570 0.900539 0.808669
#
# Coordination Sequence:
#
# PCOD9249588 Si02
#       8
#     4   4   4   4   4   4   4   4
#     4  11  25  45  72 106 141 182 228 283 350 416
#     4  11  24  44  73 105 140 174 229 284 347 421
#     4  11  20  39  66  96 125 167 220 273 325 392
#     4  11  24  39  65  94 132 170 225 278 335 393
#     4  10  23  42  67  97 126 172 222 272 332 401
#     4  11  25  41  61  90 127 174 221 273 335 392
#     4  11  23  41  68  94 133 173 223 272 334 398
#     4  12  25  41  62  92 136 176 224 279 336 397
#
# _framework density 21.668286999999999
#
# number of rings (size 3 to 8) (size 9 to 14) (size 15 to 20)
#    0.000    1.000    3.750    2.625    1.750    3.000 
#    0.000    3.125    0.000    0.000    0.000    0.000 
#    0.000    0.000    0.000    0.000    0.000    0.000 
#
# Total GULP energy -179000.575628 kJ/mol
# GULP energy per Si atom -5593.767988 kJ/mol
# Density = 2.161897 g / cm^3
# Si number density = 21.668287 Si / 1000 Ang^3
#
#
#
# Elastic Constant Matrix: (Units=GPa)
#
#
# Indices 1 2 3 4 5 6 
#
# 1 71.7104 36.7679 11.4809 0.0000 -4.8046 0.0000
# 2 36.7679 140.0000 34.2517 0.0000 8.0277 0.0000
# 3 11.4809 34.2517 52.1356 0.0000 -0.7166 0.0000
# 4 0.0000 0.0000 0.0000 25.1679 0.0000 2.2783
# 5 -4.8046 8.0277 -0.7166 0.0000 8.7026 0.0000
# 6 0.0000 0.0000 0.0000 2.2783 0.0000 42.2358
#
#
#
# Elastic Compliance Matrix: (Units=1/GPa)
#
#
# Indices 1 2 3 4 5 6 
#
# 1 0.017776 -0.005498 -0.000098 0.000000 0.014877 0.000000
# 2 -0.005498 0.010859 -0.006110 0.000000 -0.013555 0.000000
# 3 -0.000098 -0.006110 0.023319 0.000000 0.007502 0.000000
# 4 0.000000 0.000000 0.000000 0.039928 0.000000 -0.002154
# 5 0.014877 -0.013555 0.007502 0.000000 0.136242 0.000000
# 6 0.000000 0.000000 0.000000 -0.002154 0.000000 0.023793
#
#
# Mechanical properties :
#
#
# Convention : Reuss Voigt Hill
#
# Bulk Modulus (GPa) = 35.03437 47.64966 41.34202
# Shear Modulus (GPa) = 17.55358 27.31098 22.43228
#
# Velocity S-wave (km/s) = 2.84932 3.55408 3.22103
# Velocity P-wave (km/s) = 5.19889 6.23540 5.74059
#
# Compressibility (1/GPa) = 0.02854340
#
# Stress axis : x y z
#
# Youngs Moduli (GPa) = 56.25500 92.09266 42.88295
#
# Poissons Ratio (x) = 0.50628 0.00422
# Poissons Ratio (y) = 0.30926 0.26199
# Poissons Ratio (z) = 0.00553 0.56264
#
# Static dielectric constant tensor:
#      x y z
#    x 1.773770 0.000000 -0.014120 
#    y 0.000000 1.838260 0.000000 
#    z -0.014120 0.000000 1.757910 
# 
# From -- ./inp_files/19992.got.cif
#   From: 2010.05.17/outbox.cif.g08.bks.cpg/sg14_10_cif.got.tgz:19992.got - 2010.06.03 17:49:19.
