data_PCOD9249550
_publ_section_title
;
Structure prediction by ZEFSAII (Michael W. Deem and Ramdas Pophale) SiO2 
 PCOD9249550
Probable space group: P 21/C
;
_chemical_formula_sum "Si O2"
_cell_formula_units_Z 24
_cell_length_a 23.612261
_cell_length_b 8.633374
_cell_length_c 12.502957
_cell_angle_alpha 90.000000
_cell_angle_beta 153.005940
_cell_angle_gamma 90.000000
_cell_volume 1156.882511
_symmetry_space_group_name_H-M "P 21/C"
_symmetry_group_IT_number 14
_symmetry_cell_setting 'monoclinic'
loop_
_space_group_symop_operation_xyz
x,y,z
-x,1/2+y,1/2-z
-x,-y,-z
x,1/2-y,1/2+z
loop_
_atom_site_type_symbol
_atom_site_label
_atom_site_fract_x
_atom_site_fract_y
_atom_site_fract_z
Si Si1 0.503143 0.754719 0.476017
Si Si2 0.339389 0.958092 0.831961
Si Si3 0.244212 0.425723 0.584588
Si Si4 0.275801 0.643729 0.452369
Si Si5 0.134096 0.098099 0.344673
Si Si6 0.157168 0.958112 0.163621
O O1 0.575184 0.605014 0.551641
O O2 0.418299 0.693643 0.431462
O O3 0.611383 0.874750 0.687997
O O4 0.408350 0.810456 0.226317
O O5 0.298870 0.956746 0.885782
O O6 0.218590 0.977879 0.553511
O O7 0.208633 0.547949 0.433077
O O8 0.164355 0.269169 0.437775
O O9 0.227120 0.494951 0.673573
O O10 0.204928 0.796701 0.293320
O O11 0.989145 0.057919 0.108744
O O12 0.172212 0.082279 0.284323
#
# Coordination Sequence:
#
# PCOD9249550 Si02
#       6
#     4   4   4   4   4   4
#     4  10  23  42  65  98 134 177 222 280 340 407
#     4  10  23  42  66  95 136 176 224 280 343 399
#     4  11  27  43  72 102 135 182 233 276 346 410
#     4  12  25  40  69 101 135 175 225 283 343 401
#     4  10  25  48  68  97 133 187 228 283 341 399
#     4  11  26  45  70  97 142 176 234 284 337 410
#
# _framework density 20.745407
#
# number of rings (size 3 to 8) (size 9 to 14) (size 15 to 20)
#    0.000    1.333    1.667    1.500   11.667    2.000 
#    0.000    0.000    0.000    0.000    0.000    0.000 
#    0.000    0.000    0.000    0.000    0.000    0.000 
#
# Total GULP energy -134205.215493 kJ/mol
# GULP energy per Si atom -5591.883979 kJ/mol
# Density = 2.069819 g / cm^3
# Si number density = 20.745407 Si / 1000 Ang^3
#
#
#
# Elastic Constant Matrix: (Units=GPa)
#
#
# Indices 1 2 3 4 5 6 
#
# 1 80.1073 36.1437 8.4734 0.0000 -25.0674 0.0000
# 2 36.1437 58.5449 -3.3570 0.0000 -0.8494 0.0000
# 3 8.4734 -3.3570 42.0306 0.0000 2.4740 0.0000
# 4 0.0000 0.0000 0.0000 25.6179 0.0000 -12.1205
# 5 -25.0674 -0.8494 2.4740 0.0000 24.7941 0.0000
# 6 0.0000 0.0000 0.0000 -12.1205 0.0000 22.5861
#
#
#
# Elastic Compliance Matrix: (Units=1/GPa)
#
#
# Indices 1 2 3 4 5 6 
#
# 1 0.033948 -0.021061 -0.010566 0.000000 0.034655 0.000000
# 2 -0.021061 0.030231 0.007899 0.000000 -0.021046 0.000000
# 3 -0.010566 0.007899 0.027327 0.000000 -0.013138 0.000000
# 4 0.000000 0.000000 0.000000 0.052319 0.000000 0.028076
# 5 0.034655 -0.021046 -0.013138 0.000000 0.075959 0.000000
# 6 0.000000 0.000000 0.000000 0.028076 0.000000 0.059342
#
#
# Mechanical properties :
#
#
# Convention : Reuss Voigt Hill
#
# Bulk Modulus (GPa) = 22.70162 29.24476 25.97319
# Shear Modulus (GPa) = 14.65140 23.89446 19.27293
#
# Velocity S-wave (km/s) = 2.66042 3.39749 3.05129
# Velocity P-wave (km/s) = 4.51706 5.43306 4.99610
#
# Compressibility (1/GPa) = 0.04404973
#
# Stress axis : x y z
#
# Youngs Moduli (GPa) = 29.45693 33.07850 36.59439
#
# Poissons Ratio (x) = 0.69668 0.38665
# Poissons Ratio (y) = 0.62040 -0.28907
# Poissons Ratio (z) = 0.31124 -0.26130
#
# Static dielectric constant tensor:
#      x y z
#    x 1.717310 0.000000 0.013650 
#    y 0.000000 1.769790 0.000000 
#    z 0.013650 0.000000 1.708750 
# 
# From -- ./inp_files/35786.got.cif
#   From: 2010.05.17/outbox.cif.g08.bks.cpg/sg14_18_cif.got.tgz:35786.got - 2010.06.03 17:49:19.
