data_PCOD9249362
_publ_section_title
;
Structure prediction by ZEFSAII (Michael W. Deem and Ramdas Pophale) SiO2 
 PCOD9249362
Probable space group: P 21/C
;
_chemical_formula_sum "Si O2"
_cell_formula_units_Z 26
_cell_length_a 13.892990
_cell_length_b 8.785697
_cell_length_c 14.031587
_cell_angle_alpha 90.000000
_cell_angle_beta 40.903976
_cell_angle_gamma 90.000000
_cell_volume 1121.457813
_symmetry_space_group_name_H-M "P 21/C"
_symmetry_group_IT_number 14
_symmetry_cell_setting 'monoclinic'
loop_
_space_group_symop_operation_xyz
x,y,z
-x,1/2+y,1/2-z
-x,-y,-z
x,1/2-y,1/2+z
loop_
_atom_site_type_symbol
_atom_site_label
_atom_site_fract_x
_atom_site_fract_y
_atom_site_fract_z
Si Si1 0.389576 0.743814 0.589005
Si Si2 0.462620 0.261400 0.216000
Si Si3 0.059868 0.726693 0.779734
Si Si4 0.746987 0.995560 0.184017
Si Si5 0.011574 0.419633 0.363481
Si Si6 0.338787 0.936536 0.302327
Si Si7 0.000000 0.000000 0.500000
O O1 0.509456 0.762342 0.418257
O O2 0.236210 0.709802 0.650339
O O3 0.419271 0.613810 0.644188
O O4 0.355660 0.895650 0.676077
O O5 0.342919 0.393043 0.321549
O O6 0.609488 0.311698 0.160003
O O7 0.398256 0.099339 0.292182
O O8 0.998912 0.679315 0.722666
O O9 0.023125 0.902585 0.827088
O O10 0.002145 0.618121 0.906337
O O11 0.869413 0.093569 0.036985
O O12 0.844368 0.887998 0.180863
O O13 0.167970 0.945444 0.405255
#
# Coordination Sequence:
#
# PCOD9249362 Si02
#       7
#     4   4   4   4   4   4   2
#     4  10  24  44  67  98 134 187 226 290 349 412
#     4  12  25  45  70 104 138 187 230 289 357 419
#     4  10  23  40  70  99 134 182 231 290 346 413
#     4  10  23  44  65  99 139 180 234 287 343 420
#     4  10  23  41  67 103 135 183 232 287 353 414
#     4  11  26  45  74 102 144 185 235 294 348 420
#     4  10  24  48  68 100 138 184 242 284 346 418
#
# _framework density 23.184107999999998
#
# number of rings (size 3 to 8) (size 9 to 14) (size 15 to 20)
#    0.000    1.538    0.000    2.769    8.615    7.385 
#    2.769    0.000    0.000    0.000    0.000    0.000 
#    0.000    0.000    0.000    0.000    0.000    0.000 
#
# Total GULP energy -145019.655956 kJ/mol
# GULP energy per Si atom -5577.679075 kJ/mol
# Density = 2.313134 g / cm^3
# Si number density = 23.184108 Si / 1000 Ang^3
#
#
#
# Elastic Constant Matrix: (Units=GPa)
#
#
# Indices 1 2 3 4 5 6 
#
# 1 130.3252 41.7013 10.6178 0.0000 -2.6567 0.0000
# 2 41.7013 49.8755 16.9476 0.0000 -8.2035 0.0000
# 3 10.6178 16.9476 42.0115 0.0000 3.2126 0.0000
# 4 0.0000 0.0000 0.0000 25.7725 0.0000 8.4388
# 5 -2.6567 -8.2035 3.2126 0.0000 26.2397 0.0000
# 6 0.0000 0.0000 0.0000 8.4388 0.0000 39.3439
#
#
#
# Elastic Compliance Matrix: (Units=1/GPa)
#
#
# Indices 1 2 3 4 5 6 
#
# 1 0.010621 -0.009704 0.001393 0.000000 -0.002129 0.000000
# 2 -0.009704 0.034140 -0.012174 0.000000 0.011181 0.000000
# 3 0.001393 -0.012174 0.028913 0.000000 -0.007205 0.000000
# 4 0.000000 0.000000 0.000000 0.041732 0.000000 -0.008951
# 5 -0.002129 0.011181 -0.007205 0.000000 0.042272 0.000000
# 6 0.000000 0.000000 0.000000 -0.008951 0.000000 0.027337
#
#
# Mechanical properties :
#
#
# Convention : Reuss Voigt Hill
#
# Bulk Modulus (GPa) = 30.57822 40.08283 35.33052
# Shear Modulus (GPa) = 21.10709 28.46759 24.78734
#
# Velocity S-wave (km/s) = 3.02058 3.50793 3.27334
# Velocity P-wave (km/s) = 5.03817 5.80809 5.43677
#
# Compressibility (1/GPa) = 0.03270302
#
# Stress axis : x y z
#
# Youngs Moduli (GPa) = 94.15023 29.29152 34.58641
#
# Poissons Ratio (x) = 0.28425 -0.04818
# Poissons Ratio (y) = 0.91365 0.42107
# Poissons Ratio (z) = -0.13116 0.35661
#
# Static dielectric constant tensor:
#      x y z
#    x 1.846220 0.000000 0.020240 
#    y 0.000000 1.918010 0.000000 
#    z 0.020240 0.000000 1.844350 
# 
# From -- ./inp_files/46413.got.cif
#   From: 2010.05.17/outbox.cif.g08.bks.cpg/sg14_24_cif.got.tgz:46413.got - 2010.06.03 17:49:19.
