data_PCOD9249092
_publ_section_title
;
Structure prediction by ZEFSAII (Michael W. Deem and Ramdas Pophale) SiO2 
 PCOD9249092
Probable space group: P 21/C
;
_chemical_formula_sum "Si O2"
_cell_formula_units_Z 24
_cell_length_a 7.149209
_cell_length_b 18.167818
_cell_length_c 10.269120
_cell_angle_alpha 90.000000
_cell_angle_beta 134.521040
_cell_angle_gamma 90.000000
_cell_volume 950.997265
_symmetry_space_group_name_H-M "P 21/C"
_symmetry_group_IT_number 14
_symmetry_cell_setting 'monoclinic'
loop_
_space_group_symop_operation_xyz
x,y,z
-x,1/2+y,1/2-z
-x,-y,-z
x,1/2-y,1/2+z
loop_
_atom_site_type_symbol
_atom_site_label
_atom_site_fract_x
_atom_site_fract_y
_atom_site_fract_z
Si Si1 0.824370 0.152265 0.532753
Si Si2 0.518464 0.805971 0.426394
Si Si3 0.644712 0.198169 0.945072
Si Si4 0.139473 0.961930 0.886210
Si Si5 0.590273 0.545157 0.271970
Si Si6 0.850555 0.573157 0.009417
O O1 0.731098 0.147816 0.636916
O O2 0.870884 0.239315 0.539283
O O3 0.564180 0.121418 0.329474
O O4 0.051596 0.106189 0.578746
O O5 0.517879 0.733467 0.514380
O O6 0.488469 0.795988 0.259652
O O7 0.769702 0.857501 0.559232
O O8 0.729318 0.115883 0.013541
O O9 0.853417 0.962484 0.815001
O O10 0.082741 0.963946 0.704982
O O11 0.312803 0.026325 0.034989
O O12 0.389459 0.482062 0.124371
#
# Coordination Sequence:
#
# PCOD9249092 Si02
#       6
#     4   4   4   4   4   4
#     4  10  25  42  73 106 143 193 244 300 367 435
#     4  10  23  45  72 101 146 188 239 304 364 429
#     4  10  22  46  68 111 139 190 246 296 364 436
#     4  11  23  41  77 100 144 196 239 297 363 431
#     4  11  24  45  70 111 145 195 244 301 367 439
#     4  12  23  45  74 105 149 189 242 303 366 434
#
# _framework density 25.236666
#
# number of rings (size 3 to 8) (size 9 to 14) (size 15 to 20)
#    1.000    0.333    3.333    2.000    0.000    3.333 
#    0.000    1.667    0.000    0.000    0.000    0.000 
#    0.000    0.000    0.000    0.000    0.000    0.000 
#
# Total GULP energy -134100.605783 kJ/mol
# GULP energy per Si atom -5587.525241 kJ/mol
# Density = 2.517923 g / cm^3
# Si number density = 25.236666 Si / 1000 Ang^3
#
#
#
# Elastic Constant Matrix: (Units=GPa)
#
#
# Indices 1 2 3 4 5 6 
#
# 1 97.7901 35.0023 21.8273 0.0000 2.3674 0.0000
# 2 35.0023 105.3896 23.5287 0.0000 -0.3390 0.0000
# 3 21.8273 23.5287 87.9314 0.0000 -8.8321 0.0000
# 4 0.0000 0.0000 0.0000 27.8443 0.0000 -16.9340
# 5 2.3674 -0.3390 -8.8321 0.0000 31.3252 0.0000
# 6 0.0000 0.0000 0.0000 -16.9340 0.0000 27.0432
#
#
#
# Elastic Compliance Matrix: (Units=1/GPa)
#
#
# Indices 1 2 3 4 5 6 
#
# 1 0.012009 -0.003502 -0.002201 0.000000 -0.001566 0.000000
# 2 -0.003502 0.011126 -0.002130 0.000000 -0.000215 0.000000
# 3 -0.002201 -0.002130 0.012868 0.000000 0.003771 0.000000
# 4 0.000000 0.000000 0.000000 0.058003 0.000000 0.036320
# 5 -0.001566 -0.000215 0.003771 0.000000 0.033103 0.000000
# 6 0.000000 0.000000 0.000000 0.036320 0.000000 0.059721
#
#
# Mechanical properties :
#
#
# Convention : Reuss Voigt Hill
#
# Bulk Modulus (GPa) = 49.17083 50.20307 49.68695
# Shear Modulus (GPa) = 23.89218 31.29272 27.59245
#
# Velocity S-wave (km/s) = 3.08023 3.52514 3.31017
# Velocity P-wave (km/s) = 5.67244 6.04193 5.86010
#
# Compressibility (1/GPa) = 0.02033726
#
# Stress axis : x y z
#
# Youngs Moduli (GPa) = 83.27307 89.87621 77.71503
#
# Poissons Ratio (x) = 0.31474 0.17106
# Poissons Ratio (y) = 0.29162 0.16550
# Poissons Ratio (z) = 0.18330 0.19139
#
# Static dielectric constant tensor:
#      x y z
#    x 2.011480 0.000000 -0.000690 
#    y 0.000000 2.016130 0.000000 
#    z -0.000690 0.000000 1.994080 
# 
# From -- ./inp_files/26702.got.cif
#   From: 2010.05.17/outbox.cif.g08.bks.cpg/sg14_14_cif.got.tgz:26702.got - 2010.06.03 17:49:19.
