data_PCOD9249440
_publ_section_title
;
Structure prediction by ZEFSAII (Michael W. Deem and Ramdas Pophale) SiO2 
 PCOD9249440
Probable space group: P 21/C
;
_chemical_formula_sum "Si O2"
_cell_formula_units_Z 32
_cell_length_a 10.585148
_cell_length_b 18.932967
_cell_length_c 14.016286
_cell_angle_alpha 90.000000
_cell_angle_beta 148.573606
_cell_angle_gamma 90.000000
_cell_volume 1464.609685
_symmetry_space_group_name_H-M "P 21/C"
_symmetry_group_IT_number 14
_symmetry_cell_setting 'monoclinic'
loop_
_space_group_symop_operation_xyz
x,y,z
-x,1/2+y,1/2-z
-x,-y,-z
x,1/2-y,1/2+z
loop_
_atom_site_type_symbol
_atom_site_label
_atom_site_fract_x
_atom_site_fract_y
_atom_site_fract_z
Si Si1 0.811537 0.798882 0.160441
Si Si2 0.353822 0.630751 0.286772
Si Si3 0.593714 0.495684 0.406075
Si Si4 0.681950 0.311887 0.942919
Si Si5 0.126295 0.013910 0.303582
Si Si6 0.565379 0.832965 0.202833
Si Si7 0.587516 0.940370 0.690184
Si Si8 0.103181 0.340147 0.896617
O O1 0.706784 0.810545 0.198532
O O2 0.820690 0.719080 0.129089
O O3 0.089109 0.823519 0.341268
O O4 0.624078 0.839313 0.971944
O O5 0.382666 0.546104 0.312325
O O6 0.259326 0.655086 0.122842
O O7 0.177754 0.662701 0.252699
O O8 0.536713 0.412504 0.374416
O O9 0.612280 0.522302 0.308473
O O10 0.849258 0.510426 0.622013
O O11 0.630626 0.228615 0.904851
O O12 0.443959 0.356034 0.819994
O O13 0.203982 0.034932 0.246379
O O14 0.144078 0.083896 0.378086
O O15 0.331936 0.963515 0.478450
O O16 0.740508 0.832875 0.406938
#
# Coordination Sequence:
#
# PCOD9249440 Si02
#       8
#     4   4   4   4   4   4   4   4
#     4  12  24  44  69  94 135 178 224 280 345 402
#     4  11  25  44  70 100 134 177 231 277 342 407
#     4  11  24  44  70 100 137 179 230 281 339 404
#     4  11  23  43  66  97 132 175 227 281 341 403
#     4  11  22  42  67  98 139 177 225 278 341 401
#     4  12  25  45  70 100 137 182 229 283 344 404
#     4  10  23  41  67 100 133 179 226 279 336 410
#     4  12  25  45  68 103 137 181 229 283 340 411
#
# _framework density 21.848825000000001
#
# number of rings (size 3 to 8) (size 9 to 14) (size 15 to 20)
#    0.000    0.750    3.750    4.125    0.000    3.500 
#    0.000    1.250    0.000    0.000    0.000    0.000 
#    0.000    0.000    0.000    0.000    0.000    0.000 
#
# Total GULP energy -178960.683596 kJ/mol
# GULP energy per Si atom -5592.521362 kJ/mol
# Density = 2.179910 g / cm^3
# Si number density = 21.848825 Si / 1000 Ang^3
#
#
#
# Elastic Constant Matrix: (Units=GPa)
#
#
# Indices 1 2 3 4 5 6 
#
# 1 20.2073 -7.8328 -1.0726 0.0000 -7.5982 0.0000
# 2 -7.8328 72.8973 9.7038 0.0000 24.9624 0.0000
# 3 -1.0726 9.7038 94.8861 0.0000 1.2271 0.0000
# 4 0.0000 0.0000 0.0000 25.8826 0.0000 2.0759
# 5 -7.5982 24.9624 1.2271 0.0000 26.0470 0.0000
# 6 0.0000 0.0000 0.0000 2.0759 0.0000 22.6646
#
#
#
# Elastic Compliance Matrix: (Units=1/GPa)
#
#
# Indices 1 2 3 4 5 6 
#
# 1 0.055616 0.000562 0.000369 0.000000 0.015668 0.000000
# 2 0.000562 0.020749 -0.001862 0.000000 -0.019634 0.000000
# 3 0.000369 -0.001862 0.010716 0.000000 0.001387 0.000000
# 4 0.000000 0.000000 0.000000 0.038922 0.000000 -0.003565
# 5 0.015668 -0.019634 0.001387 0.000000 0.061714 0.000000
# 6 0.000000 0.000000 0.000000 -0.003565 0.000000 0.044448
#
#
# Mechanical properties :
#
#
# Convention : Reuss Voigt Hill
#
# Bulk Modulus (GPa) = 11.73465 21.06526 16.39996
# Shear Modulus (GPa) = 19.05243 27.39834 23.22539
#
# Velocity S-wave (km/s) = 2.95619 3.54502 3.26391
# Velocity P-wave (km/s) = 4.12729 5.13990 4.66118
#
# Compressibility (1/GPa) = 0.08521771
#
# Stress axis : x y z
#
# Youngs Moduli (GPa) = 17.98045 48.19426 93.32212
#
# Poissons Ratio (x) = -0.02706 -0.03440
# Poissons Ratio (y) = -0.01010 0.17374
# Poissons Ratio (z) = -0.00663 0.08972
#
# Static dielectric constant tensor:
#      x y z
#    x 1.773740 0.000000 0.001380 
#    y 0.000000 1.801680 0.000000 
#    z 0.001380 0.000000 1.783460 
# 
# From -- ./inp_files/45465.got.cif
#   From: 2010.05.17/outbox.cif.g08.bks.cpg/sg14_23_cif.got.tgz:45465.got - 2010.06.03 17:49:19.
