data_PCOD9249253
_publ_section_title
;
Structure prediction by ZEFSAII (Michael W. Deem and Ramdas Pophale) SiO2 
 PCOD9249253
Probable space group: P 21/C
;
_chemical_formula_sum "Si O2"
_cell_formula_units_Z 28
_cell_length_a 14.351011
_cell_length_b 14.146794
_cell_length_c 7.763281
_cell_angle_alpha 90.000000
_cell_angle_beta 105.415683
_cell_angle_gamma 90.000000
_cell_volume 1519.403367
_symmetry_space_group_name_H-M "P 21/C"
_symmetry_group_IT_number 14
_symmetry_cell_setting 'monoclinic'
loop_
_space_group_symop_operation_xyz
x,y,z
-x,1/2+y,1/2-z
-x,-y,-z
x,1/2-y,1/2+z
loop_
_atom_site_type_symbol
_atom_site_label
_atom_site_fract_x
_atom_site_fract_y
_atom_site_fract_z
Si Si1 0.163357 0.507321 0.083934
Si Si2 0.067658 0.804682 0.976750
Si Si3 0.479860 0.872785 0.180539
Si Si4 0.981367 0.632541 0.116770
Si Si5 0.416985 0.831169 0.526795
Si Si6 0.201820 0.841939 0.332376
Si Si7 0.632110 0.471079 0.674511
O O1 0.253366 0.511905 0.255733
O O2 0.072828 0.569972 0.101162
O O3 0.116326 0.408615 0.008335
O O4 0.200990 0.560295 0.932992
O O5 0.133649 0.734588 0.893469
O O6 0.996227 0.866730 0.827919
O O7 0.148497 0.857396 0.126785
O O8 0.000841 0.737406 0.059022
O O9 0.465849 0.876536 0.380702
O O10 0.576179 0.930244 0.177351
O O11 0.471530 0.763131 0.118325
O O12 0.399327 0.926311 0.023532
O O13 0.310577 0.804049 0.398266
O O14 0.401039 0.899988 0.684778
#
# Coordination Sequence:
#
# PCOD9249253 Si02
#       7
#     4   4   4   4   4   4   4
#     4   9  19  35  51  73 106 138 170 217 268 310
#     4   9  17  29  49  76 105 130 175 212 259 316
#     4  11  22  36  59  83 112 144 181 233 282 326
#     4   9  18  32  53  74 103 139 170 214 262 314
#     4  11  20  35  60  83 110 145 186 228 282 325
#     4   9  18  28  50  81 101 131 173 225 262 307
#     4  10  23  39  55  83 115 144 185 233 274 332
#
# _framework density 18.428284999999999
#
# number of rings (size 3 to 8) (size 9 to 14) (size 15 to 20)
#    0.000    2.286    1.429    1.286    8.000    0.571 
#    0.000    1.429    0.000    0.000    0.000    0.000 
#    0.000    0.000    0.000    0.000    0.000    0.000 
#
# Total GULP energy -155885.545792 kJ/mol
# GULP energy per Si atom -5567.340921 kJ/mol
# Density = 1.838634 g / cm^3
# Si number density = 18.428285 Si / 1000 Ang^3
#
#
#
# Elastic Constant Matrix: (Units=GPa)
#
#
# Indices 1 2 3 4 5 6 
#
# 1 29.8529 9.6667 -4.3895 0.0000 10.1065 0.0000
# 2 9.6667 48.8274 4.1507 0.0000 6.5165 0.0000
# 3 -4.3895 4.1507 50.6946 0.0000 -1.7950 0.0000
# 4 0.0000 0.0000 0.0000 18.2160 0.0000 6.8673
# 5 10.1065 6.5165 -1.7950 0.0000 21.2722 0.0000
# 6 0.0000 0.0000 0.0000 6.8673 0.0000 5.2897
#
#
#
# Elastic Compliance Matrix: (Units=1/GPa)
#
#
# Indices 1 2 3 4 5 6 
#
# 1 0.042056 -0.006254 0.003525 0.000000 -0.017768 0.000000
# 2 -0.006254 0.022485 -0.002529 0.000000 -0.004130 0.000000
# 3 0.003525 -0.002529 0.020267 0.000000 0.000810 0.000000
# 4 0.000000 0.000000 0.000000 0.107519 0.000000 -0.139585
# 5 -0.017768 -0.004130 0.000810 0.000000 0.056785 0.000000
# 6 0.000000 0.000000 0.000000 -0.139585 0.000000 0.370258
#
#
# Mechanical properties :
#
#
# Convention : Reuss Voigt Hill
#
# Bulk Modulus (GPa) = 13.46068 16.47007 14.96538
# Shear Modulus (GPa) = 7.63766 16.95206 12.29486
#
# Velocity S-wave (km/s) = 2.03802 3.03626 2.58577
# Velocity P-wave (km/s) = 3.58584 4.60963 4.12958
#
# Compressibility (1/GPa) = 0.07429043
#
# Stress axis : x y z
#
# Youngs Moduli (GPa) = 23.77765 44.47473 49.34160
#
# Poissons Ratio (x) = 0.27817 -0.17391
# Poissons Ratio (y) = 0.14872 0.12477
# Poissons Ratio (z) = -0.08380 0.11247
#
# Static dielectric constant tensor:
#      x y z
#    x 1.651870 0.000000 -0.027860 
#    y 0.000000 1.644480 0.000000 
#    z -0.027860 0.000000 1.700050 
# 
# From -- ./inp_files/16051.got.cif
#   From: 2010.05.17/outbox.cif.g08.bks.cpg/sg14_9_cif.got.tgz:16051.got - 2010.06.03 17:49:19.
