data_PCOD9249939
_publ_section_title
;
Structure prediction by ZEFSAII (Michael W. Deem and Ramdas Pophale) SiO2 
 PCOD9249939
Probable space group: P 21/C
;
_chemical_formula_sum "Si O2"
_cell_formula_units_Z 24
_cell_length_a 11.482963
_cell_length_b 22.065642
_cell_length_c 9.285858
_cell_angle_alpha 90.000000
_cell_angle_beta 153.368085
_cell_angle_gamma 90.000000
_cell_volume 1054.677621
_symmetry_space_group_name_H-M "P 21/C"
_symmetry_group_IT_number 14
_symmetry_cell_setting 'monoclinic'
loop_
_space_group_symop_operation_xyz
x,y,z
-x,1/2+y,1/2-z
-x,-y,-z
x,1/2-y,1/2+z
loop_
_atom_site_type_symbol
_atom_site_label
_atom_site_fract_x
_atom_site_fract_y
_atom_site_fract_z
Si Si1 0.181945 0.439371 0.268344
Si Si2 0.209528 0.669732 0.259693
Si Si3 0.272449 0.468505 0.838553
Si Si4 0.557483 0.446196 0.428570
Si Si5 0.285635 0.363712 0.657054
Si Si6 0.758832 0.207961 0.534565
O O1 0.443280 0.441128 0.462110
O O2 0.175388 0.514346 0.280609
O O3 0.246806 0.417918 0.500322
O O4 0.016430 0.380327 0.029351
O O5 0.398643 0.624085 0.553112
O O6 0.183550 0.725061 0.341103
O O7 0.290520 0.697854 0.192469
O O8 0.291229 0.398227 0.814299
O O9 0.000000 0.500000 0.500000
O O10 0.500000 0.500000 0.000000
O O11 0.347115 0.473314 0.088084
O O12 0.024799 0.326015 0.361305
O O13 0.526708 0.323637 0.868594
#
# Coordination Sequence:
#
# PCOD9249939 Si02
#       6
#     4   4   4   4   4   4
#     4  10  23  44  73 105 142 190 240 303 365 434
#     4  11  26  46  72 108 145 195 246 298 369 434
#     4  12  27  45  72 109 147 186 240 300 369 429
#     4  11  24  43  76 104 146 185 249 299 372 432
#     4  11  24  48  70 103 146 191 236 301 362 431
#     4  11  27  45  75  99 148 190 247 295 357 439
#
# _framework density 22.755766999999999
#
# number of rings (size 3 to 8) (size 9 to 14) (size 15 to 20)
#    0.000    1.000    3.333    1.500    7.000    2.667 
#    0.000    0.000    0.000    0.000    0.000    0.000 
#    0.000    0.000    0.000    0.000    0.000    0.000 
#
# Total GULP energy -133631.224193 kJ/mol
# GULP energy per Si atom -5567.967675 kJ/mol
# Density = 2.270397 g / cm^3
# Si number density = 22.755767 Si / 1000 Ang^3
#
#
#
# Elastic Constant Matrix: (Units=GPa)
#
#
# Indices 1 2 3 4 5 6 
#
# 1 116.3926 79.3695 37.7596 0.0000 22.1491 0.0000
# 2 79.3695 210.7554 50.7440 0.0000 1.9629 0.0000
# 3 37.7596 50.7440 159.9776 0.0000 -18.2869 0.0000
# 4 0.0000 0.0000 0.0000 101.1504 0.0000 -19.5079
# 5 22.1491 1.9629 -18.2869 0.0000 45.7763 0.0000
# 6 0.0000 0.0000 0.0000 -19.5079 0.0000 57.1430
#
#
#
# Elastic Compliance Matrix: (Units=1/GPa)
#
#
# Indices 1 2 3 4 5 6 
#
# 1 0.014062 -0.004561 -0.002753 0.000000 -0.007708 0.000000
# 2 -0.004561 0.006653 -0.000853 0.000000 0.001581 0.000000
# 3 -0.002753 -0.000853 0.007679 0.000000 0.004436 0.000000
# 4 0.000000 0.000000 0.000000 0.010583 0.000000 0.003613
# 5 -0.007708 0.001581 0.004436 0.000000 0.027279 0.000000
# 6 0.000000 0.000000 0.000000 0.003613 0.000000 0.018733
#
#
# Mechanical properties :
#
#
# Convention : Reuss Voigt Hill
#
# Bulk Modulus (GPa) = 82.92901 91.43021 87.17961
# Shear Modulus (GPa) = 47.46361 62.09745 54.78053
#
# Velocity S-wave (km/s) = 4.57199 5.22952 4.91177
# Velocity P-wave (km/s) = 8.02453 8.75957 8.40009
#
# Compressibility (1/GPa) = 0.01205851
#
# Stress axis : x y z
#
# Youngs Moduli (GPa) = 71.11440 150.30521 130.23375
#
# Poissons Ratio (x) = 0.68552 0.35859
# Poissons Ratio (y) = 0.32434 0.11111
# Poissons Ratio (z) = 0.19581 0.12823
#
# Static dielectric constant tensor:
#      x y z
#    x 1.837820 0.000000 -0.005910 
#    y 0.000000 1.843030 0.000000 
#    z -0.005910 0.000000 1.977960 
# 
# From -- ./inp_files/14572.got.cif
#   From: 2010.05.17/outbox.cif.g08.bks.cpg/sg14_8_cif.got.tgz:14572.got - 2010.06.03 17:49:19.
