data_PCOD9249948
_publ_section_title
;
Structure prediction by ZEFSAII (Michael W. Deem and Ramdas Pophale) SiO2 
 PCOD9249948
Probable space group: P 21/C
;
_chemical_formula_sum "Si O2"
_cell_formula_units_Z 20
_cell_length_a 5.458558
_cell_length_b 8.162430
_cell_length_c 18.085628
_cell_angle_alpha 90.000000
_cell_angle_beta 69.105360
_cell_angle_gamma 90.000000
_cell_volume 752.815319
_symmetry_space_group_name_H-M "P 21/C"
_symmetry_group_IT_number 14
_symmetry_cell_setting 'monoclinic'
loop_
_space_group_symop_operation_xyz
x,y,z
-x,1/2+y,1/2-z
-x,-y,-z
x,1/2-y,1/2+z
loop_
_atom_site_type_symbol
_atom_site_label
_atom_site_fract_x
_atom_site_fract_y
_atom_site_fract_z
Si Si1 0.213077 0.139465 0.975436
Si Si2 0.648706 0.655400 0.901681
Si Si3 0.241270 0.972437 0.752710
Si Si4 0.338557 0.896479 0.176876
Si Si5 0.851386 0.366201 0.969150
O O1 0.511372 0.112152 0.918583
O O2 0.088623 0.250451 0.922056
O O3 0.200297 0.231303 0.055959
O O4 0.000000 0.000000 0.000000
O O5 0.702126 0.621869 0.811456
O O6 0.695313 0.467668 0.925553
O O7 0.354056 0.708241 0.951248
O O8 0.452989 0.005905 0.794296
O O9 0.933001 0.004093 0.801561
O O10 0.284144 0.786275 0.716531
O O11 0.000000 0.500000 0.000000
#
# Coordination Sequence:
#
# PCOD9249948 Si02
#       5
#     4   4   4   4   4
#     4  11  27  47  77 115 161 200 273 335 398 469
#     4  10  23  44  77 106 148 214 260 318 397 485
#     4  12  29  51  83 116 165 215 273 332 417 484
#     4  12  30  52  81 120 164 215 269 339 410 486
#     4   9  19  39  71 103 141 191 258 313 384 462
#
# _framework density 26.566942000000001
#
# number of rings (size 3 to 8) (size 9 to 14) (size 15 to 20)
#    0.000    1.200    0.000    4.800   16.800    2.400 
#    0.000    0.000    0.000    0.000    0.000    0.000 
#    0.000    0.000    0.000    0.000    0.000    0.000 
#
# Total GULP energy -111712.636263 kJ/mol
# GULP energy per Si atom -5585.631813 kJ/mol
# Density = 2.650647 g / cm^3
# Si number density = 26.566942 Si / 1000 Ang^3
#
#
#
# Elastic Constant Matrix: (Units=GPa)
#
#
# Indices 1 2 3 4 5 6 
#
# 1 154.5660 49.0562 38.5517 0.0000 -30.9973 0.0000
# 2 49.0562 143.8645 29.9641 0.0000 -10.3282 0.0000
# 3 38.5517 29.9641 89.1639 0.0000 -5.5507 0.0000
# 4 0.0000 0.0000 0.0000 36.9307 0.0000 -1.9711
# 5 -30.9973 -10.3282 -5.5507 0.0000 40.3971 0.0000
# 6 0.0000 0.0000 0.0000 -1.9711 0.0000 52.2592
#
#
#
# Elastic Compliance Matrix: (Units=1/GPa)
#
#
# Indices 1 2 3 4 5 6 
#
# 1 0.009039 -0.002058 -0.002842 0.000000 0.006019 0.000000
# 2 -0.002058 0.008044 -0.001799 0.000000 0.000230 0.000000
# 3 -0.002842 -0.001799 0.012995 0.000000 -0.000855 0.000000
# 4 0.000000 0.000000 0.000000 0.027132 0.000000 0.001023
# 5 0.006019 0.000230 -0.000855 0.000000 0.029314 0.000000
# 6 0.000000 0.000000 0.000000 0.001023 0.000000 0.019174
#
#
# Mechanical properties :
#
#
# Convention : Reuss Voigt Hill
#
# Bulk Modulus (GPa) = 59.95098 69.19315 64.57206
# Shear Modulus (GPa) = 40.11025 43.91891 42.01458
#
# Velocity S-wave (km/s) = 3.88980 4.07030 3.98107
# Velocity P-wave (km/s) = 6.54134 6.94198 6.74464
#
# Compressibility (1/GPa) = 0.01668030
#
# Stress axis : x y z
#
# Youngs Moduli (GPa) = 110.63434 124.31603 76.95066
#
# Poissons Ratio (x) = 0.25586 0.21867
# Poissons Ratio (y) = 0.22770 0.13844
# Poissons Ratio (z) = 0.31439 0.22365
#
# Static dielectric constant tensor:
#      x y z
#    x 1.871890 0.000000 0.005390 
#    y 0.000000 2.205760 0.000000 
#    z 0.005390 0.000000 2.142260 
# 
# From -- ./inp_files/70916.got.cif
#   From: 2010.05.17/outbox.cif.g08.bks.cpg/sg14_36_cif.got.tgz:70916.got - 2010.06.03 17:49:19.
