data_PCOD9249454
_publ_section_title
;
Structure prediction by ZEFSAII (Michael W. Deem and Ramdas Pophale) SiO2 
 PCOD9249454
Probable space group: P 21/C
;
_chemical_formula_sum "Si O2"
_cell_formula_units_Z 32
_cell_length_a 9.886143
_cell_length_b 12.185147
_cell_length_c 9.503738
_cell_angle_alpha 90.000000
_cell_angle_beta 108.826137
_cell_angle_gamma 90.000000
_cell_volume 1083.611790
_symmetry_space_group_name_H-M "P 21/C"
_symmetry_group_IT_number 14
_symmetry_cell_setting 'monoclinic'
loop_
_space_group_symop_operation_xyz
x,y,z
-x,1/2+y,1/2-z
-x,-y,-z
x,1/2-y,1/2+z
loop_
_atom_site_type_symbol
_atom_site_label
_atom_site_fract_x
_atom_site_fract_y
_atom_site_fract_z
Si Si1 0.873641 0.872226 0.213355
Si Si2 0.495444 0.087235 0.280468
Si Si3 0.174388 0.577219 0.793565
Si Si4 0.433158 0.197515 0.813311
Si Si5 0.780262 0.322550 0.742110
Si Si6 0.704053 0.053200 0.958828
Si Si7 0.937682 0.729128 0.996164
Si Si8 0.651041 0.887984 0.493283
O O1 0.704374 0.870650 0.183246
O O2 0.815047 0.855354 0.500740
O O3 0.014583 0.942269 0.296975
O O4 0.896277 0.841082 0.059463
O O5 0.287905 0.010087 0.381370
O O6 0.390359 0.050834 0.121459
O O7 0.556730 0.977837 0.368895
O O8 0.422551 0.173902 0.373715
O O9 0.222393 0.703974 0.835953
O O10 0.919099 0.736158 0.822712
O O11 0.635868 0.348821 0.777762
O O12 0.578927 0.145195 0.912750
O O13 0.416396 0.212334 0.640425
O O14 0.785121 0.422846 0.631361
O O15 0.911296 0.312567 0.894342
O O16 0.815188 0.071204 0.871944
#
# Coordination Sequence:
#
# PCOD9249454 Si02
#       8
#     4   4   4   4   4   4   4   4
#     4  10  23  41  68 101 130 180 225 278 337 405
#     4  11  24  44  66  98 139 177 230 279 334 418
#     4  10  24  43  71  99 136 175 229 284 340 408
#     4  11  24  42  70  96 134 182 219 285 337 397
#     4  11  25  42  68  97 137 183 222 280 339 403
#     4  11  26  44  65 102 134 182 226 278 345 403
#     4  10  23  42  69  97 137 175 230 274 343 395
#     4  10  24  46  67 102 132 177 232 282 341 405
#
# _framework density 29.530871999999999
#
# number of rings (size 3 to 8) (size 9 to 14) (size 15 to 20)
#    0.000    1.500    2.500    0.375    8.750    8.000 
#    0.000    7.500    0.000    0.000    0.000    0.000 
#    0.000    0.000    0.000    0.000    0.000    0.000 
#
# Total GULP energy -178873.210189 kJ/mol
# GULP energy per Si atom -5589.787818 kJ/mol
# Density = 2.946366 g / cm^3
# Si number density = 29.530872 Si / 1000 Ang^3
#
#
#
# Elastic Constant Matrix: (Units=GPa)
#
#
# Indices 1 2 3 4 5 6 
#
# 1 186.3067 49.9482 54.2286 0.0000 12.1521 0.0000
# 2 49.9482 120.2682 -0.2767 0.0000 8.4132 0.0000
# 3 54.2286 -0.2767 149.1554 0.0000 20.1580 0.0000
# 4 0.0000 0.0000 0.0000 48.5532 0.0000 2.9537
# 5 12.1521 8.4132 20.1580 0.0000 53.1758 0.0000
# 6 0.0000 0.0000 0.0000 2.9537 0.0000 51.9408
#
#
#
# Elastic Compliance Matrix: (Units=1/GPa)
#
#
# Indices 1 2 3 4 5 6 
#
# 1 0.006862 -0.002843 -0.002476 0.000000 -0.000180 0.000000
# 2 -0.002843 0.009592 0.001232 0.000000 -0.001335 0.000000
# 3 -0.002476 0.001232 0.007965 0.000000 -0.002648 0.000000
# 4 0.000000 0.000000 0.000000 0.020667 0.000000 -0.001175
# 5 -0.000180 -0.001335 -0.002648 0.000000 0.020062 0.000000
# 6 0.000000 0.000000 0.000000 -0.001175 0.000000 0.019320
#
#
# Mechanical properties :
#
#
# Convention : Reuss Voigt Hill
#
# Bulk Modulus (GPa) = 61.55918 73.72561 67.64240
# Shear Modulus (GPa) = 50.99124 54.18931 52.59028
#
# Velocity S-wave (km/s) = 4.15988 4.28834 4.22460
# Velocity P-wave (km/s) = 6.63052 7.03844 6.83752
#
# Compressibility (1/GPa) = 0.01624453
#
# Stress axis : x y z
#
# Youngs Moduli (GPa) = 145.72897 104.25719 125.55304
#
# Poissons Ratio (x) = 0.29640 0.31085
# Poissons Ratio (y) = 0.41430 -0.15466
# Poissons Ratio (z) = 0.36080 -0.12843
#
# Static dielectric constant tensor:
#      x y z
#    x 2.245210 0.000000 -0.171260 
#    y 0.000000 2.438890 0.000000 
#    z -0.171260 0.000000 2.569730 
# 
# From -- ./inp_files/26879.got.cif
#   From: 2010.05.17/outbox.cif.g08.bks.cpg/sg14_14_cif.got.tgz:26879.got - 2010.06.03 17:49:19.
