data_PCOD9249111
_publ_section_title
;
Structure prediction by ZEFSAII (Michael W. Deem and Ramdas Pophale) SiO2 
 PCOD9249111
Probable space group: P 21/C
;
_chemical_formula_sum "Si O2"
_cell_formula_units_Z 22
_cell_length_a 26.451388
_cell_length_b 4.892644
_cell_length_c 9.985171
_cell_angle_alpha 90.000000
_cell_angle_beta 35.469104
_cell_angle_gamma 90.000000
_cell_volume 749.847797
_symmetry_space_group_name_H-M "P 21/C"
_symmetry_group_IT_number 14
_symmetry_cell_setting 'monoclinic'
loop_
_space_group_symop_operation_xyz
x,y,z
-x,1/2+y,1/2-z
-x,-y,-z
x,1/2-y,1/2+z
loop_
_atom_site_type_symbol
_atom_site_label
_atom_site_fract_x
_atom_site_fract_y
_atom_site_fract_z
Si Si1 0.726915 0.182627 0.778521
Si Si2 0.858454 0.926336 0.299519
Si Si3 0.292284 0.456138 0.413716
Si Si4 0.466404 0.504786 0.341525
Si Si5 0.991102 0.195264 0.361494
Si Si6 0.500000 0.500000 0.000000
O O1 0.717890 0.463156 0.718758
O O2 0.812375 0.056654 0.529077
O O3 0.728190 0.192937 0.934177
O O4 0.638718 0.014375 0.925191
O O5 0.780104 0.766628 0.397252
O O6 0.930152 0.717251 0.202959
O O7 0.908926 0.154889 0.106250
O O8 0.393524 0.426295 0.218453
O O9 0.501996 0.279217 0.140239
O O10 0.486452 0.750688 0.169826
O O11 0.016714 0.396777 0.183323
#
# Coordination Sequence:
#
# PCOD9249111 Si02
#       6
#     4   4   4   4   4   2
#     4  11  26  44  78 113 158 213 275 341 409 500
#     4  11  27  47  80 116 163 217 279 339 433 503
#     4  11  25  49  75 119 159 221 274 348 410 501
#     4  11  23  44  68 103 148 203 264 325 392 461
#     4  11  28  51  83 119 166 214 276 352 427 513
#     4  10  22  46  70 108 158 214 268 330 400 480
#
# _framework density 29.339289000000001
#
# number of rings (size 3 to 8) (size 9 to 14) (size 15 to 20)
#    0.000    1.091    1.818    2.182    7.636    3.636 
#    9.818    0.000    0.000    0.000    0.000    0.000 
#    0.000    0.000    0.000    0.000    0.000    0.000 
#
# Total GULP energy -123188.732557 kJ/mol
# GULP energy per Si atom -5599.487843 kJ/mol
# Density = 2.927251 g / cm^3
# Si number density = 29.339289 Si / 1000 Ang^3
#
#
#
# Elastic Constant Matrix: (Units=GPa)
#
#
# Indices 1 2 3 4 5 6 
#
# 1 141.9100 48.6578 76.9827 0.0000 5.4285 0.0000
# 2 48.6578 199.6277 33.9736 0.0000 -12.1843 0.0000
# 3 76.9827 33.9736 213.9205 0.0000 -16.0032 0.0000
# 4 0.0000 0.0000 0.0000 35.9697 0.0000 3.5029
# 5 5.4285 -12.1843 -16.0032 0.0000 80.5635 0.0000
# 6 0.0000 0.0000 0.0000 3.5029 0.0000 54.2809
#
#
#
# Elastic Compliance Matrix: (Units=1/GPa)
#
#
# Indices 1 2 3 4 5 6 
#
# 1 0.009503 -0.001860 -0.003241 0.000000 -0.001566 0.000000
# 2 -0.001860 0.005544 -0.000141 0.000000 0.000936 0.000000
# 3 -0.003241 -0.000141 0.005967 0.000000 0.001382 0.000000
# 4 0.000000 0.000000 0.000000 0.027977 0.000000 -0.001805
# 5 -0.001566 0.000936 0.001382 0.000000 0.012934 0.000000
# 6 0.000000 0.000000 0.000000 -0.001805 0.000000 0.018539
#
#
# Mechanical properties :
#
#
# Convention : Reuss Voigt Hill
#
# Bulk Modulus (GPa) = 94.98169 97.18736 96.08453
# Shear Modulus (GPa) = 52.93324 60.55244 56.74284
#
# Velocity S-wave (km/s) = 4.25217 4.54791 4.40252
# Velocity P-wave (km/s) = 7.52009 7.79585 7.65921
#
# Compressibility (1/GPa) = 0.01052834
#
# Stress axis : x y z
#
# Youngs Moduli (GPa) = 105.23200 180.38043 167.59039
#
# Poissons Ratio (x) = 0.33553 0.54323
# Poissons Ratio (y) = 0.19575 0.02364
# Poissons Ratio (z) = 0.34110 0.02544
#
# Static dielectric constant tensor:
#      x y z
#    x 2.333260 0.000000 0.199030 
#    y 0.000000 2.341000 0.000000 
#    z 0.199030 0.000000 2.235350 
# 
# From -- ./inp_files/31123.got.cif
#   From: 2010.05.17/outbox.cif.g08.bks.cpg/sg14_16_cif.got.tgz:31123.got - 2010.06.03 17:49:19.
