data_PCOD9249980
_publ_section_title
;
Structure prediction by ZEFSAII (Michael W. Deem and Ramdas Pophale) SiO2 
 PCOD9249980
Probable space group: P 21/C
;
_chemical_formula_sum "Si O2"
_cell_formula_units_Z 28
_cell_length_a 19.910549
_cell_length_b 8.616485
_cell_length_c 19.179302
_cell_angle_alpha 90.000000
_cell_angle_beta 156.730676
_cell_angle_gamma 90.000000
_cell_volume 1299.877170
_symmetry_space_group_name_H-M "P 21/C"
_symmetry_group_IT_number 14
_symmetry_cell_setting 'monoclinic'
loop_
_space_group_symop_operation_xyz
x,y,z
-x,1/2+y,1/2-z
-x,-y,-z
x,1/2-y,1/2+z
loop_
_atom_site_type_symbol
_atom_site_label
_atom_site_fract_x
_atom_site_fract_y
_atom_site_fract_z
Si Si1 0.414767 0.385116 0.863425
Si Si2 0.966886 0.211987 0.624116
Si Si3 0.424710 0.556378 0.501441
Si Si4 0.352908 0.314818 0.547029
Si Si5 0.024244 0.565514 0.102407
Si Si6 0.938677 0.672520 0.436266
Si Si7 0.348695 0.572063 0.661230
O O1 0.514033 0.234239 0.928852
O O2 0.261574 0.313073 0.761758
O O3 0.348584 0.493778 0.737743
O O4 0.500000 0.500000 0.000000
O O5 0.979396 0.264621 0.555614
O O6 0.811165 0.311657 0.505427
O O7 0.933225 0.028334 0.577461
O O8 0.157354 0.228318 0.838115
O O9 0.500000 0.500000 0.500000
O O10 0.453198 0.421677 0.585428
O O11 0.222271 0.559916 0.305027
O O12 0.338975 0.429542 0.598995
O O13 0.475086 0.168264 0.677086
O O14 0.000000 0.500000 0.000000
O O15 0.974681 0.741975 0.043344
O O16 0.000000 0.500000 0.500000
#
# Coordination Sequence:
#
# PCOD9249980 Si02
#       7
#     4   4   4   4   4   4   4
#     4  12  24  39  67 104 137 182 229 287 355 409
#     4  10  23  45  67  97 138 180 227 283 354 417
#     4  11  22  40  68  99 134 174 227 289 347 407
#     4  11  27  47  68 102 134 184 244 284 348 433
#     4   9  20  35  60  95 130 166 214 274 339 406
#     4  11  20  37  63 102 135 166 225 279 341 418
#     4  12  26  48  70  95 143 189 232 294 356 414
#
# _framework density 21.540496000000001
#
# number of rings (size 3 to 8) (size 9 to 14) (size 15 to 20)
#    0.000    1.143    1.429    6.000    8.000    1.143 
#    5.143    0.000    0.000    0.000    0.000    0.000 
#    0.000    0.000    0.000    0.000    0.000    0.000 
#
# Total GULP energy -156133.863634 kJ/mol
# GULP energy per Si atom -5576.209416 kJ/mol
# Density = 2.149147 g / cm^3
# Si number density = 21.540496 Si / 1000 Ang^3
#
#
#
# Elastic Constant Matrix: (Units=GPa)
#
#
# Indices 1 2 3 4 5 6 
#
# 1 48.0456 4.8261 6.0388 0.0000 -6.1542 0.0000
# 2 4.8261 102.0386 37.3803 0.0000 0.4442 0.0000
# 3 6.0388 37.3803 65.6185 0.0000 4.4947 0.0000
# 4 0.0000 0.0000 0.0000 47.8480 0.0000 3.8150
# 5 -6.1542 0.4442 4.4947 0.0000 23.5643 0.0000
# 6 0.0000 0.0000 0.0000 3.8150 0.0000 32.8536
#
#
#
# Elastic Compliance Matrix: (Units=1/GPa)
#
#
# Indices 1 2 3 4 5 6 
#
# 1 0.021917 -0.000215 -0.002317 0.000000 0.006170 0.000000
# 2 -0.000215 0.012416 -0.007127 0.000000 0.001069 0.000000
# 3 -0.002317 -0.007127 0.019804 0.000000 -0.004248 0.000000
# 4 0.000000 0.000000 0.000000 0.021095 0.000000 -0.002450
# 5 0.006170 0.001069 -0.004248 0.000000 0.044839 0.000000
# 6 0.000000 0.000000 0.000000 -0.002450 0.000000 0.030723
#
#
# Mechanical properties :
#
#
# Convention : Reuss Voigt Hill
#
# Bulk Modulus (GPa) = 28.71943 34.68815 31.70379
# Shear Modulus (GPa) = 27.51540 32.01701 29.76621
#
# Velocity S-wave (km/s) = 3.57792 3.85952 3.72139
# Velocity P-wave (km/s) = 5.51638 5.99999 5.76326
#
# Compressibility (1/GPa) = 0.03481963
#
# Stress axis : x y z
#
# Youngs Moduli (GPa) = 45.62731 80.53831 50.49574
#
# Poissons Ratio (x) = 0.01728 0.11702
# Poissons Ratio (y) = 0.00979 0.35987
# Poissons Ratio (z) = 0.10574 0.57397
#
# Static dielectric constant tensor:
#      x y z
#    x 1.792450 0.000000 -0.003790 
#    y 0.000000 1.915770 0.000000 
#    z -0.003790 0.000000 1.821980 
# 
# From -- ./inp_files/70235.got.cif
#   From: 2010.05.17/outbox.cif.g08.bks.cpg/sg14_36_cif.got.tgz:70235.got - 2010.06.03 17:49:19.
