data_PCOD9249517
_publ_section_title
;
Structure prediction by ZEFSAII (Michael W. Deem and Ramdas Pophale) SiO2 
 PCOD9249517
Probable space group: P 21/C
;
_chemical_formula_sum "Si O2"
_cell_formula_units_Z 32
_cell_length_a 13.778937
_cell_length_b 11.604866
_cell_length_c 14.690842
_cell_angle_alpha 90.000000
_cell_angle_beta 142.601886
_cell_angle_gamma 90.000000
_cell_volume 1426.728532
_symmetry_space_group_name_H-M "P 21/C"
_symmetry_group_IT_number 14
_symmetry_cell_setting 'monoclinic'
loop_
_space_group_symop_operation_xyz
x,y,z
-x,1/2+y,1/2-z
-x,-y,-z
x,1/2-y,1/2+z
loop_
_atom_site_type_symbol
_atom_site_label
_atom_site_fract_x
_atom_site_fract_y
_atom_site_fract_z
Si Si1 0.848444 0.255474 0.161103
Si Si2 0.808013 0.135628 0.439782
Si Si3 0.105583 0.985894 0.223104
Si Si4 0.137612 0.093733 0.421060
Si Si5 0.511553 0.182057 0.952305
Si Si6 0.463556 0.075408 0.105080
Si Si7 0.708055 0.801688 0.859885
Si Si8 0.043512 0.649032 0.519817
O O1 0.946381 0.371286 0.261020
O O2 0.968810 0.152109 0.270833
O O3 0.788674 0.283412 0.014725
O O4 0.685570 0.238246 0.095385
O O5 0.643805 0.104923 0.269256
O O6 0.912142 0.218267 0.454791
O O7 0.883660 0.016575 0.530122
O O8 0.208505 0.050410 0.376477
O O9 0.981847 0.079494 0.092247
O O10 0.162332 0.923799 0.172525
O O11 0.248614 0.185417 0.552913
O O12 0.408199 0.263650 0.809225
O O13 0.544495 0.059029 0.927236
O O14 0.429651 0.148924 0.987652
O O15 0.360955 0.111317 0.116274
O O16 0.869454 0.849556 0.936064
#
# Coordination Sequence:
#
# PCOD9249517 Si02
#       8
#     4   4   4   4   4   4   4   4
#     4  11  22  44  70 101 138 187 229 291 355 423
#     4  11  23  44  71 102 144 183 234 297 350 430
#     4  10  23  42  64 101 138 179 238 284 353 421
#     4  11  24  42  71 105 139 183 239 288 353 423
#     4  11  26  46  70 103 143 191 237 285 372 417
#     4  11  26  46  70 100 149 186 238 295 355 430
#     4  12  26  46  69 108 141 188 237 298 355 432
#     4  11  24  42  70 104 142 181 242 294 354 425
#
# _framework density 22.428934000000002
#
# number of rings (size 3 to 8) (size 9 to 14) (size 15 to 20)
#    0.000    1.000    5.000    0.750    3.500    2.500 
#    2.250    0.625    0.000    0.000    0.000    0.000 
#    0.000    0.000    0.000    0.000    0.000    0.000 
#
# Total GULP energy -178500.045178 kJ/mol
# GULP energy per Si atom -5578.126412 kJ/mol
# Density = 2.237788 g / cm^3
# Si number density = 22.428934 Si / 1000 Ang^3
#
#
#
# Elastic Constant Matrix: (Units=GPa)
#
#
# Indices 1 2 3 4 5 6 
#
# 1 62.8402 26.5633 25.5331 0.0000 -2.2615 0.0000
# 2 26.5633 111.2646 34.8867 0.0000 -4.4036 0.0000
# 3 25.5331 34.8867 110.2895 0.0000 -14.8465 0.0000
# 4 0.0000 0.0000 0.0000 39.9030 0.0000 -16.5665
# 5 -2.2615 -4.4036 -14.8465 0.0000 29.5701 0.0000
# 6 0.0000 0.0000 0.0000 -16.5665 0.0000 27.5365
#
#
#
# Elastic Compliance Matrix: (Units=1/GPa)
#
#
# Indices 1 2 3 4 5 6 
#
# 1 0.018701 -0.003447 -0.003341 0.000000 -0.000761 0.000000
# 2 -0.003447 0.010613 -0.002554 0.000000 0.000034 0.000000
# 3 -0.003341 -0.002554 0.011329 0.000000 0.005052 0.000000
# 4 0.000000 0.000000 0.000000 0.033404 0.000000 0.020097
# 5 -0.000761 0.000034 0.005052 0.000000 0.036301 0.000000
# 6 0.000000 0.000000 0.000000 0.020097 0.000000 0.048406
#
#
# Mechanical properties :
#
#
# Convention : Reuss Voigt Hill
#
# Bulk Modulus (GPa) = 45.54459 50.92896 48.23677
# Shear Modulus (GPa) = 27.06237 32.56268 29.81253
#
# Velocity S-wave (km/s) = 3.47736 3.81440 3.64977
# Velocity P-wave (km/s) = 6.03928 6.49274 6.27011
#
# Compressibility (1/GPa) = 0.02195651
#
# Stress axis : x y z
#
# Youngs Moduli (GPa) = 53.47366 94.22579 88.27148
#
# Poissons Ratio (x) = 0.32480 0.29496
# Poissons Ratio (y) = 0.18433 0.22548
# Poissons Ratio (z) = 0.17868 0.24069
#
# Static dielectric constant tensor:
#      x y z
#    x 1.887140 0.000000 -0.062030 
#    y 0.000000 1.842150 0.000000 
#    z -0.062030 0.000000 1.843270 
# 
# From -- ./inp_files/47158.got.cif
#   From: 2010.05.17/outbox.cif.g08.bks.cpg/sg14_24_cif.got.tgz:47158.got - 2010.06.03 17:49:19.
