data_PCOD9249752
_publ_section_title
;
Structure prediction by ZEFSAII (Michael W. Deem and Ramdas Pophale) SiO2 
 PCOD9249752
Probable space group: P 21/C
;
_chemical_formula_sum "Si O2"
_cell_formula_units_Z 32
_cell_length_a 9.300134
_cell_length_b 15.349023
_cell_length_c 23.629706
_cell_angle_alpha 90.000000
_cell_angle_beta 150.522705
_cell_angle_gamma 90.000000
_cell_volume 1659.826740
_symmetry_space_group_name_H-M "P 21/C"
_symmetry_group_IT_number 14
_symmetry_cell_setting 'monoclinic'
loop_
_space_group_symop_operation_xyz
x,y,z
-x,1/2+y,1/2-z
-x,-y,-z
x,1/2-y,1/2+z
loop_
_atom_site_type_symbol
_atom_site_label
_atom_site_fract_x
_atom_site_fract_y
_atom_site_fract_z
Si Si1 0.073471 0.671268 0.770946
Si Si2 0.658140 0.149880 0.258711
Si Si3 0.334024 0.482777 0.385124
Si Si4 0.671232 0.081083 0.531887
Si Si5 0.300174 0.848796 0.222064
Si Si6 0.169217 0.018750 0.616187
Si Si7 0.180522 0.433845 0.523524
Si Si8 0.931109 0.634418 0.208135
O O1 0.220249 0.634028 0.877032
O O2 0.247976 0.655815 0.772035
O O3 0.780718 0.614828 0.660884
O O4 0.030683 0.773251 0.766130
O O5 0.670372 0.247816 0.286255
O O6 0.356212 0.137173 0.120648
O O7 0.926834 0.136217 0.306346
O O8 0.687786 0.071548 0.313203
O O9 0.500000 0.500000 0.500000
O O10 0.562265 0.509128 0.415537
O O11 0.064944 0.550452 0.285389
O O12 0.416964 0.131051 0.411590
O O13 0.935902 0.051470 0.582911
O O14 0.500000 0.000000 0.500000
O O15 0.580437 0.908524 0.305709
O O16 0.024751 0.890871 0.094568
O O17 0.000000 0.000000 0.500000
O O18 0.000000 0.500000 0.500000
#
# Coordination Sequence:
#
# PCOD9249752 Si02
#       8
#     4   4   4   4   4   4   4   4
#     4  11  24  42  69  96 130 170 222 272 324 390
#     4  10  23  43  68  94 128 174 220 265 325 400
#     4  11  22  40  65  96 124 163 216 263 312 387
#     4  12  22  45  69  91 134 174 216 275 325 383
#     4  11  25  42  67  99 128 175 220 266 330 394
#     4  12  26  44  66 100 134 174 221 269 329 398
#     4  11  22  43  66  87 132 170 207 263 328 383
#     4  10  24  41  68  98 125 173 220 264 328 381
#
# _framework density 19.279121
#
# number of rings (size 3 to 8) (size 9 to 14) (size 15 to 20)
#    0.000    1.000    5.000    1.500    3.500    2.000 
#    4.500    0.000    0.000    0.000    0.000    0.000 
#    0.000    0.000    0.000    0.000    0.000    0.000 
#
# Total GULP energy -178752.743650 kJ/mol
# GULP energy per Si atom -5586.023239 kJ/mol
# Density = 1.923524 g / cm^3
# Si number density = 19.279121 Si / 1000 Ang^3
#
#
#
# Elastic Constant Matrix: (Units=GPa)
#
#
# Indices 1 2 3 4 5 6 
#
# 1 65.1940 38.5293 39.2535 0.0000 2.3366 0.0000
# 2 38.5293 87.8632 10.3524 0.0000 6.9793 0.0000
# 3 39.2535 10.3524 90.2377 0.0000 4.1689 0.0000
# 4 0.0000 0.0000 0.0000 33.9079 0.0000 -3.2547
# 5 2.3366 6.9793 4.1689 0.0000 31.9468 0.0000
# 6 0.0000 0.0000 0.0000 -3.2547 0.0000 29.5908
#
#
#
# Elastic Compliance Matrix: (Units=1/GPa)
#
#
# Indices 1 2 3 4 5 6 
#
# 1 0.028877 -0.011477 -0.011331 0.000000 0.001874 0.000000
# 2 -0.011477 0.016278 0.003270 0.000000 -0.003144 0.000000
# 3 -0.011331 0.003270 0.015725 0.000000 -0.001938 0.000000
# 4 0.000000 0.000000 0.000000 0.029806 0.000000 0.003278
# 5 0.001874 -0.003144 -0.001938 0.000000 0.032105 0.000000
# 6 0.000000 0.000000 0.000000 0.003278 0.000000 0.034155
#
#
# Mechanical properties :
#
#
# Convention : Reuss Voigt Hill
#
# Bulk Modulus (GPa) = 45.86166 46.61836 46.24001
# Shear Modulus (GPa) = 24.59523 29.43308 27.01416
#
# Velocity S-wave (km/s) = 3.57563 3.91152 3.74734
# Velocity P-wave (km/s) = 6.39427 6.68081 6.53911
#
# Compressibility (1/GPa) = 0.02180471
#
# Stress axis : x y z
#
# Youngs Moduli (GPa) = 34.62949 61.43078 63.59131
#
# Poissons Ratio (x) = 0.70503 0.72058
# Poissons Ratio (y) = 0.39744 -0.20795
# Poissons Ratio (z) = 0.39240 -0.20089
#
# Static dielectric constant tensor:
#      x y z
#    x 1.681070 0.000000 0.006960 
#    y 0.000000 1.674080 0.000000 
#    z 0.006960 0.000000 1.697320 
# 
# From -- ./inp_files/72482.got.cif
#   From: 2010.05.17/outbox.cif.g08.bks.cpg/sg14_37_cif.got.tgz:72482.got - 2010.06.03 17:49:19.
