data_PCOD9249825
_publ_section_title
;
Structure prediction by ZEFSAII (Michael W. Deem and Ramdas Pophale) SiO2 
 PCOD9249825
Probable space group: P 21/C
;
_chemical_formula_sum "Si O2"
_cell_formula_units_Z 24
_cell_length_a 11.737957
_cell_length_b 11.981248
_cell_length_c 7.140906
_cell_angle_alpha 90.000000
_cell_angle_beta 107.379626
_cell_angle_gamma 90.000000
_cell_volume 958.415925
_symmetry_space_group_name_H-M "P 21/C"
_symmetry_group_IT_number 14
_symmetry_cell_setting 'monoclinic'
loop_
_space_group_symop_operation_xyz
x,y,z
-x,1/2+y,1/2-z
-x,-y,-z
x,1/2-y,1/2+z
loop_
_atom_site_type_symbol
_atom_site_label
_atom_site_fract_x
_atom_site_fract_y
_atom_site_fract_z
Si Si1 0.831545 0.151202 0.585736
Si Si2 0.298250 0.196915 0.455824
Si Si3 0.593521 0.905203 0.851681
Si Si4 0.138318 0.893511 0.994974
Si Si5 0.661293 0.491565 0.762962
Si Si6 0.077598 0.366301 0.352745
O O1 0.813257 0.283593 0.579820
O O2 0.798431 0.099459 0.771118
O O3 0.974963 0.135249 0.644108
O O4 0.758623 0.092856 0.389433
O O5 0.404940 0.286647 0.537043
O O6 0.302529 0.110238 0.628787
O O7 0.176528 0.270069 0.391882
O O8 0.321437 0.373388 0.779666
O O9 0.465736 0.947305 0.721691
O O10 0.636382 0.993778 0.029194
O O11 0.002341 0.863243 0.996567
O O12 0.130071 0.009414 0.884267
#
# Coordination Sequence:
#
# PCOD9249825 Si02
#       6
#     4   4   4   4   4   4
#     4  10  23  43  75 108 150 208 256 326 398 472
#     4  12  25  48  80 113 153 210 259 329 396 486
#     4  11  27  49  76 116 148 205 265 326 396 468
#     4   9  22  44  67 114 149 204 260 320 397 472
#     4  11  27  51  76 113 155 204 266 331 394 471
#     4   9  24  43  75 109 156 204 261 322 403 474
#
# _framework density 25.041319000000001
#
# number of rings (size 3 to 8) (size 9 to 14) (size 15 to 20)
#    1.000    0.667    1.667    0.500    7.000    2.667 
#    3.000    2.500    0.000    1.000    0.000    0.000 
#    0.000    0.000    0.000    0.000    0.000    0.000 
#
# Total GULP energy -134158.604924 kJ/mol
# GULP energy per Si atom -5589.941872 kJ/mol
# Density = 2.498432 g / cm^3
# Si number density = 25.041319 Si / 1000 Ang^3
#
#
#
# Elastic Constant Matrix: (Units=GPa)
#
#
# Indices 1 2 3 4 5 6 
#
# 1 94.3062 45.2983 60.6406 0.0000 11.1726 0.0000
# 2 45.2983 180.7789 90.5792 0.0000 18.4528 0.0000
# 3 60.6406 90.5792 162.8382 0.0000 14.6820 0.0000
# 4 0.0000 0.0000 0.0000 42.9189 0.0000 -1.7066
# 5 11.1726 18.4528 14.6820 0.0000 46.6687 0.0000
# 6 0.0000 0.0000 0.0000 -1.7066 0.0000 42.7651
#
#
#
# Elastic Compliance Matrix: (Units=1/GPa)
#
#
# Indices 1 2 3 4 5 6 
#
# 1 0.014249 -0.001143 -0.004532 0.000000 -0.001533 0.000000
# 2 -0.001143 0.007900 -0.003820 0.000000 -0.001648 0.000000
# 3 -0.004532 -0.003820 0.010004 0.000000 -0.000552 0.000000
# 4 0.000000 0.000000 0.000000 0.023337 0.000000 0.000931
# 5 -0.001533 -0.001648 -0.000552 0.000000 0.022620 0.000000
# 6 0.000000 0.000000 0.000000 0.000931 0.000000 0.023421
#
#
# Mechanical properties :
#
#
# Convention : Reuss Voigt Hill
#
# Bulk Modulus (GPa) = 75.97758 92.32884 84.15321
# Shear Modulus (GPa) = 40.02927 42.56423 41.29675
#
# Velocity S-wave (km/s) = 4.00250 4.12729 4.06537
# Velocity P-wave (km/s) = 7.19491 7.72420 7.46425
#
# Compressibility (1/GPa) = 0.01316178
#
# Stress axis : x y z
#
# Youngs Moduli (GPa) = 70.18197 126.57453 99.96340
#
# Poissons Ratio (x) = 0.14467 0.45305
# Poissons Ratio (y) = 0.08022 0.38190
# Poissons Ratio (z) = 0.31807 0.48357
#
# Static dielectric constant tensor:
#      x y z
#    x 2.116910 0.000000 -0.026820 
#    y 0.000000 1.927220 0.000000 
#    z -0.026820 0.000000 2.009060 
# 
# From -- ./inp_files/29202.got.cif
#   From: 2010.05.17/outbox.cif.g08.bks.cpg/sg14_15_cif.got.tgz:29202.got - 2010.06.03 17:49:19.
