data_PCOD9249303
_publ_section_title
;
Structure prediction by ZEFSAII (Michael W. Deem and Ramdas Pophale) SiO2 
 PCOD9249303
Probable space group: P 21/C
;
_chemical_formula_sum "Si O2"
_cell_formula_units_Z 16
_cell_length_a 10.401893
_cell_length_b 11.630228
_cell_length_c 5.405224
_cell_angle_alpha 90.000000
_cell_angle_beta 73.222963
_cell_angle_gamma 90.000000
_cell_volume 626.071197
_symmetry_space_group_name_H-M "P 21/C"
_symmetry_group_IT_number 14
_symmetry_cell_setting 'monoclinic'
loop_
_space_group_symop_operation_xyz
x,y,z
-x,1/2+y,1/2-z
-x,-y,-z
x,1/2-y,1/2+z
loop_
_atom_site_type_symbol
_atom_site_label
_atom_site_fract_x
_atom_site_fract_y
_atom_site_fract_z
Si Si1 0.667114 0.712172 0.899596
Si Si2 0.633322 0.192458 0.902082
Si Si3 0.228400 0.498630 0.400205
Si Si4 0.989484 0.173101 0.143746
O O1 0.732537 0.776017 0.630136
O O2 0.525863 0.778760 0.014013
O O3 0.672481 0.579324 0.820695
O O4 0.681015 0.269741 0.107184
O O5 0.681796 0.066687 0.951167
O O6 0.139287 0.588543 0.295827
O O7 0.116248 0.414146 0.576761
O O8 0.987670 0.257445 0.381825
#
# Coordination Sequence:
#
# PCOD9249303 Si02
#       4
#     4   4   4   4
#     4  10  23  40  61  94 130 165 212 255 305 381
#     4  10  23  40  61  94 130 165 212 255 305 381
#     4  11  24  42  70  92 128 173 204 262 326 361
#     4  11  26  45  66  96 126 163 218 265 310 378
#
# _framework density 25.556197999999998
#
# number of rings (size 3 to 8) (size 9 to 14) (size 15 to 20)
#    0.000    1.500    0.000    3.000    0.000   18.000 
#    0.000    0.000    0.000    0.000    0.000    0.000 
#    0.000    0.000    0.000    0.000    0.000    0.000 
#
# Total GULP energy -89420.738808 kJ/mol
# GULP energy per Si atom -5588.796175 kJ/mol
# Density = 2.549803 g / cm^3
# Si number density = 25.556198 Si / 1000 Ang^3
#
#
#
# Elastic Constant Matrix: (Units=GPa)
#
#
# Indices 1 2 3 4 5 6 
#
# 1 135.6491 77.1064 45.9759 0.0000 -1.5927 0.0000
# 2 77.1064 159.2390 66.8084 0.0000 4.9782 0.0000
# 3 45.9759 66.8084 160.7999 0.0000 42.3900 0.0000
# 4 0.0000 0.0000 0.0000 24.5997 0.0000 -5.6146
# 5 -1.5927 4.9782 42.3900 0.0000 44.7425 0.0000
# 6 0.0000 0.0000 0.0000 -5.6146 0.0000 67.4593
#
#
#
# Elastic Compliance Matrix: (Units=1/GPa)
#
#
# Indices 1 2 3 4 5 6 
#
# 1 0.010541 -0.004396 -0.001887 0.000000 0.002652 0.000000
# 2 -0.004396 0.009724 -0.003275 0.000000 0.001864 0.000000
# 3 -0.001887 -0.003275 0.010717 0.000000 -0.009857 0.000000
# 4 0.000000 0.000000 0.000000 0.041438 0.000000 0.003449
# 5 0.002652 0.001864 -0.009857 0.000000 0.031575 0.000000
# 6 0.000000 0.000000 0.000000 0.003449 0.000000 0.015111
#
#
# Mechanical properties :
#
#
# Convention : Reuss Voigt Hill
#
# Bulk Modulus (GPa) = 84.25751 92.82992 88.54371
# Shear Modulus (GPa) = 35.16750 45.08012 40.12381
#
# Velocity S-wave (km/s) = 3.71359 4.20451 3.96665
# Velocity P-wave (km/s) = 7.17138 7.74424 7.46331
#
# Compressibility (1/GPa) = 0.01186838
#
# Stress axis : x y z
#
# Youngs Moduli (GPa) = 94.86676 102.83980 93.30677
#
# Poissons Ratio (x) = 0.45203 0.17605
# Poissons Ratio (y) = 0.41699 0.30555
# Poissons Ratio (z) = 0.17899 0.33677
#
# Static dielectric constant tensor:
#      x y z
#    x 2.162370 0.000000 -0.054900 
#    y 0.000000 2.015590 0.000000 
#    z -0.054900 0.000000 2.026130 
# 
# From -- ./inp_files/377.got.cif
#   From: 2010.05.17/outbox.cif.g08.bks.cpg/sg14_1_cif.got.tgz:377.got - 2010.06.03 17:49:19.
