data_PCOD9249048
_publ_section_title
;
Structure prediction by ZEFSAII (Michael W. Deem and Ramdas Pophale) SiO2 
 PCOD9249048
Probable space group: P 21/C
;
_chemical_formula_sum "Si O2"
_cell_formula_units_Z 28
_cell_length_a 7.783143
_cell_length_b 28.122573
_cell_length_c 9.698387
_cell_angle_alpha 90.000000
_cell_angle_beta 36.778265
_cell_angle_gamma 90.000000
_cell_volume 1270.963836
_symmetry_space_group_name_H-M "P 21/C"
_symmetry_group_IT_number 14
_symmetry_cell_setting 'monoclinic'
loop_
_space_group_symop_operation_xyz
x,y,z
-x,1/2+y,1/2-z
-x,-y,-z
x,1/2-y,1/2+z
loop_
_atom_site_type_symbol
_atom_site_label
_atom_site_fract_x
_atom_site_fract_y
_atom_site_fract_z
Si Si1 0.448023 0.168479 0.042163
Si Si2 0.465402 0.339695 0.031654
Si Si3 0.650076 0.998945 0.748970
Si Si4 0.308723 0.394886 0.866419
Si Si5 0.925251 0.747141 0.737120
Si Si6 0.803903 0.254953 0.685132
Si Si7 0.356234 0.896193 0.314513
O O1 0.652547 0.208951 0.847663
O O2 0.440387 0.128935 0.928973
O O3 0.500765 0.139419 0.146692
O O4 0.177029 0.201408 0.245634
O O5 0.230928 0.299410 0.220066
O O6 0.594539 0.368785 0.074925
O O7 0.330471 0.375274 0.006425
O O8 0.695889 0.305077 0.811455
O O9 0.576308 0.948357 0.728232
O O10 0.561131 0.048255 0.734194
O O11 0.000000 0.000000 0.500000
O O12 0.500000 0.000000 0.000000
O O13 0.976299 0.392660 0.025517
O O14 0.900756 0.748163 0.917562
O O15 0.220103 0.745063 0.462752
#
# Coordination Sequence:
#
# PCOD9249048 Si02
#       7
#     4   4   4   4   4   4   4
#     4  11  20  35  62  84 120 173 210 263 326 394
#     4  11  24  39  62  96 128 173 220 275 328 406
#     4  10  22  45  74 101 135 181 228 287 355 417
#     4  11  23  41  66  92 128 168 223 274 344 401
#     4  11  22  37  56  88 129 166 215 264 324 393
#     4  11  22  37  56  88 129 166 215 264 324 393
#     4  11  23  41  66  92 128 168 223 274 344 401
#
# _framework density 22.030525999999998
#
# number of rings (size 3 to 8) (size 9 to 14) (size 15 to 20)
#    0.000    1.143    1.429    6.000    0.000    5.143 
#    0.000    0.000    0.000    3.429    0.000    0.000 
#    0.000    0.000    0.000    0.000    0.000    0.000 
#
# Total GULP energy -155936.739755 kJ/mol
# GULP energy per Si atom -5569.169277 kJ/mol
# Density = 2.198038 g / cm^3
# Si number density = 22.030526 Si / 1000 Ang^3
#
#
#
# Elastic Constant Matrix: (Units=GPa)
#
#
# Indices 1 2 3 4 5 6 
#
# 1 75.1561 44.4946 22.5068 0.0000 22.2258 0.0000
# 2 44.4946 168.7874 23.3261 0.0000 9.6190 0.0000
# 3 22.5068 23.3261 93.0496 0.0000 15.5311 0.0000
# 4 0.0000 0.0000 0.0000 23.3130 0.0000 8.3063
# 5 22.2258 9.6190 15.5311 0.0000 24.0509 0.0000
# 6 0.0000 0.0000 0.0000 8.3063 0.0000 27.4334
#
#
#
# Elastic Compliance Matrix: (Units=1/GPa)
#
#
# Indices 1 2 3 4 5 6 
#
# 1 0.021420 -0.004502 -0.001176 0.000000 -0.017235 0.000000
# 2 -0.004502 0.007141 -0.001030 0.000000 0.001969 0.000000
# 3 -0.001176 -0.001030 0.012373 0.000000 -0.006492 0.000000
# 4 0.000000 0.000000 0.000000 0.048081 0.000000 -0.014558
# 5 -0.017235 0.001969 -0.006492 0.000000 0.060910 0.000000
# 6 0.000000 0.000000 0.000000 -0.014558 0.000000 0.040860
#
#
# Mechanical properties :
#
#
# Convention : Reuss Voigt Hill
#
# Bulk Modulus (GPa) = 36.33858 57.51643 46.92750
# Shear Modulus (GPa) = 23.43308 31.40384 27.41846
#
# Velocity S-wave (km/s) = 3.26492 3.77963 3.53167
# Velocity P-wave (km/s) = 5.54468 6.72397 6.16260
#
# Compressibility (1/GPa) = 0.02751897
#
# Stress axis : x y z
#
# Youngs Moduli (GPa) = 46.68586 140.02677 80.82054
#
# Poissons Ratio (x) = 0.63038 0.09503
# Poissons Ratio (y) = 0.21017 0.08325
# Poissons Ratio (z) = 0.05489 0.14423
#
# Static dielectric constant tensor:
#      x y z
#    x 2.088880 0.000000 -0.127160 
#    y 0.000000 1.781380 0.000000 
#    z -0.127160 0.000000 1.897740 
# 
# From -- ./inp_files/11149.got.cif
#   From: 2010.05.17/outbox.cif.g08.bks.cpg/sg14_6_cif.got.tgz:11149.got - 2010.06.03 17:49:19.
