data_PCOD9249510
_publ_section_title
;
Structure prediction by ZEFSAII (Michael W. Deem and Ramdas Pophale) SiO2 
 PCOD9249510
Probable space group: P 21/C
;
_chemical_formula_sum "Si O2"
_cell_formula_units_Z 20
_cell_length_a 17.545283
_cell_length_b 11.763156
_cell_length_c 5.272720
_cell_angle_alpha 90.000000
_cell_angle_beta 134.313620
_cell_angle_gamma 90.000000
_cell_volume 778.654472
_symmetry_space_group_name_H-M "P 21/C"
_symmetry_group_IT_number 14
_symmetry_cell_setting 'monoclinic'
loop_
_space_group_symop_operation_xyz
x,y,z
-x,1/2+y,1/2-z
-x,-y,-z
x,1/2-y,1/2+z
loop_
_atom_site_type_symbol
_atom_site_label
_atom_site_fract_x
_atom_site_fract_y
_atom_site_fract_z
Si Si1 0.362047 0.825549 0.412495
Si Si2 0.104117 0.810769 0.211451
Si Si3 0.132045 0.287577 0.302745
Si Si4 0.217004 0.999885 0.778731
Si Si5 0.398173 0.174582 0.096005
O O1 0.352839 0.776894 0.679214
O O2 0.482005 0.872849 0.661017
O O3 0.281472 0.920993 0.123435
O O4 0.139723 0.724599 0.516217
O O5 0.147558 0.928982 0.414987
O O6 0.977216 0.784288 0.912809
O O7 0.186876 0.275311 0.698069
O O8 0.133558 0.418818 0.232810
O O9 0.308199 0.077879 0.865798
O O10 0.392513 0.229271 0.364143
#
# Coordination Sequence:
#
# PCOD9249510 Si02
#       5
#     4   4   4   4   4
#     4  10  23  42  63  93 127 157 201 254 302 364
#     4  10  24  42  60  89 123 159 207 257 299 355
#     4  10  24  42  60  89 123 159 207 257 299 355
#     4  12  23  40  68  90 122 168 205 244 312 364
#     4  10  23  42  63  93 127 157 201 254 302 364
#
# _framework density 25.685331999999999
#
# number of rings (size 3 to 8) (size 9 to 14) (size 15 to 20)
#    0.000    1.600    0.000    3.000    0.000   12.800 
#    0.000    6.000    0.000    0.000    0.000    0.000 
#    0.000    0.000    0.000    0.000    0.000    0.000 
#
# Total GULP energy -111823.313886 kJ/mol
# GULP energy per Si atom -5591.165694 kJ/mol
# Density = 2.562687 g / cm^3
# Si number density = 25.685332 Si / 1000 Ang^3
#
#
#
# Elastic Constant Matrix: (Units=GPa)
#
#
# Indices 1 2 3 4 5 6 
#
# 1 95.7821 40.1920 40.1939 0.0000 -21.1892 0.0000
# 2 40.1920 122.4550 42.8437 0.0000 6.8596 0.0000
# 3 40.1939 42.8437 125.0474 0.0000 5.8251 0.0000
# 4 0.0000 0.0000 0.0000 53.1410 0.0000 16.6452
# 5 -21.1892 6.8596 5.8251 0.0000 69.5739 0.0000
# 6 0.0000 0.0000 0.0000 16.6452 0.0000 21.1382
#
#
#
# Elastic Compliance Matrix: (Units=1/GPa)
#
#
# Indices 1 2 3 4 5 6 
#
# 1 0.014734 -0.003845 -0.003659 0.000000 0.005173 0.000000
# 2 -0.003845 0.010312 -0.002204 0.000000 -0.002003 0.000000
# 3 -0.003659 -0.002204 0.010009 0.000000 -0.001735 0.000000
# 4 0.000000 0.000000 0.000000 0.024979 0.000000 -0.019670
# 5 0.005173 -0.002003 -0.001735 0.000000 0.016291 0.000000
# 6 0.000000 0.000000 0.000000 -0.019670 0.000000 0.062796
#
#
# Mechanical properties :
#
#
# Convention : Reuss Voigt Hill
#
# Bulk Modulus (GPa) = 63.94767 65.52709 64.73738
# Shear Modulus (GPa) = 30.53423 43.44096 36.98760
#
# Velocity S-wave (km/s) = 3.45161 4.11697 3.79889
# Velocity P-wave (km/s) = 6.39026 6.94018 6.67089
#
# Compressibility (1/GPa) = 0.01563779
#
# Stress axis : x y z
#
# Youngs Moduli (GPa) = 67.87055 96.97820 99.90977
#
# Poissons Ratio (x) = 0.37292 0.36561
# Poissons Ratio (y) = 0.26099 0.22016
# Poissons Ratio (z) = 0.24836 0.21370
#
# Static dielectric constant tensor:
#      x y z
#    x 2.161380 0.000000 0.116920 
#    y 0.000000 2.021650 0.000000 
#    z 0.116920 0.000000 2.130560 
# 
# From -- ./inp_files/3495.got.cif
#   From: 2010.05.17/outbox.cif.g08.bks.cpg/sg14_2_cif.got.tgz:3495.got - 2010.06.03 17:49:19.
