data_PCOD9249662
_publ_section_title
;
Structure prediction by ZEFSAII (Michael W. Deem and Ramdas Pophale) SiO2 
 PCOD9249662
Probable space group: P 21/C
;
_chemical_formula_sum "Si O2"
_cell_formula_units_Z 16
_cell_length_a 9.232019
_cell_length_b 5.234757
_cell_length_c 18.425694
_cell_angle_alpha 90.000000
_cell_angle_beta 130.521185
_cell_angle_gamma 90.000000
_cell_volume 676.901360
_symmetry_space_group_name_H-M "P 21/C"
_symmetry_group_IT_number 14
_symmetry_cell_setting 'monoclinic'
loop_
_space_group_symop_operation_xyz
x,y,z
-x,1/2+y,1/2-z
-x,-y,-z
x,1/2-y,1/2+z
loop_
_atom_site_type_symbol
_atom_site_label
_atom_site_fract_x
_atom_site_fract_y
_atom_site_fract_z
Si Si1 0.161222 0.440117 0.113009
Si Si2 0.906883 0.750954 0.251742
Si Si3 0.224540 0.935731 0.083453
Si Si4 0.502905 0.248384 0.950686
O O1 0.075439 0.333565 0.159138
O O2 0.248375 0.721137 0.152959
O O3 0.299098 0.218312 0.127205
O O4 0.000000 0.500000 0.000000
O O5 0.685767 0.739692 0.159311
O O6 0.000007 0.478087 0.265224
O O7 0.321166 0.804665 0.045762
O O8 0.000000 0.000000 0.000000
O O9 0.500000 0.500000 0.000000
O O10 0.500000 0.000000 0.000000
#
# Coordination Sequence:
#
# PCOD9249662 Si02
#       4
#     4   4   4   4
#     4  10  23  42  73 103 147 195 253 308 388 454
#     4  12  28  46  75 112 157 201 258 322 395 469
#     4  10  23  42  73 103 145 195 253 306 391 454
#     4  12  28  46  75 112 156 200 258 321 394 466
#
# _framework density 23.637119999999999
#
# number of rings (size 3 to 8) (size 9 to 14) (size 15 to 20)
#    0.000    1.000    0.000    4.500   21.000    2.000 
#    0.000    0.000    0.000    0.000    0.000    0.000 
#    0.000    0.000    0.000    0.000    0.000    0.000 
#
# Total GULP energy -89439.410951 kJ/mol
# GULP energy per Si atom -5589.963184 kJ/mol
# Density = 2.358332 g / cm^3
# Si number density = 23.637120 Si / 1000 Ang^3
#
#
#
# Elastic Constant Matrix: (Units=GPa)
#
#
# Indices 1 2 3 4 5 6 
#
# 1 143.9881 36.4827 38.6714 0.0000 4.1115 0.0000
# 2 36.4827 204.1556 7.5061 0.0000 2.7303 0.0000
# 3 38.6714 7.5061 116.8128 0.0000 8.6933 0.0000
# 4 0.0000 0.0000 0.0000 20.3559 0.0000 -18.4772
# 5 4.1115 2.7303 8.6933 0.0000 41.3910 0.0000
# 6 0.0000 0.0000 0.0000 -18.4772 0.0000 46.4942
#
#
#
# Elastic Compliance Matrix: (Units=1/GPa)
#
#
# Indices 1 2 3 4 5 6 
#
# 1 0.007969 -0.001328 -0.002540 0.000000 -0.000170 0.000000
# 2 -0.001328 0.005134 0.000127 0.000000 -0.000233 0.000000
# 3 -0.002540 0.000127 0.009524 0.000000 -0.001756 0.000000
# 4 0.000000 0.000000 0.000000 0.076847 0.000000 0.030539
# 5 -0.000170 -0.000233 -0.001756 0.000000 0.024561 0.000000
# 6 0.000000 0.000000 0.000000 0.030539 0.000000 0.033645
#
#
# Mechanical properties :
#
#
# Convention : Reuss Voigt Hill
#
# Bulk Modulus (GPa) = 66.03032 70.03076 68.03054
# Shear Modulus (GPa) = 29.37558 47.13466 38.25512
#
# Velocity S-wave (km/s) = 3.52912 4.47037 4.02734
# Velocity P-wave (km/s) = 6.67847 7.50583 7.10420
#
# Compressibility (1/GPa) = 0.01514456
#
# Stress axis : x y z
#
# Youngs Moduli (GPa) = 125.49218 194.77829 104.99657
#
# Poissons Ratio (x) = 0.25873 0.26669
# Poissons Ratio (y) = 0.16670 -0.01336
# Poissons Ratio (z) = 0.31875 -0.02478
#
# Static dielectric constant tensor:
#      x y z
#    x 1.968120 0.000000 0.069170 
#    y 0.000000 2.053230 0.000000 
#    z 0.069170 0.000000 1.947550 
# 
# From -- ./inp_files/54065.got.cif
#   From: 2010.05.17/outbox.cif.g08.bks.cpg/sg14_28_cif.got.tgz:54065.got - 2010.06.03 17:49:19.
