data_PCOD9249964
_publ_section_title
;
Structure prediction by ZEFSAII (Michael W. Deem and Ramdas Pophale) SiO2 
 PCOD9249964
Probable space group: P 21/C
;
_chemical_formula_sum "Si O2"
_cell_formula_units_Z 26
_cell_length_a 15.268069
_cell_length_b 4.975066
_cell_length_c 13.156748
_cell_angle_alpha 90.000000
_cell_angle_beta 83.364527
_cell_angle_gamma 90.000000
_cell_volume 992.687541
_symmetry_space_group_name_H-M "P 21/C"
_symmetry_group_IT_number 14
_symmetry_cell_setting 'monoclinic'
loop_
_space_group_symop_operation_xyz
x,y,z
-x,1/2+y,1/2-z
-x,-y,-z
x,1/2-y,1/2+z
loop_
_atom_site_type_symbol
_atom_site_label
_atom_site_fract_x
_atom_site_fract_y
_atom_site_fract_z
Si Si1 0.453974 0.667409 0.711269
Si Si2 0.010894 0.024075 0.679653
Si Si3 0.254046 0.781424 0.732365
Si Si4 0.837442 0.598620 0.400637
Si Si5 0.296196 0.067919 0.515759
Si Si6 0.854100 0.249475 0.076743
Si Si7 0.500000 0.000000 0.500000
O O1 0.493188 0.367954 0.719233
O O2 0.350544 0.677239 0.752150
O O3 0.467977 0.784875 0.596485
O O4 0.934860 0.080984 0.609031
O O5 0.991169 0.224310 0.777562
O O6 0.103482 0.139576 0.626160
O O7 0.192151 0.543487 0.698365
O O8 0.277052 0.964012 0.632746
O O9 0.193060 0.916929 0.825911
O O10 0.887048 0.421060 0.477185
O O11 0.741975 0.633284 0.469099
O O12 0.227821 0.929547 0.449540
O O13 0.397584 0.043414 0.479448
#
# Coordination Sequence:
#
# PCOD9249964 Si02
#       7
#     4   4   4   4   4   4   2
#     4  11  26  44  72 105 143 193 246 297 368 441
#     4  12  27  48  76 105 149 191 237 305 369 434
#     4  10  23  45  65 100 145 184 238 301 361 434
#     4  11  25  43  72 104 137 194 238 303 364 436
#     4  10  24  43  71 103 144 189 244 297 364 435
#     4  11  24  44  70 103 141 188 245 297 364 437
#     4  10  24  48  70 108 152 196 242 314 362 434
#
# _framework density 26.191524999999999
#
# number of rings (size 3 to 8) (size 9 to 14) (size 15 to 20)
#    0.000    1.231    1.538    2.308   10.769    2.462 
#    0.000    0.000    0.000    0.000    0.000    0.000 
#    0.000    0.000    0.000    0.000    0.000    0.000 
#
# Total GULP energy -145110.384659 kJ/mol
# GULP energy per Si atom -5581.168641 kJ/mol
# Density = 2.613191 g / cm^3
# Si number density = 26.191525 Si / 1000 Ang^3
#
#
#
# Elastic Constant Matrix: (Units=GPa)
#
#
# Indices 1 2 3 4 5 6 
#
# 1 210.2208 8.3776 39.6094 0.0000 -9.8812 0.0000
# 2 8.3776 45.8128 8.6195 0.0000 -3.5753 0.0000
# 3 39.6094 8.6195 86.6696 0.0000 -7.7881 0.0000
# 4 0.0000 0.0000 0.0000 27.3263 0.0000 -9.6289
# 5 -9.8812 -3.5753 -7.7881 0.0000 39.4705 0.0000
# 6 0.0000 0.0000 0.0000 -9.6289 0.0000 19.6359
#
#
#
# Elastic Compliance Matrix: (Units=1/GPa)
#
#
# Indices 1 2 3 4 5 6 
#
# 1 0.005243 -0.000466 -0.002276 0.000000 0.000821 0.000000
# 2 -0.000466 0.022386 -0.001875 0.000000 0.001541 0.000000
# 3 -0.002276 -0.001875 0.012927 0.000000 0.001811 0.000000
# 4 0.000000 0.000000 0.000000 0.044239 0.000000 0.021693
# 5 0.000821 0.001541 0.001811 0.000000 0.026038 0.000000
# 6 0.000000 0.000000 0.000000 0.021693 0.000000 0.061565
#
#
# Mechanical properties :
#
#
# Convention : Reuss Voigt Hill
#
# Bulk Modulus (GPa) = 31.92602 50.65736 41.29169
# Shear Modulus (GPa) = 26.03174 36.35965 31.19570
#
# Velocity S-wave (km/s) = 3.15604 3.72993 3.45492
# Velocity P-wave (km/s) = 5.04942 6.15897 5.63159
#
# Compressibility (1/GPa) = 0.03132242
#
# Stress axis : x y z
#
# Youngs Moduli (GPa) = 190.73356 44.67027 77.35515
#
# Poissons Ratio (x) = 0.02084 0.17605
# Poissons Ratio (y) = 0.08897 0.14502
# Poissons Ratio (z) = 0.43409 0.08374
#
# Static dielectric constant tensor:
#      x y z
#    x 1.980240 0.000000 -0.005440 
#    y 0.000000 2.122930 0.000000 
#    z -0.005440 0.000000 2.191910 
# 
# From -- ./inp_files/45875.got.cif
#   From: 2010.05.17/outbox.cif.g08.bks.cpg/sg14_23_cif.got.tgz:45875.got - 2010.06.03 17:49:19.
