data_PCOD9249453
_publ_section_title
;
Structure prediction by ZEFSAII (Michael W. Deem and Ramdas Pophale) SiO2 
 PCOD9249453
Probable space group: P 21/C
;
_chemical_formula_sum "Si O2"
_cell_formula_units_Z 28
_cell_length_a 8.932336
_cell_length_b 30.653353
_cell_length_c 5.614123
_cell_angle_alpha 90.000000
_cell_angle_beta 50.576813
_cell_angle_gamma 90.000000
_cell_volume 1187.436288
_symmetry_space_group_name_H-M "P 21/C"
_symmetry_group_IT_number 14
_symmetry_cell_setting 'monoclinic'
loop_
_space_group_symop_operation_xyz
x,y,z
-x,1/2+y,1/2-z
-x,-y,-z
x,1/2-y,1/2+z
loop_
_atom_site_type_symbol
_atom_site_label
_atom_site_fract_x
_atom_site_fract_y
_atom_site_fract_z
Si Si1 0.860594 0.351176 0.628411
Si Si2 0.628534 0.726636 0.446820
Si Si3 0.942520 0.241647 0.980454
Si Si4 0.191037 0.909699 0.427846
Si Si5 0.620838 0.002697 0.622883
Si Si6 0.493148 0.640175 0.341834
Si Si7 0.866100 0.916173 0.397436
O O1 0.989941 0.309590 0.440121
O O2 0.653359 0.343261 0.714143
O O3 0.968355 0.395175 0.435600
O O4 0.827747 0.362075 0.933965
O O5 0.579067 0.744377 0.760812
O O6 0.547599 0.678937 0.467513
O O7 0.864666 0.729027 0.209887
O O8 0.839141 0.250026 0.835426
O O9 0.982242 0.918903 0.527832
O O10 0.266890 0.951269 0.492947
O O11 0.367973 0.899905 0.071092
O O12 0.773528 0.963103 0.451020
O O13 0.500000 0.000000 0.500000
O O14 0.500000 0.000000 0.000000
O O15 0.692788 0.618583 0.059672
#
# Coordination Sequence:
#
# PCOD9249453 Si02
#       7
#     4   4   4   4   4   4   4
#     4  11  27  44  74 109 148 195 254 310 373 444
#     4  10  23  41  68 100 139 190 245 291 367 431
#     4  10  23  44  69 101 145 191 247 302 367 435
#     4  11  27  46  75 112 147 195 251 307 375 446
#     4  12  27  51  79 112 153 197 248 305 375 452
#     4  11  25  46  71 107 146 194 246 310 369 442
#     4  11  25  47  78 106 151 198 245 305 375 449
#
# _framework density 23.580213000000001
#
# number of rings (size 3 to 8) (size 9 to 14) (size 15 to 20)
#    0.000    1.143    1.429    3.000   14.000    2.857 
#    0.000    0.000    0.000    0.000    0.000    0.000 
#    0.000    0.000    0.000    0.000    0.000    0.000 
#
# Total GULP energy -156263.373465 kJ/mol
# GULP energy per Si atom -5580.834767 kJ/mol
# Density = 2.352654 g / cm^3
# Si number density = 23.580213 Si / 1000 Ang^3
#
#
#
# Elastic Constant Matrix: (Units=GPa)
#
#
# Indices 1 2 3 4 5 6 
#
# 1 136.9682 19.8311 45.5837 0.0000 -7.5725 0.0000
# 2 19.8311 91.3032 16.6249 0.0000 -0.7820 0.0000
# 3 45.5837 16.6249 66.8003 0.0000 10.3511 0.0000
# 4 0.0000 0.0000 0.0000 35.0615 0.0000 -2.4533
# 5 -7.5725 -0.7820 10.3511 0.0000 46.0585 0.0000
# 6 0.0000 0.0000 0.0000 -2.4533 0.0000 42.1722
#
#
#
# Elastic Compliance Matrix: (Units=1/GPa)
#
#
# Indices 1 2 3 4 5 6 
#
# 1 0.009958 -0.000846 -0.007083 0.000000 0.003215 0.000000
# 2 -0.000846 0.011578 -0.002397 0.000000 0.000596 0.000000
# 3 -0.007083 -0.002397 0.021330 0.000000 -0.005999 0.000000
# 4 0.000000 0.000000 0.000000 0.028638 0.000000 0.001666
# 5 0.003215 0.000596 -0.005999 0.000000 0.023598 0.000000
# 6 0.000000 0.000000 0.000000 0.001666 0.000000 0.023809
#
#
# Mechanical properties :
#
#
# Convention : Reuss Voigt Hill
#
# Bulk Modulus (GPa) = 45.01563 51.01679 48.01621
# Shear Modulus (GPa) = 34.02118 38.86055 36.44086
#
# Velocity S-wave (km/s) = 3.80252 4.06398 3.93542
# Velocity P-wave (km/s) = 6.19764 6.61087 6.40759
#
# Compressibility (1/GPa) = 0.02221451
#
# Stress axis : x y z
#
# Youngs Moduli (GPa) = 100.41700 86.37281 46.88339
#
# Poissons Ratio (x) = 0.07305 0.33209
# Poissons Ratio (y) = 0.08492 0.11236
# Poissons Ratio (z) = 0.71128 0.20701
#
# Static dielectric constant tensor:
#      x y z
#    x 1.891010 0.000000 0.080020 
#    y 0.000000 1.874200 0.000000 
#    z 0.080020 0.000000 2.006150 
# 
# From -- ./inp_files/2062.got.cif
#   From: 2010.05.17/outbox.cif.g08.bks.cpg/sg14_2_cif.got.tgz:2062.got - 2010.06.03 17:49:19.
