data_PCOD9249683
_publ_section_title
;
Structure prediction by ZEFSAII (Michael W. Deem and Ramdas Pophale) SiO2 
 PCOD9249683
Probable space group: P 21/C
;
_chemical_formula_sum "Si O2"
_cell_formula_units_Z 20
_cell_length_a 7.503555
_cell_length_b 5.052114
_cell_length_c 23.080971
_cell_angle_alpha 90.000000
_cell_angle_beta 117.014523
_cell_angle_gamma 90.000000
_cell_volume 779.505285
_symmetry_space_group_name_H-M "P 21/C"
_symmetry_group_IT_number 14
_symmetry_cell_setting 'monoclinic'
loop_
_space_group_symop_operation_xyz
x,y,z
-x,1/2+y,1/2-z
-x,-y,-z
x,1/2-y,1/2+z
loop_
_atom_site_type_symbol
_atom_site_label
_atom_site_fract_x
_atom_site_fract_y
_atom_site_fract_z
Si Si1 0.386799 0.298366 0.750510
Si Si2 0.971112 0.228435 0.703721
Si Si3 0.920704 0.729965 0.561252
Si Si4 0.255823 0.726885 0.026096
Si Si5 0.680026 0.887299 0.128477
O O1 0.453838 0.599681 0.754097
O O2 0.166109 0.241900 0.691565
O O3 0.371098 0.213900 0.815181
O O4 0.986698 0.976932 0.746848
O O5 0.757777 0.309441 0.645595
O O6 0.860880 0.438736 0.530561
O O7 0.862835 0.747245 0.619896
O O8 0.145884 0.775302 0.572603
O O9 0.783141 0.940898 0.506884
O O10 0.481062 0.827077 0.063527
#
# Coordination Sequence:
#
# PCOD9249683 Si02
#       5
#     4   4   4   4   4
#     4  11  25  44  65  99 138 173 226 279 321 396
#     4  10  23  43  63  96 133 170 223 274 323 392
#     4  10  23  43  65 100 132 165 220 273 324 398
#     4  10  23  43  66  99 132 165 218 276 325 393
#     4  11  24  43  73  94 132 181 216 264 345 381
#
# _framework density 25.657298000000001
#
# number of rings (size 3 to 8) (size 9 to 14) (size 15 to 20)
#    0.000    1.600    0.000    3.600    2.800    9.600 
#    7.200    0.000    0.000    0.000    0.000    0.000 
#    0.000    0.000    0.000    0.000    0.000    0.000 
#
# Total GULP energy -111941.611315 kJ/mol
# GULP energy per Si atom -5597.080566 kJ/mol
# Density = 2.559890 g / cm^3
# Si number density = 25.657298 Si / 1000 Ang^3
#
#
#
# Elastic Constant Matrix: (Units=GPa)
#
#
# Indices 1 2 3 4 5 6 
#
# 1 106.4539 -6.9612 35.9834 0.0000 -8.9235 0.0000
# 2 -6.9612 84.4465 -0.4573 0.0000 -7.9263 0.0000
# 3 35.9834 -0.4573 60.9790 0.0000 -32.8663 0.0000
# 4 0.0000 0.0000 0.0000 26.9888 0.0000 -3.9159
# 5 -8.9235 -7.9263 -32.8663 0.0000 53.8650 0.0000
# 6 0.0000 0.0000 0.0000 -3.9159 0.0000 48.7881
#
#
#
# Elastic Compliance Matrix: (Units=1/GPa)
#
#
# Indices 1 2 3 4 5 6 
#
# 1 0.012201 0.000639 -0.009022 0.000000 -0.003389 0.000000
# 2 0.000639 0.012141 0.001094 0.000000 0.002560 0.000000
# 3 -0.009022 0.001094 0.031308 0.000000 0.017770 0.000000
# 4 0.000000 0.000000 0.000000 0.037489 0.000000 0.003009
# 5 -0.003389 0.002560 0.017770 0.000000 0.029222 0.000000
# 6 0.000000 0.000000 0.000000 0.003009 0.000000 0.020738
#
#
# Mechanical properties :
#
#
# Convention : Reuss Voigt Hill
#
# Bulk Modulus (GPa) = 24.34788 34.33437 29.34112
# Shear Modulus (GPa) = 29.17687 40.81601 34.99644
#
# Velocity S-wave (km/s) = 3.37586 3.99283 3.69724
# Velocity P-wave (km/s) = 4.97046 5.88794 5.44855
#
# Compressibility (1/GPa) = 0.04107134
#
# Stress axis : x y z
#
# Youngs Moduli (GPa) = 81.96102 82.36792 31.94030
#
# Poissons Ratio (x) = -0.05261 0.28816
# Poissons Ratio (y) = -0.05235 -0.03493
# Poissons Ratio (z) = 0.73944 -0.09009
#
# Static dielectric constant tensor:
#      x y z
#    x 2.079540 0.000000 0.039950 
#    y 0.000000 2.047150 0.000000 
#    z 0.039950 0.000000 2.094090 
# 
# From -- ./inp_files/71480.got.cif
#   From: 2010.05.17/outbox.cif.g08.bks.cpg/sg14_36_cif.got.tgz:71480.got - 2010.06.03 17:49:19.
