data_PCOD9249945
_publ_section_title
;
Structure prediction by ZEFSAII (Michael W. Deem and Ramdas Pophale) SiO2 
 PCOD9249945
Probable space group: P 21/C
;
_chemical_formula_sum "Si O2"
_cell_formula_units_Z 32
_cell_length_a 15.734496
_cell_length_b 10.160307
_cell_length_c 14.306795
_cell_angle_alpha 90.000000
_cell_angle_beta 41.430172
_cell_angle_gamma 90.000000
_cell_volume 1513.448362
_symmetry_space_group_name_H-M "P 21/C"
_symmetry_group_IT_number 14
_symmetry_cell_setting 'monoclinic'
loop_
_space_group_symop_operation_xyz
x,y,z
-x,1/2+y,1/2-z
-x,-y,-z
x,1/2-y,1/2+z
loop_
_atom_site_type_symbol
_atom_site_label
_atom_site_fract_x
_atom_site_fract_y
_atom_site_fract_z
Si Si1 0.401853 0.784983 0.369352
Si Si2 0.060486 0.640848 0.465137
Si Si3 0.595365 0.521680 0.632841
Si Si4 0.865252 0.868647 0.839453
Si Si5 0.754572 0.261513 0.325533
Si Si6 0.663355 0.046095 0.742485
Si Si7 0.967724 0.368512 0.293542
Si Si8 0.891848 0.885930 0.597896
O O1 0.405077 0.631311 0.336723
O O2 0.349514 0.793212 0.517051
O O3 0.533275 0.868613 0.252043
O O4 0.314088 0.860990 0.366252
O O5 0.184272 0.660164 0.298307
O O6 0.076717 0.659644 0.563243
O O7 0.000000 0.500000 0.500000
O O8 0.960520 0.751774 0.513371
O O9 0.734753 0.574088 0.490164
O O10 0.761884 0.926015 0.653118
O O11 0.488315 0.518287 0.638113
O O12 0.855112 0.872747 0.736456
O O13 0.907717 0.720635 0.828118
O O14 0.976246 0.973943 0.775974
O O15 0.862322 0.321484 0.305664
O O16 0.699189 0.376544 0.306251
O O17 0.000000 0.000000 0.500000
#
# Coordination Sequence:
#
# PCOD9249945 Si02
#       8
#     4   4   4   4   4   4   4   4
#     4  10  24  46  71  97 138 183 240 286 356 418
#     4  11  25  43  62 108 148 178 229 301 358 414
#     4  10  24  48  68 102 137 184 239 296 346 431
#     4  11  23  42  70 102 140 180 233 287 358 414
#     4  12  21  44  71  99 135 192 227 289 363 418
#     4  10  23  44  74  95 140 182 245 286 348 432
#     4  11  23  42  71 100 141 182 226 293 354 427
#     4  11  21  40  68 104 131 182 242 279 348 430
#
# _framework density 21.143765999999999
#
# number of rings (size 3 to 8) (size 9 to 14) (size 15 to 20)
#    0.750    0.500    3.750    1.500    1.750    2.000 
#   15.750    0.625    0.000    0.000    0.000    0.000 
#    0.000    0.000    0.000    0.000    0.000    0.000 
#
# Total GULP energy -178619.791427 kJ/mol
# GULP energy per Si atom -5581.868482 kJ/mol
# Density = 2.109564 g / cm^3
# Si number density = 21.143766 Si / 1000 Ang^3
#
#
#
# Elastic Constant Matrix: (Units=GPa)
#
#
# Indices 1 2 3 4 5 6 
#
# 1 80.7602 26.5865 5.9634 0.0000 1.1208 0.0000
# 2 26.5865 134.5469 56.3036 0.0000 -19.2075 0.0000
# 3 5.9634 56.3036 105.1914 0.0000 3.0623 0.0000
# 4 0.0000 0.0000 0.0000 27.2700 0.0000 -4.8704
# 5 1.1208 -19.2075 3.0623 0.0000 32.7884 0.0000
# 6 0.0000 0.0000 0.0000 -4.8704 0.0000 32.6388
#
#
#
# Elastic Compliance Matrix: (Units=1/GPa)
#
#
# Indices 1 2 3 4 5 6 
#
# 1 0.013500 -0.003555 0.001215 0.000000 -0.002658 0.000000
# 2 -0.003555 0.011911 -0.006398 0.000000 0.007696 0.000000
# 3 0.001215 -0.006398 0.013008 0.000000 -0.005004 0.000000
# 4 0.000000 0.000000 0.000000 0.037674 0.000000 0.005622
# 5 -0.002658 0.007696 -0.005004 0.000000 0.035565 0.000000
# 6 0.000000 0.000000 0.000000 0.005622 0.000000 0.031477
#
#
# Mechanical properties :
#
#
# Convention : Reuss Voigt Hill
#
# Bulk Modulus (GPa) = 47.75039 55.35616 51.55328
# Shear Modulus (GPa) = 29.83425 33.98247 31.90836
#
# Velocity S-wave (km/s) = 3.76043 4.01335 3.88895
# Velocity P-wave (km/s) = 6.44105 6.90751 6.67835
#
# Compressibility (1/GPa) = 0.02094224
#
# Stress axis : x y z
#
# Youngs Moduli (GPa) = 74.07422 83.95663 76.87764
#
# Poissons Ratio (x) = 0.29851 -0.09342
# Poissons Ratio (y) = 0.26337 0.49185
# Poissons Ratio (z) = -0.09001 0.53714
#
# Static dielectric constant tensor:
#      x y z
#    x 1.781910 0.000000 -0.002470 
#    y 0.000000 1.779760 0.000000 
#    z -0.002470 0.000000 1.792070 
# 
# From -- ./inp_files/50078.got.cif
#   From: 2010.05.17/outbox.cif.g08.bks.cpg/sg14_26_cif.got.tgz:50078.got - 2010.06.03 17:49:19.
