data_PCOD9249413
_publ_section_title
;
Structure prediction by ZEFSAII (Michael W. Deem and Ramdas Pophale) SiO2 
 PCOD9249413
Probable space group: P 21/C
;
_chemical_formula_sum "Si O2"
_cell_formula_units_Z 32
_cell_length_a 13.157016
_cell_length_b 11.190060
_cell_length_c 16.663868
_cell_angle_alpha 90.000000
_cell_angle_beta 143.026926
_cell_angle_gamma 90.000000
_cell_volume 1475.562750
_symmetry_space_group_name_H-M "P 21/C"
_symmetry_group_IT_number 14
_symmetry_cell_setting 'monoclinic'
loop_
_space_group_symop_operation_xyz
x,y,z
-x,1/2+y,1/2-z
-x,-y,-z
x,1/2-y,1/2+z
loop_
_atom_site_type_symbol
_atom_site_label
_atom_site_fract_x
_atom_site_fract_y
_atom_site_fract_z
Si Si1 0.599204 0.510166 0.942093
Si Si2 0.248836 0.858137 0.703870
Si Si3 0.662660 0.124046 0.836595
Si Si4 0.514509 0.915161 0.110005
Si Si5 0.371477 0.168610 0.390046
Si Si6 0.075923 0.901233 0.438074
Si Si7 0.990701 0.128688 0.129601
Si Si8 0.832164 0.435730 0.693348
O O1 0.448634 0.534861 0.785389
O O2 0.530367 0.403506 0.954356
O O3 0.633100 0.626050 0.019820
O O4 0.763308 0.469503 0.997007
O O5 0.329714 0.745798 0.709714
O O6 0.098904 0.891895 0.548070
O O7 0.187452 0.827045 0.755346
O O8 0.375210 0.970350 0.794033
O O9 0.564934 0.141457 0.858947
O O10 0.853018 0.080612 0.978756
O O11 0.601206 0.806949 0.115486
O O12 0.352482 0.959849 0.957796
O O13 0.190347 0.126032 0.239572
O O14 0.065345 0.766763 0.400055
O O15 0.912593 0.966190 0.301736
O O16 0.951972 0.075913 0.192544
#
# Coordination Sequence:
#
# PCOD9249413 Si02
#       8
#     4   4   4   4   4   4   4   4
#     4  11  22  42  68  93 129 171 217 257 326 384
#     4  11  22  40  66  95 127 169 213 264 326 383
#     4  10  23  41  65  91 132 166 209 267 322 385
#     4  11  23  41  66  94 130 168 216 268 321 383
#     4  11  23  41  68  95 126 175 216 263 318 383
#     4  11  22  42  66  92 128 171 210 267 318 387
#     4  10  23  42  62  91 130 166 212 264 318 377
#     4  11  22  39  61  92 127 163 210 261 317 373
#
# _framework density 21.686641999999999
#
# number of rings (size 3 to 8) (size 9 to 14) (size 15 to 20)
#    0.000    1.250    2.500    4.500    0.000    3.500 
#    0.000    0.000    2.750    0.000    0.000    0.000 
#    0.000    0.000    0.000    0.000    0.000    0.000 
#
# Total GULP energy -178645.835843 kJ/mol
# GULP energy per Si atom -5582.682370 kJ/mol
# Density = 2.163728 g / cm^3
# Si number density = 21.686642 Si / 1000 Ang^3
#
#
#
# Elastic Constant Matrix: (Units=GPa)
#
#
# Indices 1 2 3 4 5 6 
#
# 1 34.8544 -1.6870 1.6166 0.0000 6.6608 0.0000
# 2 -1.6870 22.3918 3.9740 0.0000 -5.5437 0.0000
# 3 1.6166 3.9740 121.1482 0.0000 -1.1117 0.0000
# 4 0.0000 0.0000 0.0000 35.5630 0.0000 0.9463
# 5 6.6608 -5.5437 -1.1117 0.0000 38.2224 0.0000
# 6 0.0000 0.0000 0.0000 0.9463 0.0000 29.5096
#
#
#
# Elastic Compliance Matrix: (Units=1/GPa)
#
#
# Indices 1 2 3 4 5 6 
#
# 1 0.029728 0.001077 -0.000478 0.000000 -0.005038 0.000000
# 2 0.001077 0.046621 -0.001484 0.000000 0.006531 0.000000
# 3 -0.000478 -0.001484 0.008310 0.000000 0.000110 0.000000
# 4 0.000000 0.000000 0.000000 0.028143 0.000000 -0.000903
# 5 -0.005038 0.006531 0.000110 0.000000 0.027991 0.000000
# 6 0.000000 0.000000 0.000000 -0.000903 0.000000 0.033916
#
#
# Mechanical properties :
#
#
# Convention : Reuss Voigt Hill
#
# Bulk Modulus (GPa) = 12.06425 20.68905 16.37665
# Shear Modulus (GPa) = 24.49675 32.29171 28.39423
#
# Velocity S-wave (km/s) = 3.36457 3.86296 3.62234
# Velocity P-wave (km/s) = 4.54629 5.42746 5.00630
#
# Compressibility (1/GPa) = 0.08288956
#
# Stress axis : x y z
#
# Youngs Moduli (GPa) = 33.63844 21.44970 120.33091
#
# Poissons Ratio (x) = -0.02311 0.05755
# Poissons Ratio (y) = -0.03624 0.17854
# Poissons Ratio (z) = 0.01609 0.03183
#
# Static dielectric constant tensor:
#      x y z
#    x 1.872310 0.000000 0.011390 
#    y 0.000000 1.807580 0.000000 
#    z 0.011390 0.000000 1.800880 
# 
# From -- ./inp_files/59501.got.cif
#   From: 2010.05.17/outbox.cif.g08.bks.cpg/sg14_30_cif.got.tgz:59501.got - 2010.06.03 17:49:19.
