data_PCOD9249565
_publ_section_title
;
Structure prediction by ZEFSAII (Michael W. Deem and Ramdas Pophale) SiO2 
 PCOD9249565
Probable space group: P 21/C
;
_chemical_formula_sum "Si O2"
_cell_formula_units_Z 20
_cell_length_a 5.236056
_cell_length_b 4.996201
_cell_length_c 30.921770
_cell_angle_alpha 90.000000
_cell_angle_beta 86.952508
_cell_angle_gamma 90.000000
_cell_volume 807.781534
_symmetry_space_group_name_H-M "P 21/C"
_symmetry_group_IT_number 14
_symmetry_cell_setting 'monoclinic'
loop_
_space_group_symop_operation_xyz
x,y,z
-x,1/2+y,1/2-z
-x,-y,-z
x,1/2-y,1/2+z
loop_
_atom_site_type_symbol
_atom_site_label
_atom_site_fract_x
_atom_site_fract_y
_atom_site_fract_z
Si Si1 0.557340 0.897418 0.805489
Si Si2 0.914201 0.185754 0.859124
Si Si3 0.464374 0.249667 0.031593
Si Si4 0.050649 0.703631 0.911189
Si Si5 0.773448 0.892119 0.716381
O O1 0.789807 0.913692 0.767979
O O2 0.415103 0.613842 0.803216
O O3 0.654722 0.028855 0.849003
O O4 0.360458 0.107887 0.788142
O O5 0.963846 0.411629 0.894626
O O6 0.981017 0.360970 0.815824
O O7 0.074111 0.927197 0.873318
O O8 0.186491 0.219625 0.055843
O O9 0.500000 0.500000 0.000000
O O10 0.500000 0.000000 0.000000
O O11 0.315930 0.712369 0.934364
#
# Coordination Sequence:
#
# PCOD9249565 Si02
#       5
#     4   4   4   4   4
#     4  10  23  42  66  96 141 198 249 298 360 426
#     4  12  26  42  70 104 152 180 246 310 362 420
#     4  12  26  52  78 106 146 184 236 288 366 466
#     4  12  28  44  78 114 142 190 234 302 374 432
#     4  10  23  42  66  96 141 198 249 298 360 426
#
# _framework density 24.759170000000001
#
# number of rings (size 3 to 8) (size 9 to 14) (size 15 to 20)
#    0.000    0.800    0.000    6.000    8.400    6.400 
#    0.000    0.000    0.000    0.000    0.000    0.000 
#    0.000    0.000    0.000    0.000    0.000    0.000 
#
# Total GULP energy -111771.202354 kJ/mol
# GULP energy per Si atom -5588.560118 kJ/mol
# Density = 2.470282 g / cm^3
# Si number density = 24.759170 Si / 1000 Ang^3
#
#
#
# Elastic Constant Matrix: (Units=GPa)
#
#
# Indices 1 2 3 4 5 6 
#
# 1 87.5416 27.2327 17.6577 0.0000 6.5680 0.0000
# 2 27.2327 160.1309 36.4406 0.0000 -0.2903 0.0000
# 3 17.6577 36.4406 52.2909 0.0000 3.9515 0.0000
# 4 0.0000 0.0000 0.0000 58.8678 0.0000 12.0777
# 5 6.5680 -0.2903 3.9515 0.0000 43.7406 0.0000
# 6 0.0000 0.0000 0.0000 12.0777 0.0000 34.5503
#
#
#
# Elastic Compliance Matrix: (Units=1/GPa)
#
#
# Indices 1 2 3 4 5 6 
#
# 1 0.012625 -0.001435 -0.003140 0.000000 -0.001622 0.000000
# 2 -0.001435 0.007597 -0.004863 0.000000 0.000705 0.000000
# 3 -0.003140 -0.004863 0.023702 0.000000 -0.001702 0.000000
# 4 0.000000 0.000000 0.000000 0.018300 0.000000 -0.006397
# 5 -0.001622 0.000705 -0.001702 0.000000 0.023264 0.000000
# 6 0.000000 0.000000 0.000000 -0.006397 0.000000 0.031179
#
#
# Mechanical properties :
#
#
# Convention : Reuss Voigt Hill
#
# Bulk Modulus (GPa) = 39.92593 51.40282 45.66437
# Shear Modulus (GPa) = 34.74829 42.00723 38.37776
#
# Velocity S-wave (km/s) = 3.75033 4.12349 3.94133
# Velocity P-wave (km/s) = 5.90881 6.59372 6.26064
#
# Compressibility (1/GPa) = 0.02504638
#
# Stress axis : x y z
#
# Youngs Moduli (GPa) = 79.20957 131.63314 42.19123
#
# Poissons Ratio (x) = 0.18894 0.13250
# Poissons Ratio (y) = 0.11369 0.20516
# Poissons Ratio (z) = 0.24875 0.64010
#
# Static dielectric constant tensor:
#      x y z
#    x 1.996490 0.000000 -0.073440 
#    y 0.000000 1.909720 0.000000 
#    z -0.073440 0.000000 2.097640 
# 
# From -- ./inp_files/78471.got.cif
#   From: 2010.05.17/outbox.cif.g08.bks.cpg/sg14_40_cif.got.tgz:78471.got - 2010.06.03 17:49:19.
