data_PCOD9249598
_publ_section_title
;
Structure prediction by ZEFSAII (Michael W. Deem and Ramdas Pophale) SiO2 
 PCOD9249598
Probable space group: P 21/C
;
_chemical_formula_sum "Si O2"
_cell_formula_units_Z 12
_cell_length_a 4.256993
_cell_length_b 7.855770
_cell_length_c 12.675309
_cell_angle_alpha 90.000000
_cell_angle_beta 65.593628
_cell_angle_gamma 90.000000
_cell_volume 386.007625
_symmetry_space_group_name_H-M "P 21/C"
_symmetry_group_IT_number 14
_symmetry_cell_setting 'monoclinic'
loop_
_space_group_symop_operation_xyz
x,y,z
-x,1/2+y,1/2-z
-x,-y,-z
x,1/2-y,1/2+z
loop_
_atom_site_type_symbol
_atom_site_label
_atom_site_fract_x
_atom_site_fract_y
_atom_site_fract_z
Si Si1 0.144803 0.625634 0.070734
Si Si2 0.054924 0.639494 0.757329
Si Si3 0.314871 0.897898 0.902406
O O1 0.923573 0.757521 0.173336
O O2 0.221035 0.489426 0.152077
O O3 0.404015 0.759572 0.981800
O O4 0.000000 0.500000 0.000000
O O5 0.177405 0.776936 0.827159
O O6 0.374858 0.520268 0.675560
O O7 0.000000 0.000000 0.000000
#
# Coordination Sequence:
#
# PCOD9249598 Si02
#       3
#     4   4   4
#     4  10  23  42  68 102 139 185 237 292 358 423
#     4  11  23  44  70 102 146 188 237 301 357 428
#     4  11  23  42  68 104 143 189 240 293 360 429
#
# _framework density 31.087468000000001
#
# number of rings (size 3 to 8) (size 9 to 14) (size 15 to 20)
#    0.000    1.333    0.000    5.000    0.000    0.000 
#    0.000   25.000    0.000    0.000    0.000    0.000 
#    0.000    0.000    0.000    0.000    0.000    0.000 
#
# Total GULP energy -67069.472762 kJ/mol
# GULP energy per Si atom -5589.122730 kJ/mol
# Density = 3.101671 g / cm^3
# Si number density = 31.087468 Si / 1000 Ang^3
#
#
#
# Elastic Constant Matrix: (Units=GPa)
#
#
# Indices 1 2 3 4 5 6 
#
# 1 75.7515 84.9750 86.5587 0.0000 -21.5202 0.0000
# 2 84.9750 248.8665 157.4908 0.0000 -12.3441 0.0000
# 3 86.5587 157.4908 187.5363 0.0000 9.0858 0.0000
# 4 0.0000 0.0000 0.0000 209.4968 0.0000 7.7630
# 5 -21.5202 -12.3441 9.0858 0.0000 79.0799 0.0000
# 6 0.0000 0.0000 0.0000 7.7630 0.0000 78.8521
#
#
#
# Elastic Compliance Matrix: (Units=1/GPa)
#
#
# Indices 1 2 3 4 5 6 
#
# 1 0.036907 -0.001904 -0.015997 0.000000 0.011584 0.000000
# 2 -0.001904 0.009064 -0.006815 0.000000 0.001680 0.000000
# 3 -0.015997 -0.006815 0.018806 0.000000 -0.007578 0.000000
# 4 0.000000 0.000000 0.000000 0.004791 0.000000 -0.000472
# 5 0.011584 0.001680 -0.007578 0.000000 0.016931 0.000000
# 6 0.000000 0.000000 0.000000 -0.000472 0.000000 0.012728
#
#
# Mechanical properties :
#
#
# Convention : Reuss Voigt Hill
#
# Bulk Modulus (GPa) = 65.16391 130.02258 97.59325
# Shear Modulus (GPa) = 32.51537 85.69442 59.10490
#
# Velocity S-wave (km/s) = 3.23760 5.25599 4.36506
# Velocity P-wave (km/s) = 5.91464 8.87409 7.54097
#
# Compressibility (1/GPa) = 0.01534592
#
# Stress axis : x y z
#
# Youngs Moduli (GPa) = 27.09510 110.32607 53.17473
#
# Poissons Ratio (x) = 0.21002 0.85065
# Poissons Ratio (y) = 0.05158 0.36237
# Poissons Ratio (z) = 0.43345 0.75183
#
# Static dielectric constant tensor:
#      x y z
#    x 2.406670 0.000000 0.039570 
#    y 0.000000 2.429300 0.000000 
#    z 0.039570 0.000000 2.476050 
# 
# From -- ./inp_files/20095.got.cif
#   From: 2010.05.17/outbox.cif.g08.bks.cpg/sg14_11_cif.got.tgz:20095.got - 2010.06.03 17:49:19.
