data_PCOD9249446
_publ_section_title
;
Structure prediction by ZEFSAII (Michael W. Deem and Ramdas Pophale) SiO2 
 PCOD9249446
Probable space group: P 21/C
;
_chemical_formula_sum "Si O2"
_cell_formula_units_Z 20
_cell_length_a 13.983625
_cell_length_b 10.742651
_cell_length_c 12.239919
_cell_angle_alpha 90.000000
_cell_angle_beta 149.978136
_cell_angle_gamma 90.000000
_cell_volume 919.955253
_symmetry_space_group_name_H-M "P 21/C"
_symmetry_group_IT_number 14
_symmetry_cell_setting 'monoclinic'
loop_
_space_group_symop_operation_xyz
x,y,z
-x,1/2+y,1/2-z
-x,-y,-z
x,1/2-y,1/2+z
loop_
_atom_site_type_symbol
_atom_site_label
_atom_site_fract_x
_atom_site_fract_y
_atom_site_fract_z
Si Si1 0.810629 0.389614 0.599723
Si Si2 0.516105 0.150372 0.635240
Si Si3 0.205639 0.986673 0.256458
Si Si4 0.925884 0.377123 0.157650
Si Si5 0.334142 0.904449 0.804197
O O1 0.599699 0.371992 0.338292
O O2 0.934825 0.274969 0.668888
O O3 0.787860 0.378265 0.707263
O O4 0.894417 0.527675 0.656306
O O5 0.302108 0.110791 0.398276
O O6 0.551580 0.287636 0.629843
O O7 0.656618 0.067969 0.699068
O O8 0.194072 0.900220 0.350900
O O9 0.000000 0.000000 0.000000
O O10 0.813273 0.428379 0.940511
O O11 0.500000 0.000000 0.000000
#
# Coordination Sequence:
#
# PCOD9249446 Si02
#       5
#     4   4   4   4   4
#     4  11  23  44  65  99 136 173 229 277 337 410
#     4  10  23  41  67  95 130 173 220 278 325 402
#     4  11  21  42  69  96 126 170 228 271 325 395
#     4  11  24  41  68  97 135 176 225 278 336 404
#     4  11  24  43  62  95 139 176 220 279 344 404
#
# _framework density 21.740188
#
# number of rings (size 3 to 8) (size 9 to 14) (size 15 to 20)
#    0.000    1.200    4.000    1.800    0.000    3.200 
#    0.000    0.000    0.000    0.000    0.000    0.000 
#    0.000    0.000    0.000    0.000    0.000    0.000 
#
# Total GULP energy -111568.013176 kJ/mol
# GULP energy per Si atom -5578.400659 kJ/mol
# Density = 2.169071 g / cm^3
# Si number density = 21.740188 Si / 1000 Ang^3
#
#
#
# Elastic Constant Matrix: (Units=GPa)
#
#
# Indices 1 2 3 4 5 6 
#
# 1 67.4031 -13.7811 33.3315 0.0000 -23.7810 0.0000
# 2 -13.7811 77.6770 55.5453 0.0000 12.9410 0.0000
# 3 33.3315 55.5453 148.2077 0.0000 -9.6536 0.0000
# 4 0.0000 0.0000 0.0000 33.5804 0.0000 1.4125
# 5 -23.7810 12.9410 -9.6536 0.0000 41.0722 0.0000
# 6 0.0000 0.0000 0.0000 1.4125 0.0000 25.8979
#
#
#
# Elastic Compliance Matrix: (Units=1/GPa)
#
#
# Indices 1 2 3 4 5 6 
#
# 1 0.023642 0.008226 -0.007797 0.000000 0.009265 0.000000
# 2 0.008226 0.022830 -0.010729 0.000000 -0.004952 0.000000
# 3 -0.007797 -0.010729 0.012641 0.000000 0.001837 0.000000
# 4 0.000000 0.000000 0.000000 0.029848 0.000000 -0.001628
# 5 0.009265 -0.004952 0.001837 0.000000 0.031704 0.000000
# 6 0.000000 0.000000 0.000000 -0.001628 0.000000 0.038702
#
#
# Mechanical properties :
#
#
# Convention : Reuss Voigt Hill
#
# Bulk Modulus (GPa) = 25.96368 49.27545 37.61957
# Shear Modulus (GPa) = 25.93296 34.65623 30.29460
#
# Velocity S-wave (km/s) = 3.45752 3.99696 3.73699
# Velocity P-wave (km/s) = 5.28280 6.63444 5.99682
#
# Compressibility (1/GPa) = 0.03851535
#
# Stress axis : x y z
#
# Youngs Moduli (GPa) = 42.29710 43.80123 79.10490
#
# Poissons Ratio (x) = -0.36032 0.61676
# Poissons Ratio (y) = -0.34795 0.84872
# Poissons Ratio (z) = 0.32978 0.46994
#
# Static dielectric constant tensor:
#      x y z
#    x 1.798640 0.000000 0.010750 
#    y 0.000000 2.031050 0.000000 
#    z 0.010750 0.000000 1.798100 
# 
# From -- ./inp_files/32108.got.cif
#   From: 2010.05.17/outbox.cif.g08.bks.cpg/sg14_17_cif.got.tgz:32108.got - 2010.06.03 17:49:19.
