data_PCOD9249500
_publ_section_title
;
Structure prediction by ZEFSAII (Michael W. Deem and Ramdas Pophale) SiO2 
 PCOD9249500
Probable space group: P 21/C
;
_chemical_formula_sum "Si O2"
_cell_formula_units_Z 28
_cell_length_a 7.224278
_cell_length_b 26.686795
_cell_length_c 8.856963
_cell_angle_alpha 90.000000
_cell_angle_beta 46.749213
_cell_angle_gamma 90.000000
_cell_volume 1243.720281
_symmetry_space_group_name_H-M "P 21/C"
_symmetry_group_IT_number 14
_symmetry_cell_setting 'monoclinic'
loop_
_space_group_symop_operation_xyz
x,y,z
-x,1/2+y,1/2-z
-x,-y,-z
x,1/2-y,1/2+z
loop_
_atom_site_type_symbol
_atom_site_label
_atom_site_fract_x
_atom_site_fract_y
_atom_site_fract_z
Si Si1 0.195613 0.541521 0.697096
Si Si2 0.431004 0.220584 0.788052
Si Si3 0.575259 0.995583 0.213935
Si Si4 0.897418 0.216254 0.949628
Si Si5 0.515854 0.825837 0.655787
Si Si6 0.636794 0.925786 0.449488
Si Si7 0.556416 0.351795 0.471898
O O1 0.229283 0.507641 0.528817
O O2 0.308070 0.512339 0.776743
O O3 0.373722 0.590468 0.579448
O O4 0.912543 0.561542 0.861317
O O5 0.706188 0.235465 0.560560
O O6 0.383804 0.269968 0.916934
O O7 0.437081 0.172034 0.889709
O O8 0.190073 0.221945 0.814379
O O9 0.558078 0.042033 0.339194
O O10 0.627226 0.947090 0.286232
O O11 0.786195 0.183120 0.152584
O O12 0.810216 0.182554 0.856867
O O13 0.579890 0.867592 0.500672
O O14 0.589848 0.843322 0.786574
#
# Coordination Sequence:
#
# PCOD9249500 Si02
#       7
#     4   4   4   4   4   4   4
#     4  11  22  40  66  91 122 163 210 259 319 376
#     4   9  19  37  57  85 121 165 202 248 311 362
#     4  10  23  42  62  92 120 159 212 261 316 384
#     4   8  20  36  56  85 123 164 203 252 304 370
#     4   8  21  39  56  88 123 161 205 255 304 377
#     4  11  21  42  63  90 126 164 202 264 323 372
#     4   9  20  38  58  87 126 159 200 265 297 374
#
# _framework density 22.513100999999999
#
# number of rings (size 3 to 8) (size 9 to 14) (size 15 to 20)
#    1.714    0.571    1.429    0.857    2.000    3.429 
#    7.714    1.429    0.000    0.000    0.000    0.000 
#    0.000    0.000    0.000    0.000    0.000    0.000 
#
# Total GULP energy -156032.775763 kJ/mol
# GULP energy per Si atom -5572.599134 kJ/mol
# Density = 2.246186 g / cm^3
# Si number density = 22.513101 Si / 1000 Ang^3
#
#
#
# Elastic Constant Matrix: (Units=GPa)
#
#
# Indices 1 2 3 4 5 6 
#
# 1 74.5124 -7.8645 26.9888 0.0000 -4.3228 0.0000
# 2 -7.8645 47.3099 23.8427 0.0000 11.6100 0.0000
# 3 26.9888 23.8427 44.8000 0.0000 8.2961 0.0000
# 4 0.0000 0.0000 0.0000 22.5150 0.0000 5.3956
# 5 -4.3228 11.6100 8.2961 0.0000 18.6076 0.0000
# 6 0.0000 0.0000 0.0000 5.3956 0.0000 24.8963
#
#
#
# Elastic Compliance Matrix: (Units=1/GPa)
#
#
# Indices 1 2 3 4 5 6 
#
# 1 0.023494 0.013611 -0.022710 0.000000 0.007091 0.000000
# 2 0.013611 0.039542 -0.027534 0.000000 -0.009234 0.000000
# 3 -0.022710 -0.027534 0.052812 0.000000 -0.011643 0.000000
# 4 0.000000 0.000000 0.000000 0.046848 0.000000 -0.010153
# 5 0.007091 -0.009234 -0.011643 0.000000 0.066341 0.000000
# 6 0.000000 0.000000 0.000000 -0.010153 0.000000 0.042367
#
#
# Mechanical properties :
#
#
# Convention : Reuss Voigt Hill
#
# Bulk Modulus (GPa) = 23.48434 28.06181 25.77307
# Shear Modulus (GPa) = 13.93279 21.44748 17.69014
#
# Velocity S-wave (km/s) = 2.49042 3.08988 2.80620
# Velocity P-wave (km/s) = 4.32708 5.02210 4.68749
#
# Compressibility (1/GPa) = 0.04258157
#
# Stress axis : x y z
#
# Youngs Moduli (GPa) = 42.56347 25.28952 18.93497
#
# Poissons Ratio (x) = -0.34421 0.43002
# Poissons Ratio (y) = -0.57932 0.52135
# Poissons Ratio (z) = 0.96663 0.69632
#
# Static dielectric constant tensor:
#      x y z
#    x 1.838550 0.000000 0.003700 
#    y 0.000000 1.829350 0.000000 
#    z 0.003700 0.000000 1.880270 
# 
# From -- ./inp_files/6736.got.cif
#   From: 2010.05.17/outbox.cif.g08.bks.cpg/sg14_4_cif.got.tgz:6736.got - 2010.06.03 17:49:19.
