data_PCOD9249285
_publ_section_title
;
Structure prediction by ZEFSAII (Michael W. Deem and Ramdas Pophale) SiO2 
 PCOD9249285
Probable space group: P 21/C
;
_chemical_formula_sum "Si O2"
_cell_formula_units_Z 28
_cell_length_a 17.664846
_cell_length_b 15.098272
_cell_length_c 8.327598
_cell_angle_alpha 90.000000
_cell_angle_beta 146.306375
_cell_angle_gamma 90.000000
_cell_volume 1232.127406
_symmetry_space_group_name_H-M "P 21/C"
_symmetry_group_IT_number 14
_symmetry_cell_setting 'monoclinic'
loop_
_space_group_symop_operation_xyz
x,y,z
-x,1/2+y,1/2-z
-x,-y,-z
x,1/2-y,1/2+z
loop_
_atom_site_type_symbol
_atom_site_label
_atom_site_fract_x
_atom_site_fract_y
_atom_site_fract_z
Si Si1 0.325019 0.088252 0.735525
Si Si2 0.856990 0.370201 0.786722
Si Si3 0.164430 0.821632 0.374347
Si Si4 0.269759 0.469958 0.639578
Si Si5 0.396336 0.928512 0.631226
Si Si6 0.144901 0.158848 0.163645
Si Si7 0.161856 0.141653 0.708557
O O1 0.269984 0.156162 0.508264
O O2 0.195021 0.076867 0.620712
O O3 0.364023 0.000180 0.712190
O O4 0.458456 0.114214 0.071049
O O5 0.817849 0.283478 0.614207
O O6 0.790306 0.454680 0.582858
O O7 0.823841 0.352508 0.917320
O O8 0.020404 0.375662 0.049095
O O9 0.272064 0.862332 0.440049
O O10 0.010110 0.845925 0.048282
O O11 0.171522 0.427920 0.603090
O O12 0.280395 0.382783 0.546096
O O13 0.388897 0.517329 0.951553
O O14 0.154922 0.260205 0.120048
#
# Coordination Sequence:
#
# PCOD9249285 Si02
#       7
#     4   4   4   4   4   4   4
#     4  10  23  42  64  91 133 174 220 271 330 400
#     4  11  24  39  67 100 133 171 221 283 327 394
#     4  11  23  43  66  97 136 171 224 277 332 391
#     4  11  22  40  66 100 130 169 225 268 341 387
#     4  10  24  43  64  94 132 180 216 272 334 403
#     4  10  23  39  67  97 126 174 217 280 330 389
#     4  11  22  39  65  97 131 165 222 278 326 396
#
# _framework density 22.724921999999999
#
# number of rings (size 3 to 8) (size 9 to 14) (size 15 to 20)
#    0.000    1.429    1.429    3.000   10.000    1.714 
#    5.143    1.429    0.000    0.000    0.000    0.000 
#    0.000    0.000    0.000    0.000    0.000    0.000 
#
# Total GULP energy -155957.829478 kJ/mol
# GULP energy per Si atom -5569.922481 kJ/mol
# Density = 2.267320 g / cm^3
# Si number density = 22.724922 Si / 1000 Ang^3
#
#
#
# Elastic Constant Matrix: (Units=GPa)
#
#
# Indices 1 2 3 4 5 6 
#
# 1 63.4128 9.4305 8.2591 0.0000 -3.5707 0.0000
# 2 9.4305 76.6534 36.0315 0.0000 2.3318 0.0000
# 3 8.2591 36.0315 91.8936 0.0000 -0.4718 0.0000
# 4 0.0000 0.0000 0.0000 33.0765 0.0000 -22.0470
# 5 -3.5707 2.3318 -0.4718 0.0000 13.3175 0.0000
# 6 0.0000 0.0000 0.0000 -22.0470 0.0000 8.8298
#
#
#
# Elastic Compliance Matrix: (Units=1/GPa)
#
#
# Indices 1 2 3 4 5 6 
#
# 1 0.016400 -0.001813 -0.000739 0.000000 0.004688 0.000000
# 2 -0.001813 0.016316 -0.006253 0.000000 -0.003565 0.000000
# 3 -0.000739 -0.006253 0.013407 0.000000 0.001372 0.000000
# 4 0.000000 0.000000 0.000000 -0.045512 0.000000 -0.113637
# 5 0.004688 -0.003565 0.001372 0.000000 0.077019 0.000000
# 6 0.000000 0.000000 0.000000 -0.113637 0.000000 -0.170487
#
#
# Mechanical properties :
#
#
# Convention : Reuss Voigt Hill
#
# Bulk Modulus (GPa) = 35.07101 37.71133 36.39117
# Shear Modulus (GPa) = -76.05543 22.92732 -26.56405
#
# Velocity S-wave (km/s) = -5.79142 3.17977 -3.42268
# Velocity P-wave (km/s) = 5.40873 5.48744 0.65486
#
# Compressibility (1/GPa) = 0.02851358
#
# Stress axis : x y z
#
# Youngs Moduli (GPa) = 60.97734 61.28765 74.58544
#
# Poissons Ratio (x) = 0.11110 0.05512
# Poissons Ratio (y) = 0.11054 0.46639
# Poissons Ratio (z) = 0.04507 0.38324
#
# Static dielectric constant tensor:
#      x y z
#    x 1.933060 0.000000 -0.033520 
#    y 0.000000 1.880510 0.000000 
#    z -0.033520 0.000000 1.934560 
# 
# From -- ./inp_files/19126.got.cif
#   From: 2010.05.17/outbox.cif.g08.bks.cpg/sg14_10_cif.got.tgz:19126.got - 2010.06.03 17:49:19.
