data_PCOD9249606
_publ_section_title
;
Structure prediction by ZEFSAII (Michael W. Deem and Ramdas Pophale) SiO2 
 PCOD9249606
Probable space group: P 21/C
;
_chemical_formula_sum "Si O2"
_cell_formula_units_Z 28
_cell_length_a 11.211288
_cell_length_b 11.720541
_cell_length_c 13.374128
_cell_angle_alpha 90.000000
_cell_angle_beta 46.600309
_cell_angle_gamma 90.000000
_cell_volume 1276.883020
_symmetry_space_group_name_H-M "P 21/C"
_symmetry_group_IT_number 14
_symmetry_cell_setting 'monoclinic'
loop_
_space_group_symop_operation_xyz
x,y,z
-x,1/2+y,1/2-z
-x,-y,-z
x,1/2-y,1/2+z
loop_
_atom_site_type_symbol
_atom_site_label
_atom_site_fract_x
_atom_site_fract_y
_atom_site_fract_z
Si Si1 0.503500 0.862696 0.503476
Si Si2 0.827816 0.765076 0.222387
Si Si3 0.744681 0.926259 0.100506
Si Si4 0.263657 0.671996 0.308768
Si Si5 0.961606 0.714245 0.343610
Si Si6 0.629850 0.126234 0.625109
Si Si7 0.853143 0.579230 0.045120
O O1 0.677538 0.808030 0.377226
O O2 0.433928 0.829335 0.650045
O O3 0.388900 0.827904 0.476313
O O4 0.500000 0.000000 0.500000
O O5 0.851007 0.866466 0.128649
O O6 0.967005 0.733719 0.222063
O O7 0.791147 0.656296 0.173709
O O8 0.557098 0.885673 0.226218
O O9 0.749329 0.060759 0.115047
O O10 0.821584 0.877789 0.954792
O O11 0.263174 0.786983 0.371865
O O12 0.125361 0.670873 0.303180
O O13 0.915142 0.832459 0.425730
O O14 0.714469 0.003369 0.581815
O O15 0.000000 0.500000 0.000000
#
# Coordination Sequence:
#
# PCOD9249606 Si02
#       7
#     4   4   4   4   4   4   4
#     4  11  22  42  69  96 126 177 226 267 334 404
#     4  10  23  42  68  95 129 179 220 272 340 399
#     4  10  24  42  69  95 133 176 223 280 335 401
#     4  12  24  42  65 102 130 174 229 268 345 399
#     4  11  24  42  67  96 139 171 221 283 337 404
#     4  11  24  42  70  94 129 179 220 280 325 408
#     4  11  24  44  65  97 135 175 222 275 344 399
#
# _framework density 21.928398999999999
#
# number of rings (size 3 to 8) (size 9 to 14) (size 15 to 20)
#    0.000    1.143    4.286    2.143    8.000    0.000 
#    2.571    1.429    0.000    0.000    0.000    0.000 
#    0.000    0.000    0.000    0.000    0.000    0.000 
#
# Total GULP energy -156602.626504 kJ/mol
# GULP energy per Si atom -5592.950947 kJ/mol
# Density = 2.187849 g / cm^3
# Si number density = 21.928399 Si / 1000 Ang^3
#
#
#
# Elastic Constant Matrix: (Units=GPa)
#
#
# Indices 1 2 3 4 5 6 
#
# 1 72.1208 -0.0720 -14.7284 0.0000 2.7990 0.0000
# 2 -0.0720 92.0446 7.8095 0.0000 -0.4911 0.0000
# 3 -14.7284 7.8095 51.9899 0.0000 -5.6976 0.0000
# 4 0.0000 0.0000 0.0000 22.7172 0.0000 -2.6308
# 5 2.7990 -0.4911 -5.6976 0.0000 24.9930 0.0000
# 6 0.0000 0.0000 0.0000 -2.6308 0.0000 31.1769
#
#
#
# Elastic Compliance Matrix: (Units=1/GPa)
#
#
# Indices 1 2 3 4 5 6 
#
# 1 0.014740 -0.000344 0.004150 0.000000 -0.000712 0.000000
# 2 -0.000344 0.011013 -0.001768 0.000000 -0.000148 0.000000
# 3 0.004150 -0.001768 0.021149 0.000000 0.004322 0.000000
# 4 0.000000 0.000000 0.000000 0.044454 0.000000 0.003751
# 5 -0.000712 -0.000148 0.004322 0.000000 0.041073 0.000000
# 6 0.000000 0.000000 0.000000 0.003751 0.000000 0.032392
#
#
# Mechanical properties :
#
#
# Convention : Reuss Voigt Hill
#
# Bulk Modulus (GPa) = 19.61663 22.46371 21.04017
# Shear Modulus (GPa) = 28.13104 30.65384 29.39244
#
# Velocity S-wave (km/s) = 3.58559 3.74291 3.66510
# Velocity P-wave (km/s) = 5.10951 5.38011 5.24655
#
# Compressibility (1/GPa) = 0.05097716
#
# Stress axis : x y z
#
# Youngs Moduli (GPa) = 67.84109 90.79969 47.28295
#
# Poissons Ratio (x) = 0.03127 -0.19620
# Poissons Ratio (y) = 0.02336 0.08360
# Poissons Ratio (z) = -0.28151 0.16054
#
# Static dielectric constant tensor:
#      x y z
#    x 1.869960 0.000000 -0.018770 
#    y 0.000000 1.759880 0.000000 
#    z -0.018770 0.000000 1.809110 
# 
# From -- ./inp_files/44329.got.cif
#   From: 2010.05.17/outbox.cif.g08.bks.cpg/sg14_23_cif.got.tgz:44329.got - 2010.06.03 17:49:19.
