data_PCOD9249641
_publ_section_title
;
Structure prediction by ZEFSAII (Michael W. Deem and Ramdas Pophale) SiO2 
 PCOD9249641
Probable space group: P 21/C
;
_chemical_formula_sum "Si O2"
_cell_formula_units_Z 30
_cell_length_a 12.673575
_cell_length_b 7.068296
_cell_length_c 14.785335
_cell_angle_alpha 90.000000
_cell_angle_beta 110.535946
_cell_angle_gamma 90.000000
_cell_volume 1240.311282
_symmetry_space_group_name_H-M "P 21/C"
_symmetry_group_IT_number 14
_symmetry_cell_setting 'monoclinic'
loop_
_space_group_symop_operation_xyz
x,y,z
-x,1/2+y,1/2-z
-x,-y,-z
x,1/2-y,1/2+z
loop_
_atom_site_type_symbol
_atom_site_label
_atom_site_fract_x
_atom_site_fract_y
_atom_site_fract_z
Si Si1 0.643035 0.850520 0.089506
Si Si2 0.875581 0.442112 0.609472
Si Si3 0.236410 0.001060 0.323358
Si Si4 0.221842 0.620281 0.016234
Si Si5 0.352048 0.664597 0.698494
Si Si6 0.530048 0.855621 0.874554
Si Si7 0.000000 0.500000 0.000000
Si Si8 0.003685 0.317004 0.815985
O O1 0.754348 0.965166 0.092345
O O2 0.678155 0.676635 0.161961
O O3 0.560314 0.992082 0.115342
O O4 0.584949 0.770673 0.981078
O O5 0.865803 0.300108 0.521477
O O6 0.963214 0.614467 0.632153
O O7 0.915930 0.317828 0.707153
O O8 0.116518 0.098673 0.303971
O O9 0.267887 0.904423 0.428887
O O10 0.254712 0.872452 0.242117
O O11 0.313444 0.673241 0.117245
O O12 0.134933 0.455778 0.014309
O O13 0.463237 0.718515 0.788117
O O14 0.376165 0.477115 0.648662
O O15 0.964280 0.450799 0.884804
#
# Coordination Sequence:
#
# PCOD9249641 Si02
#       8
#     4   4   4   4   4   4   2   4
#     4  10  23  46  70  95 141 176 231 289 343 410
#     4  11  22  45  68  97 140 177 219 280 347 413
#     4  10  24  46  66 100 136 183 220 287 347 412
#     4  11  25  44  69 101 137 179 226 290 341 418
#     4  12  26  44  72 100 138 180 239 285 349 415
#     4  11  25  43  68 103 128 185 234 287 346 404
#     4  10  24  42  64 104 132 172 234 266 342 418
#     4  10  23  42  70  98 135 180 222 277 349 414
#
# _framework density 24.187477999999999
#
# number of rings (size 3 to 8) (size 9 to 14) (size 15 to 20)
#    0.000    1.333    1.333    3.200    9.333    1.067 
#    4.800    0.000    0.000    0.000    0.000    0.000 
#    0.000    0.000    0.000    0.000    0.000    0.000 
#
# Total GULP energy -167401.908838 kJ/mol
# GULP energy per Si atom -5580.063628 kJ/mol
# Density = 2.413243 g / cm^3
# Si number density = 24.187478 Si / 1000 Ang^3
#
#
#
# Elastic Constant Matrix: (Units=GPa)
#
#
# Indices 1 2 3 4 5 6 
#
# 1 54.5803 -13.8579 18.7455 0.0000 -9.6389 0.0000
# 2 -13.8579 34.3873 3.3167 0.0000 10.7440 0.0000
# 3 18.7455 3.3167 97.6317 0.0000 9.5667 0.0000
# 4 0.0000 0.0000 0.0000 34.9674 0.0000 17.7991
# 5 -9.6389 10.7440 9.5667 0.0000 34.2220 0.0000
# 6 0.0000 0.0000 0.0000 17.7991 0.0000 18.9674
#
#
#
# Elastic Compliance Matrix: (Units=1/GPa)
#
#
# Indices 1 2 3 4 5 6 
#
# 1 0.023153 0.008139 -0.005254 0.000000 0.005435 0.000000
# 2 0.008139 0.035106 -0.001953 0.000000 -0.008183 0.000000
# 3 -0.005254 -0.001953 0.011724 0.000000 -0.004144 0.000000
# 4 0.000000 0.000000 0.000000 0.054750 0.000000 -0.051378
# 5 0.005435 -0.008183 -0.004144 0.000000 0.034479 0.000000
# 6 0.000000 0.000000 0.000000 -0.051378 0.000000 0.100935
#
#
# Mechanical properties :
#
#
# Convention : Reuss Voigt Hill
#
# Bulk Modulus (GPa) = 13.91895 22.55643 18.23769
# Shear Modulus (GPa) = 17.71593 29.52437 23.62015
#
# Velocity S-wave (km/s) = 2.70930 3.49757 3.12836
# Velocity P-wave (km/s) = 3.94388 5.06523 4.53931
#
# Compressibility (1/GPa) = 0.07184449
#
# Stress axis : x y z
#
# Youngs Moduli (GPa) = 43.19188 28.48548 85.29626
#
# Poissons Ratio (x) = -0.23185 0.44818
# Poissons Ratio (y) = -0.35154 0.16663
# Poissons Ratio (z) = 0.22695 0.05565
#
# Static dielectric constant tensor:
#      x y z
#    x 1.965090 0.000000 0.037030 
#    y 0.000000 2.160560 0.000000 
#    z 0.037030 0.000000 1.941860 
# 
# From -- ./inp_files/43792.got.cif
#   From: 2010.05.17/outbox.cif.g08.bks.cpg/sg14_22_cif.got.tgz:43792.got - 2010.06.03 17:49:19.
