data_PCOD9249495
_publ_section_title
;
Structure prediction by ZEFSAII (Michael W. Deem and Ramdas Pophale) SiO2 
 PCOD9249495
Probable space group: P 21/C
;
_chemical_formula_sum "Si O2"
_cell_formula_units_Z 28
_cell_length_a 8.547378
_cell_length_b 16.920388
_cell_length_c 10.051829
_cell_angle_alpha 90.000000
_cell_angle_beta 104.688745
_cell_angle_gamma 90.000000
_cell_volume 1406.233376
_symmetry_space_group_name_H-M "P 21/C"
_symmetry_group_IT_number 14
_symmetry_cell_setting 'monoclinic'
loop_
_space_group_symop_operation_xyz
x,y,z
-x,1/2+y,1/2-z
-x,-y,-z
x,1/2-y,1/2+z
loop_
_atom_site_type_symbol
_atom_site_label
_atom_site_fract_x
_atom_site_fract_y
_atom_site_fract_z
Si Si1 0.925796 0.210304 0.332929
Si Si2 0.282335 0.713414 0.476578
Si Si3 0.487431 0.074041 0.900110
Si Si4 0.224091 0.192782 0.782960
Si Si5 0.550530 0.825305 0.611345
Si Si6 0.595733 0.484399 0.884078
Si Si7 0.838945 0.898942 0.497997
O O1 0.077738 0.266860 0.329444
O O2 0.001214 0.125563 0.389046
O O3 0.813941 0.203737 0.180017
O O4 0.831037 0.249620 0.434151
O O5 0.362076 0.632151 0.544384
O O6 0.428695 0.775803 0.493423
O O7 0.326464 0.127385 0.885965
O O8 0.471833 0.040241 0.747218
O O9 0.500000 0.000000 0.000000
O O10 0.355440 0.261571 0.777608
O O11 0.158501 0.150658 0.637561
O O12 0.445653 0.893683 0.659037
O O13 0.690779 0.864773 0.554138
O O14 0.779836 0.512475 0.951611
O O15 0.500000 0.500000 0.000000
#
# Coordination Sequence:
#
# PCOD9249495 Si02
#       7
#     4   4   4   4   4   4   4
#     4  11  22  40  60  88 127 158 204 248 315 364
#     4  11  25  38  63  92 120 159 205 259 300 366
#     4  10  23  42  62  91 124 156 209 257 309 359
#     4   9  19  39  62  85 119 165 200 249 306 369
#     4   9  20  33  63  88 111 155 211 248 294 353
#     4   9  19  36  61  86 115 153 206 247 296 355
#     4   9  18  38  58  85 120 161 198 244 305 366
#
# _framework density 19.911346000000002
#
# number of rings (size 3 to 8) (size 9 to 14) (size 15 to 20)
#    0.000    2.286    1.429    0.000   10.000    2.286 
#    2.571    2.857    0.000    0.000    0.000    0.000 
#    0.000    0.000    0.000    0.000    0.000    0.000 
#
# Total GULP energy -156186.904803 kJ/mol
# GULP energy per Si atom -5578.103743 kJ/mol
# Density = 1.986603 g / cm^3
# Si number density = 19.911346 Si / 1000 Ang^3
#
#
#
# Elastic Constant Matrix: (Units=GPa)
#
#
# Indices 1 2 3 4 5 6 
#
# 1 72.4919 34.9387 37.3414 0.0000 9.6749 0.0000
# 2 34.9387 93.3930 19.1371 0.0000 9.0983 0.0000
# 3 37.3414 19.1371 102.5975 0.0000 17.3028 0.0000
# 4 0.0000 0.0000 0.0000 16.1851 0.0000 -3.4260
# 5 9.6749 9.0983 17.3028 0.0000 29.9676 0.0000
# 6 0.0000 0.0000 0.0000 -3.4260 0.0000 35.4060
#
#
#
# Elastic Compliance Matrix: (Units=1/GPa)
#
#
# Indices 1 2 3 4 5 6 
#
# 1 0.019960 -0.006140 -0.005924 0.000000 -0.001159 0.000000
# 2 -0.006140 0.013182 0.000129 0.000000 -0.002094 0.000000
# 3 -0.005924 0.000129 0.012810 0.000000 -0.005523 0.000000
# 4 0.000000 0.000000 0.000000 0.063077 0.000000 0.006104
# 5 -0.001159 -0.002094 -0.005523 0.000000 0.037569 0.000000
# 6 0.000000 0.000000 0.000000 0.006104 0.000000 0.028834
#
#
# Mechanical properties :
#
#
# Convention : Reuss Voigt Hill
#
# Bulk Modulus (GPa) = 45.28444 50.14634 47.71539
# Shear Modulus (GPa) = 24.19388 28.11608 26.15498
#
# Velocity S-wave (km/s) = 3.48958 3.76182 3.62825
# Velocity P-wave (km/s) = 6.24729 6.64138 6.44734
#
# Compressibility (1/GPa) = 0.02208264
#
# Stress axis : x y z
#
# Youngs Moduli (GPa) = 50.09938 75.86019 78.06248
#
# Poissons Ratio (x) = 0.46581 0.46243
# Poissons Ratio (y) = 0.30763 -0.01009
# Poissons Ratio (z) = 0.29678 -0.00981
#
# Static dielectric constant tensor:
#      x y z
#    x 1.715470 0.000000 0.023010 
#    y 0.000000 1.768520 0.000000 
#    z 0.023010 0.000000 1.682620 
# 
# From -- ./inp_files/25318.got.cif
#   From: 2010.05.17/outbox.cif.g08.bks.cpg/sg14_13_cif.got.tgz:25318.got - 2010.06.03 17:49:19.
