data_PCOD9249145
_publ_section_title
;
Structure prediction by ZEFSAII (Michael W. Deem and Ramdas Pophale) SiO2 
 PCOD9249145
Probable space group: P 21/C
;
_chemical_formula_sum "Si O2"
_cell_formula_units_Z 20
_cell_length_a 16.829547
_cell_length_b 5.004840
_cell_length_c 8.364298
_cell_angle_alpha 90.000000
_cell_angle_beta 88.971767
_cell_angle_gamma 90.000000
_cell_volume 704.404600
_symmetry_space_group_name_H-M "P 21/C"
_symmetry_group_IT_number 14
_symmetry_cell_setting 'monoclinic'
loop_
_space_group_symop_operation_xyz
x,y,z
-x,1/2+y,1/2-z
-x,-y,-z
x,1/2-y,1/2+z
loop_
_atom_site_type_symbol
_atom_site_label
_atom_site_fract_x
_atom_site_fract_y
_atom_site_fract_z
Si Si1 0.754199 0.361156 0.781719
Si Si2 0.006649 0.214990 0.645153
Si Si3 0.858541 0.990209 0.992590
Si Si4 0.553095 0.588202 0.779923
Si Si5 0.342223 0.459359 0.927938
O O1 0.798508 0.526153 0.642861
O O2 0.684796 0.180203 0.700334
O O3 0.813435 0.139377 0.852186
O O4 0.727511 0.535404 0.936187
O O5 0.988399 0.926079 0.711147
O O6 0.094478 0.268860 0.067366
O O7 0.932921 0.329717 0.548681
O O8 0.502740 0.350086 0.704715
O O9 0.626569 0.702126 0.669997
O O10 0.585565 0.492023 0.950167
#
# Coordination Sequence:
#
# PCOD9249145 Si02
#       5
#     4   4   4   4   4
#     4  10  23  52  76 111 166 206 256 318 398 467
#     4  11  24  47  76 109 150 195 280 317 382 449
#     4  10  22  46  76 111 150 212 256 326 383 453
#     4  12  27  52  88 119 156 202 262 324 386 461
#     4  11  26  48  80 119 158 206 258 316 391 480
#
# _framework density 28.392769999999999
#
# number of rings (size 3 to 8) (size 9 to 14) (size 15 to 20)
#    0.000    1.200    2.000    2.400    0.000    9.600 
#   10.800    0.000    0.000    0.000    0.000    0.000 
#    0.000    0.000    0.000    0.000    0.000    0.000 
#
# Total GULP energy -112219.750356 kJ/mol
# GULP energy per Si atom -5610.987518 kJ/mol
# Density = 2.832815 g / cm^3
# Si number density = 28.392770 Si / 1000 Ang^3
#
#
#
# Elastic Constant Matrix: (Units=GPa)
#
#
# Indices 1 2 3 4 5 6 
#
# 1 189.3561 70.8393 69.4681 0.0000 -12.8451 0.0000
# 2 70.8393 141.0773 68.4174 0.0000 -15.8017 0.0000
# 3 69.4681 68.4174 156.1128 0.0000 6.3205 0.0000
# 4 0.0000 0.0000 0.0000 60.3676 0.0000 5.1729
# 5 -12.8451 -15.8017 6.3205 0.0000 72.7014 0.0000
# 6 0.0000 0.0000 0.0000 5.1729 0.0000 21.6747
#
#
#
# Elastic Compliance Matrix: (Units=1/GPa)
#
#
# Indices 1 2 3 4 5 6 
#
# 1 0.007012 -0.002399 -0.002105 0.000000 0.000900 0.000000
# 2 -0.002399 0.010225 -0.003499 0.000000 0.002103 0.000000
# 3 -0.002105 -0.003499 0.008953 0.000000 -0.001911 0.000000
# 4 0.000000 0.000000 0.000000 0.016911 0.000000 -0.004036
# 5 0.000900 0.002103 -0.001911 0.000000 0.014537 0.000000
# 6 0.000000 0.000000 0.000000 -0.004036 0.000000 0.047100
#
#
# Mechanical properties :
#
#
# Convention : Reuss Voigt Hill
#
# Bulk Modulus (GPa) = 98.19301 100.44396 99.31848
# Shear Modulus (GPa) = 40.27714 49.47018 44.87366
#
# Velocity S-wave (km/s) = 3.77048 4.17868 3.97981
# Velocity P-wave (km/s) = 7.32217 7.66389 7.49498
#
# Compressibility (1/GPa) = 0.01018402
#
# Stress axis : x y z
#
# Youngs Moduli (GPa) = 142.61235 97.79640 111.69169
#
# Poissons Ratio (x) = 0.23462 0.23514
# Poissons Ratio (y) = 0.34214 0.39080
# Poissons Ratio (z) = 0.30024 0.34218
#
# Static dielectric constant tensor:
#      x y z
#    x 2.295920 0.000000 -0.052200 
#    y 0.000000 2.122820 0.000000 
#    z -0.052200 0.000000 2.220670 
# 
# From -- ./inp_files/17283.got.cif
#   From: 2010.05.17/outbox.cif.g08.bks.cpg/sg14_9_cif.got.tgz:17283.got - 2010.06.03 17:49:19.
