data_PCOD9249380
_publ_section_title
;
Structure prediction by ZEFSAII (Michael W. Deem and Ramdas Pophale) SiO2 
 PCOD9249380
Probable space group: P 21/C
;
_chemical_formula_sum "Si O2"
_cell_formula_units_Z 24
_cell_length_a 15.289069
_cell_length_b 13.101580
_cell_length_c 5.311439
_cell_angle_alpha 90.000000
_cell_angle_beta 112.942772
_cell_angle_gamma 90.000000
_cell_volume 979.776160
_symmetry_space_group_name_H-M "P 21/C"
_symmetry_group_IT_number 14
_symmetry_cell_setting 'monoclinic'
loop_
_space_group_symop_operation_xyz
x,y,z
-x,1/2+y,1/2-z
-x,-y,-z
x,1/2-y,1/2+z
loop_
_atom_site_type_symbol
_atom_site_label
_atom_site_fract_x
_atom_site_fract_y
_atom_site_fract_z
Si Si1 0.541617 0.812962 0.484122
Si Si2 0.313399 0.683925 0.721649
Si Si3 0.078495 0.711912 0.767064
Si Si4 0.292067 0.456759 0.860232
Si Si5 0.867869 0.506173 0.985436
Si Si6 0.890516 0.620350 0.504106
O O1 0.565709 0.739866 0.276272
O O2 0.428367 0.827694 0.350615
O O3 0.602290 0.915703 0.520391
O O4 0.289345 0.747228 0.441508
O O5 0.279434 0.566595 0.711541
O O6 0.109856 0.706607 0.511902
O O7 0.108936 0.610716 0.947568
O O8 0.963454 0.711507 0.621797
O O9 0.243855 0.474284 0.080031
O O10 0.222980 0.370152 0.659822
O O11 0.916920 0.563172 0.275976
O O12 0.899840 0.550260 0.759182
#
# Coordination Sequence:
#
# PCOD9249380 Si02
#       6
#     4   4   4   4   4   4
#     4  10  23  41  63  93 127 165 211 253 303 377
#     4  10  23  41  63  93 127 165 211 253 303 377
#     4  12  24  40  64  88 120 160 206 257 305 367
#     4  10  25  39  70  88 132 164 202 261 321 354
#     4  10  23  41  60  86 119 160 200 250 306 368
#     4  10  23  41  60  86 119 160 200 250 306 368
#
# _framework density 24.495393
#
# number of rings (size 3 to 8) (size 9 to 14) (size 15 to 20)
#    1.000    0.667    0.000    3.500    4.667    2.667 
#    0.000    5.000    0.000    0.000    0.000    0.000 
#    0.000    0.000    0.000    0.000    0.000    0.000 
#
# Total GULP energy -134052.978903 kJ/mol
# GULP energy per Si atom -5585.540788 kJ/mol
# Density = 2.443964 g / cm^3
# Si number density = 24.495393 Si / 1000 Ang^3
#
#
#
# Elastic Constant Matrix: (Units=GPa)
#
#
# Indices 1 2 3 4 5 6 
#
# 1 105.4178 19.6739 37.8967 0.0000 -7.3432 0.0000
# 2 19.6739 43.7495 10.8177 0.0000 -9.4564 0.0000
# 3 37.8967 10.8177 119.2694 0.0000 -31.8957 0.0000
# 4 0.0000 0.0000 0.0000 39.4534 0.0000 7.9985
# 5 -7.3432 -9.4564 -31.8957 0.0000 38.0698 0.0000
# 6 0.0000 0.0000 0.0000 7.9985 0.0000 29.4948
#
#
#
# Elastic Compliance Matrix: (Units=1/GPa)
#
#
# Indices 1 2 3 4 5 6 
#
# 1 0.011596 -0.004732 -0.003830 0.000000 -0.002147 0.000000
# 2 -0.004732 0.026138 0.000806 0.000000 0.006255 0.000000
# 3 -0.003830 0.000806 0.012094 0.000000 0.009594 0.000000
# 4 0.000000 0.000000 0.000000 0.026821 0.000000 -0.007273
# 5 -0.002147 0.006255 0.009594 0.000000 0.035445 0.000000
# 6 0.000000 0.000000 0.000000 -0.007273 0.000000 0.035877
#
#
# Mechanical properties :
#
#
# Convention : Reuss Voigt Hill
#
# Bulk Modulus (GPa) = 29.14089 45.02370 37.08229
# Shear Modulus (GPa) = 28.58420 34.74014 31.66217
#
# Velocity S-wave (km/s) = 3.41973 3.77003 3.59914
# Velocity P-wave (km/s) = 5.24548 6.11320 5.69589
#
# Compressibility (1/GPa) = 0.03431605
#
# Stress axis : x y z
#
# Youngs Moduli (GPa) = 86.23415 38.25827 82.68695
#
# Poissons Ratio (x) = 0.18104 0.31666
# Poissons Ratio (y) = 0.40806 -0.06661
# Poissons Ratio (z) = 0.33025 -0.03082
#
# Static dielectric constant tensor:
#      x y z
#    x 2.024860 0.000000 0.024600 
#    y 0.000000 1.962990 0.000000 
#    z 0.024600 0.000000 1.936310 
# 
# From -- ./inp_files/4069.got.cif
#   From: 2010.05.17/outbox.cif.g08.bks.cpg/sg14_3_cif.got.tgz:4069.got - 2010.06.03 17:49:19.
