data_PCOD9249082
_publ_section_title
;
Structure prediction by ZEFSAII (Michael W. Deem and Ramdas Pophale) SiO2 
 PCOD9249082
Probable space group: P 21/C
;
_chemical_formula_sum "Si O2"
_cell_formula_units_Z 24
_cell_length_a 6.143205
_cell_length_b 13.781650
_cell_length_c 12.560055
_cell_angle_alpha 90.000000
_cell_angle_beta 65.872262
_cell_angle_gamma 90.000000
_cell_volume 970.477670
_symmetry_space_group_name_H-M "P 21/C"
_symmetry_group_IT_number 14
_symmetry_cell_setting 'monoclinic'
loop_
_space_group_symop_operation_xyz
x,y,z
-x,1/2+y,1/2-z
-x,-y,-z
x,1/2-y,1/2+z
loop_
_atom_site_type_symbol
_atom_site_label
_atom_site_fract_x
_atom_site_fract_y
_atom_site_fract_z
Si Si1 0.709346 0.473505 0.327151
Si Si2 0.598745 0.696683 0.689164
Si Si3 0.375122 0.606894 0.273893
Si Si4 0.185576 0.487884 0.112068
Si Si5 0.132711 0.652537 0.525182
Si Si6 0.569606 0.341163 0.036872
O O1 0.511158 0.391641 0.353204
O O2 0.576316 0.570878 0.317612
O O3 0.814364 0.447403 0.421733
O O4 0.920978 0.460830 0.199273
O O5 0.478529 0.800315 0.692728
O O6 0.518790 0.675395 0.825511
O O7 0.879356 0.692852 0.614089
O O8 0.301094 0.528513 0.200418
O O9 0.155059 0.635402 0.394193
O O10 0.335748 0.397111 0.038602
O O11 0.223957 0.578173 0.024680
O O12 0.322572 0.737292 0.514299
#
# Coordination Sequence:
#
# PCOD9249082 Si02
#       6
#     4   4   4   4   4   4
#     4  12  23  43  70  99 136 175 223 273 338 392
#     4  11  24  46  66 102 137 176 226 271 334 393
#     4  11  25  44  68 100 134 179 222 275 336 394
#     4  11  23  45  69  99 133 171 230 276 328 399
#     4  11  24  44  66  99 138 174 222 275 330 404
#     4  10  22  46  67  95 136 172 220 281 325 394
#
# _framework density 24.730087999999999
#
# number of rings (size 3 to 8) (size 9 to 14) (size 15 to 20)
#    0.000    1.000    3.333    2.500    0.000    4.667 
#   18.000    0.000    0.000    0.000    0.000    0.000 
#    0.000    0.000    0.000    0.000    0.000    0.000 
#
# Total GULP energy -134171.976345 kJ/mol
# GULP energy per Si atom -5590.499014 kJ/mol
# Density = 2.467380 g / cm^3
# Si number density = 24.730088 Si / 1000 Ang^3
#
#
#
# Elastic Constant Matrix: (Units=GPa)
#
#
# Indices 1 2 3 4 5 6 
#
# 1 42.8355 25.4283 40.1587 0.0000 -12.8808 0.0000
# 2 25.4283 104.7213 24.1219 0.0000 -6.8557 0.0000
# 3 40.1587 24.1219 165.7682 0.0000 -13.5986 0.0000
# 4 0.0000 0.0000 0.0000 51.8606 0.0000 -5.4261
# 5 -12.8808 -6.8557 -13.5986 0.0000 27.8382 0.0000
# 6 0.0000 0.0000 0.0000 -5.4261 0.0000 21.0124
#
#
#
# Elastic Compliance Matrix: (Units=1/GPa)
#
#
# Indices 1 2 3 4 5 6 
#
# 1 0.037740 -0.006709 -0.007156 0.000000 0.012314 0.000000
# 2 -0.006709 0.011161 -0.000029 0.000000 -0.000370 0.000000
# 3 -0.007156 -0.000029 0.007811 0.000000 0.000497 0.000000
# 4 0.000000 0.000000 0.000000 0.019818 0.000000 0.005118
# 5 0.012314 -0.000370 0.000497 0.000000 0.041772 0.000000
# 6 0.000000 0.000000 0.000000 0.005118 0.000000 0.048912
#
#
# Mechanical properties :
#
#
# Convention : Reuss Voigt Hill
#
# Bulk Modulus (GPa) = 34.57504 54.74919 44.66212
# Shear Modulus (GPa) = 24.43260 35.04996 29.74128
#
# Velocity S-wave (km/s) = 3.14661 3.76879 3.47167
# Velocity P-wave (km/s) = 5.21659 6.41289 5.84542
#
# Compressibility (1/GPa) = 0.02892260
#
# Stress axis : x y z
#
# Youngs Moduli (GPa) = 26.49696 89.59936 128.02106
#
# Poissons Ratio (x) = 0.60116 0.91616
# Poissons Ratio (y) = 0.17778 0.00371
# Poissons Ratio (z) = 0.18962 0.00260
#
# Static dielectric constant tensor:
#      x y z
#    x 1.991240 0.000000 0.060810 
#    y 0.000000 1.961000 0.000000 
#    z 0.060810 0.000000 1.969600 
# 
# From -- ./inp_files/37249.got.cif
#   From: 2010.05.17/outbox.cif.g08.bks.cpg/sg14_19_cif.got.tgz:37249.got - 2010.06.03 17:49:19.
