data_PCOD9249718
_publ_section_title
;
Structure prediction by ZEFSAII (Michael W. Deem and Ramdas Pophale) SiO2 
 PCOD9249718
Probable space group: P 21/C
;
_chemical_formula_sum "Si O2"
_cell_formula_units_Z 22
_cell_length_a 8.362736
_cell_length_b 6.862520
_cell_length_c 20.385061
_cell_angle_alpha 90.000000
_cell_angle_beta 44.490771
_cell_angle_gamma 90.000000
_cell_volume 819.850428
_symmetry_space_group_name_H-M "P 21/C"
_symmetry_group_IT_number 14
_symmetry_cell_setting 'monoclinic'
loop_
_space_group_symop_operation_xyz
x,y,z
-x,1/2+y,1/2-z
-x,-y,-z
x,1/2-y,1/2+z
loop_
_atom_site_type_symbol
_atom_site_label
_atom_site_fract_x
_atom_site_fract_y
_atom_site_fract_z
Si Si1 0.894695 0.060604 0.827567
Si Si2 0.500000 0.500000 0.500000
Si Si3 0.189523 0.317710 0.363735
Si Si4 0.733572 0.168077 0.518868
Si Si5 0.090868 0.370181 0.130967
Si Si6 0.660806 0.246966 0.174779
O O1 0.816398 0.850964 0.884360
O O2 0.026906 0.043340 0.720878
O O3 0.638078 0.135350 0.899470
O O4 0.063339 0.161393 0.829504
O O5 0.632435 0.361161 0.515450
O O6 0.429922 0.219054 0.282171
O O7 0.241570 0.534843 0.371876
O O8 0.998661 0.208891 0.461021
O O9 0.606145 0.138850 0.624095
O O10 0.746280 0.995538 0.462424
O O11 0.852618 0.344896 0.163228
#
# Coordination Sequence:
#
# PCOD9249718 Si02
#       6
#     4   2   4   4   4   4
#     4  10  23  44  65  98 135 177 228 281 341 408
#     4  10  24  40  68  98 136 176 222 282 342 408
#     4  10  23  43  66  98 136 181 225 284 341 402
#     4  11  24  43  68 102 137 178 232 281 340 416
#     4  11  24  44  69  97 136 178 230 287 341 404
#     4  11  24  43  70  99 136 186 226 285 345 406
#
# _framework density 26.834163
#
# number of rings (size 3 to 8) (size 9 to 14) (size 15 to 20)
#    0.000    1.455    0.000    4.364    7.636    0.727 
#    6.545    0.000    0.000    0.000    0.000    0.000 
#    0.000    0.000    0.000    0.000    0.000    0.000 
#
# Total GULP energy -122790.721113 kJ/mol
# GULP energy per Si atom -5581.396414 kJ/mol
# Density = 2.677309 g / cm^3
# Si number density = 26.834163 Si / 1000 Ang^3
#
#
#
# Elastic Constant Matrix: (Units=GPa)
#
#
# Indices 1 2 3 4 5 6 
#
# 1 81.0472 23.7651 34.6147 0.0000 -9.0385 0.0000
# 2 23.7651 104.0416 25.1558 0.0000 9.7801 0.0000
# 3 34.6147 25.1558 99.5908 0.0000 6.7324 0.0000
# 4 0.0000 0.0000 0.0000 32.0017 0.0000 6.1246
# 5 -9.0385 9.7801 6.7324 0.0000 57.9876 0.0000
# 6 0.0000 0.0000 0.0000 6.1246 0.0000 33.2526
#
#
#
# Elastic Compliance Matrix: (Units=1/GPa)
#
#
# Indices 1 2 3 4 5 6 
#
# 1 0.015648 -0.002694 -0.004993 0.000000 0.003473 0.000000
# 2 -0.002694 0.010821 -0.001658 0.000000 -0.002052 0.000000
# 3 -0.004993 -0.001658 0.012326 0.000000 -0.001930 0.000000
# 4 0.000000 0.000000 0.000000 0.032390 0.000000 -0.005966
# 5 0.003473 -0.002052 -0.001930 0.000000 0.018357 0.000000
# 6 0.000000 0.000000 0.000000 -0.005966 0.000000 0.031172
#
#
# Mechanical properties :
#
#
# Convention : Reuss Voigt Hill
#
# Bulk Modulus (GPa) = 49.73975 50.19451 49.96713
# Shear Modulus (GPa) = 34.22201 38.05797 36.13999
#
# Velocity S-wave (km/s) = 3.57503 3.77007 3.67385
# Velocity P-wave (km/s) = 5.96803 6.13981 6.05453
#
# Compressibility (1/GPa) = 0.02010465
#
# Stress axis : x y z
#
# Youngs Moduli (GPa) = 63.90508 92.41578 81.12994
#
# Poissons Ratio (x) = 0.24893 0.40510
# Poissons Ratio (y) = 0.17213 0.13454
# Poissons Ratio (z) = 0.31909 0.15325
#
# Static dielectric constant tensor:
#      x y z
#    x 1.861040 0.000000 0.220550 
#    y 0.000000 1.993320 0.000000 
#    z 0.220550 0.000000 1.922460 
# 
# From -- ./inp_files/38751.got.cif
#   From: 2010.05.17/outbox.cif.g08.bks.cpg/sg14_20_cif.got.tgz:38751.got - 2010.06.03 17:49:19.
