data_PCOD9249767
_publ_section_title
;
Structure prediction by ZEFSAII (Michael W. Deem and Ramdas Pophale) SiO2 
 PCOD9249767
Probable space group: P 21/C
;
_chemical_formula_sum "Si O2"
_cell_formula_units_Z 32
_cell_length_a 15.397613
_cell_length_b 5.249894
_cell_length_c 17.835042
_cell_angle_alpha 90.000000
_cell_angle_beta 89.999895
_cell_angle_gamma 90.000000
_cell_volume 1441.710532
_symmetry_space_group_name_H-M "P 21/C"
_symmetry_group_IT_number 14
_symmetry_cell_setting 'monoclinic'
loop_
_space_group_symop_operation_xyz
x,y,z
-x,1/2+y,1/2-z
-x,-y,-z
x,1/2-y,1/2+z
loop_
_atom_site_type_symbol
_atom_site_label
_atom_site_fract_x
_atom_site_fract_y
_atom_site_fract_z
Si Si1 0.669410 0.319394 0.125805
Si Si2 0.001163 0.493183 0.197006
Si Si3 0.250000 0.000001 0.007323
Si Si4 0.501163 0.493183 0.802994
Si Si5 0.750000 1.000000 0.239478
Si Si6 0.830590 0.819395 0.625804
Si Si7 0.826089 0.326572 0.877519
Si Si8 0.673911 0.826575 0.377519
O O1 0.581114 0.468322 0.141522
O O2 0.750000 0.499999 0.144069
O O3 0.697802 0.191085 0.047794
O O4 0.673572 0.094275 0.187012
O O5 0.918886 0.531677 0.141522
O O6 0.000495 0.225263 0.241678
O O7 0.085682 0.534241 0.144368
O O8 0.197801 0.191087 0.952207
O O9 0.325103 0.100844 0.063928
O O10 0.174898 0.899159 0.063929
O O11 0.500495 0.225264 0.758322
O O12 0.585682 0.534240 0.855632
O O13 0.826428 0.905724 0.187011
O O14 0.716222 0.781651 0.295593
O O15 0.783778 0.218350 0.295593
O O16 0.750000 0.499998 0.912695
#
# Coordination Sequence:
#
# PCOD9249767 Si02
#       8
#     4   4   4   4   4   4   4   4
#     4  11  24  45  69 103 145 187 240 296 365 428
#     4  12  26  44  75 114 140 183 248 307 359 421
#     4  11  26  44  68 101 148 200 228 291 370 436
#     4  12  26  44  75 114 140 183 248 307 359 421
#     4   9  20  40  68  95 130 186 230 297 338 420
#     4  11  24  45  69 103 145 187 240 296 365 428
#     4  10  23  43  69 104 139 187 239 291 361 425
#     4  10  23  43  69 104 139 187 239 291 361 425
#
# _framework density 22.195857
#
# number of rings (size 3 to 8) (size 9 to 14) (size 15 to 20)
#    0.750    0.500    2.500    2.250   12.250    1.000 
#    0.000    5.000    0.000    0.000    0.000    0.000 
#    0.000    0.000    0.000    0.000    0.000    0.000 
#
# Total GULP energy -178205.068305 kJ/mol
# GULP energy per Si atom -5568.908385 kJ/mol
# Density = 2.214534 g / cm^3
# Si number density = 22.195857 Si / 1000 Ang^3
#
#
#
# Elastic Constant Matrix: (Units=GPa)
#
#
# Indices 1 2 3 4 5 6 
#
# 1 143.6812 14.9203 25.4449 0.0000 -0.0002 0.0000
# 2 14.9203 75.8547 37.1726 0.0000 -0.0004 0.0000
# 3 25.4449 37.1726 136.1130 0.0000 -0.0002 0.0000
# 4 0.0000 0.0000 0.0000 -75.4379 0.0000 0.0005
# 5 -0.0002 -0.0004 -0.0002 0.0000 41.0045 0.0000
# 6 0.0000 0.0000 0.0000 0.0005 0.0000 26.9523
#
#
#
# Elastic Compliance Matrix: (Units=1/GPa)
#
#
# Indices 1 2 3 4 5 6 
#
# 1 0.007249 -0.000879 -0.001115 0.000000 0.000000 0.000000
# 2 -0.000879 0.015327 -0.004021 0.000000 0.000000 0.000000
# 3 -0.001115 -0.004021 0.008653 0.000000 0.000000 0.000000
# 4 0.000000 0.000000 0.000000 -0.013256 0.000000 0.000000
# 5 0.000000 0.000000 0.000000 0.000000 0.024388 0.000000
# 6 0.000000 0.000000 0.000000 0.000000 0.000000 0.037103
#
#
# Mechanical properties :
#
#
# Convention : Reuss Voigt Hill
#
# Bulk Modulus (GPa) = 52.09003 56.74715 54.41859
# Shear Modulus (GPa) = 51.07588 17.04453 34.06021
#
# Velocity S-wave (km/s) = 4.80223 2.77413 3.92156
# Velocity P-wave (km/s) = 7.36667 5.99025 6.71383
#
# Compressibility (1/GPa) = 0.01919753
#
# Stress axis : x y z
#
# Youngs Moduli (GPa) = 137.95747 65.24548 115.56035
#
# Poissons Ratio (x) = 0.05738 0.12884
# Poissons Ratio (y) = 0.12132 0.46471
# Poissons Ratio (z) = 0.15381 0.26237
#
# Static dielectric constant tensor:
#      x y z
#    x 1.853130 0.000000 0.000000 
#    y 0.000000 2.071060 0.000000 
#    z 0.000000 0.000000 1.796030 
# 
# From -- ./inp_files/58618.got.cif
#   From: 2010.05.17/outbox.cif.g08.bks.cpg/sg14_30_cif.got.tgz:58618.got - 2010.06.03 17:49:19.
