data_PCOD9249867
_publ_section_title
;
Structure prediction by ZEFSAII (Michael W. Deem and Ramdas Pophale) SiO2 
 PCOD9249867
Probable space group: P 21/C
;
_chemical_formula_sum "Si O2"
_cell_formula_units_Z 22
_cell_length_a 8.101674
_cell_length_b 17.276334
_cell_length_c 8.415962
_cell_angle_alpha 90.000000
_cell_angle_beta 56.738834
_cell_angle_gamma 90.000000
_cell_volume 984.984795
_symmetry_space_group_name_H-M "P 21/C"
_symmetry_group_IT_number 14
_symmetry_cell_setting 'monoclinic'
loop_
_space_group_symop_operation_xyz
x,y,z
-x,1/2+y,1/2-z
-x,-y,-z
x,1/2-y,1/2+z
loop_
_atom_site_type_symbol
_atom_site_label
_atom_site_fract_x
_atom_site_fract_y
_atom_site_fract_z
Si Si1 0.145856 0.051345 0.815850
Si Si2 0.218969 0.853708 0.050211
Si Si3 0.500000 0.000000 0.000000
Si Si4 0.598319 0.281952 0.845694
Si Si5 0.489120 0.144249 0.701833
Si Si6 0.222640 0.984641 0.435578
O O1 0.324602 0.081147 0.833163
O O2 0.235068 0.010778 0.613271
O O3 0.007483 0.120674 0.828026
O O4 0.000000 0.000000 0.000000
O O5 0.351213 0.924577 0.045557
O O6 0.279912 0.834956 0.837470
O O7 0.265107 0.774767 0.120508
O O8 0.636427 0.975964 0.769491
O O9 0.471366 0.220950 0.812496
O O10 0.466235 0.332489 0.031783
O O11 0.702986 0.104578 0.600965
O O12 0.000000 0.000000 0.500000
#
# Coordination Sequence:
#
# PCOD9249867 Si02
#       6
#     4   4   2   4   4   4
#     4  12  25  42  69 108 140 184 237 301 361 422
#     4  11  23  43  69  99 139 188 235 294 354 428
#     4  12  22  44  72 102 138 180 242 292 348 416
#     4  10  23  44  67  94 143 192 233 293 363 431
#     4  11  23  43  66 101 139 189 229 296 354 431
#     4  12  24  43  71 103 139 181 234 293 355 413
#
# _framework density 22.335370000000001
#
# number of rings (size 3 to 8) (size 9 to 14) (size 15 to 20)
#    0.000    0.727    3.636    3.818    0.000    1.455 
#    0.000    7.273    0.000    0.000    0.000    0.000 
#    0.000    0.000    0.000    0.000    0.000    0.000 
#
# Total GULP energy -122473.897964 kJ/mol
# GULP energy per Si atom -5566.995362 kJ/mol
# Density = 2.228453 g / cm^3
# Si number density = 22.335370 Si / 1000 Ang^3
#
#
#
# Elastic Constant Matrix: (Units=GPa)
#
#
# Indices 1 2 3 4 5 6 
#
# 1 65.8458 18.9475 17.0755 0.0000 -22.8007 0.0000
# 2 18.9475 74.1378 24.4762 0.0000 -12.3899 0.0000
# 3 17.0755 24.4762 149.2693 0.0000 5.1626 0.0000
# 4 0.0000 0.0000 0.0000 42.4730 0.0000 9.9371
# 5 -22.8007 -12.3899 5.1626 0.0000 33.6068 0.0000
# 6 0.0000 0.0000 0.0000 9.9371 0.0000 34.4030
#
#
#
# Elastic Compliance Matrix: (Units=1/GPa)
#
#
# Indices 1 2 3 4 5 6 
#
# 1 0.021370 -0.002268 -0.002559 0.000000 0.014056 0.000000
# 2 -0.002268 0.015653 -0.002467 0.000000 0.004611 0.000000
# 3 -0.002559 -0.002467 0.007528 0.000000 -0.003802 0.000000
# 4 0.000000 0.000000 0.000000 0.025251 0.000000 -0.007294
# 5 0.014056 0.004611 -0.003802 0.000000 0.041576 0.000000
# 6 0.000000 0.000000 0.000000 -0.007294 0.000000 0.031174
#
#
# Mechanical properties :
#
#
# Convention : Reuss Voigt Hill
#
# Bulk Modulus (GPa) = 33.37293 45.58351 39.47822
# Shear Modulus (GPa) = 29.91731 37.34680 33.63205
#
# Velocity S-wave (km/s) = 3.66383 4.09356 3.88464
# Velocity P-wave (km/s) = 5.73345 6.54186 6.15095
#
# Compressibility (1/GPa) = 0.02996440
#
# Stress axis : x y z
#
# Youngs Moduli (GPa) = 46.79377 63.88558 132.83749
#
# Poissons Ratio (x) = 0.14488 0.33992
# Poissons Ratio (y) = 0.10612 0.32767
# Poissons Ratio (z) = 0.11974 0.15759
#
# Static dielectric constant tensor:
#      x y z
#    x 1.924700 0.000000 0.116380 
#    y 0.000000 1.838470 0.000000 
#    z 0.116380 0.000000 1.926020 
# 
# From -- ./inp_files/9344.got.cif
#   From: 2010.05.17/outbox.cif.g08.bks.cpg/sg14_5_cif.got.tgz:9344.got - 2010.06.03 17:49:19.
