data_PCOD9249569
_publ_section_title
;
Structure prediction by ZEFSAII (Michael W. Deem and Ramdas Pophale) SiO2 
 PCOD9249569
Probable space group: P 21/C
;
_chemical_formula_sum "Si O2"
_cell_formula_units_Z 28
_cell_length_a 20.169493
_cell_length_b 8.540081
_cell_length_c 14.522566
_cell_angle_alpha 90.000000
_cell_angle_beta 154.479890
_cell_angle_gamma 90.000000
_cell_volume 1077.715465
_symmetry_space_group_name_H-M "P 21/C"
_symmetry_group_IT_number 14
_symmetry_cell_setting 'monoclinic'
loop_
_space_group_symop_operation_xyz
x,y,z
-x,1/2+y,1/2-z
-x,-y,-z
x,1/2-y,1/2+z
loop_
_atom_site_type_symbol
_atom_site_label
_atom_site_fract_x
_atom_site_fract_y
_atom_site_fract_z
Si Si1 0.953789 0.641149 0.220549
Si Si2 0.533418 0.369554 0.233884
Si Si3 0.932612 0.333325 0.448533
Si Si4 0.175265 0.806976 0.376277
Si Si5 0.567674 0.424719 0.490116
Si Si6 0.758415 0.708761 0.720247
Si Si7 0.332308 0.163887 0.200874
O O1 0.083038 0.669046 0.462123
O O2 0.889431 0.467860 0.161335
O O3 0.051721 0.674862 0.251674
O O4 0.802592 0.753126 0.029426
O O5 0.655923 0.229715 0.378250
O O6 0.527061 0.437755 0.329509
O O7 0.611984 0.499862 0.267982
O O8 0.370460 0.296677 0.002287
O O9 0.074566 0.219533 0.611290
O O10 0.000000 0.500000 0.500000
O O11 0.808316 0.304331 0.214386
O O12 0.500000 0.500000 0.500000
O O13 0.724141 0.524965 0.689789
O O14 0.495150 0.253965 0.413196
O O15 0.744696 0.812367 0.795970
#
# Coordination Sequence:
#
# PCOD9249569 Si02
#       7
#     4   4   4   4   4   4   4
#     4  11  22  45  70  97 146 188 233 293 353 414
#     4  12  24  42  71 103 139 181 237 288 362 417
#     4  10  23  43  71  99 141 184 230 287 357 417
#     4  11  25  44  69 106 137 187 238 288 353 430
#     4  10  23  42  66  97 136 178 227 285 342 405
#     4  11  23  45  69 101 136 182 237 286 351 424
#     4  11  23  43  70 100 140 182 232 297 350 423
#
# _framework density 25.980882999999999
#
# number of rings (size 3 to 8) (size 9 to 14) (size 15 to 20)
#    0.000    1.143    1.429    4.714    2.000    3.429 
#   10.286    2.143    0.000    0.000    0.000    0.000 
#    0.000    0.000    0.000    0.000    0.000    0.000 
#
# Total GULP energy -156224.616708 kJ/mol
# GULP energy per Si atom -5579.450597 kJ/mol
# Density = 2.592175 g / cm^3
# Si number density = 25.980883 Si / 1000 Ang^3
#
#
#
# Elastic Constant Matrix: (Units=GPa)
#
#
# Indices 1 2 3 4 5 6 
#
# 1 97.5124 7.9068 17.6503 0.0000 -17.9164 0.0000
# 2 7.9068 72.1590 17.4361 0.0000 9.9815 0.0000
# 3 17.6503 17.4361 69.1509 0.0000 -4.1444 0.0000
# 4 0.0000 0.0000 0.0000 42.9920 0.0000 6.4956
# 5 -17.9164 9.9815 -4.1444 0.0000 42.7242 0.0000
# 6 0.0000 0.0000 0.0000 6.4956 0.0000 32.4156
#
#
#
# Elastic Compliance Matrix: (Units=1/GPa)
#
#
# Indices 1 2 3 4 5 6 
#
# 1 0.011714 -0.001414 -0.002333 0.000000 0.005016 0.000000
# 2 -0.001414 0.015579 -0.003843 0.000000 -0.004605 0.000000
# 3 -0.002333 -0.003843 0.016114 0.000000 0.001483 0.000000
# 4 0.000000 0.000000 0.000000 0.023986 0.000000 -0.004807
# 5 0.005016 -0.004605 0.001483 0.000000 0.026729 0.000000
# 6 0.000000 0.000000 0.000000 -0.004807 0.000000 0.031813
#
#
# Mechanical properties :
#
#
# Convention : Reuss Voigt Hill
#
# Bulk Modulus (GPa) = 35.42645 36.08984 35.75815
# Shear Modulus (GPa) = 33.21737 36.68164 34.94951
#
# Velocity S-wave (km/s) = 3.57953 3.76156 3.67168
# Velocity P-wave (km/s) = 5.54520 5.72598 5.63632
#
# Compressibility (1/GPa) = 0.02822750
#
# Stress axis : x y z
#
# Youngs Moduli (GPa) = 85.37087 64.18940 62.05601
#
# Poissons Ratio (x) = 0.09074 0.14476
# Poissons Ratio (y) = 0.12069 0.23850
# Poissons Ratio (z) = 0.19915 0.24670
#
# Static dielectric constant tensor:
#      x y z
#    x 2.070230 0.000000 -0.051430 
#    y 0.000000 11.629460 0.000000 
#    z -0.051430 0.000000 2.207480 
# 
# From -- ./inp_files/50128.got.cif
#   From: 2010.05.17/outbox.cif.g08.bks.cpg/sg14_26_cif.got.tgz:50128.got - 2010.06.03 17:49:19.
