data_PCOD9249272
_publ_section_title
;
Structure prediction by ZEFSAII (Michael W. Deem and Ramdas Pophale) SiO2 
 PCOD9249272
Probable space group: P 21/C
;
_chemical_formula_sum "Si O2"
_cell_formula_units_Z 28
_cell_length_a 7.775620
_cell_length_b 13.254193
_cell_length_c 14.869810
_cell_angle_alpha 90.000000
_cell_angle_beta 137.877655
_cell_angle_gamma 90.000000
_cell_volume 1027.856204
_symmetry_space_group_name_H-M "P 21/C"
_symmetry_group_IT_number 14
_symmetry_cell_setting 'monoclinic'
loop_
_space_group_symop_operation_xyz
x,y,z
-x,1/2+y,1/2-z
-x,-y,-z
x,1/2-y,1/2+z
loop_
_atom_site_type_symbol
_atom_site_label
_atom_site_fract_x
_atom_site_fract_y
_atom_site_fract_z
Si Si1 0.760385 0.321020 0.045800
Si Si2 0.004512 0.201281 0.358836
Si Si3 0.773601 0.618451 0.233798
Si Si4 0.501901 0.584784 0.296062
Si Si5 0.968272 0.904377 0.182651
Si Si6 0.254146 0.111781 0.624906
Si Si7 0.554178 0.111837 0.905236
O O1 0.511935 0.380121 0.916663
O O2 0.999744 0.355019 0.078836
O O3 0.713327 0.201064 0.012387
O O4 0.816569 0.357749 0.167288
O O5 0.038494 0.318835 0.395914
O O6 0.194429 0.141004 0.499800
O O7 0.098534 0.187646 0.292705
O O8 0.714970 0.159056 0.250715
O O9 0.711943 0.637107 0.314775
O O10 0.929080 0.515011 0.294869
O O11 0.674002 0.494810 0.830358
O O12 0.632973 0.504469 0.415802
O O13 0.701310 0.903845 0.133774
O O14 0.480296 0.154936 0.777289
#
# Coordination Sequence:
#
# PCOD9249272 Si02
#       7
#     4   4   4   4   4   4   4
#     4  11  21  41  65  91 128 169 204 257 318 368
#     4  12  22  41  61  95 131 156 209 268 314 366
#     4  12  24  37  68  93 124 167 211 257 321 367
#     4  10  23  39  64  95 125 163 208 267 308 371
#     4  11  25  37  64  99 124 163 212 264 309 373
#     4   9  22  38  64  94 127 158 207 266 307 365
#     4   9  21  41  60  91 129 161 208 255 308 372
#
# _framework density 27.241163
#
# number of rings (size 3 to 8) (size 9 to 14) (size 15 to 20)
#    0.857    0.571    4.286    0.857    6.000    0.000 
#    0.000    0.714    0.000    1.714    0.000    0.000 
#    0.000    0.000    0.000    0.000    0.000    0.000 
#
# Total GULP energy -156589.768437 kJ/mol
# GULP energy per Si atom -5592.491730 kJ/mol
# Density = 2.717916 g / cm^3
# Si number density = 27.241163 Si / 1000 Ang^3
#
#
#
# Elastic Constant Matrix: (Units=GPa)
#
#
# Indices 1 2 3 4 5 6 
#
# 1 133.1891 31.4644 15.1634 0.0000 6.7848 0.0000
# 2 31.4644 137.9425 -4.1692 0.0000 5.3473 0.0000
# 3 15.1634 -4.1692 96.0415 0.0000 -3.7176 0.0000
# 4 0.0000 0.0000 0.0000 46.1112 0.0000 4.3323
# 5 6.7848 5.3473 -3.7176 0.0000 21.1928 0.0000
# 6 0.0000 0.0000 0.0000 4.3323 0.0000 41.6994
#
#
#
# Elastic Compliance Matrix: (Units=1/GPa)
#
#
# Indices 1 2 3 4 5 6 
#
# 1 0.008232 -0.001828 -0.001473 0.000000 -0.002433 0.000000
# 2 -0.001828 0.007733 0.000575 0.000000 -0.001265 0.000000
# 3 -0.001473 0.000575 0.010755 0.000000 0.002213 0.000000
# 4 0.000000 0.000000 0.000000 0.021900 0.000000 -0.002275
# 5 -0.002433 -0.001265 0.002213 0.000000 0.048672 0.000000
# 6 0.000000 0.000000 0.000000 -0.002275 0.000000 0.024218
#
#
# Mechanical properties :
#
#
# Convention : Reuss Voigt Hill
#
# Bulk Modulus (GPa) = 47.01819 50.23226 48.62522
# Shear Modulus (GPa) = 37.29937 43.44831 40.37384
#
# Velocity S-wave (km/s) = 3.70432 3.99802 3.85397
# Velocity P-wave (km/s) = 5.96603 6.30809 6.13944
#
# Compressibility (1/GPa) = 0.02126837
#
# Stress axis : x y z
#
# Youngs Moduli (GPa) = 121.48372 129.32012 92.97659
#
# Poissons Ratio (x) = 0.23638 0.13697
# Poissons Ratio (y) = 0.22205 -0.05349
# Poissons Ratio (z) = 0.17896 -0.07440
#
# Static dielectric constant tensor:
#      x y z
#    x 2.086670 0.000000 -0.021370 
#    y 0.000000 2.163390 0.000000 
#    z -0.021370 0.000000 2.221930 
# 
# From -- ./inp_files/55801.got.cif
#   From: 2010.05.17/outbox.cif.g08.bks.cpg/sg14_28_cif.got.tgz:55801.got - 2010.06.03 17:49:19.
