data_PCOD9249975
_publ_section_title
;
Structure prediction by ZEFSAII (Michael W. Deem and Ramdas Pophale) SiO2 
 PCOD9249975
Probable space group: P 21/C
;
_chemical_formula_sum "Si O2"
_cell_formula_units_Z 28
_cell_length_a 20.512279
_cell_length_b 8.946821
_cell_length_c 9.734296
_cell_angle_alpha 90.000000
_cell_angle_beta 39.988511
_cell_angle_gamma 90.000000
_cell_volume 1148.023831
_symmetry_space_group_name_H-M "P 21/C"
_symmetry_group_IT_number 14
_symmetry_cell_setting 'monoclinic'
loop_
_space_group_symop_operation_xyz
x,y,z
-x,1/2+y,1/2-z
-x,-y,-z
x,1/2-y,1/2+z
loop_
_atom_site_type_symbol
_atom_site_label
_atom_site_fract_x
_atom_site_fract_y
_atom_site_fract_z
Si Si1 0.811115 0.580324 0.874816
Si Si2 0.389192 0.439380 0.629397
Si Si3 0.806393 0.120601 0.123715
Si Si4 0.503598 0.175754 0.498803
Si Si5 0.152380 0.071923 0.178265
Si Si6 0.928185 0.082686 0.418752
Si Si7 0.620967 0.197410 0.048281
O O1 0.832009 0.502807 0.696203
O O2 0.811989 0.759003 0.860053
O O3 0.703125 0.533031 0.116906
O O4 0.896014 0.516987 0.841441
O O5 0.500000 0.500000 0.500000
O O6 0.405952 0.261649 0.597325
O O7 0.369016 0.526946 0.520773
O O8 0.890612 0.247205 0.958003
O O9 0.715612 0.212031 0.339615
O O10 0.779653 0.033621 0.027487
O O11 0.594713 0.218227 0.248220
O O12 0.527248 0.233398 0.612492
O O13 0.500000 0.000000 0.500000
O O14 0.045833 0.079830 0.267153
O O15 0.129181 0.989944 0.358213
#
# Coordination Sequence:
#
# PCOD9249975 Si02
#       7
#     4   4   4   4   4   4   4
#     4  12  25  45  73 107 144 188 240 303 362 439
#     4  10  23  45  66  99 143 180 235 289 344 425
#     4  12  25  43  74 100 143 186 240 292 366 436
#     4  11  25  44  71 101 142 185 233 293 354 412
#     4  11  27  46  69 109 140 183 240 306 370 430
#     4  11  25  47  73 100 145 187 236 297 370 445
#     4  11  24  44  70 103 136 189 235 285 355 427
#
# _framework density 24.389738000000001
#
# number of rings (size 3 to 8) (size 9 to 14) (size 15 to 20)
#    0.000    0.857    1.429    5.143    4.000    5.714 
#    7.714    0.000    0.000    0.000    0.000    0.000 
#    0.000    0.000    0.000    0.000    0.000    0.000 
#
# Total GULP energy -156876.531566 kJ/mol
# GULP energy per Si atom -5602.733270 kJ/mol
# Density = 2.433423 g / cm^3
# Si number density = 24.389738 Si / 1000 Ang^3
#
#
#
# Elastic Constant Matrix: (Units=GPa)
#
#
# Indices 1 2 3 4 5 6 
#
# 1 48.6462 13.7939 5.4360 0.0000 5.2695 0.0000
# 2 13.7939 171.6684 12.7352 0.0000 5.9063 0.0000
# 3 5.4360 12.7352 70.9696 0.0000 15.2860 0.0000
# 4 0.0000 0.0000 0.0000 34.4629 0.0000 -2.3672
# 5 5.2695 5.9063 15.2860 0.0000 37.2344 0.0000
# 6 0.0000 0.0000 0.0000 -2.3672 0.0000 37.7296
#
#
#
# Elastic Compliance Matrix: (Units=1/GPa)
#
#
# Indices 1 2 3 4 5 6 
#
# 1 0.021358 -0.001571 -0.000830 0.000000 -0.002433 0.000000
# 2 -0.001571 0.006030 -0.000881 0.000000 -0.000372 0.000000
# 3 -0.000830 -0.000881 0.015640 0.000000 -0.006163 0.000000
# 4 0.000000 0.000000 0.000000 0.029142 0.000000 0.001828
# 5 -0.002433 -0.000372 -0.006163 0.000000 0.029790 0.000000
# 6 0.000000 0.000000 0.000000 0.001828 0.000000 0.026619
#
#
# Mechanical properties :
#
#
# Convention : Reuss Voigt Hill
#
# Bulk Modulus (GPa) = 27.42520 39.46823 33.44672
# Shear Modulus (GPa) = 33.94460 39.17333 36.55897
#
# Velocity S-wave (km/s) = 3.73467 4.01202 3.87583
# Velocity P-wave (km/s) = 5.46498 6.13833 5.81142
#
# Compressibility (1/GPa) = 0.03646282
#
# Stress axis : x y z
#
# Youngs Moduli (GPa) = 46.82017 165.84825 63.93933
#
# Poissons Ratio (x) = 0.26053 0.05307
# Poissons Ratio (y) = 0.07355 0.05636
# Poissons Ratio (z) = 0.03886 0.14619
#
# Static dielectric constant tensor:
#      x y z
#    x 1.958010 0.000000 -0.054950 
#    y 0.000000 1.962650 0.000000 
#    z -0.054950 0.000000 1.893430 
# 
# From -- ./inp_files/18717.got.cif
#   From: 2010.05.17/outbox.cif.g08.bks.cpg/sg14_10_cif.got.tgz:18717.got - 2010.06.03 17:49:19.
