data_PCOD9249391
_publ_section_title
;
Structure prediction by ZEFSAII (Michael W. Deem and Ramdas Pophale) SiO2 
 PCOD9249391
Probable space group: P 21/C
;
_chemical_formula_sum "Si O2"
_cell_formula_units_Z 32
_cell_length_a 9.016679
_cell_length_b 11.858715
_cell_length_c 29.105755
_cell_angle_alpha 90.000000
_cell_angle_beta 148.821275
_cell_angle_gamma 90.000000
_cell_volume 1611.198792
_symmetry_space_group_name_H-M "P 21/C"
_symmetry_group_IT_number 14
_symmetry_cell_setting 'monoclinic'
loop_
_space_group_symop_operation_xyz
x,y,z
-x,1/2+y,1/2-z
-x,-y,-z
x,1/2-y,1/2+z
loop_
_atom_site_type_symbol
_atom_site_label
_atom_site_fract_x
_atom_site_fract_y
_atom_site_fract_z
Si Si1 0.042935 0.468301 0.828038
Si Si2 0.675245 0.183125 0.587496
Si Si3 0.199655 0.686129 0.619234
Si Si4 0.401879 0.174710 0.086021
Si Si5 0.829507 0.727796 0.610807
Si Si6 0.762264 0.674830 0.269352
Si Si7 0.840365 0.996520 0.174085
Si Si8 0.552262 0.938686 0.804859
O O1 0.299175 0.549447 0.909939
O O2 0.122464 0.337334 0.844678
O O3 0.915087 0.520282 0.747266
O O4 0.779288 0.466638 0.793758
O O5 0.576352 0.219275 0.612449
O O6 0.451926 0.241817 0.493757
O O7 0.990520 0.231680 0.662478
O O8 0.463304 0.767161 0.675869
O O9 0.300718 0.557022 0.644771
O O10 0.926651 0.694187 0.513669
O O11 0.080828 0.713208 0.639191
O O12 0.442322 0.143284 0.149580
O O13 0.546550 0.069753 0.096511
O O14 0.809815 0.615317 0.635871
O O15 0.705917 0.620660 0.303794
O O16 0.902964 0.575837 0.276338
#
# Coordination Sequence:
#
# PCOD9249391 Si02
#       8
#     4   4   4   4   4   4   4   4
#     4  11  23  40  64  91 124 165 210 253 310 377
#     4  10  23  41  62  91 127 161 210 254 312 375
#     4  11  21  38  64  92 126 157 204 255 317 365
#     4   9  23  39  62  91 125 158 202 260 306 367
#     4  11  23  40  65  88 125 170 201 261 314 368
#     4  11  22  39  61  92 123 158 205 260 303 378
#     4  10  24  39  64  92 121 161 215 251 310 366
#     4  11  21  38  61  92 124 160 203 254 314 367
#
# _framework density 19.860987000000002
#
# number of rings (size 3 to 8) (size 9 to 14) (size 15 to 20)
#    0.000    1.500    3.750    0.750    7.000    1.500 
#    2.250    0.000    0.000    1.500    0.000    0.000 
#    0.000    0.000    0.000    0.000    0.000    0.000 
#
# Total GULP energy -178615.299454 kJ/mol
# GULP energy per Si atom -5581.728108 kJ/mol
# Density = 1.981578 g / cm^3
# Si number density = 19.860987 Si / 1000 Ang^3
#
#
#
# Elastic Constant Matrix: (Units=GPa)
#
#
# Indices 1 2 3 4 5 6 
#
# 1 79.8563 22.0675 27.0408 0.0000 11.2741 0.0000
# 2 22.0675 71.9473 37.2716 0.0000 10.0859 0.0000
# 3 27.0408 37.2716 82.9733 0.0000 20.3365 0.0000
# 4 0.0000 0.0000 0.0000 26.5216 0.0000 0.3301
# 5 11.2741 10.0859 20.3365 0.0000 30.6018 0.0000
# 6 0.0000 0.0000 0.0000 0.3301 0.0000 20.7301
#
#
#
# Elastic Compliance Matrix: (Units=1/GPa)
#
#
# Indices 1 2 3 4 5 6 
#
# 1 0.014603 -0.002580 -0.002974 0.000000 -0.002553 0.000000
# 2 -0.002580 0.018582 -0.007452 0.000000 -0.000222 0.000000
# 3 -0.002974 -0.007452 0.018514 0.000000 -0.008752 0.000000
# 4 0.000000 0.000000 0.000000 0.037713 0.000000 -0.000601
# 5 -0.002553 -0.000222 -0.008752 0.000000 0.039507 0.000000
# 6 0.000000 0.000000 0.000000 -0.000601 0.000000 0.048249
#
#
# Mechanical properties :
#
#
# Convention : Reuss Voigt Hill
#
# Bulk Modulus (GPa) = 38.93185 45.28187 42.10686
# Shear Modulus (GPa) = 23.61366 25.46383 24.53874
#
# Velocity S-wave (km/s) = 3.45185 3.58453 3.51882
# Velocity P-wave (km/s) = 5.96085 6.32303 6.14461
#
# Compressibility (1/GPa) = 0.02568591
#
# Stress axis : x y z
#
# Youngs Moduli (GPa) = 68.47850 53.81591 54.01411
#
# Poissons Ratio (x) = 0.13886 0.16066
# Poissons Ratio (y) = 0.17670 0.40250
# Poissons Ratio (z) = 0.20368 0.40102
#
# Static dielectric constant tensor:
#      x y z
#    x 1.688500 0.000000 0.003860 
#    y 0.000000 1.720150 0.000000 
#    z 0.003860 0.000000 1.722220 
# 
# From -- ./inp_files/59401.got.cif
#   From: 2010.05.17/outbox.cif.g08.bks.cpg/sg14_30_cif.got.tgz:59401.got - 2010.06.03 17:49:19.
