data_PCOD9249525
_publ_section_title
;
Structure prediction by ZEFSAII (Michael W. Deem and Ramdas Pophale) SiO2 
 PCOD9249525
Probable space group: P 21/C
;
_chemical_formula_sum "Si O2"
_cell_formula_units_Z 20
_cell_length_a 4.897919
_cell_length_b 8.498199
_cell_length_c 21.071023
_cell_angle_alpha 90.000000
_cell_angle_beta 74.344921
_cell_angle_gamma 90.000000
_cell_volume 844.514148
_symmetry_space_group_name_H-M "P 21/C"
_symmetry_group_IT_number 14
_symmetry_cell_setting 'monoclinic'
loop_
_space_group_symop_operation_xyz
x,y,z
-x,1/2+y,1/2-z
-x,-y,-z
x,1/2-y,1/2+z
loop_
_atom_site_type_symbol
_atom_site_label
_atom_site_fract_x
_atom_site_fract_y
_atom_site_fract_z
Si Si1 0.226373 0.169363 0.262611
Si Si2 0.617360 0.204693 0.342259
Si Si3 0.628001 0.330718 0.478684
Si Si4 0.618357 0.386658 0.165310
Si Si5 0.937338 0.836940 0.467576
O O1 0.915193 0.204469 0.997918
O O2 0.411711 0.243799 0.195460
O O3 0.893181 0.194321 0.280322
O O4 0.294797 0.989350 0.277512
O O5 0.668687 0.302653 0.401443
O O6 0.344829 0.255734 0.318885
O O7 0.547201 0.022632 0.363679
O O8 0.500000 0.500000 0.500000
O O9 0.391458 0.204774 0.516475
O O10 0.893879 0.338836 0.109075
O O11 0.000000 0.000000 0.500000
#
# Coordination Sequence:
#
# PCOD9249525 Si02
#       5
#     4   4   4   4   4
#     4  10  24  40  66  91 132 170 226 269 339 387
#     4  10  23  42  64  93 136 166 225 273 332 401
#     4  12  26  44  69 104 139 178 226 286 341 401
#     4  10  25  41  69  95 134 174 229 273 341 405
#     4  12  24  44  75 100 138 181 230 279 349 410
#
# _framework density 23.682255000000001
#
# number of rings (size 3 to 8) (size 9 to 14) (size 15 to 20)
#    1.200    0.000    2.000    3.600    5.600    3.200 
#    0.000    0.000    0.000    0.000    0.000    0.000 
#    0.000    0.000    0.000    0.000    0.000    0.000 
#
# Total GULP energy -111799.387357 kJ/mol
# GULP energy per Si atom -5589.969368 kJ/mol
# Density = 2.362835 g / cm^3
# Si number density = 23.682255 Si / 1000 Ang^3
#
#
#
# Elastic Constant Matrix: (Units=GPa)
#
#
# Indices 1 2 3 4 5 6 
#
# 1 75.3861 -7.9623 -10.5323 0.0000 -10.9477 0.0000
# 2 -7.9623 59.2915 -2.0588 0.0000 7.2059 0.0000
# 3 -10.5323 -2.0588 54.2929 0.0000 -23.0820 0.0000
# 4 0.0000 0.0000 0.0000 28.7374 0.0000 -6.1369
# 5 -10.9477 7.2059 -23.0820 0.0000 40.4438 0.0000
# 6 0.0000 0.0000 0.0000 -6.1369 0.0000 32.4764
#
#
#
# Elastic Compliance Matrix: (Units=1/GPa)
#
#
# Indices 1 2 3 4 5 6 
#
# 1 0.015358 0.001372 0.006199 0.000000 0.007451 0.000000
# 2 0.001372 0.017392 -0.000309 0.000000 -0.002904 0.000000
# 3 0.006199 -0.000309 0.026864 0.000000 0.017065 0.000000
# 4 0.000000 0.000000 0.000000 0.036261 0.000000 0.006852
# 5 0.007451 -0.002904 0.017065 0.000000 0.036999 0.000000
# 6 0.000000 0.000000 0.000000 0.006852 0.000000 0.032086
#
#
# Mechanical properties :
#
#
# Convention : Reuss Voigt Hill
#
# Bulk Modulus (GPa) = 13.48810 16.42931 14.95870
# Shear Modulus (GPa) = 28.54703 34.29980 31.42341
#
# Velocity S-wave (km/s) = 3.47568 3.80983 3.64658
# Velocity P-wave (km/s) = 4.67065 5.12889 4.90512
#
# Compressibility (1/GPa) = 0.07413942
#
# Stress axis : x y z
#
# Youngs Moduli (GPa) = 65.11260 57.49690 37.22395
#
# Poissons Ratio (x) = -0.07890 -0.23075
# Poissons Ratio (y) = -0.08935 0.01149
# Poissons Ratio (z) = -0.40362 0.01775
#
# Static dielectric constant tensor:
#      x y z
#    x 1.823150 0.000000 0.082880 
#    y 0.000000 1.900770 0.000000 
#    z 0.082880 0.000000 1.880120 
# 
# From -- ./inp_files/62978.got.cif
#   From: 2010.05.17/outbox.cif.g08.bks.cpg/sg14_32_cif.got.tgz:62978.got - 2010.06.03 17:49:19.
