data_PCOD9249067
_publ_section_title
;
Structure prediction by ZEFSAII (Michael W. Deem and Ramdas Pophale) SiO2 
 PCOD9249067
Probable space group: P 21/C
;
_chemical_formula_sum "Si O2"
_cell_formula_units_Z 32
_cell_length_a 29.989596
_cell_length_b 7.752081
_cell_length_c 13.621475
_cell_angle_alpha 90.000000
_cell_angle_beta 22.695740
_cell_angle_gamma 90.000000
_cell_volume 1221.848706
_symmetry_space_group_name_H-M "P 21/C"
_symmetry_group_IT_number 14
_symmetry_cell_setting 'monoclinic'
loop_
_space_group_symop_operation_xyz
x,y,z
-x,1/2+y,1/2-z
-x,-y,-z
x,1/2-y,1/2+z
loop_
_atom_site_type_symbol
_atom_site_label
_atom_site_fract_x
_atom_site_fract_y
_atom_site_fract_z
Si Si1 0.131665 0.615002 0.689127
Si Si2 0.483045 0.242321 0.559659
Si Si3 0.272123 0.806623 0.728765
Si Si4 0.773078 0.718208 0.420010
Si Si5 0.960867 0.265655 0.420752
Si Si6 0.036794 0.130692 0.073787
Si Si7 0.465336 0.578034 0.723892
Si Si8 0.624407 0.956111 0.065078
O O1 0.244021 0.683764 0.401500
O O2 0.158217 0.412070 0.648794
O O3 0.028845 0.701581 0.835239
O O4 0.095269 0.676690 0.871054
O O5 0.497763 0.401194 0.604603
O O6 0.563002 0.286237 0.305434
O O7 0.351714 0.265695 0.784706
O O8 0.471236 0.073206 0.652464
O O9 0.355162 0.952637 0.517068
O O10 0.336513 0.633944 0.563031
O O11 0.151827 0.813168 0.915304
O O12 0.736030 0.618102 0.394428
O O13 0.848571 0.873039 0.225098
O O14 0.022843 0.446044 0.321387
O O15 0.039949 0.158754 0.184548
O O16 0.565655 0.640102 0.593032
#
# Coordination Sequence:
#
# PCOD9249067 Si02
#       8
#     4   4   4   4   4   4   4   4
#     4  11  24  44  66 100 130 179 233 275 348 405
#     4   9  23  42  67  99 135 176 227 280 335 401
#     4  11  25  41  69  95 136 178 224 286 334 406
#     4  10  22  46  63  99 135 176 225 278 339 401
#     4  11  23  45  65 103 134 173 225 283 342 406
#     4  11  24  41  73  96 134 178 218 286 341 408
#     4  11  22  44  67 102 136 177 233 276 338 404
#     4  10  23  43  65  96 136 180 222 277 336 400
#
# _framework density 26.189824000000002
#
# number of rings (size 3 to 8) (size 9 to 14) (size 15 to 20)
#    0.750    0.750    1.250    3.000    1.750    7.500 
#    4.500    0.000    0.000    0.000    0.000    0.000 
#    0.000    0.000    0.000    0.000    0.000    0.000 
#
# Total GULP energy -178538.317138 kJ/mol
# GULP energy per Si atom -5579.322411 kJ/mol
# Density = 2.613021 g / cm^3
# Si number density = 26.189824 Si / 1000 Ang^3
#
#
#
# Elastic Constant Matrix: (Units=GPa)
#
#
# Indices 1 2 3 4 5 6 
#
# 1 94.9466 7.5504 25.0829 0.0000 17.4817 0.0000
# 2 7.5504 74.0008 8.6807 0.0000 15.1716 0.0000
# 3 25.0829 8.6807 135.9012 0.0000 43.6253 0.0000
# 4 0.0000 0.0000 0.0000 40.0413 0.0000 4.5563
# 5 17.4817 15.1716 43.6253 0.0000 40.6183 0.0000
# 6 0.0000 0.0000 0.0000 4.5563 0.0000 31.4147
#
#
#
# Elastic Compliance Matrix: (Units=1/GPa)
#
#
# Indices 1 2 3 4 5 6 
#
# 1 0.011502 -0.000265 -0.000837 0.000000 -0.003952 0.000000
# 2 -0.000265 0.014781 0.001283 0.000000 -0.006784 0.000000
# 3 -0.000837 0.001283 0.011399 0.000000 -0.012362 0.000000
# 4 0.000000 0.000000 0.000000 0.025393 0.000000 -0.003683
# 5 -0.003952 -0.006784 -0.012362 0.000000 0.042131 0.000000
# 6 0.000000 0.000000 0.000000 -0.003683 0.000000 0.032366
#
#
# Mechanical properties :
#
#
# Convention : Reuss Voigt Hill
#
# Bulk Modulus (GPa) = 26.28635 43.05296 34.66966
# Shear Modulus (GPa) = 33.35697 39.98382 36.67040
#
# Velocity S-wave (km/s) = 3.57271 3.91153 3.74595
# Velocity P-wave (km/s) = 5.20362 6.07245 5.65474
#
# Compressibility (1/GPa) = 0.03804256
#
# Stress axis : x y z
#
# Youngs Moduli (GPa) = 86.93998 67.65492 87.72617
#
# Poissons Ratio (x) = 0.01794 0.07346
# Poissons Ratio (y) = 0.02305 -0.11252
# Poissons Ratio (z) = 0.07280 -0.08678
#
# Static dielectric constant tensor:
#      x y z
#    x 2.081490 0.000000 -0.030180 
#    y 0.000000 2.078880 0.000000 
#    z -0.030180 0.000000 2.058620 
# 
# From -- ./inp_files/36458.got.cif
#   From: 2010.05.17/outbox.cif.g08.bks.cpg/sg14_19_cif.got.tgz:36458.got - 2010.06.03 17:49:19.
