data_PCOD9249270
_publ_section_title
;
Structure prediction by ZEFSAII (Michael W. Deem and Ramdas Pophale) SiO2 
 PCOD9249270
Probable space group: P 21/C
;
_chemical_formula_sum "Si O2"
_cell_formula_units_Z 16
_cell_length_a 9.037323
_cell_length_b 7.129361
_cell_length_c 11.809326
_cell_angle_alpha 90.000000
_cell_angle_beta 52.558476
_cell_angle_gamma 90.000000
_cell_volume 604.118211
_symmetry_space_group_name_H-M "P 21/C"
_symmetry_group_IT_number 14
_symmetry_cell_setting 'monoclinic'
loop_
_space_group_symop_operation_xyz
x,y,z
-x,1/2+y,1/2-z
-x,-y,-z
x,1/2-y,1/2+z
loop_
_atom_site_type_symbol
_atom_site_label
_atom_site_fract_x
_atom_site_fract_y
_atom_site_fract_z
Si Si1 0.176789 0.628140 0.208658
Si Si2 0.288981 0.152422 0.848088
Si Si3 0.569375 0.333299 0.581327
Si Si4 0.164496 0.026428 0.292650
O O1 0.220022 0.451417 0.266502
O O2 0.000039 0.596546 0.211141
O O3 0.145782 0.805165 0.304358
O O4 0.344798 0.692676 0.048665
O O5 0.290317 0.997064 0.944024
O O6 0.502355 0.213927 0.723249
O O7 0.178800 0.349029 0.900499
O O8 0.369217 0.424862 0.643822
#
# Coordination Sequence:
#
# PCOD9249270 Si02
#       4
#     4   4   4   4
#     4  12  21  45  65  93 127 168 205 260 319 360
#     4  10  23  42  61  96 127 158 218 253 304 380
#     4  10  23  42  66  91 130 165 203 264 316 361
#     4  10  23  39  64  92 127 161 213 257 297 387
#
# _framework density 26.484885999999999
#
# number of rings (size 3 to 8) (size 9 to 14) (size 15 to 20)
#    1.500    0.000    2.500    3.000    0.000    1.000 
#    0.000    5.000    0.000    0.000    0.000    0.000 
#    0.000    0.000    0.000    0.000    0.000    0.000 
#
# Total GULP energy -89492.558464 kJ/mol
# GULP energy per Si atom -5593.284904 kJ/mol
# Density = 2.642461 g / cm^3
# Si number density = 26.484886 Si / 1000 Ang^3
#
#
#
# Elastic Constant Matrix: (Units=GPa)
#
#
# Indices 1 2 3 4 5 6 
#
# 1 123.3773 14.4590 -17.6867 0.0000 2.7428 0.0000
# 2 14.4590 131.2355 -27.1716 0.0000 11.8871 0.0000
# 3 -17.6867 -27.1716 65.6099 0.0000 -5.2017 0.0000
# 4 0.0000 0.0000 0.0000 4.4217 0.0000 18.7820
# 5 2.7428 11.8871 -5.2017 0.0000 31.7738 0.0000
# 6 0.0000 0.0000 0.0000 18.7820 0.0000 58.2707
#
#
#
# Elastic Compliance Matrix: (Units=1/GPa)
#
#
# Indices 1 2 3 4 5 6 
#
# 1 0.008463 -0.000486 0.002063 0.000000 -0.000211 0.000000
# 2 -0.000486 0.008578 0.003212 0.000000 -0.002641 0.000000
# 3 0.002063 0.003212 0.017242 0.000000 0.001443 0.000000
# 4 0.000000 0.000000 0.000000 -0.612702 0.000000 0.197488
# 5 -0.000211 -0.002641 0.001443 0.000000 0.032715 0.000000
# 6 0.000000 0.000000 0.000000 0.197488 0.000000 -0.046494
#
#
# Mechanical properties :
#
#
# Convention : Reuss Voigt Hill
#
# Bulk Modulus (GPa) = 22.79930 28.82489 25.81209
# Shear Modulus (GPa) = -8.51563 42.26805 16.87621
#
# Velocity S-wave (km/s) = -1.79506 3.99924 2.52702
# Velocity P-wave (km/s) = 2.08105 5.67736 4.27570
#
# Compressibility (1/GPa) = 0.04386099
#
# Stress axis : x y z
#
# Youngs Moduli (GPa) = 118.16627 116.58140 57.99653
#
# Poissons Ratio (x) = 0.05667 -0.11966
# Poissons Ratio (y) = 0.05744 -0.18628
# Poissons Ratio (z) = -0.24381 -0.37445
#
# Static dielectric constant tensor:
#      x y z
#    x 2.035240 0.000000 0.024930 
#    y 0.000000 2.078530 0.000000 
#    z 0.024930 0.000000 2.187830 
# 
# From -- ./inp_files/22664.got.cif
#   From: 2010.05.17/outbox.cif.g08.bks.cpg/sg14_12_cif.got.tgz:22664.got - 2010.06.03 17:49:19.
