data_PCOD9249886
_publ_section_title
;
Structure prediction by ZEFSAII (Michael W. Deem and Ramdas Pophale) SiO2 
 PCOD9249886
Probable space group: P 21/C
;
_chemical_formula_sum "Si O2"
_cell_formula_units_Z 20
_cell_length_a 5.295592
_cell_length_b 16.013877
_cell_length_c 13.784934
_cell_angle_alpha 90.000000
_cell_angle_beta 130.181466
_cell_angle_gamma 90.000000
_cell_volume 893.124027
_symmetry_space_group_name_H-M "P 21/C"
_symmetry_group_IT_number 14
_symmetry_cell_setting 'monoclinic'
loop_
_space_group_symop_operation_xyz
x,y,z
-x,1/2+y,1/2-z
-x,-y,-z
x,1/2-y,1/2+z
loop_
_atom_site_type_symbol
_atom_site_label
_atom_site_fract_x
_atom_site_fract_y
_atom_site_fract_z
Si Si1 0.636307 0.367424 0.174048
Si Si2 0.063710 0.643198 0.554623
Si Si3 0.686689 0.033236 0.363438
Si Si4 0.477033 0.478298 0.607438
Si Si5 0.128113 0.815019 0.479694
O O1 0.881249 0.335598 0.318988
O O2 0.599013 0.468249 0.176057
O O3 0.766055 0.340706 0.101786
O O4 0.264143 0.333256 0.101105
O O5 0.271000 0.558921 0.590980
O O6 0.180750 0.718653 0.517540
O O7 0.702017 0.611489 0.436661
O O8 0.736651 0.028399 0.259938
O O9 0.658568 0.127402 0.394019
O O10 0.000000 0.000000 0.500000
O O11 0.500000 0.500000 0.500000
#
# Coordination Sequence:
#
# PCOD9249886 Si02
#       5
#     4   4   4   4   4
#     4  10  24  43  67  96 140 175 223 281 340 398
#     4  10  25  41  64 100 130 183 224 283 338 405
#     4   9  21  43  68 101 132 182 226 273 344 403
#     4  10  23  44  68  92 140 179 227 278 346 405
#     4  11  24  41  69 100 133 174 230 282 328 407
#
# _framework density 22.393308999999999
#
# number of rings (size 3 to 8) (size 9 to 14) (size 15 to 20)
#    0.000    2.000    0.000    0.600   14.000    0.000 
#   10.800    0.000    0.000    0.000    0.000    0.000 
#    0.000    0.000    0.000    0.000    0.000    0.000 
#
# Total GULP energy -111529.515774 kJ/mol
# GULP energy per Si atom -5576.475789 kJ/mol
# Density = 2.234234 g / cm^3
# Si number density = 22.393309 Si / 1000 Ang^3
#
#
#
# Elastic Constant Matrix: (Units=GPa)
#
#
# Indices 1 2 3 4 5 6 
#
# 1 102.0853 30.5743 58.3114 0.0000 -33.8652 0.0000
# 2 30.5743 117.5672 37.6622 0.0000 -16.3384 0.0000
# 3 58.3114 37.6622 189.0038 0.0000 -41.6881 0.0000
# 4 0.0000 0.0000 0.0000 16.9566 0.0000 -5.0431
# 5 -33.8652 -16.3384 -41.6881 0.0000 37.6103 0.0000
# 6 0.0000 0.0000 0.0000 -5.0431 0.0000 24.3634
#
#
#
# Elastic Compliance Matrix: (Units=1/GPa)
#
#
# Indices 1 2 3 4 5 6 
#
# 1 0.014926 -0.001803 -0.001925 0.000000 0.010523 0.000000
# 2 -0.001803 0.009495 -0.001038 0.000000 0.001351 0.000000
# 3 -0.001925 -0.001038 0.007425 0.000000 0.006046 0.000000
# 4 0.000000 0.000000 0.000000 0.062843 0.000000 0.013008
# 5 0.010523 0.001351 0.006046 0.000000 0.043353 0.000000
# 6 0.000000 0.000000 0.000000 0.013008 0.000000 0.043738
#
#
# Mechanical properties :
#
#
# Convention : Reuss Voigt Hill
#
# Bulk Modulus (GPa) = 44.81169 73.52801 59.16985
# Shear Modulus (GPa) = 25.15751 34.59328 29.87540
#
# Velocity S-wave (km/s) = 3.35541 3.93466 3.65653
# Velocity P-wave (km/s) = 5.92168 7.31766 6.65637
#
# Compressibility (1/GPa) = 0.02231561
#
# Stress axis : x y z
#
# Youngs Moduli (GPa) = 66.99762 105.32084 134.67799
#
# Poissons Ratio (x) = 0.18985 0.25921
# Poissons Ratio (y) = 0.12077 0.13977
# Poissons Ratio (z) = 0.12895 0.10931
#
# Static dielectric constant tensor:
#      x y z
#    x 1.888950 0.000000 0.016800 
#    y 0.000000 1.805120 0.000000 
#    z 0.016800 0.000000 2.494600 
# 
# From -- ./inp_files/21350.got.cif
#   From: 2010.05.17/outbox.cif.g08.bks.cpg/sg14_11_cif.got.tgz:21350.got - 2010.06.03 17:49:19.
