data_PCOD9249574
_publ_section_title
;
Structure prediction by ZEFSAII (Michael W. Deem and Ramdas Pophale) SiO2 
 PCOD9249574
Probable space group: P 21/C
;
_chemical_formula_sum "Si O2"
_cell_formula_units_Z 32
_cell_length_a 16.143715
_cell_length_b 11.430801
_cell_length_c 14.696222
_cell_angle_alpha 90.000000
_cell_angle_beta 145.879126
_cell_angle_gamma 90.000000
_cell_volume 1521.257571
_symmetry_space_group_name_H-M "P 21/C"
_symmetry_group_IT_number 14
_symmetry_cell_setting 'monoclinic'
loop_
_space_group_symop_operation_xyz
x,y,z
-x,1/2+y,1/2-z
-x,-y,-z
x,1/2-y,1/2+z
loop_
_atom_site_type_symbol
_atom_site_label
_atom_site_fract_x
_atom_site_fract_y
_atom_site_fract_z
Si Si1 0.126558 0.468314 0.187053
Si Si2 0.108447 0.951041 0.373129
Si Si3 0.333178 0.348465 0.139563
Si Si4 0.522785 0.775556 0.898023
Si Si5 0.950845 0.573146 0.369463
Si Si6 0.778212 0.208990 0.964246
Si Si7 0.630020 0.457050 0.475851
Si Si8 0.709806 0.764189 0.728441
O O1 0.261167 0.554787 0.337806
O O2 0.204095 0.353983 0.219249
O O3 0.039991 0.444867 0.202124
O O4 0.000000 0.500000 0.000000
O O5 0.180424 0.822943 0.439048
O O6 0.214154 0.049066 0.516459
O O7 0.075307 0.994852 0.242611
O O8 0.388335 0.307214 0.091540
O O9 0.471270 0.395298 0.324519
O O10 0.286126 0.237643 0.158558
O O11 0.352727 0.754526 0.719535
O O12 0.584453 0.905839 0.932795
O O13 0.558258 0.743050 0.034240
O O14 0.801388 0.633951 0.265450
O O15 0.000000 0.500000 0.500000
O O16 0.077333 0.666375 0.457621
O O17 0.717753 0.102344 0.971383
#
# Coordination Sequence:
#
# PCOD9249574 Si02
#       8
#     4   4   4   4   4   4   4   4
#     4  11  22  37  66  97 132 174 228 281 335 400
#     4  12  23  45  68  97 138 182 228 283 340 416
#     4  11  23  42  69  96 139 177 229 285 342 406
#     4  10  23  44  70  97 136 178 232 280 336 409
#     4  12  28  45  67 102 140 182 227 282 348 411
#     4  11  24  46  70  99 138 183 228 279 342 413
#     4  10  23  42  67 100 130 181 227 277 344 399
#     4  11  24  41  66 102 132 177 225 280 342 403
#
# _framework density 21.035228
#
# number of rings (size 3 to 8) (size 9 to 14) (size 15 to 20)
#    0.000    1.000    6.250    0.000    1.750    5.000 
#    4.500    0.625    0.000    0.000    0.000    0.000 
#    0.000    0.000    0.000    0.000    0.000    0.000 
#
# Total GULP energy -178635.648918 kJ/mol
# GULP energy per Si atom -5582.364029 kJ/mol
# Density = 2.098735 g / cm^3
# Si number density = 21.035228 Si / 1000 Ang^3
#
#
#
# Elastic Constant Matrix: (Units=GPa)
#
#
# Indices 1 2 3 4 5 6 
#
# 1 31.8608 -0.0797 15.3780 0.0000 -14.9356 0.0000
# 2 -0.0797 56.2281 33.8569 0.0000 -6.6966 0.0000
# 3 15.3780 33.8569 145.7362 0.0000 -17.6083 0.0000
# 4 0.0000 0.0000 0.0000 30.7101 0.0000 1.0707
# 5 -14.9356 -6.6966 -17.6083 0.0000 34.4339 0.0000
# 6 0.0000 0.0000 0.0000 1.0707 0.0000 22.9057
#
#
#
# Elastic Compliance Matrix: (Units=1/GPa)
#
#
# Indices 1 2 3 4 5 6 
#
# 1 0.040843 0.003993 -0.003201 0.000000 0.016855 0.000000
# 2 0.003993 0.021158 -0.004935 0.000000 0.003323 0.000000
# 3 -0.003201 -0.004935 0.008593 0.000000 0.002046 0.000000
# 4 0.000000 0.000000 0.000000 0.032616 0.000000 -0.001525
# 5 0.016855 0.003323 0.002046 0.000000 0.038044 0.000000
# 6 0.000000 0.000000 0.000000 -0.001525 0.000000 0.043729
#
#
# Mechanical properties :
#
#
# Convention : Reuss Voigt Hill
#
# Bulk Modulus (GPa) = 16.04956 36.90393 26.47675
# Shear Modulus (GPa) = 23.36037 29.92128 26.64082
#
# Velocity S-wave (km/s) = 3.33609 3.77561 3.56263
# Velocity P-wave (km/s) = 4.74191 6.04888 5.43483
#
# Compressibility (1/GPa) = 0.06230700
#
# Stress axis : x y z
#
# Youngs Moduli (GPa) = 24.48422 47.26414 116.37139
#
# Poissons Ratio (x) = -0.18871 0.37248
# Poissons Ratio (y) = -0.09776 0.57430
# Poissons Ratio (z) = 0.07837 0.23325
#
# Static dielectric constant tensor:
#      x y z
#    x 1.852550 0.000000 0.082130 
#    y 0.000000 1.770780 0.000000 
#    z 0.082130 0.000000 1.844480 
# 
# From -- ./inp_files/49049.got.cif
#   From: 2010.05.17/outbox.cif.g08.bks.cpg/sg14_25_cif.got.tgz:49049.got - 2010.06.03 17:49:19.
