data_PCOD9249301
_publ_section_title
;
Structure prediction by ZEFSAII (Michael W. Deem and Ramdas Pophale) SiO2 
 PCOD9249301
Probable space group: P 21/C
;
_chemical_formula_sum "Si O2"
_cell_formula_units_Z 20
_cell_length_a 7.757368
_cell_length_b 12.114227
_cell_length_c 9.764400
_cell_angle_alpha 90.000000
_cell_angle_beta 113.147218
_cell_angle_gamma 90.000000
_cell_volume 843.735621
_symmetry_space_group_name_H-M "P 21/C"
_symmetry_group_IT_number 14
_symmetry_cell_setting 'monoclinic'
loop_
_space_group_symop_operation_xyz
x,y,z
-x,1/2+y,1/2-z
-x,-y,-z
x,1/2-y,1/2+z
loop_
_atom_site_type_symbol
_atom_site_label
_atom_site_fract_x
_atom_site_fract_y
_atom_site_fract_z
Si Si1 0.588610 0.300328 0.826766
Si Si2 0.196600 0.913721 0.823501
Si Si3 0.688091 0.061047 0.854493
Si Si4 0.717170 0.975141 0.399366
Si Si5 0.196692 0.365946 0.797467
O O1 0.629693 0.345104 0.685963
O O2 0.712736 0.192043 0.877222
O O3 0.667018 0.402294 0.942977
O O4 0.368162 0.294022 0.791589
O O5 0.142944 0.997049 0.681563
O O6 0.018770 0.834138 0.788749
O O7 0.260955 0.978113 0.977340
O O8 0.474382 0.056306 0.737500
O O9 0.793276 0.982707 0.781640
O O10 0.764502 0.890073 0.531195
#
# Coordination Sequence:
#
# PCOD9249301 Si02
#       5
#     4   4   4   4   4
#     4   9  23  37  62  90 126 156 210 236 311 355
#     4  10  23  40  61  92 121 156 212 249 296 359
#     4  11  21  41  66  86 130 163 195 260 300 353
#     4   9  22  39  65  86 124 165 196 249 306 359
#     4  11  22  43  63  89 124 164 200 251 307 359
#
# _framework density 23.704105999999999
#
# number of rings (size 3 to 8) (size 9 to 14) (size 15 to 20)
#    1.200    0.800    0.000    4.200    5.600    0.000 
#    7.200    0.000    0.000    0.000    0.000    0.000 
#    0.000    0.000    0.000    0.000    0.000    0.000 
#
# Total GULP energy -111371.374616 kJ/mol
# GULP energy per Si atom -5568.568731 kJ/mol
# Density = 2.365015 g / cm^3
# Si number density = 23.704106 Si / 1000 Ang^3
#
#
#
# Elastic Constant Matrix: (Units=GPa)
#
#
# Indices 1 2 3 4 5 6 
#
# 1 100.7483 -16.8211 39.3978 0.0000 0.2169 0.0000
# 2 -16.8211 49.8391 4.4852 0.0000 -3.1875 0.0000
# 3 39.3978 4.4852 110.2878 0.0000 -14.9053 0.0000
# 4 0.0000 0.0000 0.0000 10.8826 0.0000 1.3725
# 5 0.2169 -3.1875 -14.9053 0.0000 24.6423 0.0000
# 6 0.0000 0.0000 0.0000 1.3725 0.0000 1.2943
#
#
#
# Elastic Compliance Matrix: (Units=1/GPa)
#
#
# Indices 1 2 3 4 5 6 
#
# 1 0.012673 0.004568 -0.005062 0.000000 -0.002583 0.000000
# 2 0.004568 0.021905 -0.002336 0.000000 0.001380 0.000000
# 3 -0.005062 -0.002336 0.011909 0.000000 0.006946 0.000000
# 4 0.000000 0.000000 0.000000 0.106077 0.000000 -0.112488
# 5 -0.002583 0.001380 0.006946 0.000000 0.044983 0.000000
# 6 0.000000 0.000000 0.000000 -0.112488 0.000000 0.891911
#
#
# Mechanical properties :
#
#
# Convention : Reuss Voigt Hill
#
# Bulk Modulus (GPa) = 24.49375 34.99988 29.74682
# Shear Modulus (GPa) = 4.50967 22.95140 13.73054
#
# Velocity S-wave (km/s) = 1.38080 3.11504 2.40937
# Velocity P-wave (km/s) = 3.59134 5.26644 4.50739
#
# Compressibility (1/GPa) = 0.04082674
#
# Stress axis : x y z
#
# Youngs Moduli (GPa) = 78.90489 45.65227 83.96835
#
# Poissons Ratio (x) = -0.20853 0.42506
# Poissons Ratio (y) = -0.36042 0.19615
# Poissons Ratio (z) = 0.39943 0.10665
#
# Static dielectric constant tensor:
#      x y z
#    x 1.982210 0.000000 -0.007910 
#    y 0.000000 2.054090 0.000000 
#    z -0.007910 0.000000 1.907640 
# 
# From -- ./inp_files/8905.got.cif
#   From: 2010.05.17/outbox.cif.g08.bks.cpg/sg14_5_cif.got.tgz:8905.got - 2010.06.03 17:49:19.
