data_PCOD9249547
_publ_section_title
;
Structure prediction by ZEFSAII (Michael W. Deem and Ramdas Pophale) SiO2 
 PCOD9249547
Probable space group: P 21/C
;
_chemical_formula_sum "Si O2"
_cell_formula_units_Z 20
_cell_length_a 7.428544
_cell_length_b 5.296555
_cell_length_c 20.338885
_cell_angle_alpha 90.000000
_cell_angle_beta 91.075360
_cell_angle_gamma 90.000000
_cell_volume 800.106559
_symmetry_space_group_name_H-M "P 21/C"
_symmetry_group_IT_number 14
_symmetry_cell_setting 'monoclinic'
loop_
_space_group_symop_operation_xyz
x,y,z
-x,1/2+y,1/2-z
-x,-y,-z
x,1/2-y,1/2+z
loop_
_atom_site_type_symbol
_atom_site_label
_atom_site_fract_x
_atom_site_fract_y
_atom_site_fract_z
Si Si1 0.192483 0.645830 0.636724
Si Si2 0.516728 0.320790 0.602918
Si Si3 0.716421 0.119834 0.491071
Si Si4 0.173782 0.119730 0.937851
Si Si5 0.608516 0.381187 0.234923
O O1 0.317692 0.406084 0.619159
O O2 0.273351 0.859323 0.587722
O O3 0.228317 0.680161 0.714396
O O4 0.987004 0.616964 0.615232
O O5 0.535762 0.194109 0.531847
O O6 0.636880 0.573573 0.598248
O O7 0.622992 0.157245 0.657314
O O8 0.830090 0.372961 0.514944
O O9 0.812212 0.879043 0.522747
O O10 0.535573 0.661484 0.247616
#
# Coordination Sequence:
#
# PCOD9249547 Si02
#       5
#     4   4   4   4   4
#     4  11  22  44  67  94 126 178 204 264 333 371
#     4   9  24  43  63  94 128 165 215 263 310 385
#     4  10  23  42  65  96 131 159 218 267 313 384
#     4  10  24  41  64  96 130 161 214 268 312 387
#     4  10  24  42  64  92 127 166 213 257 311 381
#
# _framework density 24.996669000000001
#
# number of rings (size 3 to 8) (size 9 to 14) (size 15 to 20)
#    1.200    0.800    0.000    1.800    5.600    7.200 
#    3.600    0.000    0.000    0.000    0.000    0.000 
#    0.000    0.000    0.000    0.000    0.000    0.000 
#
# Total GULP energy -111751.314935 kJ/mol
# GULP energy per Si atom -5587.565747 kJ/mol
# Density = 2.493978 g / cm^3
# Si number density = 24.996669 Si / 1000 Ang^3
#
#
#
# Elastic Constant Matrix: (Units=GPa)
#
#
# Indices 1 2 3 4 5 6 
#
# 1 64.5303 5.9066 36.8428 0.0000 31.7854 0.0000
# 2 5.9066 123.4716 23.4235 0.0000 -0.5044 0.0000
# 3 36.8428 23.4235 130.2624 0.0000 46.0566 0.0000
# 4 0.0000 0.0000 0.0000 37.6927 0.0000 -2.4109
# 5 31.7854 -0.5044 46.0566 0.0000 41.3299 0.0000
# 6 0.0000 0.0000 0.0000 -2.4109 0.0000 7.2502
#
#
#
# Elastic Compliance Matrix: (Units=1/GPa)
#
#
# Indices 1 2 3 4 5 6 
#
# 1 0.025149 -0.001269 -0.000068 0.000000 -0.019281 0.000000
# 2 -0.001269 0.008672 -0.002612 0.000000 0.003992 0.000000
# 3 -0.000068 -0.002612 0.013463 0.000000 -0.014983 0.000000
# 4 0.000000 0.000000 0.000000 0.027107 0.000000 0.009014
# 5 -0.019281 0.003992 -0.014983 0.000000 0.055769 0.000000
# 6 0.000000 0.000000 0.000000 0.009014 0.000000 0.140925
#
#
# Mechanical properties :
#
#
# Convention : Reuss Voigt Hill
#
# Bulk Modulus (GPa) = 25.38977 50.06780 37.72879
# Shear Modulus (GPa) = 17.11689 34.06065 25.58877
#
# Velocity S-wave (km/s) = 2.61964 3.69536 3.20298
# Velocity P-wave (km/s) = 4.39652 6.18715 5.36704
#
# Compressibility (1/GPa) = 0.03938594
#
# Stress axis : x y z
#
# Youngs Moduli (GPa) = 39.76379 115.31945 74.27802
#
# Poissons Ratio (x) = 0.14634 0.00502
# Poissons Ratio (y) = 0.05046 0.19401
# Poissons Ratio (z) = 0.00268 0.30121
#
# Static dielectric constant tensor:
#      x y z
#    x 2.100060 0.000000 -0.037960 
#    y 0.000000 2.052780 0.000000 
#    z -0.037960 0.000000 2.053130 
# 
# From -- ./inp_files/64019.got.cif
#   From: 2010.05.17/outbox.cif.g08.bks.cpg/sg14_33_cif.got.tgz:64019.got - 2010.06.03 17:49:19.
