data_PCOD9249147
_publ_section_title
;
Structure prediction by ZEFSAII (Michael W. Deem and Ramdas Pophale) SiO2 
 PCOD9249147
Probable space group: P 21/C
;
_chemical_formula_sum "Si O2"
_cell_formula_units_Z 28
_cell_length_a 18.751779
_cell_length_b 5.670734
_cell_length_c 10.998807
_cell_angle_alpha 90.000000
_cell_angle_beta 62.815783
_cell_angle_gamma 90.000000
_cell_volume 1040.384602
_symmetry_space_group_name_H-M "P 21/C"
_symmetry_group_IT_number 14
_symmetry_cell_setting 'monoclinic'
loop_
_space_group_symop_operation_xyz
x,y,z
-x,1/2+y,1/2-z
-x,-y,-z
x,1/2-y,1/2+z
loop_
_atom_site_type_symbol
_atom_site_label
_atom_site_fract_x
_atom_site_fract_y
_atom_site_fract_z
Si Si1 0.446663 0.489179 0.921258
Si Si2 0.070212 0.135827 0.279115
Si Si3 0.932440 0.371609 0.471122
Si Si4 0.592792 0.006292 0.128958
Si Si5 0.206689 0.671206 0.778983
Si Si6 0.280254 0.236503 0.316792
Si Si7 0.205941 0.436745 0.125744
O O1 0.405275 0.230106 0.956559
O O2 0.504714 0.477843 0.758393
O O3 0.397291 0.734379 0.939980
O O4 0.500000 0.500000 0.000000
O O5 0.112235 0.386417 0.220655
O O6 0.981679 0.136658 0.400087
O O7 0.071877 0.005566 0.151284
O O8 0.134852 0.015880 0.316272
O O9 0.843208 0.343943 0.592917
O O10 0.000000 0.500000 0.500000
O O11 0.652352 0.917396 0.189207
O O12 0.284153 0.542191 0.773147
O O13 0.219382 0.786764 0.637328
O O14 0.252032 0.340095 0.209107
O O15 0.230451 0.185422 0.481171
#
# Coordination Sequence:
#
# PCOD9249147 Si02
#       7
#     4   4   4   4   4   4   4
#     4  10  22  46  78 110 158 197 251 316 374 457
#     4  11  25  40  62  96 126 175 239 307 388 453
#     4  12  23  40  68  93 131 181 241 316 391 470
#     4  10  24  45  72 117 149 201 258 307 387 455
#     4  11  24  45  67  96 140 189 250 313 385 472
#     4  11  27  45  74 105 149 201 253 315 388 469
#     4  11  25  48  68 101 144 193 250 314 386 470
#
# _framework density 26.913126999999999
#
# number of rings (size 3 to 8) (size 9 to 14) (size 15 to 20)
#    0.000    1.143    1.429    3.429    8.000    1.143 
#    0.000    0.000    0.000    0.000    0.000    0.000 
#    0.000    0.000    0.000    0.000    0.000    0.000 
#
# Total GULP energy -156146.323363 kJ/mol
# GULP energy per Si atom -5576.654406 kJ/mol
# Density = 2.685187 g / cm^3
# Si number density = 26.913127 Si / 1000 Ang^3
#
#
#
# Elastic Constant Matrix: (Units=GPa)
#
#
# Indices 1 2 3 4 5 6 
#
# 1 65.6004 21.7859 27.8216 0.0000 17.4509 0.0000
# 2 21.7859 108.7595 18.8341 0.0000 10.2831 0.0000
# 3 27.8216 18.8341 74.8702 0.0000 1.5040 0.0000
# 4 0.0000 0.0000 0.0000 32.9514 0.0000 28.6390
# 5 17.4509 10.2831 1.5040 0.0000 62.8005 0.0000
# 6 0.0000 0.0000 0.0000 28.6390 0.0000 51.5138
#
#
#
# Elastic Compliance Matrix: (Units=1/GPa)
#
#
# Indices 1 2 3 4 5 6 
#
# 1 0.020291 -0.002401 -0.006834 0.000000 -0.005082 0.000000
# 2 -0.002401 0.010044 -0.001616 0.000000 -0.000939 0.000000
# 3 -0.006834 -0.001616 0.016267 0.000000 0.001774 0.000000
# 4 0.000000 0.000000 0.000000 0.058721 0.000000 -0.032646
# 5 -0.005082 -0.000939 0.001774 0.000000 0.017447 0.000000
# 6 0.000000 0.000000 0.000000 -0.032646 0.000000 0.037562
#
#
# Mechanical properties :
#
#
# Convention : Reuss Voigt Hill
#
# Bulk Modulus (GPa) = 40.15898 42.90151 41.53025
# Shear Modulus (GPa) = 26.26970 41.50571 33.88770
#
# Velocity S-wave (km/s) = 3.12764 3.93136 3.55230
# Velocity P-wave (km/s) = 5.29121 6.04837 5.68242
#
# Compressibility (1/GPa) = 0.02490103
#
# Stress axis : x y z
#
# Youngs Moduli (GPa) = 49.28210 99.56156 61.47475
#
# Poissons Ratio (x) = 0.23901 0.42013
# Poissons Ratio (y) = 0.11831 0.09933
# Poissons Ratio (z) = 0.33681 0.16086
#
# Static dielectric constant tensor:
#      x y z
#    x 2.139420 0.000000 -0.051330 
#    y 0.000000 2.843540 0.000000 
#    z -0.051330 0.000000 2.165710 
# 
# From -- ./inp_files/34707.got.cif
#   From: 2010.05.17/outbox.cif.g08.bks.cpg/sg14_18_cif.got.tgz:34707.got - 2010.06.03 17:49:19.
