data_PCOD9249209
_publ_section_title
;
Structure prediction by ZEFSAII (Michael W. Deem and Ramdas Pophale) SiO2 
 PCOD9249209
Probable space group: P 21/C
;
_chemical_formula_sum "Si O2"
_cell_formula_units_Z 32
_cell_length_a 7.064676
_cell_length_b 23.341937
_cell_length_c 10.303174
_cell_angle_alpha 90.000000
_cell_angle_beta 52.251915
_cell_angle_gamma 90.000000
_cell_volume 1343.437376
_symmetry_space_group_name_H-M "P 21/C"
_symmetry_group_IT_number 14
_symmetry_cell_setting 'monoclinic'
loop_
_space_group_symop_operation_xyz
x,y,z
-x,1/2+y,1/2-z
-x,-y,-z
x,1/2-y,1/2+z
loop_
_atom_site_type_symbol
_atom_site_label
_atom_site_fract_x
_atom_site_fract_y
_atom_site_fract_z
Si Si1 0.459855 0.868004 0.361930
Si Si2 0.027542 0.124101 0.564968
Si Si3 0.970645 0.183692 0.333515
Si Si4 0.274204 0.585174 0.468011
Si Si5 0.941021 0.683436 0.673785
Si Si6 0.081421 0.514000 0.787441
Si Si7 0.594013 0.978297 0.210390
Si Si8 0.210530 0.092456 0.108618
O O1 0.261967 0.871803 0.330404
O O2 0.301873 0.839047 0.540564
O O3 0.548521 0.933660 0.346194
O O4 0.677663 0.828101 0.228825
O O5 0.108257 0.155026 0.400270
O O6 0.090778 0.157526 0.667489
O O7 0.081138 0.056396 0.558798
O O8 0.986517 0.251030 0.342834
O O9 0.098658 0.155178 0.157566
O O10 0.139137 0.645236 0.517450
O O11 0.119579 0.547948 0.636472
O O12 0.302489 0.542611 0.332985
O O13 0.530981 0.593629 0.429333
O O14 0.339591 0.512937 0.747048
O O15 0.034869 0.448806 0.768455
O O16 0.747262 0.939245 0.045282
#
# Coordination Sequence:
#
# PCOD9249209 Si02
#       8
#     4   4   4   4   4   4   4   4
#     4   9  21  39  56  83 111 143 188 229 283 328
#     4   8  19  39  53  80 110 142 183 229 279 319
#     4  10  23  35  53  89 110 148 192 219 286 340
#     4   8  16  29  57  85 105 146 192 223 273 328
#     4  11  21  38  59  76 114 157 182 229 273 334
#     4   7  12  29  54  82 107 141 182 225 275 321
#     4   8  14  32  56  84 111 138 187 237 271 320
#     4   9  16  29  59  86 110 144 188 227 270 334
#
# _framework density 23.819496000000001
#
# number of rings (size 3 to 8) (size 9 to 14) (size 15 to 20)
#    0.750    2.500    0.000    2.250    1.750    2.000 
#    2.250    0.000    2.750    6.750    0.000    0.000 
#    0.000    0.000    0.000    0.000    0.000    0.000 
#
# Total GULP energy -178414.024674 kJ/mol
# GULP energy per Si atom -5575.438271 kJ/mol
# Density = 2.376528 g / cm^3
# Si number density = 23.819496 Si / 1000 Ang^3
#
#
#
# Elastic Constant Matrix: (Units=GPa)
#
#
# Indices 1 2 3 4 5 6 
#
# 1 65.5346 10.5624 13.7963 0.0000 -5.8662 0.0000
# 2 10.5624 174.8410 43.7710 0.0000 -11.5620 0.0000
# 3 13.7963 43.7710 65.1164 0.0000 -5.4737 0.0000
# 4 0.0000 0.0000 0.0000 27.5623 0.0000 -0.5855
# 5 -5.8662 -11.5620 -5.4737 0.0000 19.9578 0.0000
# 6 0.0000 0.0000 0.0000 -0.5855 0.0000 8.5168
#
#
#
# Elastic Compliance Matrix: (Units=1/GPa)
#
#
# Indices 1 2 3 4 5 6 
#
# 1 0.016267 0.000070 -0.003161 0.000000 0.003955 0.000000
# 2 0.000070 0.007031 -0.004501 0.000000 0.002860 0.000000
# 3 -0.003161 -0.004501 0.019198 0.000000 0.001729 0.000000
# 4 0.000000 0.000000 0.000000 0.036334 0.000000 0.002498
# 5 0.003955 0.002860 0.001729 0.000000 0.053399 0.000000
# 6 0.000000 0.000000 0.000000 0.002498 0.000000 0.117587
#
#
# Mechanical properties :
#
#
# Convention : Reuss Voigt Hill
#
# Bulk Modulus (GPa) = 36.61350 49.08347 42.84849
# Shear Modulus (GPa) = 18.24125 27.03155 22.63640
#
# Velocity S-wave (km/s) = 2.77033 3.37241 3.08609
# Velocity P-wave (km/s) = 5.06336 5.98459 5.54315
#
# Compressibility (1/GPa) = 0.02731233
#
# Stress axis : x y z
#
# Youngs Moduli (GPa) = 61.47287 142.22537 52.08978
#
# Poissons Ratio (x) = -0.00999 0.16467
# Poissons Ratio (y) = -0.00432 0.23444
# Poissons Ratio (z) = 0.19434 0.64013
#
# Static dielectric constant tensor:
#      x y z
#    x 1.962410 0.000000 0.035410 
#    y 0.000000 1.903430 0.000000 
#    z 0.035410 0.000000 1.959680 
# 
# From -- ./inp_files/42156.got.cif
#   From: 2010.05.17/outbox.cif.g08.bks.cpg/sg14_22_cif.got.tgz:42156.got - 2010.06.03 17:49:19.
