data_PCOD9249979
_publ_section_title
;
Structure prediction by ZEFSAII (Michael W. Deem and Ramdas Pophale) SiO2 
 PCOD9249979
Probable space group: P 21/C
;
_chemical_formula_sum "Si O2"
_cell_formula_units_Z 32
_cell_length_a 14.806927
_cell_length_b 10.020576
_cell_length_c 17.342003
_cell_angle_alpha 90.000000
_cell_angle_beta 31.555934
_cell_angle_gamma 90.000000
_cell_volume 1346.582863
_symmetry_space_group_name_H-M "P 21/C"
_symmetry_group_IT_number 14
_symmetry_cell_setting 'monoclinic'
loop_
_space_group_symop_operation_xyz
x,y,z
-x,1/2+y,1/2-z
-x,-y,-z
x,1/2-y,1/2+z
loop_
_atom_site_type_symbol
_atom_site_label
_atom_site_fract_x
_atom_site_fract_y
_atom_site_fract_z
Si Si1 0.808444 0.925317 0.904950
Si Si2 0.991844 0.345629 0.475921
Si Si3 0.515497 0.648969 0.913182
Si Si4 0.650138 0.179568 0.688395
Si Si5 0.497934 0.545702 0.413811
Si Si6 0.297604 0.178953 0.858783
Si Si7 0.228790 0.325029 0.152009
Si Si8 0.810396 0.440798 0.919978
O O1 0.714441 0.817943 0.919186
O O2 0.996907 0.903332 0.737293
O O3 0.792294 0.896981 0.005754
O O4 0.702403 0.057976 0.966761
O O5 0.798873 0.280716 0.612235
O O6 0.000000 0.500000 0.500000
O O7 0.127336 0.268285 0.435162
O O8 0.079507 0.335624 0.325910
O O9 0.566447 0.803893 0.858355
O O10 0.609997 0.582088 0.771398
O O11 0.603797 0.615574 0.928251
O O12 0.315334 0.628594 0.050022
O O13 0.471565 0.238271 0.777927
O O14 0.746183 0.100313 0.549773
O O15 0.591327 0.064367 0.791949
O O16 0.500000 0.500000 0.500000
O O17 0.190301 0.404152 0.102027
#
# Coordination Sequence:
#
# PCOD9249979 Si02
#       8
#     4   4   4   4   4   4   4   4
#     4  11  23  43  65 103 139 181 232 289 365 425
#     4  11  23  46  76 105 144 192 248 304 364 440
#     4  10  23  45  67  97 137 187 242 291 357 427
#     4  10  24  46  69 107 143 195 241 297 375 433
#     4  11  24  44  67  94 141 188 232 295 359 437
#     4   9  23  42  65 102 141 185 234 294 352 427
#     4  11  23  43  68 104 140 175 246 298 350 439
#     4  11  24  42  72 102 141 186 232 301 362 430
#
# _framework density 23.763855
#
# number of rings (size 3 to 8) (size 9 to 14) (size 15 to 20)
#    0.000    1.500    2.500    1.125    3.500    6.000 
#   11.250    3.125    0.000    0.000    0.000    0.000 
#    0.000    0.000    0.000    0.000    0.000    0.000 
#
# Total GULP energy -178220.242783 kJ/mol
# GULP energy per Si atom -5569.382587 kJ/mol
# Density = 2.370977 g / cm^3
# Si number density = 23.763855 Si / 1000 Ang^3
#
#
#
# Elastic Constant Matrix: (Units=GPa)
#
#
# Indices 1 2 3 4 5 6 
#
# 1 131.3178 27.9586 53.6525 0.0000 -10.1291 0.0000
# 2 27.9586 71.7440 18.3195 0.0000 0.8854 0.0000
# 3 53.6525 18.3195 114.2472 0.0000 -5.1966 0.0000
# 4 0.0000 0.0000 0.0000 21.1737 0.0000 -5.3647
# 5 -10.1291 0.8854 -5.1966 0.0000 37.4901 0.0000
# 6 0.0000 0.0000 0.0000 -5.3647 0.0000 24.6044
#
#
#
# Elastic Compliance Matrix: (Units=1/GPa)
#
#
# Indices 1 2 3 4 5 6 
#
# 1 0.010113 -0.002900 -0.004183 0.000000 0.002221 0.000000
# 2 -0.002900 0.015382 -0.001164 0.000000 -0.001308 0.000000
# 3 -0.004183 -0.001164 0.010923 0.000000 0.000411 0.000000
# 4 0.000000 0.000000 0.000000 0.049990 0.000000 0.010900
# 5 0.002221 -0.001308 0.000411 0.000000 0.027362 0.000000
# 6 0.000000 0.000000 0.000000 0.010900 0.000000 0.043020
#
#
# Mechanical properties :
#
#
# Convention : Reuss Voigt Hill
#
# Bulk Modulus (GPa) = 50.19328 57.46334 53.82831
# Shear Modulus (GPa) = 27.78933 31.14554 29.46743
#
# Velocity S-wave (km/s) = 3.42335 3.62418 3.52520
# Velocity P-wave (km/s) = 6.06575 6.46115 6.26657
#
# Compressibility (1/GPa) = 0.01992299
#
# Stress axis : x y z
#
# Youngs Moduli (GPa) = 98.88210 65.01080 91.55165
#
# Poissons Ratio (x) = 0.18855 0.38298
# Poissons Ratio (y) = 0.28679 0.10656
# Poissons Ratio (z) = 0.41364 0.07567
#
# Static dielectric constant tensor:
#      x y z
#    x 2.012640 0.000000 -0.092970 
#    y 0.000000 2.288160 0.000000 
#    z -0.092970 0.000000 2.080890 
# 
# From -- ./inp_files/59469.got.cif
#   From: 2010.05.17/outbox.cif.g08.bks.cpg/sg14_30_cif.got.tgz:59469.got - 2010.06.03 17:49:19.
