data_PCOD9249578
_publ_section_title
;
Structure prediction by ZEFSAII (Michael W. Deem and Ramdas Pophale) SiO2 
 PCOD9249578
Probable space group: P 21/C
;
_chemical_formula_sum "Si O2"
_cell_formula_units_Z 18
_cell_length_a 11.606521
_cell_length_b 4.797663
_cell_length_c 24.152130
_cell_angle_alpha 90.000000
_cell_angle_beta 148.521223
_cell_angle_gamma 90.000000
_cell_volume 702.279059
_symmetry_space_group_name_H-M "P 21/C"
_symmetry_group_IT_number 14
_symmetry_cell_setting 'monoclinic'
loop_
_space_group_symop_operation_xyz
x,y,z
-x,1/2+y,1/2-z
-x,-y,-z
x,1/2-y,1/2+z
loop_
_atom_site_type_symbol
_atom_site_label
_atom_site_fract_x
_atom_site_fract_y
_atom_site_fract_z
Si Si1 0.444552 0.694326 0.859764
Si Si2 0.920848 0.926141 0.559220
Si Si3 0.500000 0.500000 0.500000
Si Si4 0.018817 0.927153 0.842573
Si Si5 0.615946 0.947656 0.274367
O O1 0.493438 0.836320 0.938375
O O2 0.412020 0.922046 0.798239
O O3 0.226790 0.505232 0.777082
O O4 0.670665 0.530180 0.938587
O O5 0.952758 0.604233 0.588781
O O6 0.126898 0.015368 0.606665
O O7 0.950806 0.107095 0.627727
O O8 0.776843 0.505380 0.612166
O O9 0.456427 0.132398 0.247214
#
# Coordination Sequence:
#
# PCOD9249578 Si02
#       5
#     4   4   2   4   4
#     4  10  24  44  71 102 140 179 230 286 339 409
#     4  10  23  43  67  99 134 181 230 277 344 403
#     4  10  24  44  74 106 134 182 230 278 348 408
#     4  10  23  42  67 102 142 176 221 282 342 406
#     4  11  24  43  68  99 139 184 230 283 341 403
#
# _framework density 25.630835999999999
#
# number of rings (size 3 to 8) (size 9 to 14) (size 15 to 20)
#    0.000    1.778    0.000    2.667    0.000   21.333 
#    0.000    0.000    0.000    0.000    0.000    0.000 
#    0.000    0.000    0.000    0.000    0.000    0.000 
#
# Total GULP energy -100269.079763 kJ/mol
# GULP energy per Si atom -5570.504431 kJ/mol
# Density = 2.557250 g / cm^3
# Si number density = 25.630836 Si / 1000 Ang^3
#
#
#
# Elastic Constant Matrix: (Units=GPa)
#
#
# Indices 1 2 3 4 5 6 
#
# 1 109.5252 12.3309 71.5122 0.0000 49.1822 0.0000
# 2 12.3309 56.4427 13.7675 0.0000 0.7382 0.0000
# 3 71.5122 13.7675 186.1419 0.0000 50.7887 0.0000
# 4 0.0000 0.0000 0.0000 15.8154 0.0000 1.0949
# 5 49.1822 0.7382 50.7887 0.0000 64.9214 0.0000
# 6 0.0000 0.0000 0.0000 1.0949 0.0000 20.6685
#
#
#
# Elastic Compliance Matrix: (Units=1/GPa)
#
#
# Indices 1 2 3 4 5 6 
#
# 1 0.015770 -0.002511 -0.003332 0.000000 -0.009311 0.000000
# 2 -0.002511 0.018501 -0.001100 0.000000 0.002552 0.000000
# 3 -0.003332 -0.001100 0.007681 0.000000 -0.003472 0.000000
# 4 0.000000 0.000000 0.000000 0.063462 0.000000 -0.003362
# 5 -0.009311 0.002552 -0.003472 0.000000 0.025145 0.000000
# 6 0.000000 0.000000 0.000000 -0.003362 0.000000 0.048561
#
#
# Mechanical properties :
#
#
# Convention : Reuss Voigt Hill
#
# Bulk Modulus (GPa) = 35.63083 60.81456 48.22269
# Shear Modulus (GPa) = 24.70837 37.24768 30.97803
#
# Velocity S-wave (km/s) = 3.10822 3.81627 3.48030
# Velocity P-wave (km/s) = 5.17814 6.57246 5.91651
#
# Compressibility (1/GPa) = 0.02806558
#
# Stress axis : x y z
#
# Youngs Moduli (GPa) = 63.41167 54.05244 130.18833
#
# Poissons Ratio (x) = 0.13571 0.43382
# Poissons Ratio (y) = 0.15920 0.14323
# Poissons Ratio (z) = 0.21130 0.05947
#
# Static dielectric constant tensor:
#      x y z
#    x 2.018600 0.000000 -0.007440 
#    y 0.000000 1.974440 0.000000 
#    z -0.007440 0.000000 2.036600 
# 
# From -- ./inp_files/35592.got.cif
#   From: 2010.05.17/outbox.cif.g08.bks.cpg/sg14_18_cif.got.tgz:35592.got - 2010.06.03 17:49:19.
