data_PCOD9249512
_publ_section_title
;
Structure prediction by ZEFSAII (Michael W. Deem and Ramdas Pophale) SiO2 
 PCOD9249512
Probable space group: P 21/C
;
_chemical_formula_sum "Si O2"
_cell_formula_units_Z 28
_cell_length_a 16.479093
_cell_length_b 7.278579
_cell_length_c 13.297066
_cell_angle_alpha 90.000000
_cell_angle_beta 49.692626
_cell_angle_gamma 90.000000
_cell_volume 1216.253306
_symmetry_space_group_name_H-M "P 21/C"
_symmetry_group_IT_number 14
_symmetry_cell_setting 'monoclinic'
loop_
_space_group_symop_operation_xyz
x,y,z
-x,1/2+y,1/2-z
-x,-y,-z
x,1/2-y,1/2+z
loop_
_atom_site_type_symbol
_atom_site_label
_atom_site_fract_x
_atom_site_fract_y
_atom_site_fract_z
Si Si1 0.289471 0.817423 0.593331
Si Si2 0.078101 0.985417 0.700991
Si Si3 0.167393 0.302268 0.947894
Si Si4 0.625734 0.601522 0.137030
Si Si5 0.998907 0.728977 0.089512
Si Si6 0.226612 0.881325 0.867275
Si Si7 0.609780 0.472383 0.599781
O O1 0.280506 0.871885 0.715925
O O2 0.346573 0.622047 0.535687
O O3 0.167067 0.831878 0.652897
O O4 0.351907 0.965623 0.474250
O O5 0.130039 0.142045 0.589252
O O6 0.038383 0.073441 0.836074
O O7 0.994186 0.900511 0.691251
O O8 0.280627 0.406233 0.854129
O O9 0.077909 0.340936 0.936414
O O10 0.186294 0.087268 0.919880
O O11 0.512593 0.564065 0.277651
O O12 0.628932 0.811125 0.094003
O O13 0.122617 0.752158 0.959391
O O14 0.318405 0.860622 0.876451
#
# Coordination Sequence:
#
# PCOD9249512 Si02
#       7
#     4   4   4   4   4   4   4
#     4  11  23  46  66 100 136 173 227 280 339 401
#     4  11  24  41  66  98 133 181 219 277 337 396
#     4  10  23  42  63  96 134 174 222 276 332 401
#     4  10  23  44  73  96 133 181 224 281 343 394
#     4  12  23  42  67  97 138 175 227 269 335 409
#     4  11  24  41  68  98 131 179 221 278 340 398
#     4  11  22  46  72  97 136 176 226 284 340 402
#
# _framework density 23.021519000000001
#
# number of rings (size 3 to 8) (size 9 to 14) (size 15 to 20)
#    0.000    1.143    4.286    1.714    2.000    0.571 
#    2.571    0.714    0.000    0.000    0.000    0.000 
#    0.000    0.000    0.000    0.000    0.000    0.000 
#
# Total GULP energy -156560.583440 kJ/mol
# GULP energy per Si atom -5591.449409 kJ/mol
# Density = 2.296912 g / cm^3
# Si number density = 23.021519 Si / 1000 Ang^3
#
#
#
# Elastic Constant Matrix: (Units=GPa)
#
#
# Indices 1 2 3 4 5 6 
#
# 1 100.4380 6.8864 34.6093 0.0000 -30.9949 0.0000
# 2 6.8864 74.7306 17.4839 0.0000 -8.4131 0.0000
# 3 34.6093 17.4839 71.0916 0.0000 -15.3115 0.0000
# 4 0.0000 0.0000 0.0000 29.3060 0.0000 -2.6715
# 5 -30.9949 -8.4131 -15.3115 0.0000 24.4716 0.0000
# 6 0.0000 0.0000 0.0000 -2.6715 0.0000 31.0642
#
#
#
# Elastic Compliance Matrix: (Units=1/GPa)
#
#
# Indices 1 2 3 4 5 6 
#
# 1 0.017620 0.001724 -0.004701 0.000000 0.019969 0.000000
# 2 0.001724 0.014576 -0.003322 0.000000 0.005116 0.000000
# 3 -0.004701 -0.003322 0.018080 0.000000 0.004216 0.000000
# 4 0.000000 0.000000 0.000000 0.034392 0.000000 0.002958
# 5 0.019969 0.005116 0.004216 0.000000 0.070552 0.000000
# 6 0.000000 0.000000 0.000000 0.002958 0.000000 0.032446
#
#
# Mechanical properties :
#
#
# Convention : Reuss Voigt Hill
#
# Bulk Modulus (GPa) = 26.54091 40.46883 33.50487
# Shear Modulus (GPa) = 23.49359 29.45373 26.47366
#
# Velocity S-wave (km/s) = 3.19800 3.58075 3.39477
# Velocity P-wave (km/s) = 5.01897 5.89174 5.47278
#
# Compressibility (1/GPa) = 0.03767768
#
# Stress axis : x y z
#
# Youngs Moduli (GPa) = 56.75223 68.60711 55.30935
#
# Poissons Ratio (x) = -0.11830 0.26003
# Poissons Ratio (y) = -0.09786 0.18375
# Poissons Ratio (z) = 0.26681 0.22793
#
# Static dielectric constant tensor:
#      x y z
#    x 1.892650 0.000000 -0.022460 
#    y 0.000000 1.910770 0.000000 
#    z -0.022460 0.000000 1.847430 
# 
# From -- ./inp_files/31726.got.cif
#   From: 2010.05.17/outbox.cif.g08.bks.cpg/sg14_16_cif.got.tgz:31726.got - 2010.06.03 17:49:19.
