data_PCOD9249859
_publ_section_title
;
Structure prediction by ZEFSAII (Michael W. Deem and Ramdas Pophale) SiO2 
 PCOD9249859
Probable space group: P 21/C
;
_chemical_formula_sum "Si O2"
_cell_formula_units_Z 20
_cell_length_a 9.231198
_cell_length_b 15.018575
_cell_length_c 7.298440
_cell_angle_alpha 90.000000
_cell_angle_beta 129.510345
_cell_angle_gamma 90.000000
_cell_volume 780.653373
_symmetry_space_group_name_H-M "P 21/C"
_symmetry_group_IT_number 14
_symmetry_cell_setting 'monoclinic'
loop_
_space_group_symop_operation_xyz
x,y,z
-x,1/2+y,1/2-z
-x,-y,-z
x,1/2-y,1/2+z
loop_
_atom_site_type_symbol
_atom_site_label
_atom_site_fract_x
_atom_site_fract_y
_atom_site_fract_z
Si Si1 0.578485 0.624095 0.207724
Si Si2 0.592412 0.567029 0.817343
Si Si3 0.813875 0.120607 0.055376
Si Si4 0.804371 0.311187 0.133129
Si Si5 0.884437 0.572997 0.729666
O O1 0.473018 0.531504 0.174037
O O2 0.759353 0.627074 0.480534
O O3 0.633683 0.618917 0.038887
O O4 0.413306 0.694990 0.101528
O O5 0.404505 0.604168 0.569132
O O6 0.760925 0.568184 0.811794
O O7 0.811876 0.141125 0.836227
O O8 0.884314 0.211923 0.199649
O O9 0.912056 0.027009 0.175808
O O10 0.922604 0.374953 0.097007
#
# Coordination Sequence:
#
# PCOD9249859 Si02
#       5
#     4   4   4   4   4
#     4   9  20  43  68  97 131 172 216 280 342 397
#     4   9  20  41  74  97 124 175 226 275 343 400
#     4  10  23  44  66  99 139 176 223 286 336 394
#     4  11  25  44  66 100 140 177 223 283 338 400
#     4  11  23  46  72  98 135 180 231 275 335 410
#
# _framework density 25.619567
#
# number of rings (size 3 to 8) (size 9 to 14) (size 15 to 20)
#    0.000    2.000    0.000    4.200    5.600    0.800 
#    7.200    2.000    0.000    0.000    0.000    0.000 
#    0.000    0.000    0.000    0.000    0.000    0.000 
#
# Total GULP energy -112137.311290 kJ/mol
# GULP energy per Si atom -5606.865564 kJ/mol
# Density = 2.556126 g / cm^3
# Si number density = 25.619567 Si / 1000 Ang^3
#
#
#
# Elastic Constant Matrix: (Units=GPa)
#
#
# Indices 1 2 3 4 5 6 
#
# 1 93.4709 32.4315 7.6883 0.0000 0.1835 0.0000
# 2 32.4315 147.6694 16.7939 0.0000 10.3427 0.0000
# 3 7.6883 16.7939 80.2115 0.0000 -8.1240 0.0000
# 4 0.0000 0.0000 0.0000 32.6997 0.0000 -4.3969
# 5 0.1835 10.3427 -8.1240 0.0000 22.2442 0.0000
# 6 0.0000 0.0000 0.0000 -4.3969 0.0000 15.1597
#
#
#
# Elastic Compliance Matrix: (Units=1/GPa)
#
#
# Indices 1 2 3 4 5 6 
#
# 1 0.011626 -0.002562 -0.000485 0.000000 0.000918 0.000000
# 2 -0.002562 0.007844 -0.001832 0.000000 -0.004295 0.000000
# 3 -0.000485 -0.001832 0.013482 0.000000 0.005780 0.000000
# 4 0.000000 0.000000 0.000000 0.031822 0.000000 0.009230
# 5 0.000918 -0.004295 0.005780 0.000000 0.049056 0.000000
# 6 0.000000 0.000000 0.000000 0.009230 0.000000 0.068641
#
#
# Mechanical properties :
#
#
# Convention : Reuss Voigt Hill
#
# Bulk Modulus (GPa) = 43.11451 48.35326 45.73388
# Shear Modulus (GPa) = 25.00494 31.64993 28.32744
#
# Velocity S-wave (km/s) = 3.12750 3.51861 3.32881
# Velocity P-wave (km/s) = 5.46873 5.95164 5.71529
#
# Compressibility (1/GPa) = 0.02319405
#
# Stress axis : x y z
#
# Youngs Moduli (GPa) = 86.01648 127.48965 74.17089
#
# Poissons Ratio (x) = 0.32669 0.03596
# Poissons Ratio (y) = 0.22041 0.13585
# Poissons Ratio (z) = 0.04170 0.23351
#
# Static dielectric constant tensor:
#      x y z
#    x 1.987640 0.000000 -0.030620 
#    y 0.000000 2.019210 0.000000 
#    z -0.030620 0.000000 2.030060 
# 
# From -- ./inp_files/29682.got.cif
#   From: 2010.05.17/outbox.cif.g08.bks.cpg/sg14_15_cif.got.tgz:29682.got - 2010.06.03 17:49:19.
