data_PCOD9249167
_publ_section_title
;
Structure prediction by ZEFSAII (Michael W. Deem and Ramdas Pophale) SiO2 
 PCOD9249167
Probable space group: P 21/C
;
_chemical_formula_sum "Si O2"
_cell_formula_units_Z 30
_cell_length_a 29.236430
_cell_length_b 5.144386
_cell_length_c 18.200979
_cell_angle_alpha 90.000000
_cell_angle_beta 24.884680
_cell_angle_gamma 90.000000
_cell_volume 1151.917619
_symmetry_space_group_name_H-M "P 21/C"
_symmetry_group_IT_number 14
_symmetry_cell_setting 'monoclinic'
loop_
_space_group_symop_operation_xyz
x,y,z
-x,1/2+y,1/2-z
-x,-y,-z
x,1/2-y,1/2+z
loop_
_atom_site_type_symbol
_atom_site_label
_atom_site_fract_x
_atom_site_fract_y
_atom_site_fract_z
Si Si1 0.000000 0.500000 0.000000
Si Si2 0.556369 0.903435 0.075568
Si Si3 0.290656 0.538222 0.382982
Si Si4 0.656482 0.965407 0.784603
Si Si5 0.358645 0.900780 0.474477
Si Si6 0.895328 0.996223 0.504641
Si Si7 0.195154 0.277699 0.131970
Si Si8 0.073793 0.660830 0.200608
O O1 0.926188 0.384716 0.036978
O O2 0.109006 0.385050 0.802539
O O3 0.442304 0.916612 0.284031
O O4 0.630738 0.119925 0.006091
O O5 0.602229 0.615330 0.023091
O O6 0.561429 0.974068 0.982716
O O7 0.332864 0.313255 0.268664
O O8 0.294218 0.403659 0.457784
O O9 0.162269 0.607439 0.570555
O O10 0.340825 0.803079 0.278696
O O11 0.769095 0.986175 0.668413
O O12 0.244334 0.996131 0.610768
O O13 0.964988 0.726136 0.404491
O O14 0.946647 0.114034 0.355323
O O15 0.138215 0.429495 0.147211
#
# Coordination Sequence:
#
# PCOD9249167 Si02
#       8
#     2   4   4   4   4   4   4   4
#     4  12  26  38  64 102 142 174 256 286 356 422
#     4  10  22  47  71 115 135 190 238 302 371 453
#     4  11  22  43  66  98 134 190 232 295 353 435
#     4  11  23  40  74  94 140 179 247 290 357 429
#     4  10  24  43  79 100 152 184 237 300 384 433
#     4  11  22  40  62  96 130 191 224 303 330 438
#     4  12  25  46  68 107 143 197 238 317 359 446
#     4  11  23  44  70  90 145 192 252 273 388 425
#
# _framework density 26.043530000000001
#
# number of rings (size 3 to 8) (size 9 to 14) (size 15 to 20)
#    0.000    1.067    4.000    3.200    1.867    2.667 
#    0.000    2.667    2.933    0.000    0.000    0.000 
#    0.000    0.000    0.000    0.000    0.000    0.000 
#
# Total GULP energy -167462.115392 kJ/mol
# GULP energy per Si atom -5582.070513 kJ/mol
# Density = 2.598425 g / cm^3
# Si number density = 26.043530 Si / 1000 Ang^3
#
#
#
# Elastic Constant Matrix: (Units=GPa)
#
#
# Indices 1 2 3 4 5 6 
#
# 1 79.4075 22.6478 16.5044 0.0000 3.3278 0.0000
# 2 22.6478 114.1947 33.1513 0.0000 5.3568 0.0000
# 3 16.5044 33.1513 122.3101 0.0000 17.9230 0.0000
# 4 0.0000 0.0000 0.0000 16.7870 0.0000 -1.3820
# 5 3.3278 5.3568 17.9230 0.0000 35.4296 0.0000
# 6 0.0000 0.0000 0.0000 -1.3820 0.0000 29.3278
#
#
#
# Elastic Compliance Matrix: (Units=1/GPa)
#
#
# Indices 1 2 3 4 5 6 
#
# 1 0.013510 -0.002332 -0.001141 0.000000 -0.000339 0.000000
# 2 -0.002332 0.009908 -0.002358 0.000000 -0.000086 0.000000
# 3 -0.001141 -0.002358 0.009614 0.000000 -0.004400 0.000000
# 4 0.000000 0.000000 0.000000 0.059802 0.000000 0.002818
# 5 -0.000339 -0.000086 -0.004400 0.000000 0.030496 0.000000
# 6 0.000000 0.000000 0.000000 0.002818 0.000000 0.034230
#
#
# Mechanical properties :
#
#
# Convention : Reuss Voigt Hill
#
# Bulk Modulus (GPa) = 46.79761 51.16882 48.98322
# Shear Modulus (GPa) = 28.35346 32.54948 30.45147
#
# Velocity S-wave (km/s) = 3.30312 3.53910 3.42314
# Velocity P-wave (km/s) = 5.70574 6.03244 5.87136
#
# Compressibility (1/GPa) = 0.02136861
#
# Stress axis : x y z
#
# Youngs Moduli (GPa) = 74.02027 100.92710 104.01680
#
# Poissons Ratio (x) = 0.23538 0.11871
# Poissons Ratio (y) = 0.17263 0.24530
# Poissons Ratio (z) = 0.08447 0.23801
#
# Static dielectric constant tensor:
#      x y z
#    x 2.134710 0.000000 -0.010560 
#    y 0.000000 2.138590 0.000000 
#    z -0.010560 0.000000 1.974390 
# 
# From -- ./inp_files/62444.got.cif
#   From: 2010.05.17/outbox.cif.g08.bks.cpg/sg14_32_cif.got.tgz:62444.got - 2010.06.03 17:49:19.
