data_PCOD9249305
_publ_section_title
;
Structure prediction by ZEFSAII (Michael W. Deem and Ramdas Pophale) SiO2 
 PCOD9249305
Probable space group: P 21/C
;
_chemical_formula_sum "Si O2"
_cell_formula_units_Z 26
_cell_length_a 17.601457
_cell_length_b 12.191458
_cell_length_c 5.208899
_cell_angle_alpha 90.000000
_cell_angle_beta 70.603626
_cell_angle_gamma 90.000000
_cell_volume 1054.324030
_symmetry_space_group_name_H-M "P 21/C"
_symmetry_group_IT_number 14
_symmetry_cell_setting 'monoclinic'
loop_
_space_group_symop_operation_xyz
x,y,z
-x,1/2+y,1/2-z
-x,-y,-z
x,1/2-y,1/2+z
loop_
_atom_site_type_symbol
_atom_site_label
_atom_site_fract_x
_atom_site_fract_y
_atom_site_fract_z
Si Si1 0.654198 0.721869 0.225053
Si Si2 0.140433 0.172366 0.227620
Si Si3 0.251886 0.960252 0.005052
Si Si4 0.356156 0.976790 0.368043
Si Si5 0.000000 0.500000 0.000000
Si Si6 0.905533 0.179674 0.918184
Si Si7 0.521593 0.309457 0.095112
O O1 0.701569 0.760113 0.415056
O O2 0.626627 0.598130 0.253693
O O3 0.575356 0.799931 0.297064
O O4 0.140825 0.247648 0.482033
O O5 0.207805 0.073927 0.135564
O O6 0.059735 0.098778 0.332706
O O7 0.305929 0.924536 0.189489
O O8 0.183736 0.871145 0.021245
O O9 0.303943 0.977657 0.688062
O O10 0.439459 0.919358 0.347196
O O11 0.034833 0.583437 0.732891
O O12 0.913959 0.277255 0.698759
O O13 0.548036 0.220326 0.279008
#
# Coordination Sequence:
#
# PCOD9249305 Si02
#       7
#     4   4   4   4   2   4   4
#     4  10  23  40  62  90 119 157 204 257 321 388
#     4  11  24  43  67  95 135 172 214 265 309 368
#     4  11  26  41  63  96 126 170 219 256 317 386
#     4  12  24  42  65  91 127 164 209 270 321 381
#     4  10  24  42  68 104 130 174 220 254 316 368
#     4  11  24  43  67  95 135 172 214 265 309 368
#     4  10  23  40  62  90 119 157 204 257 321 388
#
# _framework density 24.660352
#
# number of rings (size 3 to 8) (size 9 to 14) (size 15 to 20)
#    0.000    1.231    0.000    4.615    0.000   17.231 
#    0.000    0.000    0.000    0.000    0.000    0.000 
#    0.000    0.000    0.000    0.000    0.000    0.000 
#
# Total GULP energy -145001.179593 kJ/mol
# GULP energy per Si atom -5576.968446 kJ/mol
# Density = 2.460422 g / cm^3
# Si number density = 24.660352 Si / 1000 Ang^3
#
#
#
# Elastic Constant Matrix: (Units=GPa)
#
#
# Indices 1 2 3 4 5 6 
#
# 1 69.3641 26.4591 37.7437 0.0000 0.3488 0.0000
# 2 26.4591 57.7147 6.1586 0.0000 -15.3136 0.0000
# 3 37.7437 6.1586 126.9508 0.0000 6.4331 0.0000
# 4 0.0000 0.0000 0.0000 34.6272 0.0000 -11.5512
# 5 0.3488 -15.3136 6.4331 0.0000 44.8540 0.0000
# 6 0.0000 0.0000 0.0000 -11.5512 0.0000 44.6361
#
#
#
# Elastic Compliance Matrix: (Units=1/GPa)
#
#
# Indices 1 2 3 4 5 6 
#
# 1 0.021312 -0.009881 -0.005719 0.000000 -0.002719 0.000000
# 2 -0.009881 0.023837 0.001375 0.000000 0.008018 0.000000
# 3 -0.005719 0.001375 0.009554 0.000000 -0.000856 0.000000
# 4 0.000000 0.000000 0.000000 0.031608 0.000000 0.008180
# 5 -0.002719 0.008018 -0.000856 0.000000 0.025176 0.000000
# 6 0.000000 0.000000 0.000000 0.008180 0.000000 0.024520
#
#
# Mechanical properties :
#
#
# Convention : Reuss Voigt Hill
#
# Bulk Modulus (GPa) = 38.09158 43.86136 40.97647
# Shear Modulus (GPa) = 28.86701 37.06800 32.96751
#
# Velocity S-wave (km/s) = 3.42509 3.88124 3.66028
# Velocity P-wave (km/s) = 5.57868 6.15713 5.87503
#
# Compressibility (1/GPa) = 0.02625252
#
# Stress axis : x y z
#
# Youngs Moduli (GPa) = 46.92289 41.95088 104.66762
#
# Poissons Ratio (x) = 0.41453 0.59859
# Poissons Ratio (y) = 0.46366 -0.14393
# Poissons Ratio (z) = 0.26835 -0.05769
#
# Static dielectric constant tensor:
#      x y z
#    x 2.018490 0.000000 0.032640 
#    y 0.000000 1.933660 0.000000 
#    z 0.032640 0.000000 1.995350 
# 
# From -- ./inp_files/4359.got.cif
#   From: 2010.05.17/outbox.cif.g08.bks.cpg/sg14_3_cif.got.tgz:4359.got - 2010.06.03 17:49:19.
