data_PCOD9249434
_publ_section_title
;
Structure prediction by ZEFSAII (Michael W. Deem and Ramdas Pophale) SiO2 
 PCOD9249434
Probable space group: P 21/C
;
_chemical_formula_sum "Si O2"
_cell_formula_units_Z 32
_cell_length_a 18.809051
_cell_length_b 8.655684
_cell_length_c 19.553527
_cell_angle_alpha 90.000000
_cell_angle_beta 29.204186
_cell_angle_gamma 90.000000
_cell_volume 1553.263219
_symmetry_space_group_name_H-M "P 21/C"
_symmetry_group_IT_number 14
_symmetry_cell_setting 'monoclinic'
loop_
_space_group_symop_operation_xyz
x,y,z
-x,1/2+y,1/2-z
-x,-y,-z
x,1/2-y,1/2+z
loop_
_atom_site_type_symbol
_atom_site_label
_atom_site_fract_x
_atom_site_fract_y
_atom_site_fract_z
Si Si1 0.352610 0.711260 0.944461
Si Si2 0.937789 0.122828 0.841090
Si Si3 0.306499 0.844676 0.242627
Si Si4 0.226783 0.159049 0.245654
Si Si5 0.205447 0.169369 0.103884
Si Si6 0.515435 0.332375 0.020886
Si Si7 0.946886 0.369799 0.492242
Si Si8 0.486872 0.051245 0.808302
O O1 0.429102 0.586716 0.831787
O O2 0.428606 0.877191 0.864838
O O3 0.183004 0.743269 0.070761
O O4 0.386181 0.666734 0.994069
O O5 0.098631 0.184843 0.689504
O O6 0.929070 0.076613 0.928527
O O7 0.890431 0.979957 0.834705
O O8 0.408375 0.777756 0.097999
O O9 0.403412 0.907282 0.223095
O O10 0.199796 0.711180 0.358699
O O11 0.223096 0.990064 0.280731
O O12 0.256825 0.152668 0.139072
O O13 0.073788 0.242543 0.383371
O O14 0.356897 0.259912 0.169249
O O15 0.345341 0.160939 0.937582
O O16 0.500000 0.500000 0.000000
O O17 0.000000 0.500000 0.500000
#
# Coordination Sequence:
#
# PCOD9249434 Si02
#       8
#     4   4   4   4   4   4   4   4
#     4  11  25  43  66 100 134 178 224 282 338 406
#     4  10  23  43  64  94 133 171 214 269 333 394
#     4  12  22  45  67  96 134 178 224 278 334 407
#     4  11  23  43  67  98 129 174 223 271 338 400
#     4  10  23  41  66  93 128 170 215 267 326 398
#     4  12  26  41  69 101 137 175 230 284 341 397
#     4  11  25  43  67  99 137 171 222 279 335 400
#     4  11  23  42  69  96 132 176 226 277 335 399
#
# _framework density 20.601787000000002
#
# number of rings (size 3 to 8) (size 9 to 14) (size 15 to 20)
#    0.000    1.000    3.750    3.000    1.750    7.000 
#    0.000    0.000    0.000    0.000    0.000    0.000 
#    0.000    0.000    0.000    0.000    0.000    0.000 
#
# Total GULP energy -179020.061345 kJ/mol
# GULP energy per Si atom -5594.376917 kJ/mol
# Density = 2.055490 g / cm^3
# Si number density = 20.601787 Si / 1000 Ang^3
#
#
#
# Elastic Constant Matrix: (Units=GPa)
#
#
# Indices 1 2 3 4 5 6 
#
# 1 74.6579 20.7773 0.7761 0.0000 -7.0330 0.0000
# 2 20.7773 53.3480 -11.3645 0.0000 -0.7157 0.0000
# 3 0.7761 -11.3645 40.1767 0.0000 -7.8145 0.0000
# 4 0.0000 0.0000 0.0000 22.5789 0.0000 -1.0292
# 5 -7.0330 -0.7157 -7.8145 0.0000 21.7955 0.0000
# 6 0.0000 0.0000 0.0000 -1.0292 0.0000 32.9824
#
#
#
# Elastic Compliance Matrix: (Units=1/GPa)
#
#
# Indices 1 2 3 4 5 6 
#
# 1 0.015562 -0.006262 -0.001220 0.000000 0.004378 0.000000
# 2 -0.006262 0.022636 0.006746 0.000000 0.001141 0.000000
# 3 -0.001220 0.006746 0.028796 0.000000 0.010152 0.000000
# 4 0.000000 0.000000 0.000000 0.044352 0.000000 0.001384
# 5 0.004378 0.001141 0.010152 0.000000 0.050971 0.000000
# 6 0.000000 0.000000 0.000000 0.001384 0.000000 0.030362
#
#
# Mechanical properties :
#
#
# Convention : Reuss Voigt Hill
#
# Bulk Modulus (GPa) = 15.26219 20.95117 18.10668
# Shear Modulus (GPa) = 23.14870 26.00428 24.57649
#
# Velocity S-wave (km/s) = 3.35569 3.55665 3.45763
# Velocity P-wave (km/s) = 4.73693 5.20173 4.97476
#
# Compressibility (1/GPa) = 0.06552141
#
# Stress axis : x y z
#
# Youngs Moduli (GPa) = 64.25765 44.17719 34.72655
#
# Poissons Ratio (x) = 0.27665 0.04238
# Poissons Ratio (y) = 0.40240 -0.23426
# Poissons Ratio (z) = 0.07842 -0.29801
#
# Static dielectric constant tensor:
#      x y z
#    x 1.749050 0.000000 -0.011820 
#    y 0.000000 1.717200 0.000000 
#    z -0.011820 0.000000 1.749200 
# 
# From -- ./inp_files/69139.got.cif
#   From: 2010.05.17/outbox.cif.g08.bks.cpg/sg14_35_cif.got.tgz:69139.got - 2010.06.03 17:49:19.
