data_PCOD9249956
_publ_section_title
;
Structure prediction by ZEFSAII (Michael W. Deem and Ramdas Pophale) SiO2 
 PCOD9249956
Probable space group: P 21/C
;
_chemical_formula_sum "Si O2"
_cell_formula_units_Z 32
_cell_length_a 17.106128
_cell_length_b 5.019958
_cell_length_c 15.040353
_cell_angle_alpha 90.000000
_cell_angle_beta 77.278773
_cell_angle_gamma 90.000000
_cell_volume 1259.842316
_symmetry_space_group_name_H-M "P 21/C"
_symmetry_group_IT_number 14
_symmetry_cell_setting 'monoclinic'
loop_
_space_group_symop_operation_xyz
x,y,z
-x,1/2+y,1/2-z
-x,-y,-z
x,1/2-y,1/2+z
loop_
_atom_site_type_symbol
_atom_site_label
_atom_site_fract_x
_atom_site_fract_y
_atom_site_fract_z
Si Si1 0.752151 0.779089 0.827380
Si Si2 0.164168 0.071585 0.527444
Si Si3 0.201452 0.060182 0.868675
Si Si4 0.966520 0.202810 0.872516
Si Si5 0.353933 0.726604 0.108939
Si Si6 0.069256 0.701808 0.825948
Si Si7 0.550450 0.450784 0.253304
Si Si8 0.673448 0.292346 0.077513
O O1 0.781623 0.744875 0.720120
O O2 0.679433 0.567245 0.860022
O O3 0.720623 0.071254 0.857616
O O4 0.821423 0.699230 0.879317
O O5 0.151843 0.299437 0.458645
O O6 0.099188 0.839542 0.548757
O O7 0.249767 0.952422 0.477100
O O8 0.152304 0.808789 0.843236
O O9 0.285912 0.966562 0.889179
O O10 0.040942 0.407157 0.855440
O O11 0.931749 0.218487 0.780833
O O12 0.000948 0.908609 0.877542
O O13 0.420119 0.830676 0.160586
O O14 0.377111 0.752301 0.999602
O O15 0.516149 0.746150 0.266684
O O16 0.623407 0.435911 0.165821
#
# Coordination Sequence:
#
# PCOD9249956 Si02
#       8
#     4   4   4   4   4   4   4   4
#     4  11  23  42  71 103 138 185 229 294 345 400
#     4  11  25  43  72 104 140 181 246 294 350 409
#     4  12  24  43  71 104 135 190 240 295 346 424
#     4  10  23  45  62  99 138 191 231 295 358 415
#     4  11  24  46  73 103 144 179 227 290 338 410
#     4  10  24  41  68  93 142 186 239 286 359 419
#     4  12  28  48  76 107 146 190 223 280 356 431
#     4  11  27  46  73 110 138 182 243 288 344 426
#
# _framework density 25.400005
#
# number of rings (size 3 to 8) (size 9 to 14) (size 15 to 20)
#    0.000    1.000    3.750    1.500    5.250    2.000 
#    0.000    0.000    0.000    0.000    0.000    0.000 
#    0.000    0.000    0.000    0.000    0.000    0.000 
#
# Total GULP energy -179618.098308 kJ/mol
# GULP energy per Si atom -5613.065572 kJ/mol
# Density = 2.534219 g / cm^3
# Si number density = 25.400005 Si / 1000 Ang^3
#
#
#
# Elastic Constant Matrix: (Units=GPa)
#
#
# Indices 1 2 3 4 5 6 
#
# 1 49.0193 9.9820 23.7673 0.0000 6.0157 0.0000
# 2 9.9820 88.0177 23.6520 0.0000 -3.0093 0.0000
# 3 23.7673 23.6520 108.3193 0.0000 15.8788 0.0000
# 4 0.0000 0.0000 0.0000 27.9107 0.0000 -5.4026
# 5 6.0157 -3.0093 15.8788 0.0000 47.9598 0.0000
# 6 0.0000 0.0000 0.0000 -5.4026 0.0000 47.1964
#
#
#
# Elastic Compliance Matrix: (Units=1/GPa)
#
#
# Indices 1 2 3 4 5 6 
#
# 1 0.023073 -0.001451 -0.004528 0.000000 -0.001486 0.000000
# 2 -0.001451 0.012296 -0.002634 0.000000 0.001826 0.000000
# 3 -0.004528 -0.002634 0.011290 0.000000 -0.003335 0.000000
# 4 0.000000 0.000000 0.000000 0.036640 0.000000 0.004194
# 5 -0.001486 0.001826 -0.003335 0.000000 0.022256 0.000000
# 6 0.000000 0.000000 0.000000 0.004194 0.000000 0.021668
#
#
# Mechanical properties :
#
#
# Convention : Reuss Voigt Hill
#
# Bulk Modulus (GPa) = 33.97547 40.01763 36.99655
# Shear Modulus (GPa) = 32.41260 37.14370 34.77815
#
# Velocity S-wave (km/s) = 3.57611 3.82822 3.70431
# Velocity P-wave (km/s) = 5.51875 5.94386 5.73525
#
# Compressibility (1/GPa) = 0.02943300
#
# Stress axis : x y z
#
# Youngs Moduli (GPa) = 43.33993 81.32618 88.57691
#
# Poissons Ratio (x) = 0.11798 0.40109
# Poissons Ratio (y) = 0.06288 0.23333
# Poissons Ratio (z) = 0.19625 0.21423
#
# Static dielectric constant tensor:
#      x y z
#    x 2.005370 0.000000 0.041010 
#    y 0.000000 1.974840 0.000000 
#    z 0.041010 0.000000 1.985030 
# 
# From -- ./inp_files/48170.got.cif
#   From: 2010.05.17/outbox.cif.g08.bks.cpg/sg14_25_cif.got.tgz:48170.got - 2010.06.03 17:49:19.
