data_PCOD9249235
_publ_section_title
;
Structure prediction by ZEFSAII (Michael W. Deem and Ramdas Pophale) SiO2 
 PCOD9249235
Probable space group: P 21/C
;
_chemical_formula_sum "Si O2"
_cell_formula_units_Z 28
_cell_length_a 17.348507
_cell_length_b 13.964248
_cell_length_c 8.314680
_cell_angle_alpha 90.000000
_cell_angle_beta 142.610301
_cell_angle_gamma 90.000000
_cell_volume 1223.152387
_symmetry_space_group_name_H-M "P 21/C"
_symmetry_group_IT_number 14
_symmetry_cell_setting 'monoclinic'
loop_
_space_group_symop_operation_xyz
x,y,z
-x,1/2+y,1/2-z
-x,-y,-z
x,1/2-y,1/2+z
loop_
_atom_site_type_symbol
_atom_site_label
_atom_site_fract_x
_atom_site_fract_y
_atom_site_fract_z
Si Si1 0.413570 0.941358 0.228452
Si Si2 0.863769 0.373570 0.238274
Si Si3 0.374951 0.177972 0.538249
Si Si4 0.216527 0.799151 0.049205
Si Si5 0.029991 0.394985 0.981017
Si Si6 0.294637 0.363243 0.538521
Si Si7 0.866314 0.596328 0.209490
O O1 0.501309 0.888753 0.242553
O O2 0.500000 0.000000 0.500000
O O3 0.318941 0.026969 0.022860
O O4 0.339875 0.854834 0.193175
O O5 0.812964 0.330662 0.320099
O O6 0.791363 0.314895 0.981354
O O7 0.839673 0.485907 0.203554
O O8 0.017436 0.366949 0.486381
O O9 0.382710 0.291494 0.580923
O O10 0.327335 0.154837 0.279009
O O11 0.264026 0.149678 0.476669
O O12 0.099882 0.836430 0.745275
O O13 0.144290 0.347301 0.268444
O O14 0.081966 0.399577 0.885190
O O15 0.000000 0.500000 0.000000
#
# Coordination Sequence:
#
# PCOD9249235 Si02
#       7
#     4   4   4   4   4   4   4
#     4  10  23  42  65  90 132 175 220 270 328 382
#     4  10  23  38  63  91 133 161 214 266 330 385
#     4  11  24  42  68  93 133 178 222 267 327 401
#     4  11  23  40  63  98 126 174 212 273 330 391
#     4  11  23  40  69  93 128 164 217 272 332 390
#     4  11  23  43  67  97 130 174 223 272 333 390
#     4  10  23  42  61  95 129 173 208 268 330 393
#
# _framework density 22.891667999999999
#
# number of rings (size 3 to 8) (size 9 to 14) (size 15 to 20)
#    0.000    1.429    1.429    3.429    6.000    5.714 
#    0.000    2.857    0.000    0.000    0.000    0.000 
#    0.000    0.000    0.000    0.000    0.000    0.000 
#
# Total GULP energy -156554.760084 kJ/mol
# GULP energy per Si atom -5591.241432 kJ/mol
# Density = 2.283957 g / cm^3
# Si number density = 22.891668 Si / 1000 Ang^3
#
#
#
# Elastic Constant Matrix: (Units=GPa)
#
#
# Indices 1 2 3 4 5 6 
#
# 1 98.0319 39.0721 5.6991 0.0000 14.6969 0.0000
# 2 39.0721 97.2653 -0.2504 0.0000 7.8775 0.0000
# 3 5.6991 -0.2504 42.8733 0.0000 5.2814 0.0000
# 4 0.0000 0.0000 0.0000 37.2197 0.0000 4.9240
# 5 14.6969 7.8775 5.2814 0.0000 24.8682 0.0000
# 6 0.0000 0.0000 0.0000 4.9240 0.0000 40.0034
#
#
#
# Elastic Compliance Matrix: (Units=1/GPa)
#
#
# Indices 1 2 3 4 5 6 
#
# 1 0.013057 -0.004762 -0.001026 0.000000 -0.005990 0.000000
# 2 -0.004762 0.012299 0.000861 0.000000 -0.001264 0.000000
# 3 -0.001026 0.000861 0.024054 0.000000 -0.004775 0.000000
# 4 0.000000 0.000000 0.000000 0.027312 0.000000 -0.003362
# 5 -0.005990 -0.001264 -0.004775 0.000000 0.045167 0.000000
# 6 0.000000 0.000000 0.000000 -0.003362 0.000000 0.025412
#
#
# Mechanical properties :
#
#
# Convention : Reuss Voigt Hill
#
# Bulk Modulus (GPa) = 25.28135 36.35687 30.81911
# Shear Modulus (GPa) = 29.35313 33.32822 31.34067
#
# Velocity S-wave (km/s) = 3.58475 3.81978 3.70413
# Velocity P-wave (km/s) = 5.31054 5.94734 5.63794
#
# Compressibility (1/GPa) = 0.03955484
#
# Stress axis : x y z
#
# Youngs Moduli (GPa) = 76.59011 81.30841 41.57293
#
# Poissons Ratio (x) = 0.38722 0.04263
# Poissons Ratio (y) = 0.36475 -0.03578
# Poissons Ratio (z) = 0.07855 -0.06998
#
# Static dielectric constant tensor:
#      x y z
#    x 1.816270 0.000000 0.010010 
#    y 0.000000 1.938380 0.000000 
#    z 0.010010 0.000000 1.916920 
# 
# From -- ./inp_files/18018.got.cif
#   From: 2010.05.17/outbox.cif.g08.bks.cpg/sg14_10_cif.got.tgz:18018.got - 2010.06.03 17:49:19.
