data_PCOD9249008
_publ_section_title
;
Structure prediction by ZEFSAII (Michael W. Deem and Ramdas Pophale) SiO2 
 PCOD9249008
Probable space group: P 21/C
;
_chemical_formula_sum "Si O2"
_cell_formula_units_Z 20
_cell_length_a 10.832974
_cell_length_b 9.440030
_cell_length_c 13.531053
_cell_angle_alpha 90.000000
_cell_angle_beta 144.170210
_cell_angle_gamma 90.000000
_cell_volume 810.009342
_symmetry_space_group_name_H-M "P 21/C"
_symmetry_group_IT_number 14
_symmetry_cell_setting 'monoclinic'
loop_
_space_group_symop_operation_xyz
x,y,z
-x,1/2+y,1/2-z
-x,-y,-z
x,1/2-y,1/2+z
loop_
_atom_site_type_symbol
_atom_site_label
_atom_site_fract_x
_atom_site_fract_y
_atom_site_fract_z
Si Si1 0.139892 0.812273 0.870061
Si Si2 0.866756 0.371677 0.862947
Si Si3 0.186428 0.288398 0.682871
Si Si4 0.531969 0.548136 0.710588
Si Si5 0.569748 0.465200 0.934334
O O1 0.129095 0.864307 0.751228
O O2 0.912457 0.812092 0.773852
O O3 0.294242 0.916378 0.030465
O O4 0.249111 0.655658 0.945913
O O5 0.628897 0.394909 0.746687
O O6 0.000000 0.500000 0.000000
O O7 0.984846 0.235756 0.982965
O O8 0.337538 0.151150 0.778827
O O9 0.347457 0.404049 0.748855
O O10 0.611003 0.577656 0.874245
O O11 0.500000 0.500000 0.000000
#
# Coordination Sequence:
#
# PCOD9249008 Si02
#       5
#     4   4   4   4   4
#     4  11  24  43  70 102 134 181 236 279 343 418
#     4  10  22  45  69  97 134 179 225 279 348 405
#     4  10  24  43  68 100 132 183 229 281 339 413
#     4  10  23  46  66  99 138 183 224 279 351 399
#     4  11  26  43  67 102 141 177 231 292 336 408
#
# _framework density 24.691072999999999
#
# number of rings (size 3 to 8) (size 9 to 14) (size 15 to 20)
#    0.000    1.600    2.000    0.600    8.400    0.800 
#   10.800    0.000    0.000    0.000    0.000    0.000 
#    0.000    0.000    0.000    0.000    0.000    0.000 
#
# Total GULP energy -111691.467537 kJ/mol
# GULP energy per Si atom -5584.573377 kJ/mol
# Density = 2.463488 g / cm^3
# Si number density = 24.691073 Si / 1000 Ang^3
#
#
#
# Elastic Constant Matrix: (Units=GPa)
#
#
# Indices 1 2 3 4 5 6 
#
# 1 139.7907 7.8244 30.7623 0.0000 -11.7173 0.0000
# 2 7.8244 24.2034 18.7521 0.0000 1.8465 0.0000
# 3 30.7623 18.7521 79.9547 0.0000 -27.8679 0.0000
# 4 0.0000 0.0000 0.0000 30.8527 0.0000 -1.4358
# 5 -11.7173 1.8465 -27.8679 0.0000 55.9935 0.0000
# 6 0.0000 0.0000 0.0000 -1.4358 0.0000 39.3640
#
#
#
# Elastic Compliance Matrix: (Units=1/GPa)
#
#
# Indices 1 2 3 4 5 6 
#
# 1 0.007819 -0.000338 -0.002849 0.000000 0.000229 0.000000
# 2 -0.000338 0.054698 -0.016154 0.000000 -0.009914 0.000000
# 3 -0.002849 -0.016154 0.021015 0.000000 0.010396 0.000000
# 4 0.000000 0.000000 0.000000 0.032467 0.000000 0.001184
# 5 0.000229 -0.009914 0.010396 0.000000 0.023408 0.000000
# 6 0.000000 0.000000 0.000000 0.001184 0.000000 0.025447
#
#
# Mechanical properties :
#
#
# Convention : Reuss Voigt Hill
#
# Bulk Modulus (GPa) = 22.29657 39.84737 31.07197
# Shear Modulus (GPa) = 22.88476 37.68272 30.28374
#
# Velocity S-wave (km/s) = 3.04771 3.91086 3.50595
# Velocity P-wave (km/s) = 4.62975 6.04702 5.38521
#
# Compressibility (1/GPa) = 0.04484994
#
# Stress axis : x y z
#
# Youngs Moduli (GPa) = 127.89948 18.28227 47.58424
#
# Poissons Ratio (x) = 0.00617 0.13557
# Poissons Ratio (y) = 0.04319 0.76868
# Poissons Ratio (z) = 0.36439 0.29533
#
# Static dielectric constant tensor:
#      x y z
#    x 2.102330 0.000000 0.027840 
#    y 0.000000 2.106340 0.000000 
#    z 0.027840 0.000000 1.952760 
# 
# From -- ./inp_files/24323.got.cif
#   From: 2010.05.17/outbox.cif.g08.bks.cpg/sg14_13_cif.got.tgz:24323.got - 2010.06.03 17:49:19.
