data_PCOD9249691
_publ_section_title
;
Structure prediction by ZEFSAII (Michael W. Deem and Ramdas Pophale) SiO2 
 PCOD9249691
Probable space group: P 21/C
;
_chemical_formula_sum "Si O2"
_cell_formula_units_Z 20
_cell_length_a 12.061708
_cell_length_b 12.029876
_cell_length_c 15.112017
_cell_angle_alpha 90.000000
_cell_angle_beta 22.908666
_cell_angle_gamma 90.000000
_cell_volume 853.563484
_symmetry_space_group_name_H-M "P 21/C"
_symmetry_group_IT_number 14
_symmetry_cell_setting 'monoclinic'
loop_
_space_group_symop_operation_xyz
x,y,z
-x,1/2+y,1/2-z
-x,-y,-z
x,1/2-y,1/2+z
loop_
_atom_site_type_symbol
_atom_site_label
_atom_site_fract_x
_atom_site_fract_y
_atom_site_fract_z
Si Si1 0.596012 0.743162 0.842263
Si Si2 0.503431 0.392205 0.434716
Si Si3 0.131561 0.927131 0.639767
Si Si4 0.988949 0.057045 0.913069
Si Si5 0.660091 0.547355 0.175058
O O1 0.421877 0.792548 0.054503
O O2 0.860177 0.674654 0.685874
O O3 0.706528 0.843214 0.699493
O O4 0.386455 0.660635 0.943917
O O5 0.500000 0.500000 0.500000
O O6 0.679620 0.436484 0.221749
O O7 0.179543 0.373160 0.640252
O O8 0.153409 0.985074 0.718828
O O9 0.156488 0.021864 0.546155
O O10 0.666012 0.061283 0.116953
O O11 0.000000 0.000000 0.000000
#
# Coordination Sequence:
#
# PCOD9249691 Si02
#       5
#     4   4   4   4   4
#     4  11  22  41  66  94 126 173 202 260 331 362
#     4   9  22  43  62  92 129 158 212 260 309 377
#     4  11  23  43  65  91 127 167 211 260 315 379
#     4  11  23  44  61  92 130 162 214 264 307 380
#     4  10  23  43  64  95 128 162 217 264 306 389
#
# _framework density 23.431179
#
# number of rings (size 3 to 8) (size 9 to 14) (size 15 to 20)
#    0.000    1.600    2.000    1.800    0.000    4.800 
#   14.400    0.000    0.000    0.000    0.000    0.000 
#    0.000    0.000    0.000    0.000    0.000    0.000 
#
# Total GULP energy -111898.130379 kJ/mol
# GULP energy per Si atom -5594.906519 kJ/mol
# Density = 2.337785 g / cm^3
# Si number density = 23.431179 Si / 1000 Ang^3
#
#
#
# Elastic Constant Matrix: (Units=GPa)
#
#
# Indices 1 2 3 4 5 6 
#
# 1 107.3284 48.4648 25.8002 0.0000 21.5218 0.0000
# 2 48.4648 103.9419 29.6759 0.0000 11.0497 0.0000
# 3 25.8002 29.6759 66.3844 0.0000 9.7931 0.0000
# 4 0.0000 0.0000 0.0000 27.3765 0.0000 5.8341
# 5 21.5218 11.0497 9.7931 0.0000 57.3494 0.0000
# 6 0.0000 0.0000 0.0000 5.8341 0.0000 45.4508
#
#
#
# Elastic Compliance Matrix: (Units=1/GPa)
#
#
# Indices 1 2 3 4 5 6 
#
# 1 0.012788 -0.004954 -0.002245 0.000000 -0.003461 0.000000
# 2 -0.004954 0.013045 -0.003908 0.000000 0.000013 0.000000
# 3 -0.002245 -0.003908 0.017899 0.000000 -0.001461 0.000000
# 4 0.000000 0.000000 0.000000 0.037555 0.000000 -0.004821
# 5 -0.003461 0.000013 -0.001461 0.000000 0.018983 0.000000
# 6 0.000000 0.000000 0.000000 -0.004821 0.000000 0.022621
#
#
# Mechanical properties :
#
#
# Convention : Reuss Voigt Hill
#
# Bulk Modulus (GPa) = 46.47257 53.94850 50.21053
# Shear Modulus (GPa) = 32.83511 37.61625 35.22568
#
# Velocity S-wave (km/s) = 3.74751 4.01108 3.88154
# Velocity P-wave (km/s) = 6.21304 6.67278 6.44701
#
# Compressibility (1/GPa) = 0.02151807
#
# Stress axis : x y z
#
# Youngs Moduli (GPa) = 78.19996 76.65824 55.86943
#
# Poissons Ratio (x) = 0.37974 0.12542
# Poissons Ratio (y) = 0.38737 0.21835
# Poissons Ratio (z) = 0.17555 0.29959
#
# Static dielectric constant tensor:
#      x y z
#    x 1.885550 0.000000 0.013610 
#    y 0.000000 1.891370 0.000000 
#    z 0.013610 0.000000 1.915850 
# 
# From -- ./inp_files/44211.got.cif
#   From: 2010.05.17/outbox.cif.g08.bks.cpg/sg14_23_cif.got.tgz:44211.got - 2010.06.03 17:49:19.
