data_PCOD9249548
_publ_section_title
;
Structure prediction by ZEFSAII (Michael W. Deem and Ramdas Pophale) SiO2 
 PCOD9249548
Probable space group: P 21/C
;
_chemical_formula_sum "Si O2"
_cell_formula_units_Z 28
_cell_length_a 7.617395
_cell_length_b 6.890122
_cell_length_c 28.411826
_cell_angle_alpha 90.000000
_cell_angle_beta 60.834821
_cell_angle_gamma 90.000000
_cell_volume 1302.133215
_symmetry_space_group_name_H-M "P 21/C"
_symmetry_group_IT_number 14
_symmetry_cell_setting 'monoclinic'
loop_
_space_group_symop_operation_xyz
x,y,z
-x,1/2+y,1/2-z
-x,-y,-z
x,1/2-y,1/2+z
loop_
_atom_site_type_symbol
_atom_site_label
_atom_site_fract_x
_atom_site_fract_y
_atom_site_fract_z
Si Si1 0.898016 0.837678 0.705130
Si Si2 0.432399 0.297021 0.413837
Si Si3 0.507027 0.600693 0.948639
Si Si4 0.199782 0.564893 0.503499
Si Si5 0.794332 0.474644 0.309158
Si Si6 0.106698 0.422609 0.382094
Si Si7 0.944987 0.723424 0.863491
O O1 0.834558 0.681959 0.674115
O O2 0.070484 0.719471 0.710786
O O3 0.753740 0.931691 0.763408
O O4 0.980968 0.016592 0.663842
O O5 0.358185 0.392205 0.472731
O O6 0.608308 0.415301 0.365724
O O7 0.250693 0.329865 0.401600
O O8 0.486988 0.074110 0.413955
O O9 0.320256 0.748550 0.968935
O O10 0.725045 0.697124 0.914536
O O11 0.500000 0.500000 0.000000
O O12 0.000000 0.500000 0.500000
O O13 0.118642 0.609579 0.566729
O O14 0.911805 0.636023 0.323575
O O15 0.099922 0.655662 0.375931
#
# Coordination Sequence:
#
# PCOD9249548 Si02
#       7
#     4   4   4   4   4   4   4
#     4  11  22  42  65  95 128 171 227 286 334 402
#     4  11  24  44  65  97 138 177 227 277 339 412
#     4  12  24  38  71 103 128 176 231 277 325 403
#     4  10  23  42  65  96 143 180 213 275 345 400
#     4  11  22  41  67  92 125 174 226 278 337 395
#     4  10  25  42  63  97 137 175 219 271 345 404
#     4  11  22  40  65  91 127 169 221 275 335 391
#
# _framework density 21.503174000000001
#
# number of rings (size 3 to 8) (size 9 to 14) (size 15 to 20)
#    0.000    1.143    4.286    1.714    2.000    5.714 
#    2.571    0.000    0.000    0.000    0.000    0.000 
#    0.000    0.000    0.000    0.000    0.000    0.000 
#
# Total GULP energy -156150.354823 kJ/mol
# GULP energy per Si atom -5576.798387 kJ/mol
# Density = 2.145423 g / cm^3
# Si number density = 21.503174 Si / 1000 Ang^3
#
#
#
# Elastic Constant Matrix: (Units=GPa)
#
#
# Indices 1 2 3 4 5 6 
#
# 1 40.4724 24.1129 10.8606 0.0000 6.4179 0.0000
# 2 24.1129 114.8237 14.1746 0.0000 4.1124 0.0000
# 3 10.8606 14.1746 77.5311 0.0000 13.6554 0.0000
# 4 0.0000 0.0000 0.0000 44.4678 0.0000 -1.8834
# 5 6.4179 4.1124 13.6554 0.0000 21.9961 0.0000
# 6 0.0000 0.0000 0.0000 -1.8834 0.0000 26.1095
#
#
#
# Elastic Compliance Matrix: (Units=1/GPa)
#
#
# Indices 1 2 3 4 5 6 
#
# 1 0.029680 -0.005760 -0.001986 0.000000 -0.006350 0.000000
# 2 -0.005760 0.010039 -0.001116 0.000000 0.000497 0.000000
# 3 -0.001986 -0.001116 0.014867 0.000000 -0.008441 0.000000
# 4 0.000000 0.000000 0.000000 0.022557 0.000000 0.001627
# 5 -0.006350 0.000497 -0.008441 0.000000 0.052463 0.000000
# 6 0.000000 0.000000 0.000000 0.001627 0.000000 0.038418
#
#
# Mechanical properties :
#
#
# Convention : Reuss Voigt Hill
#
# Bulk Modulus (GPa) = 27.12868 36.79147 31.96008
# Shear Modulus (GPa) = 25.24811 30.75996 28.00403
#
# Velocity S-wave (km/s) = 3.43032 3.78628 3.61268
# Velocity P-wave (km/s) = 5.32287 6.02175 5.68306
#
# Compressibility (1/GPa) = 0.03686136
#
# Stress axis : x y z
#
# Youngs Moduli (GPa) = 33.69282 99.61555 67.26282
#
# Poissons Ratio (x) = 0.57380 0.13359
# Poissons Ratio (y) = 0.19408 0.07506
# Poissons Ratio (z) = 0.06692 0.11116
#
# Static dielectric constant tensor:
#      x y z
#    x 1.885140 0.000000 -0.005490 
#    y 0.000000 1.784250 0.000000 
#    z -0.005490 0.000000 1.860180 
# 
# From -- ./inp_files/79187.got.cif
#   From: 2010.05.17/outbox.cif.g08.bks.cpg/sg14_40_cif.got.tgz:79187.got - 2010.06.03 17:49:19.
