data_PCOD9249766
_publ_section_title
;
Structure prediction by ZEFSAII (Michael W. Deem and Ramdas Pophale) SiO2 
 PCOD9249766
Probable space group: P 21/C
;
_chemical_formula_sum "Si O2"
_cell_formula_units_Z 24
_cell_length_a 21.433125
_cell_length_b 7.052480
_cell_length_c 14.995953
_cell_angle_alpha 90.000000
_cell_angle_beta 23.553641
_cell_angle_gamma 90.000000
_cell_volume 905.805627
_symmetry_space_group_name_H-M "P 21/C"
_symmetry_group_IT_number 14
_symmetry_cell_setting 'monoclinic'
loop_
_space_group_symop_operation_xyz
x,y,z
-x,1/2+y,1/2-z
-x,-y,-z
x,1/2-y,1/2+z
loop_
_atom_site_type_symbol
_atom_site_label
_atom_site_fract_x
_atom_site_fract_y
_atom_site_fract_z
Si Si1 0.879272 0.143275 0.007210
Si Si2 0.774350 0.666833 0.742835
Si Si3 0.464452 0.363487 0.686165
Si Si4 0.952862 0.568557 0.882931
Si Si5 0.429168 0.754791 0.650854
Si Si6 0.267004 0.051144 0.050518
O O1 0.715767 0.106875 0.169540
O O2 0.854759 0.036619 0.131859
O O3 0.886972 0.368175 0.000902
O O4 0.019805 0.079753 0.759001
O O5 0.586643 0.658260 0.985353
O O6 0.811289 0.806421 0.774682
O O7 0.841453 0.770341 0.566695
O O8 0.387698 0.568362 0.763167
O O9 0.530551 0.302808 0.503358
O O10 0.605374 0.418850 0.568209
O O11 0.357004 0.200815 0.868678
O O12 0.125676 0.573788 0.698346
#
# Coordination Sequence:
#
# PCOD9249766 Si02
#       6
#     4   4   4   4   4   4
#     4  12  25  43  75  99 137 190 232 281 347 423
#     4  11  25  48  69 107 136 187 235 287 349 413
#     4  10  23  43  69 104 139 182 235 293 346 412
#     4  12  26  44  67 105 143 180 232 292 346 417
#     4  10  23  45  76  98 138 186 241 280 335 430
#     4  11  26  42  68 104 143 180 231 298 360 403
#
# _framework density 26.495749
#
# number of rings (size 3 to 8) (size 9 to 14) (size 15 to 20)
#    0.000    1.000    1.667    5.000    9.333    0.667 
#    0.000    0.000    0.000    0.000    0.000    0.000 
#    0.000    0.000    0.000    0.000    0.000    0.000 
#
# Total GULP energy -134530.981117 kJ/mol
# GULP energy per Si atom -5605.457547 kJ/mol
# Density = 2.643544 g / cm^3
# Si number density = 26.495749 Si / 1000 Ang^3
#
#
#
# Elastic Constant Matrix: (Units=GPa)
#
#
# Indices 1 2 3 4 5 6 
#
# 1 61.6402 -0.8980 27.3024 0.0000 -15.0128 0.0000
# 2 -0.8980 84.9235 17.9825 0.0000 -1.2024 0.0000
# 3 27.3024 17.9825 95.8799 0.0000 -7.3256 0.0000
# 4 0.0000 0.0000 0.0000 57.0781 0.0000 3.0653
# 5 -15.0128 -1.2024 -7.3256 0.0000 50.1818 0.0000
# 6 0.0000 0.0000 0.0000 3.0653 0.0000 21.1770
#
#
#
# Elastic Compliance Matrix: (Units=1/GPa)
#
#
# Indices 1 2 3 4 5 6 
#
# 1 0.019976 0.001463 -0.005565 0.000000 0.005199 0.000000
# 2 0.001463 0.012370 -0.002711 0.000000 0.000338 0.000000
# 3 -0.005565 -0.002711 0.012531 0.000000 0.000099 0.000000
# 4 0.000000 0.000000 0.000000 0.017657 0.000000 -0.002556
# 5 0.005199 0.000338 0.000099 0.000000 0.021505 0.000000
# 6 0.000000 0.000000 0.000000 -0.002556 0.000000 0.047591
#
#
# Mechanical properties :
#
#
# Convention : Reuss Voigt Hill
#
# Bulk Modulus (GPa) = 31.99995 36.80191 34.40093
# Shear Modulus (GPa) = 32.11880 38.89116 35.50498
#
# Velocity S-wave (km/s) = 3.48548 3.83538 3.66461
# Velocity P-wave (km/s) = 5.31993 5.79080 5.56036
#
# Compressibility (1/GPa) = 0.03125005
#
# Stress axis : x y z
#
# Youngs Moduli (GPa) = 50.06054 80.84349 79.80520
#
# Poissons Ratio (x) = -0.11830 0.44415
# Poissons Ratio (y) = -0.07326 0.21633
# Poissons Ratio (z) = 0.27861 0.21915
#
# Static dielectric constant tensor:
#      x y z
#    x 2.114980 0.000000 -0.021550 
#    y 0.000000 2.036430 0.000000 
#    z -0.021550 0.000000 2.049930 
# 
# From -- ./inp_files/61764.got.cif
#   From: 2010.05.17/outbox.cif.g08.bks.cpg/sg14_31_cif.got.tgz:61764.got - 2010.06.03 17:49:19.
