data_PCOD9249006
_publ_section_title
;
Structure prediction by ZEFSAII (Michael W. Deem and Ramdas Pophale) SiO2 
 PCOD9249006
Probable space group: P 21/C
;
_chemical_formula_sum "Si O2"
_cell_formula_units_Z 16
_cell_length_a 8.426255
_cell_length_b 11.632382
_cell_length_c 8.115292
_cell_angle_alpha 90.000000
_cell_angle_beta 126.018134
_cell_angle_gamma 90.000000
_cell_volume 643.376435
_symmetry_space_group_name_H-M "P 21/C"
_symmetry_group_IT_number 14
_symmetry_cell_setting 'monoclinic'
loop_
_space_group_symop_operation_xyz
x,y,z
-x,1/2+y,1/2-z
-x,-y,-z
x,1/2-y,1/2+z
loop_
_atom_site_type_symbol
_atom_site_label
_atom_site_fract_x
_atom_site_fract_y
_atom_site_fract_z
Si Si1 0.228138 0.745826 0.255102
Si Si2 0.806842 0.001397 0.768123
Si Si3 0.447195 0.885820 0.145576
Si Si4 0.127488 0.390801 0.027735
O O1 0.202103 0.871483 0.321601
O O2 0.396837 0.775048 0.227646
O O3 0.301577 0.639318 0.406908
O O4 0.017667 0.716495 0.050283
O O5 0.625101 0.007818 0.785652
O O6 0.807683 0.909112 0.624191
O O7 0.000000 0.000000 0.000000
O O8 0.674529 0.886117 0.246781
O O9 0.000000 0.500000 0.000000
#
# Coordination Sequence:
#
# PCOD9249006 Si02
#       4
#     4   4   4   4
#     4  10  23  43  65 101 130 178 225 275 339 399
#     4  10  22  45  69  96 140 177 225 278 343 395
#     4  10  24  43  65  95 135 174 223 281 334 394
#     4  12  24  43  69  99 134 178 228 279 335 414
#
# _framework density 24.868798000000002
#
# number of rings (size 3 to 8) (size 9 to 14) (size 15 to 20)
#    1.500    0.000    2.500    2.250    0.000    7.000 
#    4.500    0.000    0.000    0.000    0.000    0.000 
#    0.000    0.000    0.000    0.000    0.000    0.000 
#
# Total GULP energy -89317.032048 kJ/mol
# GULP energy per Si atom -5582.314503 kJ/mol
# Density = 2.481220 g / cm^3
# Si number density = 24.868798 Si / 1000 Ang^3
#
#
#
# Elastic Constant Matrix: (Units=GPa)
#
#
# Indices 1 2 3 4 5 6 
#
# 1 80.4955 21.0608 19.2351 0.0000 28.3958 0.0000
# 2 21.0608 59.0387 2.2701 0.0000 3.2956 0.0000
# 3 19.2351 2.2701 78.1682 0.0000 20.7698 0.0000
# 4 0.0000 0.0000 0.0000 30.7860 0.0000 3.2562
# 5 28.3958 3.2956 20.7698 0.0000 48.0749 0.0000
# 6 0.0000 0.0000 0.0000 3.2562 0.0000 41.2524
#
#
#
# Elastic Compliance Matrix: (Units=1/GPa)
#
#
# Indices 1 2 3 4 5 6 
#
# 1 0.017586 -0.005691 -0.001701 0.000000 -0.009262 0.000000
# 2 -0.005691 0.018848 0.000343 0.000000 0.001921 0.000000
# 3 -0.001701 0.000343 0.014619 0.000000 -0.005335 0.000000
# 4 0.000000 0.000000 0.000000 0.032756 0.000000 -0.002586
# 5 -0.009262 0.001921 -0.005335 0.000000 0.028445 0.000000
# 6 0.000000 0.000000 0.000000 -0.002586 0.000000 0.024445
#
#
# Mechanical properties :
#
#
# Convention : Reuss Voigt Hill
#
# Bulk Modulus (GPa) = 27.06104 33.64825 30.35465
# Shear Modulus (GPa) = 30.65319 35.69841 33.17580
#
# Velocity S-wave (km/s) = 3.51464 3.79287 3.65640
# Velocity P-wave (km/s) = 5.23215 5.72196 5.48253
#
# Compressibility (1/GPa) = 0.03695349
#
# Stress axis : x y z
#
# Youngs Moduli (GPa) = 56.86375 53.05670 68.40419
#
# Poissons Ratio (x) = 0.30194 0.11636
# Poissons Ratio (y) = 0.32361 -0.02343
# Poissons Ratio (z) = 0.09673 -0.01817
#
# Static dielectric constant tensor:
#      x y z
#    x 1.997420 0.000000 -0.064060 
#    y 0.000000 1.962000 0.000000 
#    z -0.064060 0.000000 1.966780 
# 
# From -- ./inp_files/7588.got.cif
#   From: 2010.05.17/outbox.cif.g08.bks.cpg/sg14_4_cif.got.tgz:7588.got - 2010.06.03 17:49:19.
