data_PCOD9249706
_publ_section_title
;
Structure prediction by ZEFSAII (Michael W. Deem and Ramdas Pophale) SiO2 
 PCOD9249706
Probable space group: P 21/C
;
_chemical_formula_sum "Si O2"
_cell_formula_units_Z 28
_cell_length_a 19.178537
_cell_length_b 9.802177
_cell_length_c 13.792653
_cell_angle_alpha 90.000000
_cell_angle_beta 151.430144
_cell_angle_gamma 90.000000
_cell_volume 1240.002406
_symmetry_space_group_name_H-M "P 21/C"
_symmetry_group_IT_number 14
_symmetry_cell_setting 'monoclinic'
loop_
_space_group_symop_operation_xyz
x,y,z
-x,1/2+y,1/2-z
-x,-y,-z
x,1/2-y,1/2+z
loop_
_atom_site_type_symbol
_atom_site_label
_atom_site_fract_x
_atom_site_fract_y
_atom_site_fract_z
Si Si1 0.245696 0.464813 0.026951
Si Si2 0.454007 0.595206 0.533966
Si Si3 0.866806 0.754325 0.466255
Si Si4 0.851804 0.251889 0.567310
Si Si5 0.443413 0.120293 0.364083
Si Si6 0.722145 0.983375 0.011774
Si Si7 0.074794 0.231315 0.186635
O O1 0.406733 0.404256 0.223899
O O2 0.169197 0.402205 0.030360
O O3 0.255431 0.626066 0.049296
O O4 0.154588 0.403561 0.826457
O O5 0.500000 0.500000 0.500000
O O6 0.446295 0.752359 0.493907
O O7 0.324081 0.534752 0.438320
O O8 0.716884 0.671022 0.296472
O O9 0.914990 0.746932 0.414942
O O10 0.004146 0.706794 0.696769
O O11 0.791467 0.391086 0.537522
O O12 0.913187 0.268324 0.533930
O O13 0.500000 0.000000 0.500000
O O14 0.413805 0.070001 0.218396
O O15 0.833794 0.859206 0.159970
#
# Coordination Sequence:
#
# PCOD9249706 Si02
#       7
#     4   4   4   4   4   4   4
#     4  10  23  43  65  96 141 175 229 287 346 414
#     4  11  26  45  71 102 134 184 236 284 356 423
#     4  10  23  44  71  97 135 182 229 288 348 404
#     4  11  25  42  66 105 135 180 237 279 351 421
#     4  11  26  46  69 105 141 179 233 289 352 419
#     4  12  25  44  72  99 141 187 227 290 351 409
#     4  11  22  44  69  92 140 179 226 292 342 408
#
# _framework density 22.580601999999999
#
# number of rings (size 3 to 8) (size 9 to 14) (size 15 to 20)
#    0.000    1.143    4.286    3.429    6.000    4.000 
#    0.000    0.000    0.000    0.000    0.000    0.000 
#    0.000    0.000    0.000    0.000    0.000    0.000 
#
# Total GULP energy -156589.262745 kJ/mol
# GULP energy per Si atom -5592.473669 kJ/mol
# Density = 2.252921 g / cm^3
# Si number density = 22.580602 Si / 1000 Ang^3
#
#
#
# Elastic Constant Matrix: (Units=GPa)
#
#
# Indices 1 2 3 4 5 6 
#
# 1 143.5895 29.4077 2.5217 0.0000 -23.6690 0.0000
# 2 29.4077 92.0021 5.5166 0.0000 -1.5367 0.0000
# 3 2.5217 5.5166 35.1392 0.0000 -7.1881 0.0000
# 4 0.0000 0.0000 0.0000 28.5833 0.0000 6.9846
# 5 -23.6690 -1.5367 -7.1881 0.0000 29.9148 0.0000
# 6 0.0000 0.0000 0.0000 6.9846 0.0000 28.8558
#
#
#
# Elastic Compliance Matrix: (Units=1/GPa)
#
#
# Indices 1 2 3 4 5 6 
#
# 1 0.008655 -0.002724 0.001240 0.000000 0.007006 0.000000
# 2 -0.002724 0.011831 -0.002081 0.000000 -0.002047 0.000000
# 3 0.001240 -0.002081 0.030367 0.000000 0.008171 0.000000
# 4 0.000000 0.000000 0.000000 0.037185 0.000000 -0.009001
# 5 0.007006 -0.002047 0.008171 0.000000 0.040830 0.000000
# 6 0.000000 0.000000 0.000000 -0.009001 0.000000 0.036834
#
#
# Mechanical properties :
#
#
# Convention : Reuss Voigt Hill
#
# Bulk Modulus (GPa) = 22.87102 38.40252 30.63677
# Shear Modulus (GPa) = 26.68011 33.02311 29.85161
#
# Velocity S-wave (km/s) = 3.44110 3.82835 3.63988
# Velocity P-wave (km/s) = 5.09302 6.04860 5.59126
#
# Compressibility (1/GPa) = 0.04372345
#
# Stress axis : x y z
#
# Youngs Moduli (GPa) = 115.53667 84.52693 32.93009
#
# Poissons Ratio (x) = 0.23024 -0.04082
# Poissons Ratio (y) = 0.31471 0.06852
# Poissons Ratio (z) = -0.14323 0.17587
#
# Static dielectric constant tensor:
#      x y z
#    x 1.859090 0.000000 -0.000730 
#    y 0.000000 1.862320 0.000000 
#    z -0.000730 0.000000 1.864370 
# 
# From -- ./inp_files/50146.got.cif
#   From: 2010.05.17/outbox.cif.g08.bks.cpg/sg14_26_cif.got.tgz:50146.got - 2010.06.03 17:49:19.
