data_PCOD9249519
_publ_section_title
;
Structure prediction by ZEFSAII (Michael W. Deem and Ramdas Pophale) SiO2 
 PCOD9249519
Probable space group: P 21/C
;
_chemical_formula_sum "Si O2"
_cell_formula_units_Z 32
_cell_length_a 23.347716
_cell_length_b 11.513307
_cell_length_c 11.795747
_cell_angle_alpha 90.000000
_cell_angle_beta 26.567403
_cell_angle_gamma 90.000000
_cell_volume 1418.144827
_symmetry_space_group_name_H-M "P 21/C"
_symmetry_group_IT_number 14
_symmetry_cell_setting 'monoclinic'
loop_
_space_group_symop_operation_xyz
x,y,z
-x,1/2+y,1/2-z
-x,-y,-z
x,1/2-y,1/2+z
loop_
_atom_site_type_symbol
_atom_site_label
_atom_site_fract_x
_atom_site_fract_y
_atom_site_fract_z
Si Si1 0.638863 0.801820 0.652368
Si Si2 0.848677 0.290016 0.546872
Si Si3 0.051695 0.375897 0.034513
Si Si4 0.708434 0.460494 0.956011
Si Si5 0.952269 0.891367 0.724525
Si Si6 0.744185 0.727214 0.691246
Si Si7 0.648537 0.098522 0.823284
Si Si8 0.570378 0.622322 0.607007
O O1 0.735597 0.790616 0.584680
O O2 0.612664 0.670735 0.654302
O O3 0.704402 0.899263 0.455570
O O4 0.499496 0.857702 0.927552
O O5 0.910733 0.327907 0.316656
O O6 0.967177 0.222733 0.392868
O O7 0.732279 0.201302 0.730071
O O8 0.811970 0.391987 0.699052
O O9 0.042760 0.503816 0.103045
O O10 0.163116 0.298104 0.888769
O O11 0.071290 0.393522 0.867246
O O12 0.702206 0.431588 0.102450
O O13 0.575476 0.413211 0.140139
O O14 0.818035 0.889428 0.028351
O O15 0.600561 0.756609 0.986539
O O16 0.641121 0.985208 0.919076
#
# Coordination Sequence:
#
# PCOD9249519 Si02
#       8
#     4   4   4   4   4   4   4   4
#     4  11  22  38  64  98 129 169 221 260 325 401
#     4  11  23  40  68  96 128 175 220 269 323 401
#     4  10  23  44  62  91 128 174 217 270 329 379
#     4  11  22  40  64  97 132 175 213 267 326 395
#     4  10  23  42  64  88 129 172 219 270 326 383
#     4  11  21  39  65  94 122 170 213 270 323 388
#     4  11  21  42  65  93 137 175 210 266 333 392
#     4  11  21  38  64  94 132 169 210 265 329 386
#
# _framework density 22.564691
#
# number of rings (size 3 to 8) (size 9 to 14) (size 15 to 20)
#    0.000    1.250    3.750    3.000    1.750    1.000 
#    0.000    1.250    0.000    3.750    0.000    0.000 
#    0.000    0.000    0.000    0.000    0.000    0.000 
#
# Total GULP energy -178374.745554 kJ/mol
# GULP energy per Si atom -5574.210799 kJ/mol
# Density = 2.251333 g / cm^3
# Si number density = 22.564691 Si / 1000 Ang^3
#
#
#
# Elastic Constant Matrix: (Units=GPa)
#
#
# Indices 1 2 3 4 5 6 
#
# 1 57.7931 12.4601 -8.6956 0.0000 -0.2123 0.0000
# 2 12.4601 69.2081 -1.4747 0.0000 -1.6917 0.0000
# 3 -8.6956 -1.4747 64.5918 0.0000 -0.6518 0.0000
# 4 0.0000 0.0000 0.0000 42.0575 0.0000 -4.3335
# 5 -0.2123 -1.6917 -0.6518 0.0000 25.1128 0.0000
# 6 0.0000 0.0000 0.0000 -4.3335 0.0000 28.0075
#
#
#
# Elastic Compliance Matrix: (Units=1/GPa)
#
#
# Indices 1 2 3 4 5 6 
#
# 1 0.018366 -0.003255 0.002398 0.000000 -0.000002 0.000000
# 2 -0.003255 0.015058 -0.000085 0.000000 0.000985 0.000000
# 3 0.002398 -0.000085 0.015807 0.000000 0.000425 0.000000
# 4 0.000000 0.000000 0.000000 0.024162 0.000000 0.003739
# 5 -0.000002 0.000985 0.000425 0.000000 0.039898 0.000000
# 6 0.000000 0.000000 0.000000 0.003739 0.000000 0.036283
#
#
# Mechanical properties :
#
#
# Convention : Reuss Voigt Hill
#
# Bulk Modulus (GPa) = 21.12085 21.79695 21.45890
# Shear Modulus (GPa) = 29.89726 31.65576 30.77651
#
# Velocity S-wave (km/s) = 3.64395 3.74958 3.69714
# Velocity P-wave (km/s) = 5.20432 5.33165 5.26837
#
# Compressibility (1/GPa) = 0.04734658
#
# Stress axis : x y z
#
# Youngs Moduli (GPa) = 54.44909 66.41182 63.26292
#
# Poissons Ratio (x) = 0.21620 -0.15171
# Poissons Ratio (y) = 0.17726 0.00535
# Poissons Ratio (z) = -0.13058 0.00561
#
# Static dielectric constant tensor:
#      x y z
#    x 1.884040 0.000000 0.088620 
#    y 0.000000 1.897550 0.000000 
#    z 0.088620 0.000000 1.934600 
# 
# From -- ./inp_files/32402.got.cif
#   From: 2010.05.17/outbox.cif.g08.bks.cpg/sg14_17_cif.got.tgz:32402.got - 2010.06.03 17:49:19.
