data_PCOD9249715
_publ_section_title
;
Structure prediction by ZEFSAII (Michael W. Deem and Ramdas Pophale) SiO2 
 PCOD9249715
Probable space group: P 21/C
;
_chemical_formula_sum "Si O2"
_cell_formula_units_Z 32
_cell_length_a 5.408211
_cell_length_b 17.943930
_cell_length_c 14.152648
_cell_angle_alpha 90.000000
_cell_angle_beta 80.044702
_cell_angle_gamma 90.000000
_cell_volume 1352.757552
_symmetry_space_group_name_H-M "P 21/C"
_symmetry_group_IT_number 14
_symmetry_cell_setting 'monoclinic'
loop_
_space_group_symop_operation_xyz
x,y,z
-x,1/2+y,1/2-z
-x,-y,-z
x,1/2-y,1/2+z
loop_
_atom_site_type_symbol
_atom_site_label
_atom_site_fract_x
_atom_site_fract_y
_atom_site_fract_z
Si Si1 0.779649 0.929539 0.411569
Si Si2 0.020200 0.372187 0.658361
Si Si3 0.227291 0.745721 0.577770
Si Si4 0.218193 0.903038 0.518932
Si Si5 0.883728 0.620846 0.560302
Si Si6 0.519430 0.220020 0.138305
Si Si7 0.434622 0.645628 0.726476
Si Si8 0.041959 0.535352 0.721786
O O1 0.502797 0.908232 0.462280
O O2 0.999376 0.888215 0.455757
O O3 0.818760 0.926366 0.296630
O O4 0.826389 0.016605 0.432650
O O5 0.101624 0.400901 0.548466
O O6 0.251655 0.319450 0.672484
O O7 0.012584 0.447250 0.720294
O O8 0.753979 0.329623 0.662406
O O9 0.206514 0.833598 0.590144
O O10 0.421564 0.730055 0.478022
O O11 0.275679 0.704625 0.672453
O O12 0.975799 0.706284 0.557678
O O13 0.628038 0.619598 0.633471
O O14 0.054081 0.568276 0.615315
O O15 0.505704 0.299914 0.190399
O O16 0.279221 0.570864 0.759802
#
# Coordination Sequence:
#
# PCOD9249715 Si02
#       8
#     4   4   4   4   4   4   4   4
#     4  10  24  42  64 102 129 179 224 281 338 410
#     4  11  26  48  68 102 137 185 223 291 342 413
#     4  10  23  43  66  96 135 178 220 287 338 407
#     4  10  23  43  68  94 139 175 225 277 349 401
#     4  10  24  45  67 101 135 180 232 280 349 406
#     4  11  26  44  70 101 139 177 235 279 350 406
#     4  11  25  43  70 102 135 184 228 285 342 412
#     4  11  26  42  72 100 141 178 238 282 344 411
#
# _framework density 23.655384000000002
#
# number of rings (size 3 to 8) (size 9 to 14) (size 15 to 20)
#    0.000    1.500    1.250    1.125   12.250    0.500 
#    2.250    0.000    0.000    0.000    0.000    0.000 
#    0.000    0.000    0.000    0.000    0.000    0.000 
#
# Total GULP energy -178709.249224 kJ/mol
# GULP energy per Si atom -5584.664038 kJ/mol
# Density = 2.360154 g / cm^3
# Si number density = 23.655384 Si / 1000 Ang^3
#
#
#
# Elastic Constant Matrix: (Units=GPa)
#
#
# Indices 1 2 3 4 5 6 
#
# 1 88.1287 10.7370 6.9700 0.0000 -0.9463 0.0000
# 2 10.7370 103.3667 -7.5314 0.0000 11.9167 0.0000
# 3 6.9700 -7.5314 65.7257 0.0000 6.4389 0.0000
# 4 0.0000 0.0000 0.0000 31.4841 0.0000 2.9733
# 5 -0.9463 11.9167 6.4389 0.0000 30.1012 0.0000
# 6 0.0000 0.0000 0.0000 2.9733 0.0000 22.8371
#
#
#
# Elastic Compliance Matrix: (Units=1/GPa)
#
#
# Indices 1 2 3 4 5 6 
#
# 1 0.011661 -0.001470 -0.001530 0.000000 0.001276 0.000000
# 2 -0.001470 0.010487 0.001807 0.000000 -0.004584 0.000000
# 3 -0.001530 0.001807 0.015994 0.000000 -0.004185 0.000000
# 4 0.000000 0.000000 0.000000 0.032157 0.000000 -0.004187
# 5 0.001276 -0.004584 -0.004185 0.000000 0.035971 0.000000
# 6 0.000000 0.000000 0.000000 -0.004187 0.000000 0.044333
#
#
# Mechanical properties :
#
#
# Convention : Reuss Voigt Hill
#
# Bulk Modulus (GPa) = 27.96756 30.84135 29.40446
# Shear Modulus (GPa) = 30.31975 33.35418 31.83697
#
# Velocity S-wave (km/s) = 3.58401 3.75908 3.67258
# Velocity P-wave (km/s) = 5.38288 5.64862 5.51735
#
# Compressibility (1/GPa) = 0.03575571
#
# Stress axis : x y z
#
# Youngs Moduli (GPa) = 85.75729 95.35504 62.52359
#
# Poissons Ratio (x) = 0.14015 0.09566
# Poissons Ratio (y) = 0.12605 -0.11296
# Poissons Ratio (z) = 0.13121 -0.17228
#
# Static dielectric constant tensor:
#      x y z
#    x 1.987530 0.000000 0.053620 
#    y 0.000000 1.866620 0.000000 
#    z 0.053620 0.000000 1.983510 
# 
# From -- ./inp_files/37838.got.cif
#   From: 2010.05.17/outbox.cif.g08.bks.cpg/sg14_19_cif.got.tgz:37838.got - 2010.06.03 17:49:19.
