data_PCOD9249003
_publ_section_title
;
Structure prediction by ZEFSAII (Michael W. Deem and Ramdas Pophale) SiO2 
 PCOD9249003
Probable space group: P 21/C
;
_chemical_formula_sum "Si O2"
_cell_formula_units_Z 28
_cell_length_a 11.619379
_cell_length_b 13.804350
_cell_length_c 11.250218
_cell_angle_alpha 90.000000
_cell_angle_beta 51.367807
_cell_angle_gamma 90.000000
_cell_volume 1409.630432
_symmetry_space_group_name_H-M "P 21/C"
_symmetry_group_IT_number 14
_symmetry_cell_setting 'monoclinic'
loop_
_space_group_symop_operation_xyz
x,y,z
-x,1/2+y,1/2-z
-x,-y,-z
x,1/2-y,1/2+z
loop_
_atom_site_type_symbol
_atom_site_label
_atom_site_fract_x
_atom_site_fract_y
_atom_site_fract_z
Si Si1 0.819405 0.601048 0.877027
Si Si2 0.943403 0.250381 0.361907
Si Si3 0.503839 0.615323 0.163104
Si Si4 0.891928 0.587693 0.098112
Si Si5 0.753185 0.386197 0.856023
Si Si6 0.355576 0.705393 0.843774
Si Si7 0.598914 0.484993 0.321589
O O1 0.831613 0.487090 0.838891
O O2 0.943923 0.662152 0.729139
O O3 0.643174 0.619885 0.983369
O O4 0.847717 0.625193 0.996948
O O5 0.871853 0.201818 0.288372
O O6 0.798332 0.263966 0.537926
O O7 0.033098 0.166191 0.368895
O O8 0.352762 0.601752 0.187498
O O9 0.483772 0.717836 0.242791
O O10 0.530048 0.534481 0.247382
O O11 0.748677 0.542302 0.249138
O O12 0.000000 0.500000 0.000000
O O13 0.645202 0.357299 0.035183
O O14 0.361637 0.626415 0.734862
O O15 0.500000 0.500000 0.500000
#
# Coordination Sequence:
#
# PCOD9249003 Si02
#       7
#     4   4   4   4   4   4   4
#     4  11  23  41  68  96 128 173 224 274 336 401
#     4  10  23  39  67  95 121 181 217 270 336 398
#     4  11  24  42  66 101 131 174 225 279 332 403
#     4  11  19  43  66  87 130 170 219 269 331 393
#     4  10  22  45  69  91 138 177 213 284 348 381
#     4  10  23  42  63  96 131 177 212 274 337 387
#     4  11  25  42  66  99 130 176 221 276 330 398
#
# _framework density 19.86336
#
# number of rings (size 3 to 8) (size 9 to 14) (size 15 to 20)
#    0.857    0.571    5.714    0.429    6.000    2.286 
#    0.000    0.714    0.000    0.000    0.000    0.000 
#    0.000    0.000    0.000    0.000    0.000    0.000 
#
# Total GULP energy -155943.895384 kJ/mol
# GULP energy per Si atom -5569.424835 kJ/mol
# Density = 1.981815 g / cm^3
# Si number density = 19.863360 Si / 1000 Ang^3
#
#
#
# Elastic Constant Matrix: (Units=GPa)
#
#
# Indices 1 2 3 4 5 6 
#
# 1 81.4354 4.7900 10.5054 0.0000 -5.4730 0.0000
# 2 4.7900 86.7347 36.0154 0.0000 -11.0763 0.0000
# 3 10.5054 36.0154 108.8018 0.0000 -14.1737 0.0000
# 4 0.0000 0.0000 0.0000 43.5325 0.0000 -11.6279
# 5 -5.4730 -11.0763 -14.1737 0.0000 16.1216 0.0000
# 6 0.0000 0.0000 0.0000 -11.6279 0.0000 23.0635
#
#
#
# Elastic Compliance Matrix: (Units=1/GPa)
#
#
# Indices 1 2 3 4 5 6 
#
# 1 0.012620 0.000092 -0.000771 0.000000 0.003670 0.000000
# 2 0.000092 0.013898 -0.003796 0.000000 0.006242 0.000000
# 3 -0.000771 -0.003796 0.011461 0.000000 0.007206 0.000000
# 4 0.000000 0.000000 0.000000 0.026546 0.000000 0.013384
# 5 0.003670 0.006242 0.007206 0.000000 0.073899 0.000000
# 6 0.000000 0.000000 0.000000 0.013384 0.000000 0.050106
#
#
# Mechanical properties :
#
#
# Convention : Reuss Voigt Hill
#
# Bulk Modulus (GPa) = 34.44898 42.17707 38.31303
# Shear Modulus (GPa) = 24.13632 31.58759 27.86195
#
# Velocity S-wave (km/s) = 3.48964 3.99211 3.74930
# Velocity P-wave (km/s) = 5.79805 6.52142 6.17035
#
# Compressibility (1/GPa) = 0.02902843
#
# Stress axis : x y z
#
# Youngs Moduli (GPa) = 79.23717 71.95406 87.25389
#
# Poissons Ratio (x) = -0.00660 0.06726
# Poissons Ratio (y) = -0.00727 0.33122
# Poissons Ratio (z) = 0.06108 0.27315
#
# Static dielectric constant tensor:
#      x y z
#    x 1.756460 0.000000 -0.027450 
#    y 0.000000 1.821900 0.000000 
#    z -0.027450 0.000000 1.748910 
# 
# From -- ./inp_files/29768.got.cif
#   From: 2010.05.17/outbox.cif.g08.bks.cpg/sg14_15_cif.got.tgz:29768.got - 2010.06.03 17:49:19.
