data_PCOD9249993
_publ_section_title
;
Structure prediction by ZEFSAII (Michael W. Deem and Ramdas Pophale) SiO2 
 PCOD9249993
Probable space group: P 21/C
;
_chemical_formula_sum "Si O2"
_cell_formula_units_Z 16
_cell_length_a 9.666898
_cell_length_b 12.818221
_cell_length_c 5.172625
_cell_angle_alpha 90.000000
_cell_angle_beta 76.003261
_cell_angle_gamma 90.000000
_cell_volume 621.922353
_symmetry_space_group_name_H-M "P 21/C"
_symmetry_group_IT_number 14
_symmetry_cell_setting 'monoclinic'
loop_
_space_group_symop_operation_xyz
x,y,z
-x,1/2+y,1/2-z
-x,-y,-z
x,1/2-y,1/2+z
loop_
_atom_site_type_symbol
_atom_site_label
_atom_site_fract_x
_atom_site_fract_y
_atom_site_fract_z
Si Si1 0.928683 0.079746 0.229628
Si Si2 0.451370 0.178095 0.034594
Si Si3 0.077442 0.219898 0.491957
Si Si4 0.626512 0.015877 0.228578
O O1 0.018002 0.107587 0.448421
O O2 0.766456 0.047589 0.323212
O O3 0.950159 0.196036 0.092851
O O4 0.000000 0.000000 0.000000
O O5 0.447914 0.263266 0.810846
O O6 0.351215 0.085931 0.962686
O O7 0.590238 0.105949 0.035940
O O8 0.162195 0.232665 0.714380
O O9 0.500000 0.000000 0.500000
#
# Coordination Sequence:
#
# PCOD9249993 Si02
#       4
#     4   4   4   4
#     4  10  23  45  69 100 140 176 228 285 336 417
#     4  11  24  45  69 102 144 181 228 292 347 415
#     4   8  20  41  65  97 123 183 222 265 331 406
#     4  11  25  43  72 108 133 187 235 284 354 410
#
# _framework density 25.726680999999999
#
# number of rings (size 3 to 8) (size 9 to 14) (size 15 to 20)
#    1.500    0.500    2.500    0.000    3.500    5.000 
#    4.500    0.000    0.000    0.000    0.000    0.000 
#    0.000    0.000    0.000    0.000    0.000    0.000 
#
# Total GULP energy -89164.696507 kJ/mol
# GULP energy per Si atom -5572.793532 kJ/mol
# Density = 2.566813 g / cm^3
# Si number density = 25.726681 Si / 1000 Ang^3
#
#
#
# Elastic Constant Matrix: (Units=GPa)
#
#
# Indices 1 2 3 4 5 6 
#
# 1 113.9293 22.2952 43.9442 0.0000 6.2935 0.0000
# 2 22.2952 109.2785 21.6607 0.0000 -16.1756 0.0000
# 3 43.9442 21.6607 151.7909 0.0000 23.3878 0.0000
# 4 0.0000 0.0000 0.0000 35.7727 0.0000 11.8956
# 5 6.2935 -16.1756 23.3878 0.0000 44.1795 0.0000
# 6 0.0000 0.0000 0.0000 11.8956 0.0000 37.2222
#
#
#
# Elastic Compliance Matrix: (Units=1/GPa)
#
#
# Indices 1 2 3 4 5 6 
#
# 1 0.010139 -0.001654 -0.002595 0.000000 -0.000676 0.000000
# 2 -0.001654 0.010600 -0.001816 0.000000 0.005078 0.000000
# 3 -0.002595 -0.001816 0.008323 0.000000 -0.004701 0.000000
# 4 0.000000 0.000000 0.000000 0.031278 0.000000 -0.009996
# 5 -0.000676 0.005078 -0.004701 0.000000 0.027079 0.000000
# 6 0.000000 0.000000 0.000000 -0.009996 0.000000 0.030060
#
#
# Mechanical properties :
#
#
# Convention : Reuss Voigt Hill
#
# Bulk Modulus (GPa) = 59.06283 61.19987 60.13135
# Shear Modulus (GPa) = 36.96713 42.57477 39.77095
#
# Velocity S-wave (km/s) = 3.79478 4.07244 3.93606
# Velocity P-wave (km/s) = 6.49678 6.77888 6.63933
#
# Compressibility (1/GPa) = 0.01693112
#
# Stress axis : x y z
#
# Youngs Moduli (GPa) = 98.62448 94.33847 120.15133
#
# Poissons Ratio (x) = 0.15607 0.31181
# Poissons Ratio (y) = 0.16316 0.21821
# Poissons Ratio (z) = 0.25594 0.17133
#
# Static dielectric constant tensor:
#      x y z
#    x 2.009830 0.000000 0.070530 
#    y 0.000000 2.107020 0.000000 
#    z 0.070530 0.000000 2.312280 
# 
# From -- ./inp_files/2369.got.cif
#   From: 2010.05.17/outbox.cif.g08.bks.cpg/sg14_2_cif.got.tgz:2369.got - 2010.06.03 17:49:19.
