data_PCOD9249754
_publ_section_title
;
Structure prediction by ZEFSAII (Michael W. Deem and Ramdas Pophale) SiO2 
 PCOD9249754
Probable space group: P 21/C
;
_chemical_formula_sum "Si O2"
_cell_formula_units_Z 28
_cell_length_a 6.629240
_cell_length_b 14.673143
_cell_length_c 14.179036
_cell_angle_alpha 90.000000
_cell_angle_beta 116.860387
_cell_angle_gamma 90.000000
_cell_volume 1230.416264
_symmetry_space_group_name_H-M "P 21/C"
_symmetry_group_IT_number 14
_symmetry_cell_setting 'monoclinic'
loop_
_space_group_symop_operation_xyz
x,y,z
-x,1/2+y,1/2-z
-x,-y,-z
x,1/2-y,1/2+z
loop_
_atom_site_type_symbol
_atom_site_label
_atom_site_fract_x
_atom_site_fract_y
_atom_site_fract_z
Si Si1 0.551793 0.154089 0.517917
Si Si2 0.311976 0.688768 0.586138
Si Si3 0.801826 0.976853 0.529125
Si Si4 0.880693 0.218773 0.751557
Si Si5 0.022182 0.076738 0.232310
Si Si6 0.710996 0.584110 0.608341
Si Si7 0.868421 0.908299 0.942819
O O1 0.554655 0.233759 0.442535
O O2 0.316818 0.120853 0.513765
O O3 0.728419 0.181825 0.634832
O O4 0.634638 0.062298 0.484046
O O5 0.264882 0.713499 0.683582
O O6 0.473683 0.601475 0.608393
O O7 0.064553 0.668845 0.490162
O O8 0.883289 0.970843 0.654445
O O9 0.000000 0.000000 0.500000
O O10 0.952107 0.321810 0.745597
O O11 0.098371 0.154230 0.813269
O O12 0.194970 0.082163 0.179930
O O13 0.813606 0.015305 0.151149
O O14 0.695160 0.604246 0.492273
O O15 0.000000 0.000000 0.000000
#
# Coordination Sequence:
#
# PCOD9249754 Si02
#       7
#     4   4   4   4   4   4   4
#     4  11  24  45  65  98 132 175 223 276 330 402
#     4  11  23  44  65  99 136 172 229 273 335 403
#     4  11  25  44  69  96 135 175 222 274 336 398
#     4  11  23  43  67  98 137 172 223 283 332 397
#     4  11  21  43  70  97 131 176 219 274 337 392
#     4  10  23  43  68  97 132 178 222 278 338 399
#     4   9  21  41  65  93 135 171 215 280 327 395
#
# _framework density 22.756527999999999
#
# number of rings (size 3 to 8) (size 9 to 14) (size 15 to 20)
#    0.000    1.429    2.857    1.714    2.000    3.429 
#    5.143    2.857    0.000    0.000    0.000    0.000 
#    0.000    0.000    0.000    0.000    0.000    0.000 
#
# Total GULP energy -156569.174970 kJ/mol
# GULP energy per Si atom -5591.756249 kJ/mol
# Density = 2.270473 g / cm^3
# Si number density = 22.756528 Si / 1000 Ang^3
#
#
#
# Elastic Constant Matrix: (Units=GPa)
#
#
# Indices 1 2 3 4 5 6 
#
# 1 84.0932 21.7362 28.9431 0.0000 -10.5469 0.0000
# 2 21.7362 101.4576 0.3820 0.0000 0.8415 0.0000
# 3 28.9431 0.3820 77.6213 0.0000 -13.0655 0.0000
# 4 0.0000 0.0000 0.0000 29.8234 0.0000 -2.2368
# 5 -10.5469 0.8415 -13.0655 0.0000 27.7484 0.0000
# 6 0.0000 0.0000 0.0000 -2.2368 0.0000 38.3435
#
#
#
# Elastic Compliance Matrix: (Units=1/GPa)
#
#
# Indices 1 2 3 4 5 6 
#
# 1 0.014846 -0.003190 -0.004946 0.000000 0.003411 0.000000
# 2 -0.003190 0.010545 0.000955 0.000000 -0.001083 0.000000
# 3 -0.004946 0.000955 0.015641 0.000000 0.005456 0.000000
# 4 0.000000 0.000000 0.000000 0.033678 0.000000 0.001965
# 5 0.003411 -0.001083 0.005456 0.000000 0.039936 0.000000
# 6 0.000000 0.000000 0.000000 0.001965 0.000000 0.026195
#
#
# Mechanical properties :
#
#
# Convention : Reuss Voigt Hill
#
# Bulk Modulus (GPa) = 37.49426 40.58831 39.04128
# Shear Modulus (GPa) = 30.47046 33.32378 31.89712
#
# Velocity S-wave (km/s) = 3.66317 3.83085 3.74795
# Velocity P-wave (km/s) = 5.86548 6.11897 5.99356
#
# Compressibility (1/GPa) = 0.02667075
#
# Stress axis : x y z
#
# Youngs Moduli (GPa) = 67.35692 94.82980 63.93476
#
# Poissons Ratio (x) = 0.30254 0.31622
# Poissons Ratio (y) = 0.21489 -0.06109
# Poissons Ratio (z) = 0.33315 -0.09061
#
# Static dielectric constant tensor:
#      x y z
#    x 1.897530 0.000000 0.019260 
#    y 0.000000 1.883120 0.000000 
#    z 0.019260 0.000000 1.851300 
# 
# From -- ./inp_files/37768.got.cif
#   From: 2010.05.17/outbox.cif.g08.bks.cpg/sg14_19_cif.got.tgz:37768.got - 2010.06.03 17:49:19.
