data_PCOD9249485
_publ_section_title
;
Structure prediction by ZEFSAII (Michael W. Deem and Ramdas Pophale) SiO2 
 PCOD9249485
Probable space group: P 21/C
;
_chemical_formula_sum "Si O2"
_cell_formula_units_Z 30
_cell_length_a 9.872989
_cell_length_b 18.327920
_cell_length_c 10.467571
_cell_angle_alpha 90.000000
_cell_angle_beta 140.858497
_cell_angle_gamma 90.000000
_cell_volume 1195.640821
_symmetry_space_group_name_H-M "P 21/C"
_symmetry_group_IT_number 14
_symmetry_cell_setting 'monoclinic'
loop_
_space_group_symop_operation_xyz
x,y,z
-x,1/2+y,1/2-z
-x,-y,-z
x,1/2-y,1/2+z
loop_
_atom_site_type_symbol
_atom_site_label
_atom_site_fract_x
_atom_site_fract_y
_atom_site_fract_z
Si Si1 0.140465 0.496851 0.798247
Si Si2 0.181734 0.618602 0.501084
Si Si3 0.000000 0.500000 0.000000
Si Si4 0.475473 0.884723 0.442816
Si Si5 0.017441 0.329925 0.015787
Si Si6 0.155317 0.105527 0.852588
Si Si7 0.648845 0.100377 0.159431
Si Si8 0.799366 0.685396 0.352969
O O1 0.282017 0.566006 0.858925
O O2 0.946788 0.459162 0.576694
O O3 0.991983 0.534663 0.800684
O O4 0.323099 0.436720 0.943348
O O5 0.366410 0.640780 0.733831
O O6 0.282157 0.609630 0.436250
O O7 0.986939 0.673390 0.385612
O O8 0.074793 0.412009 0.012015
O O9 0.251664 0.530175 0.197947
O O10 0.573741 0.829548 0.618559
O O11 0.061185 0.330858 0.198509
O O12 0.398378 0.403976 0.493404
O O13 0.157389 0.265545 0.060351
O O14 0.762850 0.328741 0.806277
O O15 0.157762 0.126616 0.002947
#
# Coordination Sequence:
#
# PCOD9249485 Si02
#       8
#     4   4   2   4   4   4   4   4
#     4  10  23  41  72 112 151 197 261 301 369 443
#     4  11  23  45  74 109 154 200 252 313 373 449
#     4   8  22  52  74 108 144 198 248 322 372 466
#     4  10  23  43  74 112 151 204 249 317 367 448
#     4  10  26  50  72 108 150 190 252 312 383 457
#     4  12  26  46  75 112 150 197 247 315 375 452
#     4  10  26  48  76 110 146 194 251 313 383 448
#     4  11  27  46  76 108 150 199 254 308 383 459
#
# _framework density 25.091146999999999
#
# number of rings (size 3 to 8) (size 9 to 14) (size 15 to 20)
#    0.800    0.800    1.333    1.200    7.467    5.333 
#    4.800    0.000    0.000    0.000    0.000    0.000 
#    0.000    0.000    0.000    0.000    0.000    0.000 
#
# Total GULP energy -167060.988953 kJ/mol
# GULP energy per Si atom -5568.699632 kJ/mol
# Density = 2.503404 g / cm^3
# Si number density = 25.091147 Si / 1000 Ang^3
#
#
#
# Elastic Constant Matrix: (Units=GPa)
#
#
# Indices 1 2 3 4 5 6 
#
# 1 103.8604 29.0356 44.5013 0.0000 28.8895 0.0000
# 2 29.0356 126.9053 55.7397 0.0000 4.9609 0.0000
# 3 44.5013 55.7397 189.3273 0.0000 16.5148 0.0000
# 4 0.0000 0.0000 0.0000 18.2065 0.0000 -4.3034
# 5 28.8895 4.9609 16.5148 0.0000 21.6770 0.0000
# 6 0.0000 0.0000 0.0000 -4.3034 0.0000 17.4208
#
#
#
# Elastic Compliance Matrix: (Units=1/GPa)
#
#
# Indices 1 2 3 4 5 6 
#
# 1 0.016602 -0.002376 -0.001414 0.000000 -0.020505 0.000000
# 2 -0.002376 0.009390 -0.002458 0.000000 0.002890 0.000000
# 3 -0.001414 -0.002458 0.006561 0.000000 -0.002551 0.000000
# 4 0.000000 0.000000 0.000000 0.058331 0.000000 0.014409
# 5 -0.020505 0.002890 -0.002551 0.000000 0.074741 0.000000
# 6 0.000000 0.000000 0.000000 0.014409 0.000000 0.060962
#
#
# Mechanical properties :
#
#
# Convention : Reuss Voigt Hill
#
# Bulk Modulus (GPa) = 49.85997 75.40513 62.63255
# Shear Modulus (GPa) = 20.34432 30.84861 25.59647
#
# Velocity S-wave (km/s) = 2.85057 3.51017 3.19743
# Velocity P-wave (km/s) = 5.54518 6.82247 6.21672
#
# Compressibility (1/GPa) = 0.02005617
#
# Stress axis : x y z
#
# Youngs Moduli (GPa) = 60.23386 106.49399 152.42729
#
# Poissons Ratio (x) = 0.25301 0.21557
# Poissons Ratio (y) = 0.14310 0.37470
# Poissons Ratio (z) = 0.08519 0.26179
#
# Static dielectric constant tensor:
#      x y z
#    x 1.845400 0.000000 0.146070 
#    y 0.000000 2.150270 0.000000 
#    z 0.146070 0.000000 1.843470 
# 
# From -- ./inp_files/30741.got.cif
#   From: 2010.05.17/outbox.cif.g08.bks.cpg/sg14_16_cif.got.tgz:30741.got - 2010.06.03 17:49:19.
