data_PCOD9249478
_publ_section_title
;
Structure prediction by ZEFSAII (Michael W. Deem and Ramdas Pophale) SiO2 
 PCOD9249478
Probable space group: P 21/C
;
_chemical_formula_sum "Si O2"
_cell_formula_units_Z 28
_cell_length_a 14.052830
_cell_length_b 12.773202
_cell_length_c 9.108587
_cell_angle_alpha 90.000000
_cell_angle_beta 40.143609
_cell_angle_gamma 90.000000
_cell_volume 1054.086020
_symmetry_space_group_name_H-M "P 21/C"
_symmetry_group_IT_number 14
_symmetry_cell_setting 'monoclinic'
loop_
_space_group_symop_operation_xyz
x,y,z
-x,1/2+y,1/2-z
-x,-y,-z
x,1/2-y,1/2+z
loop_
_atom_site_type_symbol
_atom_site_label
_atom_site_fract_x
_atom_site_fract_y
_atom_site_fract_z
Si Si1 0.155927 0.653196 0.757138
Si Si2 0.320934 0.102530 0.305345
Si Si3 0.952162 0.841905 0.034447
Si Si4 0.363131 0.167649 0.680364
Si Si5 0.349403 0.729227 0.794730
Si Si6 0.996869 0.513479 0.746656
Si Si7 0.457213 0.050660 0.829594
O O1 0.265406 0.667730 0.763993
O O2 0.240163 0.703994 0.520732
O O3 0.013928 0.725293 0.958927
O O4 0.099992 0.542933 0.761415
O O5 0.315096 0.227767 0.326648
O O6 0.169651 0.043762 0.516558
O O7 0.455535 0.055478 0.241954
O O8 0.364374 0.078237 0.084428
O O9 0.776194 0.848930 0.261102
O O10 0.030319 0.909211 0.069163
O O11 0.987508 0.898170 0.837625
O O12 0.517716 0.201082 0.426997
O O13 0.376321 0.067930 0.771665
O O14 0.419821 0.641808 0.816265
#
# Coordination Sequence:
#
# PCOD9249478 Si02
#       7
#     4   4   4   4   4   4   4
#     4  12  23  45  70 101 138 185 231 289 352 419
#     4  10  23  41  70  97 136 185 227 292 345 409
#     4  11  26  44  66 102 141 183 237 290 351 421
#     4  11  24  42  72  98 138 182 230 285 353 411
#     4  11  24  41  71 100 140 182 228 287 348 412
#     4  11  25  43  70  98 141 186 234 290 356 416
#     4  10  23  44  65 104 142 175 234 290 346 414
#
# _framework density 26.563296000000001
#
# number of rings (size 3 to 8) (size 9 to 14) (size 15 to 20)
#    0.000    1.143    4.286    0.857    4.000    4.571 
#    0.000    3.571    0.000    0.000    0.000    0.000 
#    0.000    0.000    0.000    0.000    0.000    0.000 
#
# Total GULP energy -157129.216238 kJ/mol
# GULP energy per Si atom -5611.757723 kJ/mol
# Density = 2.650284 g / cm^3
# Si number density = 26.563296 Si / 1000 Ang^3
#
#
#
# Elastic Constant Matrix: (Units=GPa)
#
#
# Indices 1 2 3 4 5 6 
#
# 1 135.9137 18.3056 20.1076 0.0000 -4.1525 0.0000
# 2 18.3056 65.9966 8.2561 0.0000 9.4783 0.0000
# 3 20.1076 8.2561 87.5265 0.0000 -1.8742 0.0000
# 4 0.0000 0.0000 0.0000 45.3106 0.0000 2.2927
# 5 -4.1525 9.4783 -1.8742 0.0000 20.9939 0.0000
# 6 0.0000 0.0000 0.0000 2.2927 0.0000 43.9880
#
#
#
# Elastic Compliance Matrix: (Units=1/GPa)
#
#
# Indices 1 2 3 4 5 6 
#
# 1 0.007985 -0.002382 -0.001556 0.000000 0.002516 0.000000
# 2 -0.002382 0.017166 -0.001251 0.000000 -0.008333 0.000000
# 3 -0.001556 -0.001251 0.011929 0.000000 0.001322 0.000000
# 4 0.000000 0.000000 0.000000 0.022128 0.000000 -0.001153
# 5 0.002516 -0.008333 0.001322 0.000000 0.052011 0.000000
# 6 0.000000 0.000000 0.000000 -0.001153 0.000000 0.022794
#
#
# Mechanical properties :
#
#
# Convention : Reuss Voigt Hill
#
# Bulk Modulus (GPa) = 37.44742 42.53061 39.98902
# Shear Modulus (GPa) = 32.61783 38.24301 35.43042
#
# Velocity S-wave (km/s) = 3.50798 3.79845 3.65610
# Velocity P-wave (km/s) = 5.52594 5.93998 5.73670
#
# Compressibility (1/GPa) = 0.02670411
#
# Stress axis : x y z
#
# Youngs Moduli (GPa) = 125.22791 58.25452 83.83052
#
# Poissons Ratio (x) = 0.13874 0.13044
# Poissons Ratio (y) = 0.29824 0.10483
# Poissons Ratio (z) = 0.19485 0.07285
#
# Static dielectric constant tensor:
#      x y z
#    x 2.067300 0.000000 0.001410 
#    y 0.000000 2.047340 0.000000 
#    z 0.001410 0.000000 2.041870 
# 
# From -- ./inp_files/16409.got.cif
#   From: 2010.05.17/outbox.cif.g08.bks.cpg/sg14_9_cif.got.tgz:16409.got - 2010.06.03 17:49:19.
