data_PCOD9249040
_publ_section_title
;
Structure prediction by ZEFSAII (Michael W. Deem and Ramdas Pophale) SiO2 
 PCOD9249040
Probable space group: P 21/C
;
_chemical_formula_sum "Si O2"
_cell_formula_units_Z 20
_cell_length_a 10.023704
_cell_length_b 9.654596
_cell_length_c 23.059712
_cell_angle_alpha 90.000000
_cell_angle_beta 21.785748
_cell_angle_gamma 90.000000
_cell_volume 828.228778
_symmetry_space_group_name_H-M "P 21/C"
_symmetry_group_IT_number 14
_symmetry_cell_setting 'monoclinic'
loop_
_space_group_symop_operation_xyz
x,y,z
-x,1/2+y,1/2-z
-x,-y,-z
x,1/2-y,1/2+z
loop_
_atom_site_type_symbol
_atom_site_label
_atom_site_fract_x
_atom_site_fract_y
_atom_site_fract_z
Si Si1 0.757658 0.686177 0.503757
Si Si2 0.441576 0.427823 0.841145
Si Si3 0.676386 0.346398 0.426339
Si Si4 0.422109 0.961329 0.842219
Si Si5 0.528038 0.698076 0.877122
O O1 0.789568 0.802460 0.540004
O O2 0.546551 0.735368 0.532250
O O3 0.503578 0.570071 0.636566
O O4 0.141255 0.625673 0.329182
O O5 0.385073 0.471383 0.797387
O O6 0.402702 0.556619 0.899087
O O7 0.500000 0.500000 0.500000
O O8 0.677560 0.273557 0.488266
O O9 0.095953 0.342625 0.244280
O O10 0.508397 0.811511 0.833510
O O11 0.000000 0.000000 0.000000
#
# Coordination Sequence:
#
# PCOD9249040 Si02
#       5
#     4   4   4   4   4
#     4  11  23  44  68 100 150 191 236 309 364 421
#     4  11  24  42  67 105 140 192 246 298 362 437
#     4  12  24  46  70 105 149 191 248 303 364 443
#     4  10  22  45  72  98 142 189 241 304 368 429
#     4  12  25  45  75 106 143 198 248 303 373 435
#
# _framework density 24.147917
#
# number of rings (size 3 to 8) (size 9 to 14) (size 15 to 20)
#    0.000    0.800    4.000    3.600    0.000    4.000 
#    0.000    6.000    0.000    0.000    0.000    0.000 
#    0.000    0.000    0.000    0.000    0.000    0.000 
#
# Total GULP energy -111829.907081 kJ/mol
# GULP energy per Si atom -5591.495354 kJ/mol
# Density = 2.409296 g / cm^3
# Si number density = 24.147917 Si / 1000 Ang^3
#
#
#
# Elastic Constant Matrix: (Units=GPa)
#
#
# Indices 1 2 3 4 5 6 
#
# 1 111.5748 11.4875 40.3752 0.0000 11.0786 0.0000
# 2 11.4875 137.3769 32.9024 0.0000 9.2955 0.0000
# 3 40.3752 32.9024 59.3799 0.0000 -16.2301 0.0000
# 4 0.0000 0.0000 0.0000 22.1386 0.0000 3.2112
# 5 11.0786 9.2955 -16.2301 0.0000 48.0180 0.0000
# 6 0.0000 0.0000 0.0000 3.2112 0.0000 45.6894
#
#
#
# Elastic Compliance Matrix: (Units=1/GPa)
#
#
# Indices 1 2 3 4 5 6 
#
# 1 0.014440 0.002612 -0.013568 0.000000 -0.008423 0.000000
# 2 0.002612 0.009443 -0.008454 0.000000 -0.005288 0.000000
# 3 -0.013568 -0.008454 0.035316 0.000000 0.016704 0.000000
# 4 0.000000 0.000000 0.000000 0.045635 0.000000 -0.003207
# 5 -0.008423 -0.005288 0.016704 0.000000 0.029439 0.000000
# 6 0.000000 0.000000 0.000000 -0.003207 0.000000 0.022112
#
#
# Mechanical properties :
#
#
# Convention : Reuss Voigt Hill
#
# Bulk Modulus (GPa) = 49.06878 53.09575 51.08227
# Shear Modulus (GPa) = 24.75264 38.07363 31.41313
#
# Velocity S-wave (km/s) = 3.20510 3.97506 3.61066
# Velocity P-wave (km/s) = 5.83619 6.56533 6.21147
#
# Compressibility (1/GPa) = 0.02037956
#
# Stress axis : x y z
#
# Youngs Moduli (GPa) = 69.25302 105.89358 28.31559
#
# Poissons Ratio (x) = -0.27660 0.38418
# Poissons Ratio (y) = -0.18089 0.23938
# Poissons Ratio (z) = 0.93962 0.89523
#
# Static dielectric constant tensor:
#      x y z
#    x 2.701400 0.000000 0.412210 
#    y 0.000000 1.952890 0.000000 
#    z 0.412210 0.000000 2.179520 
# 
# From -- ./inp_files/73678.got.cif
#   From: 2010.05.17/outbox.cif.g08.bks.cpg/sg14_37_cif.got.tgz:73678.got - 2010.06.03 17:49:19.
