data_PCOD9249468
_publ_section_title
;
Structure prediction by ZEFSAII (Michael W. Deem and Ramdas Pophale) SiO2 
 PCOD9249468
Probable space group: P 21/C
;
_chemical_formula_sum "Si O2"
_cell_formula_units_Z 28
_cell_length_a 10.661796
_cell_length_b 11.047970
_cell_length_c 13.847212
_cell_angle_alpha 90.000000
_cell_angle_beta 55.626493
_cell_angle_gamma 90.000000
_cell_volume 1346.251871
_symmetry_space_group_name_H-M "P 21/C"
_symmetry_group_IT_number 14
_symmetry_cell_setting 'monoclinic'
loop_
_space_group_symop_operation_xyz
x,y,z
-x,1/2+y,1/2-z
-x,-y,-z
x,1/2-y,1/2+z
loop_
_atom_site_type_symbol
_atom_site_label
_atom_site_fract_x
_atom_site_fract_y
_atom_site_fract_z
Si Si1 0.607005 0.873741 0.263954
Si Si2 0.490199 0.636845 0.215486
Si Si3 0.044630 0.371735 0.435784
Si Si4 0.841254 0.238778 0.183348
Si Si5 0.020552 0.512726 0.878142
Si Si6 0.712204 0.871966 0.436156
Si Si7 0.049714 0.219241 0.256557
O O1 0.539351 0.740138 0.271779
O O2 0.773865 0.867135 0.144126
O O3 0.629799 0.900251 0.369408
O O4 0.520823 0.991938 0.257763
O O5 0.320514 0.681091 0.263550
O O6 0.599097 0.643603 0.074414
O O7 0.006044 0.335040 0.341999
O O8 0.000000 0.500000 0.500000
O O9 0.952169 0.281416 0.544175
O O10 0.860183 0.380749 0.195460
O O11 0.916853 0.178854 0.243766
O O12 0.853455 0.541645 0.905964
O O13 0.085489 0.387973 0.812038
O O14 0.000000 0.500000 0.000000
O O15 0.805763 0.750562 0.370934
#
# Coordination Sequence:
#
# PCOD9249468 Si02
#       7
#     4   4   4   4   4   4   4
#     4  11  25  45  71  95 139 186 227 276 343 409
#     4  12  26  44  66 100 141 184 220 274 344 417
#     4  11  22  43  68  94 125 174 226 276 329 393
#     4  11  24  41  66 102 129 176 224 272 337 399
#     4  11  22  41  72  99 128 165 233 284 320 393
#     4  10  25  45  67  98 140 181 217 279 350 401
#     4  10  23  41  69  97 128 171 221 284 329 387
#
# _framework density 20.798484999999999
#
# number of rings (size 3 to 8) (size 9 to 14) (size 15 to 20)
#    0.000    1.143    2.857    3.000    8.000    1.143 
#    0.000    1.429    0.000    0.000    0.000    0.000 
#    0.000    0.000    0.000    0.000    0.000    0.000 
#
# Total GULP energy -156161.590110 kJ/mol
# GULP energy per Si atom -5577.199647 kJ/mol
# Density = 2.075115 g / cm^3
# Si number density = 20.798485 Si / 1000 Ang^3
#
#
#
# Elastic Constant Matrix: (Units=GPa)
#
#
# Indices 1 2 3 4 5 6 
#
# 1 62.8591 27.8478 22.5455 0.0000 5.5133 0.0000
# 2 27.8478 80.5807 29.8263 0.0000 -3.4221 0.0000
# 3 22.5455 29.8263 107.8950 0.0000 -7.4373 0.0000
# 4 0.0000 0.0000 0.0000 23.3072 0.0000 12.8436
# 5 5.5133 -3.4221 -7.4373 0.0000 19.6024 0.0000
# 6 0.0000 0.0000 0.0000 12.8436 0.0000 17.3804
#
#
#
# Elastic Compliance Matrix: (Units=1/GPa)
#
#
# Indices 1 2 3 4 5 6 
#
# 1 0.020510 -0.006281 -0.003104 0.000000 -0.008042 0.000000
# 2 -0.006281 0.015766 -0.002808 0.000000 0.003453 0.000000
# 3 -0.003104 -0.002808 0.011007 0.000000 0.004559 0.000000
# 4 0.000000 0.000000 0.000000 0.072379 0.000000 -0.053486
# 5 -0.008042 0.003453 0.004559 0.000000 0.055609 0.000000
# 6 0.000000 0.000000 0.000000 -0.053486 0.000000 0.097061
#
#
# Mechanical properties :
#
#
# Convention : Reuss Voigt Hill
#
# Bulk Modulus (GPa) = 43.67086 45.75265 44.71175
# Shear Modulus (GPa) = 16.42844 23.46569 19.94707
#
# Velocity S-wave (km/s) = 2.81354 3.36257 3.10023
# Velocity P-wave (km/s) = 5.62116 6.09276 5.86170
#
# Compressibility (1/GPa) = 0.02289856
#
# Stress axis : x y z
#
# Youngs Moduli (GPa) = 48.75752 63.42588 90.84847
#
# Poissons Ratio (x) = 0.39835 0.28198
# Poissons Ratio (y) = 0.30623 0.25510
# Poissons Ratio (z) = 0.15134 0.17810
#
# Static dielectric constant tensor:
#      x y z
#    x 1.795400 0.000000 0.031030 
#    y 0.000000 1.867330 0.000000 
#    z 0.031030 0.000000 1.724580 
# 
# From -- ./inp_files/44322.got.cif
#   From: 2010.05.17/outbox.cif.g08.bks.cpg/sg14_23_cif.got.tgz:44322.got - 2010.06.03 17:49:19.
