data_PCOD9249336
_publ_section_title
;
Structure prediction by ZEFSAII (Michael W. Deem and Ramdas Pophale) SiO2 
 PCOD9249336
Probable space group: P 21/C
;
_chemical_formula_sum "Si O2"
_cell_formula_units_Z 24
_cell_length_a 8.424060
_cell_length_b 13.354784
_cell_length_c 15.526298
_cell_angle_alpha 90.000000
_cell_angle_beta 146.169313
_cell_angle_gamma 90.000000
_cell_volume 972.476537
_symmetry_space_group_name_H-M "P 21/C"
_symmetry_group_IT_number 14
_symmetry_cell_setting 'monoclinic'
loop_
_space_group_symop_operation_xyz
x,y,z
-x,1/2+y,1/2-z
-x,-y,-z
x,1/2-y,1/2+z
loop_
_atom_site_type_symbol
_atom_site_label
_atom_site_fract_x
_atom_site_fract_y
_atom_site_fract_z
Si Si1 0.548428 0.391521 0.663533
Si Si2 0.442014 0.283205 0.455601
Si Si3 0.815874 0.112148 0.661816
Si Si4 0.912968 0.931543 0.382253
Si Si5 0.491243 0.771931 0.214513
Si Si6 0.918508 0.428590 0.385644
O O1 0.626504 0.356441 0.601779
O O2 0.649475 0.504921 0.721269
O O3 0.598431 0.327654 0.773565
O O4 0.213436 0.372408 0.505804
O O5 0.109795 0.318113 0.297175
O O6 0.559686 0.272643 0.411000
O O7 0.527779 0.177171 0.537216
O O8 0.846421 0.065197 0.582067
O O9 0.835419 0.037936 0.752131
O O10 0.811509 0.819984 0.362520
O O11 0.000000 0.000000 0.500000
O O12 0.318036 0.855456 0.187043
O O13 0.000000 0.500000 0.500000
#
# Coordination Sequence:
#
# PCOD9249336 Si02
#       6
#     4   4   4   4   4   4
#     4  11  24  42  66  95 131 176 217 280 328 399
#     4  10  23  40  66  95 130 172 222 266 336 392
#     4  10  23  44  67  99 133 175 225 276 335 398
#     4  11  25  43  65  95 136 173 220 276 339 392
#     4  11  24  42  67  94 131 175 226 268 336 399
#     4  11  23  42  67  96 132 171 227 270 332 397
#
# _framework density 24.679259999999999
#
# number of rings (size 3 to 8) (size 9 to 14) (size 15 to 20)
#    0.000    1.333    3.333    1.000    9.333    2.000 
#    0.000    2.500    0.000    0.000    0.000    0.000 
#    0.000    0.000    0.000    0.000    0.000    0.000 
#
# Total GULP energy -133645.918771 kJ/mol
# GULP energy per Si atom -5568.579949 kJ/mol
# Density = 2.462309 g / cm^3
# Si number density = 24.679260 Si / 1000 Ang^3
#
#
#
# Elastic Constant Matrix: (Units=GPa)
#
#
# Indices 1 2 3 4 5 6 
#
# 1 40.2601 3.5288 36.4604 0.0000 -16.5242 0.0000
# 2 3.5288 48.0568 9.2135 0.0000 -16.0333 0.0000
# 3 36.4604 9.2135 75.4176 0.0000 -34.0171 0.0000
# 4 0.0000 0.0000 0.0000 33.0567 0.0000 -5.8603
# 5 -16.5242 -16.0333 -34.0171 0.0000 42.3305 0.0000
# 6 0.0000 0.0000 0.0000 -5.8603 0.0000 36.7184
#
#
#
# Elastic Compliance Matrix: (Units=1/GPa)
#
#
# Indices 1 2 3 4 5 6 
#
# 1 0.044226 0.001018 -0.021245 0.000000 0.000577 0.000000
# 2 0.001018 0.024002 0.001342 0.000000 0.010567 0.000000
# 3 -0.021245 0.001342 0.031143 0.000000 0.017242 0.000000
# 4 0.000000 0.000000 0.000000 0.031132 0.000000 0.004969
# 5 0.000577 0.010567 0.017242 0.000000 0.041707 0.000000
# 6 0.000000 0.000000 0.000000 0.004969 0.000000 0.028027
#
#
# Mechanical properties :
#
#
# Convention : Reuss Voigt Hill
#
# Bulk Modulus (GPa) = 16.23345 29.12665 22.68005
# Shear Modulus (GPa) = 19.33923 30.05660 24.69792
#
# Velocity S-wave (km/s) = 2.80236 3.49361 3.16690
# Velocity P-wave (km/s) = 4.13074 5.30108 4.75208
#
# Compressibility (1/GPa) = 0.06160118
#
# Stress axis : x y z
#
# Youngs Moduli (GPa) = 22.61111 41.66302 32.10953
#
# Poissons Ratio (x) = -0.04242 0.68217
# Poissons Ratio (y) = -0.02302 -0.04308
# Poissons Ratio (z) = 0.48037 -0.05590
#
# Static dielectric constant tensor:
#      x y z
#    x 3.655120 0.000000 0.406290 
#    y 0.000000 1.986200 0.000000 
#    z 0.406290 0.000000 2.235190 
# 
# From -- ./inp_files/35350.got.cif
#   From: 2010.05.17/outbox.cif.g08.bks.cpg/sg14_18_cif.got.tgz:35350.got - 2010.06.03 17:49:19.
