data_PCOD9249334
_publ_section_title
;
Structure prediction by ZEFSAII (Michael W. Deem and Ramdas Pophale) SiO2 
 PCOD9249334
Probable space group: P 21/C
;
_chemical_formula_sum "Si O2"
_cell_formula_units_Z 32
_cell_length_a 9.808967
_cell_length_b 12.145049
_cell_length_c 11.443484
_cell_angle_alpha 90.000000
_cell_angle_beta 86.171767
_cell_angle_gamma 90.000000
_cell_volume 1360.224783
_symmetry_space_group_name_H-M "P 21/C"
_symmetry_group_IT_number 14
_symmetry_cell_setting 'monoclinic'
loop_
_space_group_symop_operation_xyz
x,y,z
-x,1/2+y,1/2-z
-x,-y,-z
x,1/2-y,1/2+z
loop_
_atom_site_type_symbol
_atom_site_label
_atom_site_fract_x
_atom_site_fract_y
_atom_site_fract_z
Si Si1 0.185116 0.056893 0.873846
Si Si2 0.518288 0.895282 0.083565
Si Si3 0.257657 0.150730 0.640523
Si Si4 0.984501 0.628796 0.020455
Si Si5 0.852278 0.628448 0.262315
Si Si6 0.612790 0.486725 0.173408
Si Si7 0.533387 0.153220 0.483185
Si Si8 0.952338 0.355662 0.531724
O O1 0.317148 0.118976 0.918128
O O2 0.211898 0.056283 0.733616
O O3 0.040707 0.115106 0.911222
O O4 0.171741 0.936822 0.933512
O O5 0.449863 0.781460 0.045802
O O6 0.461134 0.926492 0.214409
O O7 0.500000 0.000000 0.000000
O O8 0.157019 0.155199 0.537100
O O9 0.238038 0.263018 0.713477
O O10 0.406137 0.143651 0.579659
O O11 0.965999 0.646505 0.158150
O O12 0.079826 0.726472 0.966011
O O13 0.000000 0.500000 0.000000
O O14 0.751453 0.535016 0.221025
O O15 0.935200 0.612790 0.376163
O O16 0.516055 0.585128 0.127932
O O17 0.357073 0.912472 0.444007
#
# Coordination Sequence:
#
# PCOD9249334 Si02
#       8
#     4   4   4   4   4   4   4   4
#     4  11  21  42  67  94 133 167 228 291 327 408
#     4  12  25  42  71 101 136 185 226 284 357 414
#     4  11  20  39  71  92 126 179 228 277 334 418
#     4  11  22  39  63  95 134 176 222 276 344 415
#     4  11  21  41  68  96 126 180 232 275 346 409
#     4  11  24  42  69 100 137 172 235 294 333 419
#     4  11  24  43  67 100 133 183 236 273 351 421
#     4  10  23  40  66 100 125 175 232 280 346 401
#
# _framework density 23.525521000000001
#
# number of rings (size 3 to 8) (size 9 to 14) (size 15 to 20)
#    0.000    1.000    3.750    4.500    1.750    0.000 
#    2.250    0.000    0.000    0.000    0.000    0.000 
#    0.000    0.000    0.000    0.000    0.000    0.000 
#
# Total GULP energy -178823.527092 kJ/mol
# GULP energy per Si atom -5588.235222 kJ/mol
# Density = 2.347198 g / cm^3
# Si number density = 23.525521 Si / 1000 Ang^3
#
#
#
# Elastic Constant Matrix: (Units=GPa)
#
#
# Indices 1 2 3 4 5 6 
#
# 1 37.5898 18.3940 2.9394 0.0000 7.8755 0.0000
# 2 18.3940 173.8993 37.1008 0.0000 5.3721 0.0000
# 3 2.9394 37.1008 104.7607 0.0000 -5.6060 0.0000
# 4 0.0000 0.0000 0.0000 38.4453 0.0000 3.5832
# 5 7.8755 5.3721 -5.6060 0.0000 17.8195 0.0000
# 6 0.0000 0.0000 0.0000 3.5832 0.0000 32.6422
#
#
#
# Elastic Compliance Matrix: (Units=1/GPa)
#
#
# Indices 1 2 3 4 5 6 
#
# 1 0.030689 -0.002721 -0.000589 0.000000 -0.012928 0.000000
# 2 -0.002721 0.006584 -0.002336 0.000000 -0.001517 0.000000
# 3 -0.000589 -0.002336 0.010620 0.000000 0.004306 0.000000
# 4 0.000000 0.000000 0.000000 0.026280 0.000000 -0.002885
# 5 -0.012928 -0.001517 0.004306 0.000000 0.063644 0.000000
# 6 0.000000 0.000000 0.000000 -0.002885 0.000000 0.030952
#
#
# Mechanical properties :
#
#
# Convention : Reuss Voigt Hill
#
# Bulk Modulus (GPa) = 27.32290 48.12425 37.72358
# Shear Modulus (GPa) = 26.00622 34.96911 30.48766
#
# Velocity S-wave (km/s) = 3.32843 3.85961 3.60382
# Velocity P-wave (km/s) = 5.13913 6.35317 5.77812
#
# Compressibility (1/GPa) = 0.03659933
#
# Stress axis : x y z
#
# Youngs Moduli (GPa) = 32.58478 151.89249 94.16243
#
# Poissons Ratio (x) = 0.41330 0.05549
# Poissons Ratio (y) = 0.08866 0.22000
# Poissons Ratio (z) = 0.01920 0.35488
#
# Static dielectric constant tensor:
#      x y z
#    x 1.944020 0.000000 0.001010 
#    y 0.000000 1.996290 0.000000 
#    z 0.001010 0.000000 1.880830 
# 
# From -- ./inp_files/29078.got.cif
#   From: 2010.05.17/outbox.cif.g08.bks.cpg/sg14_15_cif.got.tgz:29078.got - 2010.06.03 17:49:19.
