data_PCOD9249342
_publ_section_title
;
Structure prediction by ZEFSAII (Michael W. Deem and Ramdas Pophale) SiO2 
 PCOD9249342
Probable space group: P 21/C
;
_chemical_formula_sum "Si O2"
_cell_formula_units_Z 28
_cell_length_a 20.589718
_cell_length_b 8.767190
_cell_length_c 14.727438
_cell_angle_alpha 90.000000
_cell_angle_beta 151.078031
_cell_angle_gamma 90.000000
_cell_volume 1285.702541
_symmetry_space_group_name_H-M "P 21/C"
_symmetry_group_IT_number 14
_symmetry_cell_setting 'monoclinic'
loop_
_space_group_symop_operation_xyz
x,y,z
-x,1/2+y,1/2-z
-x,-y,-z
x,1/2-y,1/2+z
loop_
_atom_site_type_symbol
_atom_site_label
_atom_site_fract_x
_atom_site_fract_y
_atom_site_fract_z
Si Si1 0.312399 0.135887 0.451150
Si Si2 0.024342 0.190891 0.825500
Si Si3 0.893917 0.068973 0.299507
Si Si4 0.283951 0.378957 0.555688
Si Si5 0.017039 0.375349 0.638857
Si Si6 0.742243 0.326141 0.209701
Si Si7 0.446598 0.877754 0.363708
O O1 0.343218 0.223261 0.584436
O O2 0.151880 0.161459 0.248420
O O3 0.423798 0.205394 0.519485
O O4 0.320646 0.953774 0.435850
O O5 0.985950 0.249994 0.678213
O O6 0.977755 0.319036 0.837310
O O7 0.185003 0.165942 0.017299
O O8 0.959685 0.032009 0.777375
O O9 0.779764 0.170277 0.207374
O O10 0.000000 0.000000 0.500000
O O11 0.813602 0.951903 0.138913
O O12 0.376437 0.518498 0.700812
O O13 0.887020 0.390788 0.418259
O O14 0.659234 0.293965 0.200654
O O15 0.500000 0.000000 0.500000
#
# Coordination Sequence:
#
# PCOD9249342 Si02
#       7
#     4   4   4   4   4   4   4
#     4  10  23  40  67  93 123 173 220 258 328 382
#     4  11  21  38  62  94 130 165 209 266 326 372
#     4  12  25  37  63 104 135 163 215 271 328 384
#     4  11  24  43  64  95 132 166 220 274 314 391
#     4  11  21  38  65  95 126 172 215 268 326 382
#     4  11  22  41  66  92 132 171 212 268 329 388
#     4  10  23  43  64  91 127 175 214 262 324 389
#
# _framework density 21.777977
#
# number of rings (size 3 to 8) (size 9 to 14) (size 15 to 20)
#    0.000    1.143    4.286    2.143    2.000    2.286 
#    2.571    0.714    0.000    0.000    0.000    0.000 
#    0.000    0.000    0.000    0.000    0.000    0.000 
#
# Total GULP energy -156043.567842 kJ/mol
# GULP energy per Si atom -5572.984566 kJ/mol
# Density = 2.172841 g / cm^3
# Si number density = 21.777977 Si / 1000 Ang^3
#
#
#
# Elastic Constant Matrix: (Units=GPa)
#
#
# Indices 1 2 3 4 5 6 
#
# 1 153.1338 38.0309 45.8707 0.0000 40.8236 0.0000
# 2 38.0309 93.0893 25.9469 0.0000 -6.8806 0.0000
# 3 45.8707 25.9469 55.5468 0.0000 -5.6133 0.0000
# 4 0.0000 0.0000 0.0000 10.7558 0.0000 -11.4809
# 5 40.8236 -6.8806 -5.6133 0.0000 38.8816 0.0000
# 6 0.0000 0.0000 0.0000 -11.4809 0.0000 26.6924
#
#
#
# Elastic Compliance Matrix: (Units=1/GPa)
#
#
# Indices 1 2 3 4 5 6 
#
# 1 0.018021 -0.004848 -0.014832 0.000000 -0.021920 0.000000
# 2 -0.004848 0.013727 -0.001673 0.000000 0.007278 0.000000
# 3 -0.014832 -0.001673 0.033059 0.000000 0.020049 0.000000
# 4 0.000000 0.000000 0.000000 0.171890 0.000000 0.073933
# 5 -0.021920 0.007278 0.020049 0.000000 0.052917 0.000000
# 6 0.000000 0.000000 0.000000 0.073933 0.000000 0.069264
#
#
# Mechanical properties :
#
#
# Convention : Reuss Voigt Hill
#
# Bulk Modulus (GPa) = 45.24858 57.94077 51.59467
# Shear Modulus (GPa) = 12.22640 28.06072 20.14356
#
# Velocity S-wave (km/s) = 2.37198 3.59345 3.04460
# Velocity P-wave (km/s) = 5.32204 6.62421 6.00850
#
# Compressibility (1/GPa) = 0.02210014
#
# Stress axis : x y z
#
# Youngs Moduli (GPa) = 55.49122 72.84696 30.24910
#
# Poissons Ratio (x) = 0.35318 0.44866
# Poissons Ratio (y) = 0.26904 0.05061
# Poissons Ratio (z) = 0.82305 0.12188
#
# Static dielectric constant tensor:
#      x y z
#    x 1.876610 0.000000 -0.000480 
#    y 0.000000 1.890400 0.000000 
#    z -0.000480 0.000000 2.130680 
# 
# From -- ./inp_files/50119.got.cif
#   From: 2010.05.17/outbox.cif.g08.bks.cpg/sg14_26_cif.got.tgz:50119.got - 2010.06.03 17:49:19.
