data_PCOD9249928
_publ_section_title
;
Structure prediction by ZEFSAII (Michael W. Deem and Ramdas Pophale) SiO2 
 PCOD9249928
Probable space group: P 21/C
;
_chemical_formula_sum "Si O2"
_cell_formula_units_Z 24
_cell_length_a 12.276571
_cell_length_b 15.663664
_cell_length_c 7.192314
_cell_angle_alpha 90.000000
_cell_angle_beta 141.707871
_cell_angle_gamma 90.000000
_cell_volume 857.038639
_symmetry_space_group_name_H-M "P 21/C"
_symmetry_group_IT_number 14
_symmetry_cell_setting 'monoclinic'
loop_
_space_group_symop_operation_xyz
x,y,z
-x,1/2+y,1/2-z
-x,-y,-z
x,1/2-y,1/2+z
loop_
_atom_site_type_symbol
_atom_site_label
_atom_site_fract_x
_atom_site_fract_y
_atom_site_fract_z
Si Si1 0.199414 0.814087 0.999485
Si Si2 0.982426 0.902180 0.439464
Si Si3 0.546289 0.849930 0.706450
Si Si4 0.421195 0.492924 0.187354
Si Si5 0.663978 0.673395 0.751028
Si Si6 0.102250 0.873955 0.233474
O O1 0.378032 0.832252 0.349593
O O2 0.061194 0.851654 0.966453
O O3 0.164566 0.717143 0.899726
O O4 0.165697 0.863244 0.762400
O O5 0.830535 0.858990 0.355843
O O6 0.952488 0.896247 0.179309
O O7 0.000000 0.000000 0.500000
O O8 0.556930 0.953948 0.736070
O O9 0.673141 0.771315 0.823514
O O10 0.519185 0.831363 0.891480
O O11 0.500000 0.500000 0.500000
O O12 0.377825 0.391345 0.133615
O O13 0.240585 0.547473 0.927845
#
# Coordination Sequence:
#
# PCOD9249928 Si02
#       6
#     4   4   4   4   4   4
#     4  11  23  43  76 104 144 196 254 301 374 454
#     4  12  27  47  72 108 155 203 243 313 385 450
#     4  10  23  44  71 107 142 196 254 313 373 442
#     4   9  19  41  69  96 143 190 238 306 368 440
#     4  11  24  45  70 106 152 191 249 319 378 446
#     4  11  22  41  73 107 142 197 251 294 379 448
#
# _framework density 28.003405000000001
#
# number of rings (size 3 to 8) (size 9 to 14) (size 15 to 20)
#    0.000    1.333    3.333    3.000    2.333    0.667 
#    0.000    1.667    0.000    0.000    0.000    0.000 
#    0.000    0.000    0.000    0.000    0.000    0.000 
#
# Total GULP energy -134040.750396 kJ/mol
# GULP energy per Si atom -5585.031267 kJ/mol
# Density = 2.793967 g / cm^3
# Si number density = 28.003405 Si / 1000 Ang^3
#
#
#
# Elastic Constant Matrix: (Units=GPa)
#
#
# Indices 1 2 3 4 5 6 
#
# 1 123.2433 60.4014 12.1986 0.0000 -3.3429 0.0000
# 2 60.4014 155.8476 34.9362 0.0000 -7.1045 0.0000
# 3 12.1986 34.9362 69.8956 0.0000 -14.9149 0.0000
# 4 0.0000 0.0000 0.0000 29.8794 0.0000 -11.8569
# 5 -3.3429 -7.1045 -14.9149 0.0000 40.9386 0.0000
# 6 0.0000 0.0000 0.0000 -11.8569 0.0000 64.4128
#
#
#
# Elastic Compliance Matrix: (Units=1/GPa)
#
#
# Indices 1 2 3 4 5 6 
#
# 1 0.010022 -0.003933 0.000267 0.000000 0.000233 0.000000
# 2 -0.003933 0.008770 -0.003731 0.000000 -0.000158 0.000000
# 3 0.000267 -0.003731 0.017340 0.000000 0.005692 0.000000
# 4 0.000000 0.000000 0.000000 0.036105 0.000000 0.006646
# 5 0.000233 -0.000158 0.005692 0.000000 0.026492 0.000000
# 6 0.000000 0.000000 0.000000 0.006646 0.000000 0.016748
#
#
# Mechanical properties :
#
#
# Convention : Reuss Voigt Hill
#
# Bulk Modulus (GPa) = 46.86802 62.67322 54.77062
# Shear Modulus (GPa) = 36.39427 43.14284 39.76856
#
# Velocity S-wave (km/s) = 3.60896 3.92934 3.77255
# Velocity P-wave (km/s) = 5.84286 6.55862 6.21106
#
# Compressibility (1/GPa) = 0.02133651
#
# Stress axis : x y z
#
# Youngs Moduli (GPa) = 99.78425 114.02456 57.67043
#
# Poissons Ratio (x) = 0.44848 -0.01538
# Poissons Ratio (y) = 0.39247 0.21517
# Poissons Ratio (z) = -0.02660 0.42542
#
# Static dielectric constant tensor:
#      x y z
#    x 2.331040 0.000000 0.139930 
#    y 0.000000 2.216220 0.000000 
#    z 0.139930 0.000000 2.241890 
# 
# From -- ./inp_files/16331.got.cif
#   From: 2010.05.17/outbox.cif.g08.bks.cpg/sg14_9_cif.got.tgz:16331.got - 2010.06.03 17:49:19.
