data_PCOD9249858
_publ_section_title
;
Structure prediction by ZEFSAII (Michael W. Deem and Ramdas Pophale) SiO2 
 PCOD9249858
Probable space group: P 21/C
;
_chemical_formula_sum "Si O2"
_cell_formula_units_Z 32
_cell_length_a 10.304506
_cell_length_b 10.954531
_cell_length_c 33.735320
_cell_angle_alpha 90.000000
_cell_angle_beta 23.773341
_cell_angle_gamma 90.000000
_cell_volume 1535.110499
_symmetry_space_group_name_H-M "P 21/C"
_symmetry_group_IT_number 14
_symmetry_cell_setting 'monoclinic'
loop_
_space_group_symop_operation_xyz
x,y,z
-x,1/2+y,1/2-z
-x,-y,-z
x,1/2-y,1/2+z
loop_
_atom_site_type_symbol
_atom_site_label
_atom_site_fract_x
_atom_site_fract_y
_atom_site_fract_z
Si Si1 0.796243 0.480042 0.447217
Si Si2 0.839580 0.217994 0.159592
Si Si3 0.606804 0.867636 0.268235
Si Si4 0.297963 0.758886 0.494378
Si Si5 0.340496 0.381951 0.860254
Si Si6 0.136172 0.369552 0.215732
Si Si7 0.684529 0.357136 0.842881
Si Si8 0.450164 0.134898 0.498292
O O1 0.500000 0.500000 0.500000
O O2 0.693111 0.387864 0.510743
O O3 0.930001 0.612051 0.421644
O O4 0.103388 0.417914 0.339830
O O5 0.571023 0.257231 0.203372
O O6 0.655449 0.172640 0.250250
O O7 0.077957 0.326965 0.104108
O O8 0.747963 0.842601 0.271922
O O9 0.347357 0.976407 0.346184
O O10 0.581603 0.828784 0.392801
O O11 0.351274 0.782822 0.526267
O O12 0.968793 0.812846 0.569476
O O13 0.398601 0.372938 0.890884
O O14 0.101934 0.517513 0.222072
O O15 0.852722 0.272828 0.287116
O O16 0.567462 0.354382 0.920660
O O17 0.500000 0.000000 0.500000
#
# Coordination Sequence:
#
# PCOD9249858 Si02
#       8
#     4   4   4   4   4   4   4   4
#     4  11  23  42  71  97 137 184 229 280 349 413
#     4  11  23  42  68 100 137 178 230 278 352 406
#     4  10  23  44  66  99 135 185 221 288 340 418
#     4  12  23  44  68 103 132 179 230 285 336 420
#     4  10  24  43  68  96 140 178 227 279 351 403
#     4  11  26  44  69  95 141 177 230 276 359 405
#     4  11  26  45  68 101 137 185 224 293 343 420
#     4  12  24  41  71 103 130 175 235 283 334 413
#
# _framework density 20.845406000000001
#
# number of rings (size 3 to 8) (size 9 to 14) (size 15 to 20)
#    0.000    1.000    3.750    2.250    5.250    1.000 
#    2.250    0.625    0.000    0.000    0.000    0.000 
#    0.000    0.000    0.000    0.000    0.000    0.000 
#
# Total GULP energy -178827.274673 kJ/mol
# GULP energy per Si atom -5588.352334 kJ/mol
# Density = 2.079796 g / cm^3
# Si number density = 20.845406 Si / 1000 Ang^3
#
#
#
# Elastic Constant Matrix: (Units=GPa)
#
#
# Indices 1 2 3 4 5 6 
#
# 1 75.2105 12.1942 5.9869 0.0000 7.0201 0.0000
# 2 12.1942 40.7103 1.7238 0.0000 -2.4648 0.0000
# 3 5.9869 1.7238 36.9697 0.0000 -2.6998 0.0000
# 4 0.0000 0.0000 0.0000 32.5577 0.0000 -9.7819
# 5 7.0201 -2.4648 -2.6998 0.0000 30.7332 0.0000
# 6 0.0000 0.0000 0.0000 -9.7819 0.0000 40.7592
#
#
#
# Elastic Compliance Matrix: (Units=1/GPa)
#
#
# Indices 1 2 3 4 5 6 
#
# 1 0.014585 -0.004502 -0.002437 0.000000 -0.003907 0.000000
# 2 -0.004502 0.026111 -0.000262 0.000000 0.003099 0.000000
# 3 -0.002437 -0.000262 0.027673 0.000000 0.002967 0.000000
# 4 0.000000 0.000000 0.000000 0.033101 0.000000 0.007944
# 5 -0.003907 0.003099 0.002967 0.000000 0.033940 0.000000
# 6 0.000000 0.000000 0.000000 0.007944 0.000000 0.026441
#
#
# Mechanical properties :
#
#
# Convention : Reuss Voigt Hill
#
# Bulk Modulus (GPa) = 18.53023 21.41114 19.97068
# Shear Modulus (GPa) = 25.74115 29.67573 27.70844
#
# Velocity S-wave (km/s) = 3.51787 3.77717 3.64982
# Velocity P-wave (km/s) = 5.04075 5.41446 5.23094
#
# Compressibility (1/GPa) = 0.05396588
#
# Stress axis : x y z
#
# Youngs Moduli (GPa) = 68.56554 38.29790 36.13665
#
# Poissons Ratio (x) = 0.17242 0.08807
# Poissons Ratio (y) = 0.30868 0.00947
# Poissons Ratio (z) = 0.16711 0.01004
#
# Static dielectric constant tensor:
#      x y z
#    x 1.710940 0.000000 0.010780 
#    y 0.000000 1.841860 0.000000 
#    z 0.010780 0.000000 1.756400 
# 
# From -- ./inp_files/79642.got.cif
#   From: 2010.05.17/outbox.cif.g08.bks.cpg/sg14_40_cif.got.tgz:79642.got - 2010.06.03 17:49:19.
