data_PCOD9249072
_publ_section_title
;
Structure prediction by ZEFSAII (Michael W. Deem and Ramdas Pophale) SiO2 
 PCOD9249072
Probable space group: P 21/C
;
_chemical_formula_sum "Si O2"
_cell_formula_units_Z 32
_cell_length_a 11.038645
_cell_length_b 14.496727
_cell_length_c 15.943770
_cell_angle_alpha 90.000000
_cell_angle_beta 37.647539
_cell_angle_gamma 90.000000
_cell_volume 1558.394584
_symmetry_space_group_name_H-M "P 21/C"
_symmetry_group_IT_number 14
_symmetry_cell_setting 'monoclinic'
loop_
_space_group_symop_operation_xyz
x,y,z
-x,1/2+y,1/2-z
-x,-y,-z
x,1/2-y,1/2+z
loop_
_atom_site_type_symbol
_atom_site_label
_atom_site_fract_x
_atom_site_fract_y
_atom_site_fract_z
Si Si1 0.191530 0.560886 0.902622
Si Si2 0.833244 0.511115 0.350983
Si Si3 0.422133 0.893186 0.117976
Si Si4 0.847046 0.259267 0.514587
Si Si5 0.186517 0.639501 0.132515
Si Si6 0.472394 0.505062 0.900551
Si Si7 0.634005 0.188636 0.297364
Si Si8 0.073147 0.442059 0.379746
O O1 0.338276 0.553560 0.744190
O O2 0.114182 0.665153 0.956432
O O3 0.327663 0.534372 0.905104
O O4 0.000000 0.500000 0.000000
O O5 0.752271 0.417867 0.351913
O O6 0.632701 0.568072 0.475084
O O7 0.989465 0.579711 0.220427
O O8 0.945536 0.480868 0.372782
O O9 0.445901 0.787647 0.131062
O O10 0.789411 0.219809 0.452365
O O11 0.695667 0.307896 0.664914
O O12 0.022025 0.333605 0.413181
O O13 0.192213 0.672402 0.226990
O O14 0.366982 0.565196 0.030428
O O15 0.481351 0.394633 0.893976
O O16 0.695282 0.539795 0.761896
O O17 0.000000 0.500000 0.500000
#
# Coordination Sequence:
#
# PCOD9249072 Si02
#       8
#     4   4   4   4   4   4   4   4
#     4  10  22  46  65  96 136 178 229 278 344 418
#     4  11  23  42  67  92 136 182 227 289 345 403
#     4  10  23  41  65  94 134 180 228 282 343 407
#     4  10  23  41  67  98 133 179 223 281 341 418
#     4  11  23  44  66  98 138 177 233 279 349 415
#     4  11  23  41  70  95 137 177 219 286 348 401
#     4  11  22  43  63 104 134 173 232 283 339 409
#     4  12  22  41  65 100 137 174 227 286 343 401
#
# _framework density 20.533951999999999
#
# number of rings (size 3 to 8) (size 9 to 14) (size 15 to 20)
#    0.000    1.250    2.500    3.375    0.000    1.000 
#   15.750    1.250    0.000    0.000    0.000    0.000 
#    0.000    0.000    0.000    0.000    0.000    0.000 
#
# Total GULP energy -178334.184009 kJ/mol
# GULP energy per Si atom -5572.943250 kJ/mol
# Density = 2.048722 g / cm^3
# Si number density = 20.533952 Si / 1000 Ang^3
#
#
#
# Elastic Constant Matrix: (Units=GPa)
#
#
# Indices 1 2 3 4 5 6 
#
# 1 84.2066 16.0321 27.8045 0.0000 3.6006 0.0000
# 2 16.0321 83.2994 35.7936 0.0000 -3.4968 0.0000
# 3 27.8045 35.7936 93.3204 0.0000 -0.7657 0.0000
# 4 0.0000 0.0000 0.0000 18.3593 0.0000 -5.3153
# 5 3.6006 -3.4968 -0.7657 0.0000 31.1311 0.0000
# 6 0.0000 0.0000 0.0000 -5.3153 0.0000 29.6060
#
#
#
# Elastic Compliance Matrix: (Units=1/GPa)
#
#
# Indices 1 2 3 4 5 6 
#
# 1 0.013338 -0.001110 -0.003563 0.000000 -0.001755 0.000000
# 2 -0.001110 0.014535 -0.005231 0.000000 0.001632 0.000000
# 3 -0.003563 -0.005231 0.013785 0.000000 0.000164 0.000000
# 4 0.000000 0.000000 0.000000 0.057455 0.000000 0.010315
# 5 -0.001755 0.001632 0.000164 0.000000 0.032513 0.000000
# 6 0.000000 0.000000 0.000000 0.010315 0.000000 0.035629
#
#
# Mechanical properties :
#
#
# Convention : Reuss Voigt Hill
#
# Bulk Modulus (GPa) = 45.76452 46.67631 46.22041
# Shear Modulus (GPa) = 25.72748 27.89903 26.81326
#
# Velocity S-wave (km/s) = 3.54351 3.69002 3.61751
# Velocity P-wave (km/s) = 6.25120 6.39810 6.32508
#
# Compressibility (1/GPa) = 0.02185099
#
# Stress axis : x y z
#
# Youngs Moduli (GPa) = 74.97199 68.80098 72.54292
#
# Poissons Ratio (x) = 0.07636 0.25846
# Poissons Ratio (y) = 0.08321 0.37946
# Poissons Ratio (z) = 0.26711 0.35988
#
# Static dielectric constant tensor:
#      x y z
#    x 1.754920 0.000000 0.097280 
#    y 0.000000 1.763870 0.000000 
#    z 0.097280 0.000000 1.761360 
# 
# From -- ./inp_files/57931.got.cif
#   From: 2010.05.17/outbox.cif.g08.bks.cpg/sg14_29_cif.got.tgz:57931.got - 2010.06.03 17:49:19.
