data_PCOD9249320
_publ_section_title
;
Structure prediction by ZEFSAII (Michael W. Deem and Ramdas Pophale) SiO2 
 PCOD9249320
Probable space group: P 21/C
;
_chemical_formula_sum "Si O2"
_cell_formula_units_Z 20
_cell_length_a 18.931820
_cell_length_b 5.429395
_cell_length_c 13.638554
_cell_angle_alpha 90.000000
_cell_angle_beta 32.891634
_cell_angle_gamma 90.000000
_cell_volume 761.295791
_symmetry_space_group_name_H-M "P 21/C"
_symmetry_group_IT_number 14
_symmetry_cell_setting 'monoclinic'
loop_
_space_group_symop_operation_xyz
x,y,z
-x,1/2+y,1/2-z
-x,-y,-z
x,1/2-y,1/2+z
loop_
_atom_site_type_symbol
_atom_site_label
_atom_site_fract_x
_atom_site_fract_y
_atom_site_fract_z
Si Si1 0.455500 0.241112 0.929214
Si Si2 0.596225 0.743225 0.744818
Si Si3 0.135101 0.414111 0.624760
Si Si4 0.164021 0.279394 0.308132
Si Si5 0.069585 0.645270 0.299717
O O1 0.522079 0.503552 0.871342
O O2 0.427226 0.244442 0.845388
O O3 0.543471 0.002347 0.844683
O O4 0.313425 0.216330 0.144243
O O5 0.749577 0.698015 0.573194
O O6 0.124736 0.257211 0.737835
O O7 0.010987 0.457752 0.701401
O O8 0.174317 0.680339 0.623638
O O9 0.052655 0.195078 0.510900
O O10 0.138303 0.571636 0.324408
#
# Coordination Sequence:
#
# PCOD9249320 Si02
#       5
#     4   4   4   4   4
#     4   9  19  37  59  92 123 170 215 268 318 386
#     4   9  20  34  63  89 125 166 220 261 325 382
#     4  11  22  39  65  92 132 167 217 271 327 398
#     4  10  23  40  64  90 134 168 221 267 329 400
#     4  11  23  40  62 100 126 176 213 272 336 393
#
# _framework density 26.270999
#
# number of rings (size 3 to 8) (size 9 to 14) (size 15 to 20)
#    0.000    2.000    2.000    0.600   14.000    0.000 
#    0.000    2.000    0.000    0.000    0.000    0.000 
#    0.000    0.000    0.000    0.000    0.000    0.000 
#
# Total GULP energy -111465.478238 kJ/mol
# GULP energy per Si atom -5573.273912 kJ/mol
# Density = 2.621121 g / cm^3
# Si number density = 26.270999 Si / 1000 Ang^3
#
#
#
# Elastic Constant Matrix: (Units=GPa)
#
#
# Indices 1 2 3 4 5 6 
#
# 1 98.8678 100.1366 50.5998 0.0000 -19.3552 0.0000
# 2 100.1366 380.7362 107.9732 0.0000 -81.7277 0.0000
# 3 50.5998 107.9732 149.7807 0.0000 -10.2051 0.0000
# 4 0.0000 0.0000 0.0000 28.4897 0.0000 -13.9678
# 5 -19.3552 -81.7277 -10.2051 0.0000 63.8527 0.0000
# 6 0.0000 0.0000 0.0000 -13.9678 0.0000 -11.7463
#
#
#
# Elastic Compliance Matrix: (Units=1/GPa)
#
#
# Indices 1 2 3 4 5 6 
#
# 1 0.014621 -0.003051 -0.002734 0.000000 0.000090 0.000000
# 2 -0.003051 0.005281 -0.002405 0.000000 0.005450 0.000000
# 3 -0.002734 -0.002405 0.009167 0.000000 -0.002442 0.000000
# 4 0.000000 0.000000 0.000000 0.022173 0.000000 -0.026367
# 5 0.000090 0.005450 -0.002442 0.000000 0.022274 0.000000
# 6 0.000000 0.000000 0.000000 -0.026367 0.000000 -0.053780
#
#
# Mechanical properties :
#
#
# Convention : Reuss Voigt Hill
#
# Bulk Modulus (GPa) = 78.80187 127.42267 103.11227
# Shear Modulus (GPa) = 123.92775 40.83089 82.37932
#
# Velocity S-wave (km/s) = 6.87570 3.94664 5.60585
# Velocity P-wave (km/s) = 9.64855 8.32925 9.01307
#
# Compressibility (1/GPa) = 0.01269005
#
# Stress axis : x y z
#
# Youngs Moduli (GPa) = 68.39269 189.36855 109.08392
#
# Poissons Ratio (x) = 0.57773 0.29825
# Poissons Ratio (y) = 0.20865 0.26232
# Poissons Ratio (z) = 0.18699 0.45539
#
# Static dielectric constant tensor:
#      x y z
#    x 2.101560 0.000000 -0.015690 
#    y 0.000000 -23.122220 0.000000 
#    z -0.015690 0.000000 2.014290 
# 
# From -- ./inp_files/49565.got.cif
#   From: 2010.05.17/outbox.cif.g08.bks.cpg/sg14_25_cif.got.tgz:49565.got - 2010.06.03 17:49:19.
