data_PCOD9249278
_publ_section_title
;
Structure prediction by ZEFSAII (Michael W. Deem and Ramdas Pophale) SiO2 
 PCOD9249278
Probable space group: P 21/C
;
_chemical_formula_sum "Si O2"
_cell_formula_units_Z 32
_cell_length_a 15.098128
_cell_length_b 9.237280
_cell_length_c 20.740700
_cell_angle_alpha 90.000000
_cell_angle_beta 153.400267
_cell_angle_gamma 90.000000
_cell_volume 1295.182562
_symmetry_space_group_name_H-M "P 21/C"
_symmetry_group_IT_number 14
_symmetry_cell_setting 'monoclinic'
loop_
_space_group_symop_operation_xyz
x,y,z
-x,1/2+y,1/2-z
-x,-y,-z
x,1/2-y,1/2+z
loop_
_atom_site_type_symbol
_atom_site_label
_atom_site_fract_x
_atom_site_fract_y
_atom_site_fract_z
Si Si1 0.012188 0.918950 0.441561
Si Si2 0.257037 0.498885 0.783896
Si Si3 0.649125 0.998668 0.940338
Si Si4 0.503989 0.245622 0.595937
Si Si5 0.864869 0.941443 0.596925
Si Si6 0.418384 0.310342 0.389988
Si Si7 0.949221 0.157148 0.747172
Si Si8 0.118102 0.594854 0.521710
O O1 0.793856 0.885699 0.266813
O O2 0.114210 0.766086 0.524002
O O3 0.000000 0.000000 0.500000
O O4 0.136991 0.031442 0.479341
O O5 0.311706 0.636862 0.776483
O O6 0.393447 0.361770 0.862018
O O7 0.233142 0.580115 0.835829
O O8 0.044920 0.429331 0.639824
O O9 0.688428 0.037697 0.890880
O O10 0.576989 0.124544 0.942378
O O11 0.843968 0.915440 0.095355
O O12 0.489747 0.872637 0.848569
O O13 0.324443 0.135277 0.495013
O O14 0.469963 0.314173 0.501253
O O15 0.033885 0.825154 0.726047
O O16 0.917041 0.102650 0.654757
O O17 0.000000 0.500000 0.500000
#
# Coordination Sequence:
#
# PCOD9249278 Si02
#       8
#     4   4   4   4   4   4   4   4
#     4  11  27  45  69  97 137 187 242 287 340 429
#     4  10  23  40  65  98 140 173 224 288 353 421
#     4  10  24  40  67  98 136 174 226 289 353 412
#     4  11  23  39  67 107 138 172 225 292 359 425
#     4  11  24  40  65 100 135 179 234 275 354 426
#     4  11  23  44  63 107 139 175 227 290 360 423
#     4  10  23  39  65  99 135 180 219 282 357 428
#     4  10  25  49  67  93 136 190 237 284 347 425
#
# _framework density 24.706941
#
# number of rings (size 3 to 8) (size 9 to 14) (size 15 to 20)
#    0.000    1.500    1.250    2.250   14.000    0.000 
#    2.250    0.000    0.000    0.000    0.000    0.000 
#    0.000    0.000    0.000    0.000    0.000    0.000 
#
# Total GULP energy -178253.303212 kJ/mol
# GULP energy per Si atom -5570.415725 kJ/mol
# Density = 2.465071 g / cm^3
# Si number density = 24.706941 Si / 1000 Ang^3
#
#
#
# Elastic Constant Matrix: (Units=GPa)
#
#
# Indices 1 2 3 4 5 6 
#
# 1 134.1625 76.1050 -8.2821 0.0000 -6.6852 0.0000
# 2 76.1050 137.5510 19.9262 0.0000 8.0416 0.0000
# 3 -8.2821 19.9262 43.3599 0.0000 11.6026 0.0000
# 4 0.0000 0.0000 0.0000 35.2900 0.0000 5.1786
# 5 -6.6852 8.0416 11.6026 0.0000 20.4612 0.0000
# 6 0.0000 0.0000 0.0000 5.1786 0.0000 44.7699
#
#
#
# Elastic Compliance Matrix: (Units=1/GPa)
#
#
# Indices 1 2 3 4 5 6 
#
# 1 0.012399 -0.007810 0.004777 0.000000 0.004412 0.000000
# 2 -0.007810 0.012734 -0.006274 0.000000 -0.003999 0.000000
# 3 0.004777 -0.006274 0.030392 0.000000 -0.013208 0.000000
# 4 0.000000 0.000000 0.000000 0.028826 0.000000 -0.003334
# 5 0.004412 -0.003999 -0.013208 0.000000 0.059376 0.000000
# 6 0.000000 0.000000 0.000000 -0.003334 0.000000 0.022722
#
#
# Mechanical properties :
#
#
# Convention : Reuss Voigt Hill
#
# Bulk Modulus (GPa) = 27.09180 54.50797 40.79988
# Shear Modulus (GPa) = 25.33372 35.25918 30.29645
#
# Velocity S-wave (km/s) = 3.20561 3.78179 3.50556
# Velocity P-wave (km/s) = 4.96894 6.41708 5.73887
#
# Compressibility (1/GPa) = 0.03691154
#
# Stress axis : x y z
#
# Youngs Moduli (GPa) = 80.65445 78.53176 32.90287
#
# Poissons Ratio (x) = 0.61332 -0.15717
# Poissons Ratio (y) = 0.62990 0.20642
# Poissons Ratio (z) = -0.38527 0.49267
#
# Static dielectric constant tensor:
#      x y z
#    x 2.182110 0.000000 0.004030 
#    y 0.000000 2.067610 0.000000 
#    z 0.004030 0.000000 2.077890 
# 
# From -- ./inp_files/68220.got.cif
#   From: 2010.05.17/outbox.cif.g08.bks.cpg/sg14_35_cif.got.tgz:68220.got - 2010.06.03 17:49:19.
