data_PCOD9249577
_publ_section_title
;
Structure prediction by ZEFSAII (Michael W. Deem and Ramdas Pophale) SiO2 
 PCOD9249577
Probable space group: P 21/C
;
_chemical_formula_sum "Si O2"
_cell_formula_units_Z 18
_cell_length_a 12.291899
_cell_length_b 7.371186
_cell_length_c 6.872899
_cell_angle_alpha 90.000000
_cell_angle_beta 88.276215
_cell_angle_gamma 90.000000
_cell_volume 622.443211
_symmetry_space_group_name_H-M "P 21/C"
_symmetry_group_IT_number 14
_symmetry_cell_setting 'monoclinic'
loop_
_space_group_symop_operation_xyz
x,y,z
-x,1/2+y,1/2-z
-x,-y,-z
x,1/2-y,1/2+z
loop_
_atom_site_type_symbol
_atom_site_label
_atom_site_fract_x
_atom_site_fract_y
_atom_site_fract_z
Si Si1 0.674164 0.998484 0.187976
Si Si2 0.500000 0.500000 0.500000
Si Si3 0.103402 0.597919 0.227319
Si Si4 0.132751 0.012245 0.283346
Si Si5 0.635849 0.608530 0.126754
O O1 0.608492 0.823868 0.093464
O O2 0.655956 0.978574 0.416988
O O3 0.803367 0.003144 0.149265
O O4 0.607580 0.138034 0.064736
O O5 0.549799 0.521313 0.270649
O O6 0.139759 0.805671 0.211946
O O7 0.977574 0.596815 0.298155
O O8 0.111034 0.504995 0.016872
O O9 0.247676 0.112085 0.266865
#
# Coordination Sequence:
#
# PCOD9249577 Si02
#       5
#     4   2   4   4   4
#     4  11  24  46  70 100 136 180 229 280 340 399
#     4  12  26  44  70 100 132 188 224 292 326 398
#     4  10  23  42  67 102 135 172 219 276 341 409
#     4  10  23  42  67 102 135 172 219 276 341 409
#     4  11  24  46  70 100 136 180 229 280 340 399
#
# _framework density 28.918301
#
# number of rings (size 3 to 8) (size 9 to 14) (size 15 to 20)
#    0.000    1.333    2.222    2.000    3.111    2.667 
#    8.000    0.000    0.000    0.000    0.000    0.000 
#    0.000    0.000    0.000    0.000    0.000    0.000 
#
# Total GULP energy -100573.205860 kJ/mol
# GULP energy per Si atom -5587.400326 kJ/mol
# Density = 2.885248 g / cm^3
# Si number density = 28.918301 Si / 1000 Ang^3
#
#
#
# Elastic Constant Matrix: (Units=GPa)
#
#
# Indices 1 2 3 4 5 6 
#
# 1 268.4885 29.0556 63.7468 0.0000 28.0536 0.0000
# 2 29.0556 114.5580 3.2341 0.0000 0.1059 0.0000
# 3 63.7468 3.2341 120.2529 0.0000 16.5061 0.0000
# 4 0.0000 0.0000 0.0000 171.9878 0.0000 -4.8158
# 5 28.0536 0.1059 16.5061 0.0000 61.7452 0.0000
# 6 0.0000 0.0000 0.0000 -4.8158 0.0000 35.8407
#
#
#
# Elastic Compliance Matrix: (Units=1/GPa)
#
#
# Indices 1 2 3 4 5 6 
#
# 1 0.004508 -0.001081 -0.002159 0.000000 -0.001469 0.000000
# 2 -0.001081 0.008995 0.000276 0.000000 0.000402 0.000000
# 3 -0.002159 0.000276 0.009673 0.000000 -0.001606 0.000000
# 4 0.000000 0.000000 0.000000 0.005836 0.000000 0.000784
# 5 -0.001469 0.000402 -0.001606 0.000000 0.017292 0.000000
# 6 0.000000 0.000000 0.000000 0.000784 0.000000 0.028007
#
#
# Mechanical properties :
#
#
# Convention : Reuss Voigt Hill
#
# Bulk Modulus (GPa) = 57.97668 77.26361 67.62014
# Shear Modulus (GPa) = 58.14797 81.06561 69.60679
#
# Velocity S-wave (km/s) = 4.48902 5.30033 4.91146
# Velocity P-wave (km/s) = 6.85277 8.01460 7.45635
#
# Compressibility (1/GPa) = 0.01724832
#
# Stress axis : x y z
#
# Youngs Moduli (GPa) = 221.84815 111.17031 103.37898
#
# Poissons Ratio (x) = 0.12017 0.22317
# Poissons Ratio (y) = 0.23981 -0.02853
# Poissons Ratio (z) = 0.47892 -0.03068
#
# Static dielectric constant tensor:
#      x y z
#    x 2.641410 0.000000 0.250670 
#    y 0.000000 9.983230 0.000000 
#    z 0.250670 0.000000 2.241940 
# 
# From -- ./inp_files/11519.got.cif
#   From: 2010.05.17/outbox.cif.g08.bks.cpg/sg14_6_cif.got.tgz:11519.got - 2010.06.03 17:49:19.
