data_PCOD9249810
_publ_section_title
;
Structure prediction by ZEFSAII (Michael W. Deem and Ramdas Pophale) SiO2 
 PCOD9249810
Probable space group: P 21/C
;
_chemical_formula_sum "Si O2"
_cell_formula_units_Z 28
_cell_length_a 19.409063
_cell_length_b 7.796869
_cell_length_c 14.661756
_cell_angle_alpha 90.000000
_cell_angle_beta 29.779568
_cell_angle_gamma 90.000000
_cell_volume 1101.980465
_symmetry_space_group_name_H-M "P 21/C"
_symmetry_group_IT_number 14
_symmetry_cell_setting 'monoclinic'
loop_
_space_group_symop_operation_xyz
x,y,z
-x,1/2+y,1/2-z
-x,-y,-z
x,1/2-y,1/2+z
loop_
_atom_site_type_symbol
_atom_site_label
_atom_site_fract_x
_atom_site_fract_y
_atom_site_fract_z
Si Si1 0.292786 0.262955 0.406072
Si Si2 0.460806 0.740236 0.627780
Si Si3 0.435165 0.622414 0.952181
Si Si4 0.165004 0.041238 0.714589
Si Si5 0.936785 0.468623 0.355981
Si Si6 0.244104 0.153342 0.250509
Si Si7 0.160836 0.899467 0.467533
O O1 0.456297 0.279832 0.235646
O O2 0.228624 0.139599 0.554279
O O3 0.202505 0.436211 0.512280
O O4 0.273938 0.208213 0.321744
O O5 0.438478 0.791262 0.547400
O O6 0.604143 0.634394 0.469616
O O7 0.499776 0.929136 0.620890
O O8 0.322094 0.637340 0.814845
O O9 0.276223 0.601744 0.110874
O O10 0.166173 0.192451 0.788688
O O11 0.023745 0.956189 0.841836
O O12 0.904034 0.283087 0.433247
O O13 0.044495 0.479572 0.149013
O O14 0.171806 0.971798 0.352151
#
# Coordination Sequence:
#
# PCOD9249810 Si02
#       7
#     4   4   4   4   4   4   4
#     4  11  22  48  67  99 145 179 228 288 339 422
#     4   9  19  39  71 100 133 177 233 280 356 395
#     4   9  20  41  67  98 135 178 224 296 335 401
#     4  11  24  42  67 105 134 177 244 273 347 410
#     4  12  25  42  68  97 140 188 221 277 356 402
#     4  10  23  43  72  99 138 179 232 292 340 409
#     4  12  22  43  68  97 138 189 222 282 350 418
#
# _framework density 25.408798000000001
#
# number of rings (size 3 to 8) (size 9 to 14) (size 15 to 20)
#    0.000    1.429    4.286    1.286    0.000    3.429 
#    5.143    0.000    0.000    0.000    0.000    0.000 
#    0.000    0.000    0.000    0.000    0.000    0.000 
#
# Total GULP energy -156280.575181 kJ/mol
# GULP energy per Si atom -5581.449114 kJ/mol
# Density = 2.535097 g / cm^3
# Si number density = 25.408798 Si / 1000 Ang^3
#
#
#
# Elastic Constant Matrix: (Units=GPa)
#
#
# Indices 1 2 3 4 5 6 
#
# 1 34.1087 -1.7523 9.5244 0.0000 1.5316 0.0000
# 2 -1.7523 48.6430 35.3450 0.0000 6.7579 0.0000
# 3 9.5244 35.3450 122.6280 0.0000 -9.0338 0.0000
# 4 0.0000 0.0000 0.0000 51.7072 0.0000 0.6085
# 5 1.5316 6.7579 -9.0338 0.0000 36.6600 0.0000
# 6 0.0000 0.0000 0.0000 0.6085 0.0000 19.4023
#
#
#
# Elastic Compliance Matrix: (Units=1/GPa)
#
#
# Indices 1 2 3 4 5 6 
#
# 1 0.030756 0.004336 -0.003862 0.000000 -0.003036 0.000000
# 2 0.004336 0.028373 -0.009078 0.000000 -0.007649 0.000000
# 3 -0.003862 -0.009078 0.011414 0.000000 0.004647 0.000000
# 4 0.000000 0.000000 0.000000 0.019347 0.000000 -0.000607
# 5 -0.003036 -0.007649 0.004647 0.000000 0.029960 0.000000
# 6 0.000000 0.000000 0.000000 -0.000607 0.000000 0.051559
#
#
# Mechanical properties :
#
#
# Convention : Reuss Voigt Hill
#
# Bulk Modulus (GPa) = 18.74984 32.40154 25.57569
# Shear Modulus (GPa) = 24.22539 32.37139 28.29839
#
# Velocity S-wave (km/s) = 3.09111 3.57322 3.34087
# Velocity P-wave (km/s) = 4.48723 5.45927 4.99694
#
# Compressibility (1/GPa) = 0.05333378
#
# Stress axis : x y z
#
# Youngs Moduli (GPa) = 32.51441 35.24455 87.61402
#
# Poissons Ratio (x) = -0.15282 0.33838
# Poissons Ratio (y) = -0.14098 0.79538
# Poissons Ratio (z) = 0.12558 0.31996
#
# Static dielectric constant tensor:
#      x y z
#    x 2.075140 0.000000 -0.011580 
#    y 0.000000 2.122410 0.000000 
#    z -0.011580 0.000000 2.026550 
# 
# From -- ./inp_files/50196.got.cif
#   From: 2010.05.17/outbox.cif.g08.bks.cpg/sg14_26_cif.got.tgz:50196.got - 2010.06.03 17:49:19.
