data_PCOD9249827
_publ_section_title
;
Structure prediction by ZEFSAII (Michael W. Deem and Ramdas Pophale) SiO2 
 PCOD9249827
Probable space group: P 21/C
;
_chemical_formula_sum "Si O2"
_cell_formula_units_Z 24
_cell_length_a 11.399500
_cell_length_b 11.162835
_cell_length_c 7.892346
_cell_angle_alpha 90.000000
_cell_angle_beta 81.453130
_cell_angle_gamma 90.000000
_cell_volume 993.153640
_symmetry_space_group_name_H-M "P 21/C"
_symmetry_group_IT_number 14
_symmetry_cell_setting 'monoclinic'
loop_
_space_group_symop_operation_xyz
x,y,z
-x,1/2+y,1/2-z
-x,-y,-z
x,1/2-y,1/2+z
loop_
_atom_site_type_symbol
_atom_site_label
_atom_site_fract_x
_atom_site_fract_y
_atom_site_fract_z
Si Si1 0.282272 0.806443 0.442707
Si Si2 0.874419 0.063599 0.071759
Si Si3 0.133445 0.006871 0.532295
Si Si4 0.335878 0.324008 0.051573
Si Si5 0.445524 0.857268 0.723114
Si Si6 0.648186 0.572746 0.574797
O O1 0.184284 0.696005 0.464758
O O2 0.209154 0.919551 0.394523
O O3 0.343453 0.859035 0.599760
O O4 0.399291 0.765991 0.316245
O O5 0.869739 0.049050 0.276975
O O6 0.777777 0.976929 0.010690
O O7 0.000000 0.000000 0.000000
O O8 0.204056 0.133047 0.524623
O O9 0.000000 0.000000 0.500000
O O10 0.349539 0.370082 0.237825
O O11 0.432691 0.375398 0.900891
O O12 0.367992 0.184050 0.043694
O O13 0.430230 0.955942 0.873001
#
# Coordination Sequence:
#
# PCOD9249827 Si02
#       6
#     4   4   4   4   4   4
#     4  11  22  46  68  99 134 178 230 282 343 413
#     4  10  24  44  67  95 137 176 229 283 329 410
#     4  11  26  44  67 102 133 187 228 280 350 398
#     4  11  23  43  69  95 140 175 223 294 338 410
#     4  11  23  43  71  96 135 179 227 282 351 409
#     4  10  23  44  60 101 131 176 225 280 345 406
#
# _framework density 24.165444000000001
#
# number of rings (size 3 to 8) (size 9 to 14) (size 15 to 20)
#    0.000    1.333    5.000    1.500    7.000    1.333 
#    3.000    4.167    0.000    0.000    0.000    0.000 
#    0.000    0.000    0.000    0.000    0.000    0.000 
#
# Total GULP energy -133733.995839 kJ/mol
# GULP energy per Si atom -5572.249827 kJ/mol
# Density = 2.411044 g / cm^3
# Si number density = 24.165444 Si / 1000 Ang^3
#
#
#
# Elastic Constant Matrix: (Units=GPa)
#
#
# Indices 1 2 3 4 5 6 
#
# 1 138.0913 41.0960 27.7910 0.0000 -9.8702 0.0000
# 2 41.0960 97.1167 7.9649 0.0000 -1.9091 0.0000
# 3 27.7910 7.9649 68.6211 0.0000 -7.6169 0.0000
# 4 0.0000 0.0000 0.0000 39.3110 0.0000 2.6299
# 5 -9.8702 -1.9091 -7.6169 0.0000 27.0598 0.0000
# 6 0.0000 0.0000 0.0000 2.6299 0.0000 38.2984
#
#
#
# Elastic Compliance Matrix: (Units=1/GPa)
#
#
# Indices 1 2 3 4 5 6 
#
# 1 0.009060 -0.003543 -0.003013 0.000000 0.002207 0.000000
# 2 -0.003543 0.011786 0.000016 0.000000 -0.000456 0.000000
# 3 -0.003013 0.000016 0.016175 0.000000 0.003455 0.000000
# 4 0.000000 0.000000 0.000000 0.025556 0.000000 -0.001755
# 5 0.002207 -0.000456 0.003455 0.000000 0.038700 0.000000
# 6 0.000000 0.000000 0.000000 -0.001755 0.000000 0.026231
#
#
# Mechanical properties :
#
#
# Convention : Reuss Voigt Hill
#
# Bulk Modulus (GPa) = 41.76997 50.83698 46.30348
# Shear Modulus (GPa) = 33.65449 36.06566 34.86007
#
# Velocity S-wave (km/s) = 3.73590 3.86741 3.80222
# Velocity P-wave (km/s) = 5.99431 6.40509 6.20310
#
# Compressibility (1/GPa) = 0.02394064
#
# Stress axis : x y z
#
# Youngs Moduli (GPa) = 110.37253 84.84625 61.82507
#
# Poissons Ratio (x) = 0.30065 0.18628
# Poissons Ratio (y) = 0.39110 -0.00101
# Poissons Ratio (z) = 0.33256 -0.00139
#
# Static dielectric constant tensor:
#      x y z
#    x 1.986930 0.000000 0.040250 
#    y 0.000000 2.032310 0.000000 
#    z 0.040250 0.000000 2.210580 
# 
# From -- ./inp_files/12349.got.cif
#   From: 2010.05.17/outbox.cif.g08.bks.cpg/sg14_7_cif.got.tgz:12349.got - 2010.06.03 17:49:19.
