data_PCOD9249480
_publ_section_title
;
Structure prediction by ZEFSAII (Michael W. Deem and Ramdas Pophale) SiO2 
 PCOD9249480
Probable space group: P 21/C
;
_chemical_formula_sum "Si O2"
_cell_formula_units_Z 20
_cell_length_a 18.575072
_cell_length_b 5.314711
_cell_length_c 17.513341
_cell_angle_alpha 90.000000
_cell_angle_beta 152.411928
_cell_angle_gamma 90.000000
_cell_volume 800.690655
_symmetry_space_group_name_H-M "P 21/C"
_symmetry_group_IT_number 14
_symmetry_cell_setting 'monoclinic'
loop_
_space_group_symop_operation_xyz
x,y,z
-x,1/2+y,1/2-z
-x,-y,-z
x,1/2-y,1/2+z
loop_
_atom_site_type_symbol
_atom_site_label
_atom_site_fract_x
_atom_site_fract_y
_atom_site_fract_z
Si Si1 0.868232 0.694651 0.398353
Si Si2 0.157729 0.921847 0.734138
Si Si3 0.897266 0.285133 0.157412
Si Si4 0.386733 0.635473 0.835413
Si Si5 0.428843 0.861564 0.720454
O O1 0.722916 0.579676 0.305318
O O2 0.000000 0.500000 0.500000
O O3 0.971370 0.888428 0.544009
O O4 0.813024 0.793652 0.263578
O O5 0.184022 0.812435 0.841325
O O6 0.266201 0.787554 0.774291
O O7 0.994566 0.543758 0.262915
O O8 0.756616 0.342892 0.968033
O O9 0.458826 0.809070 0.838260
O O10 0.500000 0.500000 0.000000
O O11 0.508296 0.627537 0.750539
#
# Coordination Sequence:
#
# PCOD9249480 Si02
#       5
#     4   4   4   4   4
#     4   9  21  39  67  98 132 167 234 287 348 401
#     4  10  23  41  70  99 137 178 237 291 345 421
#     4  12  28  46  76 107 146 192 243 296 364 425
#     4  11  25  42  71  98 136 186 237 285 349 427
#     4  12  29  50  71 105 154 191 235 299 373 430
#
# _framework density 24.978435999999999
#
# number of rings (size 3 to 8) (size 9 to 14) (size 15 to 20)
#    0.000    1.200    0.000    3.600   19.600    0.800 
#    0.000    0.000    0.000    0.000    0.000    0.000 
#    0.000    0.000    0.000    0.000    0.000    0.000 
#
# Total GULP energy -111808.563817 kJ/mol
# GULP energy per Si atom -5590.428191 kJ/mol
# Density = 2.492158 g / cm^3
# Si number density = 24.978436 Si / 1000 Ang^3
#
#
#
# Elastic Constant Matrix: (Units=GPa)
#
#
# Indices 1 2 3 4 5 6 
#
# 1 120.1306 8.4348 2.3780 0.0000 4.2969 0.0000
# 2 8.4348 93.4721 23.9246 0.0000 28.5517 0.0000
# 3 2.3780 23.9246 109.6726 0.0000 9.2041 0.0000
# 4 0.0000 0.0000 0.0000 27.7602 0.0000 11.5908
# 5 4.2969 28.5517 9.2041 0.0000 28.2051 0.0000
# 6 0.0000 0.0000 0.0000 11.5908 0.0000 44.4066
#
#
#
# Elastic Compliance Matrix: (Units=1/GPa)
#
#
# Indices 1 2 3 4 5 6 
#
# 1 0.008388 -0.000530 -0.000004 0.000000 -0.000740 0.000000
# 2 -0.000530 0.016016 -0.002188 0.000000 -0.015418 0.000000
# 3 -0.000004 -0.002188 0.009675 0.000000 -0.000941 0.000000
# 4 0.000000 0.000000 0.000000 0.040429 0.000000 -0.010552
# 5 -0.000740 -0.015418 -0.000941 0.000000 0.051482 0.000000
# 6 0.000000 0.000000 0.000000 -0.010552 0.000000 0.025274
#
#
# Mechanical properties :
#
#
# Convention : Reuss Voigt Hill
#
# Bulk Modulus (GPa) = 34.92391 43.63892 39.28142
# Shear Modulus (GPa) = 30.07497 39.31025 34.69261
#
# Velocity S-wave (km/s) = 3.47369 3.97138 3.73084
# Velocity P-wave (km/s) = 5.48641 6.20787 5.85826
#
# Compressibility (1/GPa) = 0.02863368
#
# Stress axis : x y z
#
# Youngs Moduli (GPa) = 119.21749 62.43859 103.36446
#
# Poissons Ratio (x) = 0.03308 0.00043
# Poissons Ratio (y) = 0.06315 0.22620
# Poissons Ratio (z) = 0.00050 0.13664
#
# Static dielectric constant tensor:
#      x y z
#    x 1.988920 0.000000 -0.057010 
#    y 0.000000 2.314320 0.000000 
#    z -0.057010 0.000000 2.041330 
# 
# From -- ./inp_files/59996.got.cif
#   From: 2010.05.17/outbox.cif.g08.bks.cpg/sg14_30_cif.got.tgz:59996.got - 2010.06.03 17:49:19.
