data_PCOD9249325
_publ_section_title
;
Structure prediction by ZEFSAII (Michael W. Deem and Ramdas Pophale) SiO2 
 PCOD9249325
Probable space group: P 21/C
;
_chemical_formula_sum "Si O2"
_cell_formula_units_Z 24
_cell_length_a 19.497647
_cell_length_b 5.752176
_cell_length_c 14.532521
_cell_angle_alpha 90.000000
_cell_angle_beta 138.188164
_cell_angle_gamma 90.000000
_cell_volume 1086.618162
_symmetry_space_group_name_H-M "P 21/C"
_symmetry_group_IT_number 14
_symmetry_cell_setting 'monoclinic'
loop_
_space_group_symop_operation_xyz
x,y,z
-x,1/2+y,1/2-z
-x,-y,-z
x,1/2-y,1/2+z
loop_
_atom_site_type_symbol
_atom_site_label
_atom_site_fract_x
_atom_site_fract_y
_atom_site_fract_z
Si Si1 0.792124 0.100762 0.187077
Si Si2 0.792121 0.399267 0.897171
Si Si3 0.621675 0.458117 0.020827
Si Si4 0.731923 0.750019 0.981923
Si Si5 0.941753 0.250028 0.191755
Si Si6 0.378331 0.958094 0.277475
O O1 0.823152 0.063327 0.323152
O O2 0.868286 0.271908 0.208473
O O3 0.675567 0.204511 0.071292
O O4 0.793902 0.877680 0.123799
O O5 0.793894 0.622370 0.963988
O O6 0.675565 0.295508 0.779846
O O7 0.868281 0.228138 0.028104
O O8 0.662465 0.575804 0.970160
O O9 0.500003 0.500021 0.899577
O O10 0.658124 0.553543 0.158129
O O11 0.662449 0.924220 0.854764
O O12 0.999997 0.500032 0.242748
#
# Coordination Sequence:
#
# PCOD9249325 Si02
#       6
#     4   4   4   4   4   4
#     4  11  25  46  70 102 142 185 235 301 365 434
#     4  11  25  46  70 102 142 185 235 301 365 434
#     4  10  23  40  65 102 140 183 233 286 355 439
#     4  12  21  39  68  98 138 190 229 287 350 434
#     4  12  27  49  76 110 144 190 251 307 372 442
#     4  10  23  40  65 102 140 183 233 286 355 439
#
# _framework density 22.086877000000001
#
# number of rings (size 3 to 8) (size 9 to 14) (size 15 to 20)
#    0.000    1.000    3.333    2.000    4.667    1.333 
#    0.000    5.000    0.000    0.000    0.000    0.000 
#    0.000    0.000    0.000    0.000    0.000    0.000 
#
# Total GULP energy -133748.973680 kJ/mol
# GULP energy per Si atom -5572.873903 kJ/mol
# Density = 2.203661 g / cm^3
# Si number density = 22.086877 Si / 1000 Ang^3
#
#
#
# Elastic Constant Matrix: (Units=GPa)
#
#
# Indices 1 2 3 4 5 6 
#
# 1 114.2848 41.5982 91.6424 0.0000 -37.8416 0.0000
# 2 41.5982 73.8306 40.3883 0.0000 -6.4440 0.0000
# 3 91.6424 40.3883 101.9398 0.0000 -27.8480 0.0000
# 4 0.0000 0.0000 0.0000 11.8567 0.0000 -19.9517
# 5 -37.8416 -6.4440 -27.8480 0.0000 60.9020 0.0000
# 6 0.0000 0.0000 0.0000 -19.9517 0.0000 15.6223
#
#
#
# Elastic Compliance Matrix: (Units=1/GPa)
#
#
# Indices 1 2 3 4 5 6 
#
# 1 0.035574 -0.003959 -0.027983 0.000000 0.008889 0.000000
# 2 -0.003959 0.017852 -0.004193 0.000000 -0.002489 0.000000
# 3 -0.027983 -0.004193 0.036290 0.000000 -0.001237 0.000000
# 4 0.000000 0.000000 0.000000 -0.073399 0.000000 -0.093740
# 5 0.008889 -0.002489 -0.001237 0.000000 0.021114 0.000000
# 6 0.000000 0.000000 0.000000 -0.093740 0.000000 -0.055707
#
#
# Mechanical properties :
#
#
# Convention : Reuss Voigt Hill
#
# Bulk Modulus (GPa) = 57.32808 70.81255 64.07032
# Shear Modulus (GPa) = 83.59712 25.43794 54.51753
#
# Velocity S-wave (km/s) = 6.15885 3.39738 4.97361
# Velocity P-wave (km/s) = 8.75141 6.89349 7.87742
#
# Compressibility (1/GPa) = 0.01744346
#
# Stress axis : x y z
#
# Youngs Moduli (GPa) = 28.11059 56.01589 27.55610
#
# Poissons Ratio (x) = 0.22179 0.77111
# Poissons Ratio (y) = 0.11130 0.11555
# Poissons Ratio (z) = 0.78662 0.23489
#
# Static dielectric constant tensor:
#      x y z
#    x 1.820950 0.000000 0.053400 
#    y 0.000000 1.921920 0.000000 
#    z 0.053400 0.000000 1.830980 
# 
# From -- ./inp_files/49741.got.cif
#   From: 2010.05.17/outbox.cif.g08.bks.cpg/sg14_25_cif.got.tgz:49741.got - 2010.06.03 17:49:19.
