data_PCOD9249531
_publ_section_title
;
Structure prediction by ZEFSAII (Michael W. Deem and Ramdas Pophale) SiO2 
 PCOD9249531
Probable space group: P 21/C
;
_chemical_formula_sum "Si O2"
_cell_formula_units_Z 32
_cell_length_a 11.791293
_cell_length_b 5.651460
_cell_length_c 23.009978
_cell_angle_alpha 90.000000
_cell_angle_beta 107.061928
_cell_angle_gamma 90.000000
_cell_volume 1465.854346
_symmetry_space_group_name_H-M "P 21/C"
_symmetry_group_IT_number 14
_symmetry_cell_setting 'monoclinic'
loop_
_space_group_symop_operation_xyz
x,y,z
-x,1/2+y,1/2-z
-x,-y,-z
x,1/2-y,1/2+z
loop_
_atom_site_type_symbol
_atom_site_label
_atom_site_fract_x
_atom_site_fract_y
_atom_site_fract_z
Si Si1 0.188394 0.203082 0.282168
Si Si2 0.984638 0.985524 0.318953
Si Si3 0.200451 0.852646 0.174661
Si Si4 0.327986 0.407738 0.600192
Si Si5 0.406245 0.472385 0.200670
Si Si6 0.947062 0.241448 0.061806
Si Si7 0.550646 0.679376 0.664461
Si Si8 0.856224 0.757360 0.510741
O O1 0.099042 0.406646 0.246763
O O2 0.310012 0.308451 0.326072
O O3 0.212588 0.041342 0.228764
O O4 0.114269 0.046370 0.315624
O O5 0.989427 0.777753 0.366814
O O6 0.922263 0.212526 0.338007
O O7 0.305713 0.663345 0.199118
O O8 0.225200 0.923009 0.111206
O O9 0.344513 0.239665 0.658109
O O10 0.453558 0.541656 0.611665
O O11 0.272854 0.272130 0.537995
O O12 0.461663 0.416781 0.271092
O O13 0.501637 0.558108 0.167745
O O14 0.870904 0.485517 0.042830
O O15 0.881105 0.988932 0.048715
O O16 0.045444 0.253829 0.025961
#
# Coordination Sequence:
#
# PCOD9249531 Si02
#       8
#     4   4   4   4   4   4   4   4
#     4  12  24  40  59  89 129 168 214 246 327 401
#     4  12  25  40  63  90 128 173 209 266 315 396
#     4  11  21  35  58  88 125 162 202 253 312 399
#     4  11  23  36  63  88 130 163 207 266 331 382
#     4  11  19  33  55  88 123 158 195 258 320 381
#     4  10  24  40  66  94 131 164 225 274 331 380
#     4  11  21  34  56  91 122 163 206 255 319 394
#     4  10  23  42  64  96 124 172 216 280 332 389
#
# _framework density 21.830271
#
# number of rings (size 3 to 8) (size 9 to 14) (size 15 to 20)
#    0.000    1.000    5.000    2.250   10.500    0.000 
#    0.000    0.000    0.000    1.500    0.000    0.000 
#    0.000    0.000    0.000    0.000    0.000    0.000 
#
# Total GULP energy -178678.250224 kJ/mol
# GULP energy per Si atom -5583.695319 kJ/mol
# Density = 2.178058 g / cm^3
# Si number density = 21.830271 Si / 1000 Ang^3
#
#
#
# Elastic Constant Matrix: (Units=GPa)
#
#
# Indices 1 2 3 4 5 6 
#
# 1 98.8440 26.4899 20.6289 0.0000 15.3935 0.0000
# 2 26.4899 77.0039 19.4411 0.0000 9.9179 0.0000
# 3 20.6289 19.4411 47.6450 0.0000 17.6787 0.0000
# 4 0.0000 0.0000 0.0000 9.5777 0.0000 -0.7103
# 5 15.3935 9.9179 17.6787 0.0000 21.8247 0.0000
# 6 0.0000 0.0000 0.0000 -0.7103 0.0000 5.2953
#
#
#
# Elastic Compliance Matrix: (Units=1/GPa)
#
#
# Indices 1 2 3 4 5 6 
#
# 1 0.012207 -0.002972 -0.001971 0.000000 -0.005662 0.000000
# 2 -0.002972 0.015303 -0.004510 0.000000 -0.001204 0.000000
# 3 -0.001971 -0.004510 0.032035 0.000000 -0.022509 0.000000
# 4 0.000000 0.000000 0.000000 0.105458 0.000000 0.014145
# 5 -0.005662 -0.001204 -0.022509 0.000000 0.068593 0.000000
# 6 0.000000 0.000000 0.000000 0.014145 0.000000 0.190745
#
#
# Mechanical properties :
#
#
# Convention : Reuss Voigt Hill
#
# Bulk Modulus (GPa) = 24.60893 39.62364 32.11629
# Shear Modulus (GPa) = 10.94588 17.80175 14.37381
#
# Velocity S-wave (km/s) = 2.24164 2.85873 2.56878
# Velocity P-wave (km/s) = 4.24232 5.39320 4.85200
#
# Compressibility (1/GPa) = 0.04063566
#
# Stress axis : x y z
#
# Youngs Moduli (GPa) = 81.92206 65.34817 31.21632
#
# Poissons Ratio (x) = 0.19423 0.06154
# Poissons Ratio (y) = 0.24349 0.14080
# Poissons Ratio (z) = 0.16151 0.29475
#
# Static dielectric constant tensor:
#      x y z
#    x 1.838860 0.000000 0.035180 
#    y 0.000000 1.919970 0.000000 
#    z 0.035180 0.000000 1.801460 
# 
# From -- ./inp_files/72835.got.cif
#   From: 2010.05.17/outbox.cif.g08.bks.cpg/sg14_37_cif.got.tgz:72835.got - 2010.06.03 17:49:19.
