data_PCOD9249919
_publ_section_title
;
Structure prediction by ZEFSAII (Michael W. Deem and Ramdas Pophale) SiO2 
 PCOD9249919
Probable space group: P 21/C
;
_chemical_formula_sum "Si O2"
_cell_formula_units_Z 32
_cell_length_a 14.368723
_cell_length_b 10.746998
_cell_length_c 9.552555
_cell_angle_alpha 90.000000
_cell_angle_beta 107.434774
_cell_angle_gamma 90.000000
_cell_volume 1407.343024
_symmetry_space_group_name_H-M "P 21/C"
_symmetry_group_IT_number 14
_symmetry_cell_setting 'monoclinic'
loop_
_space_group_symop_operation_xyz
x,y,z
-x,1/2+y,1/2-z
-x,-y,-z
x,1/2-y,1/2+z
loop_
_atom_site_type_symbol
_atom_site_label
_atom_site_fract_x
_atom_site_fract_y
_atom_site_fract_z
Si Si1 0.920181 0.684667 0.211285
Si Si2 0.770665 0.113271 0.321857
Si Si3 0.415053 0.016255 0.067872
Si Si4 0.051774 0.763272 0.517191
Si Si5 0.675761 0.252216 0.536344
Si Si6 0.180737 0.978442 0.163124
Si Si7 0.765633 0.890832 0.107309
Si Si8 0.587754 0.456148 0.138530
O O1 0.887143 0.553376 0.259153
O O2 0.826286 0.772812 0.179088
O O3 0.008015 0.733139 0.347899
O O4 0.961501 0.702978 0.075476
O O5 0.876362 0.120473 0.437825
O O6 0.702616 0.161175 0.419398
O O7 0.759555 0.207727 0.184003
O O8 0.756743 0.982716 0.237369
O O9 0.451048 0.019996 0.239128
O O10 0.356502 0.884557 0.038821
O O11 0.500000 0.000000 0.000000
O O12 0.345184 0.127916 0.991858
O O13 0.121166 0.647429 0.596318
O O14 0.595249 0.188840 0.598653
O O15 0.291213 0.977622 0.284024
O O16 0.188193 0.048385 0.014281
O O17 0.500000 0.500000 0.000000
#
# Coordination Sequence:
#
# PCOD9249919 Si02
#       8
#     4   4   4   4   4   4   4   4
#     4  12  26  42  68 103 137 189 232 278 359 430
#     4  11  22  41  71  97 136 182 232 289 334 404
#     4  10  23  44  70  96 140 184 223 286 359 410
#     4  12  24  42  71  98 134 188 234 278 349 420
#     4  11  21  43  66 103 135 177 235 286 339 409
#     4  11  24  51  66  95 155 182 227 301 360 415
#     4  10  24  45  67  97 141 181 227 289 361 408
#     4  11  25  42  72 103 130 184 238 285 349 418
#
# _framework density 22.737881999999999
#
# number of rings (size 3 to 8) (size 9 to 14) (size 15 to 20)
#    0.000    1.000    3.750    3.375    5.250    2.500 
#    0.000    2.500    0.000    0.000    0.000    0.000 
#    0.000    0.000    0.000    0.000    0.000    0.000 
#
# Total GULP energy -178182.039896 kJ/mol
# GULP energy per Si atom -5568.188747 kJ/mol
# Density = 2.268613 g / cm^3
# Si number density = 22.737882 Si / 1000 Ang^3
#
#
#
# Elastic Constant Matrix: (Units=GPa)
#
#
# Indices 1 2 3 4 5 6 
#
# 1 64.8981 -9.4854 23.8368 0.0000 -3.0549 0.0000
# 2 -9.4854 15.0542 16.1619 0.0000 6.8265 0.0000
# 3 23.8368 16.1619 96.5476 0.0000 32.1064 0.0000
# 4 0.0000 0.0000 0.0000 24.4589 0.0000 -1.2211
# 5 -3.0549 6.8265 32.1064 0.0000 34.1906 0.0000
# 6 0.0000 0.0000 0.0000 -1.2211 0.0000 5.3131
#
#
#
# Elastic Compliance Matrix: (Units=1/GPa)
#
#
# Indices 1 2 3 4 5 6 
#
# 1 0.024676 0.025760 -0.013708 0.000000 0.009934 0.000000
# 2 0.025760 0.108464 -0.026290 0.000000 0.005333 0.000000
# 3 -0.013708 -0.026290 0.024435 0.000000 -0.018921 0.000000
# 4 0.000000 0.000000 0.000000 0.041359 0.000000 0.009506
# 5 0.009934 0.005333 -0.018921 0.000000 0.046838 0.000000
# 6 0.000000 0.000000 0.000000 0.009506 0.000000 0.190398
#
#
# Mechanical properties :
#
#
# Convention : Reuss Voigt Hill
#
# Bulk Modulus (GPa) = 7.74600 26.39185 17.06892
# Shear Modulus (GPa) = 9.84873 22.52497 16.18685
#
# Velocity S-wave (km/s) = 2.08346 3.15085 2.67102
# Velocity P-wave (km/s) = 3.03345 4.98692 4.12742
#
# Compressibility (1/GPa) = 0.12909890
#
# Stress axis : x y z
#
# Youngs Moduli (GPa) = 40.52466 9.21969 40.92493
#
# Poissons Ratio (x) = -0.23750 0.56100
# Poissons Ratio (y) = -1.04392 1.07592
# Poissons Ratio (z) = 0.55551 0.24239
#
# Static dielectric constant tensor:
#      x y z
#    x 1.918780 0.000000 -0.015300 
#    y 0.000000 3.720990 0.000000 
#    z -0.015300 0.000000 1.876970 
# 
# From -- ./inp_files/15836.got.cif
#   From: 2010.05.17/outbox.cif.g08.bks.cpg/sg14_8_cif.got.tgz:15836.got - 2010.06.03 17:49:19.
