data_PCOD9249968
_publ_section_title
;
Structure prediction by ZEFSAII (Michael W. Deem and Ramdas Pophale) SiO2 
 PCOD9249968
Probable space group: P 21/C
;
_chemical_formula_sum "Si O2"
_cell_formula_units_Z 24
_cell_length_a 5.220806
_cell_length_b 8.177498
_cell_length_c 24.689262
_cell_angle_alpha 90.000000
_cell_angle_beta 111.618553
_cell_angle_gamma 90.000000
_cell_volume 979.916259
_symmetry_space_group_name_H-M "P 21/C"
_symmetry_group_IT_number 14
_symmetry_cell_setting 'monoclinic'
loop_
_space_group_symop_operation_xyz
x,y,z
-x,1/2+y,1/2-z
-x,-y,-z
x,1/2-y,1/2+z
loop_
_atom_site_type_symbol
_atom_site_label
_atom_site_fract_x
_atom_site_fract_y
_atom_site_fract_z
Si Si1 0.650847 0.858149 0.932859
Si Si2 0.876996 0.386425 0.913260
Si Si3 0.222559 0.113241 0.889462
Si Si4 0.442209 0.258376 0.803056
Si Si5 0.782309 0.192819 0.523954
Si Si6 0.730159 0.906886 0.821396
O O1 0.474693 0.751068 0.960807
O O2 0.606939 0.820848 0.865222
O O3 0.975723 0.828204 0.964719
O O4 0.519663 0.040030 0.928765
O O5 0.666332 0.380935 0.846696
O O6 0.064898 0.225059 0.919706
O O7 0.065911 0.544971 0.932650
O O8 0.720341 0.373677 0.958756
O O9 0.238655 0.221992 0.836765
O O10 0.041840 0.954758 0.860432
O O11 0.306414 0.316149 0.737496
O O12 0.585647 0.083511 0.804741
#
# Coordination Sequence:
#
# PCOD9249968 Si02
#       6
#     4   4   4   4   4   4
#     4  11  24  46  71 106 133 189 233 289 344 428
#     4  10  26  45  66 110 137 189 231 300 348 421
#     4  10  23  45  67 106 142 178 243 283 357 418
#     4  10  24  43  70  98 143 180 233 289 350 416
#     4  11  26  45  76 100 148 182 240 286 356 420
#     4  10  23  45  65 105 137 183 233 289 349 420
#
# _framework density 24.491890000000001
#
# number of rings (size 3 to 8) (size 9 to 14) (size 15 to 20)
#    0.000    1.667    1.667    0.000    7.000    8.000 
#    0.000    0.000    0.000    0.000    0.000    0.000 
#    0.000    0.000    0.000    0.000    0.000    0.000 
#
# Total GULP energy -134339.461158 kJ/mol
# GULP energy per Si atom -5597.477548 kJ/mol
# Density = 2.443615 g / cm^3
# Si number density = 24.491890 Si / 1000 Ang^3
#
#
#
# Elastic Constant Matrix: (Units=GPa)
#
#
# Indices 1 2 3 4 5 6 
#
# 1 137.6266 31.9205 64.3061 0.0000 -7.0193 0.0000
# 2 31.9205 48.0324 35.7509 0.0000 -0.3746 0.0000
# 3 64.3061 35.7509 145.5282 0.0000 -15.8629 0.0000
# 4 0.0000 0.0000 0.0000 45.6583 0.0000 -0.0879
# 5 -7.0193 -0.3746 -15.8629 0.0000 31.3181 0.0000
# 6 0.0000 0.0000 0.0000 -0.0879 0.0000 40.6405
#
#
#
# Elastic Compliance Matrix: (Units=1/GPa)
#
#
# Indices 1 2 3 4 5 6 
#
# 1 0.009755 -0.004051 -0.003262 0.000000 0.000485 0.000000
# 2 -0.004051 0.027435 -0.005306 0.000000 -0.003267 0.000000
# 3 -0.003262 -0.005306 0.010087 0.000000 0.004314 0.000000
# 4 0.000000 0.000000 0.000000 0.021902 0.000000 0.000047
# 5 0.000485 -0.003267 0.004314 0.000000 0.034185 0.000000
# 6 0.000000 0.000000 0.000000 0.000047 0.000000 0.024606
#
#
# Mechanical properties :
#
#
# Convention : Reuss Voigt Hill
#
# Bulk Modulus (GPa) = 45.37506 66.12690 55.75098
# Shear Modulus (GPa) = 31.14215 36.80401 33.97308
#
# Velocity S-wave (km/s) = 3.56972 3.88068 3.72844
# Velocity P-wave (km/s) = 5.96300 6.86569 6.43020
#
# Compressibility (1/GPa) = 0.02203854
#
# Stress axis : x y z
#
# Youngs Moduli (GPa) = 102.51556 36.44983 99.13858
#
# Poissons Ratio (x) = 0.14764 0.32343
# Poissons Ratio (y) = 0.41524 0.52603
# Poissons Ratio (z) = 0.33445 0.19340
#
# Static dielectric constant tensor:
#      x y z
#    x 1.992110 0.000000 0.036840 
#    y 0.000000 1.981230 0.000000 
#    z 0.036840 0.000000 1.913700 
# 
# From -- ./inp_files/71076.got.cif
#   From: 2010.05.17/outbox.cif.g08.bks.cpg/sg14_36_cif.got.tgz:71076.got - 2010.06.03 17:49:19.
