data_PCOD9249499
_publ_section_title
;
Structure prediction by ZEFSAII (Michael W. Deem and Ramdas Pophale) SiO2 
 PCOD9249499
Probable space group: P 21/C
;
_chemical_formula_sum "Si O2"
_cell_formula_units_Z 20
_cell_length_a 19.411430
_cell_length_b 5.264031
_cell_length_c 9.306334
_cell_angle_alpha 90.000000
_cell_angle_beta 66.137985
_cell_angle_gamma 90.000000
_cell_volume 869.658861
_symmetry_space_group_name_H-M "P 21/C"
_symmetry_group_IT_number 14
_symmetry_cell_setting 'monoclinic'
loop_
_space_group_symop_operation_xyz
x,y,z
-x,1/2+y,1/2-z
-x,-y,-z
x,1/2-y,1/2+z
loop_
_atom_site_type_symbol
_atom_site_label
_atom_site_fract_x
_atom_site_fract_y
_atom_site_fract_z
Si Si1 0.040844 0.212415 0.066055
Si Si2 0.110470 0.841980 0.313275
Si Si3 0.354086 0.485116 0.277989
Si Si4 0.816907 0.008386 0.999371
Si Si5 0.409914 0.988551 0.061015
O O1 0.964332 0.276170 0.218230
O O2 0.075878 0.420000 0.927750
O O3 0.116269 0.187478 0.097977
O O4 0.000000 0.000000 0.000000
O O5 0.140179 0.656476 0.412166
O O6 0.183680 0.847475 0.150053
O O7 0.264908 0.443118 0.378902
O O8 0.375572 0.739192 0.169809
O O9 0.389014 0.506414 0.409188
O O10 0.381188 0.240845 0.166245
O O11 0.500000 0.000000 0.000000
#
# Coordination Sequence:
#
# PCOD9249499 Si02
#       5
#     4   4   4   4   4
#     4   9  22  39  61  90 128 183 233 281 342 404
#     4  10  23  42  62  91 131 181 235 283 342 411
#     4  12  27  46  78 113 151 192 243 304 376 440
#     4  11  25  39  66  94 137 174 230 290 353 408
#     4  12  26  52  79 113 148 194 241 299 370 463
#
# _framework density 22.997523000000001
#
# number of rings (size 3 to 8) (size 9 to 14) (size 15 to 20)
#    0.000    1.200    0.000    4.200   14.000    1.600 
#    0.000    0.000    0.000    0.000    0.000    0.000 
#    0.000    0.000    0.000    0.000    0.000    0.000 
#
# Total GULP energy -111346.727117 kJ/mol
# GULP energy per Si atom -5567.336356 kJ/mol
# Density = 2.294518 g / cm^3
# Si number density = 22.997523 Si / 1000 Ang^3
#
#
#
# Elastic Constant Matrix: (Units=GPa)
#
#
# Indices 1 2 3 4 5 6 
#
# 1 89.6934 32.8985 16.6199 0.0000 -16.6305 0.0000
# 2 32.8985 70.9272 19.5809 0.0000 -1.3307 0.0000
# 3 16.6199 19.5809 103.2062 0.0000 -2.7807 0.0000
# 4 0.0000 0.0000 0.0000 42.3495 0.0000 -6.9069
# 5 -16.6305 -1.3307 -2.7807 0.0000 61.8636 0.0000
# 6 0.0000 0.0000 0.0000 -6.9069 0.0000 20.4031
#
#
#
# Elastic Compliance Matrix: (Units=1/GPa)
#
#
# Indices 1 2 3 4 5 6 
#
# 1 0.014327 -0.006297 -0.001014 0.000000 0.003670 0.000000
# 2 -0.006297 0.017648 -0.002373 0.000000 -0.001420 0.000000
# 3 -0.001014 -0.002373 0.010306 0.000000 0.000140 0.000000
# 4 0.000000 0.000000 0.000000 0.024993 0.000000 0.008461
# 5 0.003670 -0.001420 0.000140 0.000000 0.017127 0.000000
# 6 0.000000 0.000000 0.000000 0.008461 0.000000 0.051876
#
#
# Mechanical properties :
#
#
# Convention : Reuss Voigt Hill
#
# Bulk Modulus (GPa) = 43.63812 44.66949 44.15381
# Shear Modulus (GPa) = 30.62190 37.90508 34.26349
#
# Velocity S-wave (km/s) = 3.65297 4.06424 3.86408
# Velocity P-wave (km/s) = 6.06701 6.44126 6.25693
#
# Compressibility (1/GPa) = 0.02291574
#
# Stress axis : x y z
#
# Youngs Moduli (GPa) = 69.79816 56.66384 97.02647
#
# Poissons Ratio (x) = 0.35679 0.09835
# Poissons Ratio (y) = 0.43950 0.23020
# Poissons Ratio (z) = 0.07075 0.13444
#
# Static dielectric constant tensor:
#      x y z
#    x 1.914670 0.000000 0.170930 
#    y 0.000000 2.842540 0.000000 
#    z 0.170930 0.000000 1.708640 
# 
# From -- ./inp_files/18333.got.cif
#   From: 2010.05.17/outbox.cif.g08.bks.cpg/sg14_10_cif.got.tgz:18333.got - 2010.06.03 17:49:19.
