data_PCOD9249626
_publ_section_title
;
Structure prediction by ZEFSAII (Michael W. Deem and Ramdas Pophale) SiO2 
 PCOD9249626
Probable space group: P 21/C
;
_chemical_formula_sum "Si O2"
_cell_formula_units_Z 22
_cell_length_a 4.868732
_cell_length_b 12.536514
_cell_length_c 14.467753
_cell_angle_alpha 90.000000
_cell_angle_beta 72.579952
_cell_angle_gamma 90.000000
_cell_volume 842.565866
_symmetry_space_group_name_H-M "P 21/C"
_symmetry_group_IT_number 14
_symmetry_cell_setting 'monoclinic'
loop_
_space_group_symop_operation_xyz
x,y,z
-x,1/2+y,1/2-z
-x,-y,-z
x,1/2-y,1/2+z
loop_
_atom_site_type_symbol
_atom_site_label
_atom_site_fract_x
_atom_site_fract_y
_atom_site_fract_z
Si Si1 0.863017 0.876297 0.832780
Si Si2 0.369058 0.131966 0.537005
Si Si3 0.790952 0.780095 0.092905
Si Si4 0.000000 0.000000 0.000000
Si Si5 0.106689 0.560872 0.122874
Si Si6 0.607112 0.267313 0.193499
O O1 0.020750 0.944995 0.737362
O O2 0.067637 0.770497 0.821010
O O3 0.854612 0.944501 0.924783
O O4 0.553988 0.841317 0.824852
O O5 0.328681 0.246711 0.494953
O O6 0.560468 0.079798 0.435828
O O7 0.528643 0.152078 0.618349
O O8 0.090449 0.057017 0.580249
O O9 0.548864 0.799244 0.195390
O O10 0.958494 0.670553 0.103893
O O11 0.978929 0.883972 0.059000
#
# Coordination Sequence:
#
# PCOD9249626 Si02
#       6
#     4   4   4   2   4   4
#     4  11  24  45  67 104 140 187 226 297 351 429
#     4  11  21  42  69  98 129 191 231 299 338 434
#     4  11  23  44  66 102 141 185 232 300 354 436
#     4  12  24  44  70 108 148 188 236 298 370 422
#     4  10  23  42  69  97 136 183 245 284 357 420
#     4  11  24  45  71 100 145 178 240 285 358 417
#
# _framework density 26.110716
#
# number of rings (size 3 to 8) (size 9 to 14) (size 15 to 20)
#    0.000    1.091    3.636    2.727    0.000    0.727 
#    3.273    3.636    0.000    0.000    0.000    0.000 
#    0.000    0.000    0.000    0.000    0.000    0.000 
#
# Total GULP energy -122481.817245 kJ/mol
# GULP energy per Si atom -5567.355329 kJ/mol
# Density = 2.605129 g / cm^3
# Si number density = 26.110716 Si / 1000 Ang^3
#
#
#
# Elastic Constant Matrix: (Units=GPa)
#
#
# Indices 1 2 3 4 5 6 
#
# 1 67.2703 9.7183 4.6586 0.0000 2.4731 0.0000
# 2 9.7183 103.8550 5.6481 0.0000 6.0485 0.0000
# 3 4.6586 5.6481 113.1828 0.0000 7.7054 0.0000
# 4 0.0000 0.0000 0.0000 51.1837 0.0000 14.0833
# 5 2.4731 6.0485 7.7054 0.0000 17.9838 0.0000
# 6 0.0000 0.0000 0.0000 14.0833 0.0000 18.0618
#
#
#
# Elastic Compliance Matrix: (Units=1/GPa)
#
#
# Indices 1 2 3 4 5 6 
#
# 1 0.015139 -0.001307 -0.000459 0.000000 -0.001445 0.000000
# 2 -0.001307 0.009942 -0.000234 0.000000 -0.003064 0.000000
# 3 -0.000459 -0.000234 0.009122 0.000000 -0.003767 0.000000
# 4 0.000000 0.000000 0.000000 0.024874 0.000000 -0.019395
# 5 -0.001445 -0.003064 -0.003767 0.000000 0.058449 0.000000
# 6 0.000000 0.000000 0.000000 -0.019395 0.000000 0.070488
#
#
# Mechanical properties :
#
#
# Convention : Reuss Voigt Hill
#
# Bulk Modulus (GPa) = 33.10997 36.03979 34.57488
# Shear Modulus (GPa) = 24.74222 35.06474 29.90348
#
# Velocity S-wave (km/s) = 3.08163 3.66857 3.38784
# Velocity P-wave (km/s) = 5.03687 5.63713 5.34543
#
# Compressibility (1/GPa) = 0.03020239
#
# Stress axis : x y z
#
# Youngs Moduli (GPa) = 66.05351 100.58021 109.62174
#
# Poissons Ratio (x) = 0.13151 0.05037
# Poissons Ratio (y) = 0.08636 0.02562
# Poissons Ratio (z) = 0.03035 0.02351
#
# Static dielectric constant tensor:
#      x y z
#    x 2.068210 0.000000 -0.024880 
#    y 0.000000 2.183910 0.000000 
#    z -0.024880 0.000000 2.077020 
# 
# From -- ./inp_files/36983.got.cif
#   From: 2010.05.17/outbox.cif.g08.bks.cpg/sg14_19_cif.got.tgz:36983.got - 2010.06.03 17:49:19.
