data_PCOD9249874
_publ_section_title
;
Structure prediction by ZEFSAII (Michael W. Deem and Ramdas Pophale) SiO2 
 PCOD9249874
Probable space group: P 21/C
;
_chemical_formula_sum "Si O2"
_cell_formula_units_Z 20
_cell_length_a 7.702373
_cell_length_b 8.091736
_cell_length_c 24.044185
_cell_angle_alpha 90.000000
_cell_angle_beta 30.050820
_cell_angle_gamma 90.000000
_cell_volume 750.434575
_symmetry_space_group_name_H-M "P 21/C"
_symmetry_group_IT_number 14
_symmetry_cell_setting 'monoclinic'
loop_
_space_group_symop_operation_xyz
x,y,z
-x,1/2+y,1/2-z
-x,-y,-z
x,1/2-y,1/2+z
loop_
_atom_site_type_symbol
_atom_site_label
_atom_site_fract_x
_atom_site_fract_y
_atom_site_fract_z
Si Si1 0.221081 0.678469 0.309260
Si Si2 0.436482 0.032610 0.847539
Si Si3 0.422089 0.006681 0.388696
Si Si4 0.299758 0.827889 0.975526
Si Si5 0.476962 0.687713 0.031420
O O1 0.372934 0.630491 0.327259
O O2 0.385186 0.545160 0.221831
O O3 0.812618 0.695945 0.429744
O O4 0.305886 0.854073 0.257978
O O5 0.517838 0.977384 0.887735
O O6 0.078551 0.136507 0.945063
O O7 0.548523 0.147826 0.396642
O O8 0.492725 0.831653 0.397652
O O9 0.000000 0.000000 0.500000
O O10 0.220653 0.785797 0.061603
O O11 0.500000 0.500000 0.000000
#
# Coordination Sequence:
#
# PCOD9249874 Si02
#       5
#     4   4   4   4   4
#     4  12  25  42  72 104 135 197 247 295 377 454
#     4  11  24  42  70 102 137 192 253 294 371 458
#     4  11  21  46  71  99 144 191 242 300 367 444
#     4  10  23  44  67  97 143 185 232 316 365 434
#     4  10  25  45  68 102 145 184 237 313 375 429
#
# _framework density 26.651223000000002
#
# number of rings (size 3 to 8) (size 9 to 14) (size 15 to 20)
#    0.000    1.200    2.000    3.600    5.600    4.000 
#    7.200    0.000    0.000    0.000    0.000    0.000 
#    0.000    0.000    0.000    0.000    0.000    0.000 
#
# Total GULP energy -111762.698030 kJ/mol
# GULP energy per Si atom -5588.134902 kJ/mol
# Density = 2.659056 g / cm^3
# Si number density = 26.651223 Si / 1000 Ang^3
#
#
#
# Elastic Constant Matrix: (Units=GPa)
#
#
# Indices 1 2 3 4 5 6 
#
# 1 111.7095 41.3982 30.4815 0.0000 45.9782 0.0000
# 2 41.3982 121.5953 27.9546 0.0000 11.2053 0.0000
# 3 30.4815 27.9546 91.4975 0.0000 29.5664 0.0000
# 4 0.0000 0.0000 0.0000 58.7990 0.0000 21.9799
# 5 45.9782 11.2053 29.5664 0.0000 35.3805 0.0000
# 6 0.0000 0.0000 0.0000 21.9799 0.0000 51.7098
#
#
#
# Elastic Compliance Matrix: (Units=1/GPa)
#
#
# Indices 1 2 3 4 5 6 
#
# 1 0.022967 -0.005911 0.004376 0.000000 -0.031632 0.000000
# 2 -0.005911 0.010381 -0.003592 0.000000 0.007395 0.000000
# 3 0.004376 -0.003592 0.016493 0.000000 -0.018331 0.000000
# 4 0.000000 0.000000 0.000000 0.020220 0.000000 -0.008595
# 5 -0.031632 0.007395 -0.018331 0.000000 0.082348 0.000000
# 6 0.000000 0.000000 0.000000 -0.008595 0.000000 0.022992
#
#
# Mechanical properties :
#
#
# Convention : Reuss Voigt Hill
#
# Bulk Modulus (GPa) = 25.26076 58.27454 41.76765
# Shear Modulus (GPa) = 25.14464 44.17572 34.66018
#
# Velocity S-wave (km/s) = 3.07493 4.07572 3.61017
# Velocity P-wave (km/s) = 4.70168 6.63790 5.75185
#
# Compressibility (1/GPa) = 0.03958709
#
# Stress axis : x y z
#
# Youngs Moduli (GPa) = 43.53991 96.33307 60.63354
#
# Poissons Ratio (x) = 0.56938 -0.26533
# Poissons Ratio (y) = 0.25734 0.21781
# Poissons Ratio (z) = -0.19053 0.34605
#
# Static dielectric constant tensor:
#      x y z
#    x 2.193820 0.000000 0.021050 
#    y 0.000000 2.156170 0.000000 
#    z 0.021050 0.000000 2.155750 
# 
# From -- ./inp_files/76251.got.cif
#   From: 2010.05.17/outbox.cif.g08.bks.cpg/sg14_39_cif.got.tgz:76251.got - 2010.06.03 17:49:19.
