data_PCOD9249332
_publ_section_title
;
Structure prediction by ZEFSAII (Michael W. Deem and Ramdas Pophale) SiO2 
 PCOD9249332
Probable space group: P 21/C
;
_chemical_formula_sum "Si O2"
_cell_formula_units_Z 24
_cell_length_a 14.500059
_cell_length_b 8.498403
_cell_length_c 15.205727
_cell_angle_alpha 90.000000
_cell_angle_beta 37.742420
_cell_angle_gamma 90.000000
_cell_volume 1146.953072
_symmetry_space_group_name_H-M "P 21/C"
_symmetry_group_IT_number 14
_symmetry_cell_setting 'monoclinic'
loop_
_space_group_symop_operation_xyz
x,y,z
-x,1/2+y,1/2-z
-x,-y,-z
x,1/2-y,1/2+z
loop_
_atom_site_type_symbol
_atom_site_label
_atom_site_fract_x
_atom_site_fract_y
_atom_site_fract_z
Si Si1 0.781871 0.963718 0.119258
Si Si2 0.898691 0.101508 0.198890
Si Si3 0.867980 0.029408 0.736973
Si Si4 0.185448 0.928293 0.546484
Si Si5 0.350018 0.595609 0.444002
Si Si6 0.302563 0.388086 0.795949
O O1 0.760754 0.786715 0.167168
O O2 0.790661 0.075227 0.197014
O O3 0.655484 0.002782 0.143464
O O4 0.941686 0.973691 0.947891
O O5 0.919514 0.287796 0.198934
O O6 0.833167 0.026626 0.337108
O O7 0.783547 0.994401 0.710010
O O8 0.753059 0.012740 0.904694
O O9 0.013966 0.920518 0.639841
O O10 0.274284 0.764141 0.479854
O O11 0.266910 0.049634 0.420613
O O12 0.518611 0.611771 0.351559
#
# Coordination Sequence:
#
# PCOD9249332 Si02
#       6
#     4   4   4   4   4   4
#     4  11  23  39  65  95 128 163 214 263 318 371
#     4  10  23  40  65  97 121 164 219 270 303 371
#     4  11  23  43  67  94 126 173 217 262 313 385
#     4  11  23  43  68  95 126 170 221 260 316 383
#     4  11  25  44  64  95 135 168 210 268 324 381
#     4  12  25  41  66  98 132 170 207 266 332 378
#
# _framework density 20.925006
#
# number of rings (size 3 to 8) (size 9 to 14) (size 15 to 20)
#    0.000    1.000    3.333    3.000    4.667    1.333 
#    0.000    9.167    0.000    0.000    0.000    0.000 
#    0.000    0.000    0.000    0.000    0.000    0.000 
#
# Total GULP energy -134206.466966 kJ/mol
# GULP energy per Si atom -5591.936124 kJ/mol
# Density = 2.087738 g / cm^3
# Si number density = 20.925006 Si / 1000 Ang^3
#
#
#
# Elastic Constant Matrix: (Units=GPa)
#
#
# Indices 1 2 3 4 5 6 
#
# 1 78.0032 2.7010 43.5095 0.0000 16.8410 0.0000
# 2 2.7010 26.4000 11.6449 0.0000 2.8193 0.0000
# 3 43.5095 11.6449 81.2297 0.0000 -11.4859 0.0000
# 4 0.0000 0.0000 0.0000 11.5644 0.0000 7.9338
# 5 16.8410 2.8193 -11.4859 0.0000 33.1227 0.0000
# 6 0.0000 0.0000 0.0000 7.9338 0.0000 21.8756
#
#
#
# Elastic Compliance Matrix: (Units=1/GPa)
#
#
# Indices 1 2 3 4 5 6 
#
# 1 0.027780 0.007835 -0.019028 0.000000 -0.021390 0.000000
# 2 0.007835 0.043708 -0.012148 0.000000 -0.011917 0.000000
# 3 -0.019028 -0.012148 0.027087 0.000000 0.020101 0.000000
# 4 0.000000 0.000000 0.000000 0.115115 0.000000 -0.041749
# 5 -0.021390 -0.011917 0.020101 0.000000 0.049051 0.000000
# 6 0.000000 0.000000 0.000000 -0.041749 0.000000 0.060854
#
#
# Mechanical properties :
#
#
# Convention : Reuss Voigt Hill
#
# Bulk Modulus (GPa) = 19.26996 33.48264 26.37630
# Shear Modulus (GPa) = 12.90074 21.83105 17.36589
#
# Velocity S-wave (km/s) = 2.48568 3.23352 2.88394
# Velocity P-wave (km/s) = 4.17938 5.47511 4.87053
#
# Compressibility (1/GPa) = 0.05189424
#
# Stress axis : x y z
#
# Youngs Moduli (GPa) = 35.99648 22.87907 36.91855
#
# Poissons Ratio (x) = -0.17926 0.70249
# Poissons Ratio (y) = -0.28204 0.44848
# Poissons Ratio (z) = 0.68494 0.27793
#
# Static dielectric constant tensor:
#      x y z
#    x 1.734580 0.000000 0.007310 
#    y 0.000000 1.721780 0.000000 
#    z 0.007310 0.000000 1.746940 
# 
# From -- ./inp_files/46344.got.cif
#   From: 2010.05.17/outbox.cif.g08.bks.cpg/sg14_24_cif.got.tgz:46344.got - 2010.06.03 17:49:19.
