data_PCOD9249137
_publ_section_title
;
Structure prediction by ZEFSAII (Michael W. Deem and Ramdas Pophale) SiO2 
 PCOD9249137
Probable space group: P 21/C
;
_chemical_formula_sum "Si O2"
_cell_formula_units_Z 28
_cell_length_a 9.005827
_cell_length_b 26.525919
_cell_length_c 6.182327
_cell_angle_alpha 90.000000
_cell_angle_beta 122.729109
_cell_angle_gamma 90.000000
_cell_volume 1242.407222
_symmetry_space_group_name_H-M "P 21/C"
_symmetry_group_IT_number 14
_symmetry_cell_setting 'monoclinic'
loop_
_space_group_symop_operation_xyz
x,y,z
-x,1/2+y,1/2-z
-x,-y,-z
x,1/2-y,1/2+z
loop_
_atom_site_type_symbol
_atom_site_label
_atom_site_fract_x
_atom_site_fract_y
_atom_site_fract_z
Si Si1 0.752877 0.078356 0.021688
Si Si2 0.356591 0.757555 0.805704
Si Si3 0.905611 0.166648 0.901959
Si Si4 0.164316 0.021316 0.760151
Si Si5 0.411121 0.044897 0.568766
Si Si6 0.647716 0.133620 0.320095
Si Si7 0.239132 0.113757 0.099391
O O1 0.708731 0.084997 0.238159
O O2 0.810930 0.021036 0.035624
O O3 0.882821 0.123053 0.063801
O O4 0.568692 0.083234 0.751747
O O5 0.434559 0.755684 0.612361
O O6 0.183718 0.721545 0.640552
O O7 0.328169 0.816812 0.807404
O O8 0.782338 0.143423 0.618102
O O9 0.113262 0.162347 0.018453
O O10 0.328450 0.024890 0.725053
O O11 0.152708 0.076575 0.853830
O O12 0.000000 0.000000 0.500000
O O13 0.265319 0.077365 0.327390
O O14 0.500000 0.000000 0.500000
O O15 0.440489 0.128125 0.203507
#
# Coordination Sequence:
#
# PCOD9249137 Si02
#       7
#     4   4   4   4   4   4   4
#     4  12  22  41  67  94 139 189 236 288 362 429
#     4  10  22  46  74 103 139 187 240 304 375 437
#     4  11  25  43  70 102 135 184 237 300 365 432
#     4  12  26  39  61  98 143 186 234 293 348 430
#     4  12  24  41  64  97 138 191 239 287 352 430
#     4  11  23  45  71  95 136 185 234 298 363 429
#     4  12  25  43  67 103 138 183 242 289 356 437
#
# _framework density 22.536892000000002
#
# number of rings (size 3 to 8) (size 9 to 14) (size 15 to 20)
#    0.000    0.571    5.714    3.000    2.000    1.143 
#    0.000    5.714    0.000    0.000    0.000    0.000 
#    0.000    0.000    0.000    0.000    0.000    0.000 
#
# Total GULP energy -155953.851816 kJ/mol
# GULP energy per Si atom -5569.780422 kJ/mol
# Density = 2.248560 g / cm^3
# Si number density = 22.536892 Si / 1000 Ang^3
#
#
#
# Elastic Constant Matrix: (Units=GPa)
#
#
# Indices 1 2 3 4 5 6 
#
# 1 48.7830 8.2797 7.9298 0.0000 17.0466 0.0000
# 2 8.2797 88.7208 -2.2472 0.0000 2.1376 0.0000
# 3 7.9298 -2.2472 76.3931 0.0000 12.4098 0.0000
# 4 0.0000 0.0000 0.0000 33.1019 0.0000 -4.7566
# 5 17.0466 2.1376 12.4098 0.0000 33.9655 0.0000
# 6 0.0000 0.0000 0.0000 -4.7566 0.0000 38.4148
#
#
#
# Elastic Compliance Matrix: (Units=1/GPa)
#
#
# Indices 1 2 3 4 5 6 
#
# 1 0.025260 -0.002078 -0.000686 0.000000 -0.012296 0.000000
# 2 -0.002078 0.011476 0.000533 0.000000 0.000126 0.000000
# 3 -0.000686 0.000533 0.013955 0.000000 -0.004788 0.000000
# 4 0.000000 0.000000 0.000000 0.030757 0.000000 0.003808
# 5 -0.012296 0.000126 -0.004788 0.000000 0.037354 0.000000
# 6 0.000000 0.000000 0.000000 0.003808 0.000000 0.026503
#
#
# Mechanical properties :
#
#
# Convention : Reuss Voigt Hill
#
# Bulk Modulus (GPa) = 21.63199 26.86903 24.25051
# Shear Modulus (GPa) = 30.27059 34.42542 32.34800
#
# Velocity S-wave (km/s) = 3.66889 3.91258 3.79269
# Velocity P-wave (km/s) = 5.25042 5.68851 5.47385
#
# Compressibility (1/GPa) = 0.04622783
#
# Stress axis : x y z
#
# Youngs Moduli (GPa) = 39.58840 87.14037 71.65975
#
# Poissons Ratio (x) = 0.18112 0.04914
# Poissons Ratio (y) = 0.08228 -0.03818
# Poissons Ratio (z) = 0.02715 -0.04643
#
# Static dielectric constant tensor:
#      x y z
#    x 1.924040 0.000000 -0.106300 
#    y 0.000000 1.866400 0.000000 
#    z -0.106300 0.000000 1.962220 
# 
# From -- ./inp_files/2076.got.cif
#   From: 2010.05.17/outbox.cif.g08.bks.cpg/sg14_2_cif.got.tgz:2076.got - 2010.06.03 17:49:19.
