data_PCOD9249589
_publ_section_title
;
Structure prediction by ZEFSAII (Michael W. Deem and Ramdas Pophale) SiO2 
 PCOD9249589
Probable space group: P 21/C
;
_chemical_formula_sum "Si O2"
_cell_formula_units_Z 12
_cell_length_a 5.280400
_cell_length_b 9.689537
_cell_length_c 13.593562
_cell_angle_alpha 90.000000
_cell_angle_beta 42.324890
_cell_angle_gamma 90.000000
_cell_volume 468.310081
_symmetry_space_group_name_H-M "P 21/C"
_symmetry_group_IT_number 14
_symmetry_cell_setting 'monoclinic'
loop_
_space_group_symop_operation_xyz
x,y,z
-x,1/2+y,1/2-z
-x,-y,-z
x,1/2-y,1/2+z
loop_
_atom_site_type_symbol
_atom_site_label
_atom_site_fract_x
_atom_site_fract_y
_atom_site_fract_z
Si Si1 0.651148 0.079291 0.551025
Si Si2 0.256870 0.952363 0.834609
Si Si3 0.367488 0.366690 0.600622
O O1 0.650699 0.238637 0.519679
O O2 0.500000 0.000000 0.500000
O O3 0.345602 0.065920 0.727554
O O4 0.000000 0.000000 0.500000
O O5 0.633354 0.907927 0.784400
O O6 0.031269 0.835405 0.837527
O O7 0.000000 0.000000 0.000000
O O8 0.500000 0.500000 0.500000
#
# Coordination Sequence:
#
# PCOD9249589 Si02
#       3
#     4   4   4
#     4  12  26  44  71 108 143 186 251 317 370 439
#     4  10  23  42  67  97 139 189 235 290 365 444
#     4  10  23  44  70 101 143 191 238 301 376 443
#
# _framework density 25.624047999999998
#
# number of rings (size 3 to 8) (size 9 to 14) (size 15 to 20)
#    0.000    1.333    0.000    4.000    0.000   16.000 
#    0.000    0.000    0.000    0.000    0.000    0.000 
#    0.000    0.000    0.000    0.000    0.000    0.000 
#
# Total GULP energy -66952.029655 kJ/mol
# GULP energy per Si atom -5579.335805 kJ/mol
# Density = 2.556573 g / cm^3
# Si number density = 25.624048 Si / 1000 Ang^3
#
#
#
# Elastic Constant Matrix: (Units=GPa)
#
#
# Indices 1 2 3 4 5 6 
#
# 1 284.5170 67.5902 41.7470 0.0000 40.6619 0.0000
# 2 67.5902 178.3877 47.7929 0.0000 15.8471 0.0000
# 3 41.7470 47.7929 119.2787 0.0000 23.5617 0.0000
# 4 0.0000 0.0000 0.0000 32.0393 0.0000 -3.1724
# 5 40.6619 15.8471 23.5617 0.0000 45.2127 0.0000
# 6 0.0000 0.0000 0.0000 -3.1724 0.0000 39.8028
#
#
#
# Elastic Compliance Matrix: (Units=1/GPa)
#
#
# Indices 1 2 3 4 5 6 
#
# 1 0.004333 -0.001253 -0.000370 0.000000 -0.003265 0.000000
# 2 -0.001253 0.006682 -0.002228 0.000000 -0.000054 0.000000
# 3 -0.000370 -0.002228 0.010240 0.000000 -0.004223 0.000000
# 4 0.000000 0.000000 0.000000 0.031460 0.000000 0.002507
# 5 -0.003265 -0.000054 -0.004223 0.000000 0.027274 0.000000
# 6 0.000000 0.000000 0.000000 0.002507 0.000000 0.025324
#
#
# Mechanical properties :
#
#
# Convention : Reuss Voigt Hill
#
# Bulk Modulus (GPa) = 73.77745 99.60484 86.69114
# Shear Modulus (GPa) = 42.54132 51.74785 47.14458
#
# Velocity S-wave (km/s) = 4.07899 4.49876 4.29401
# Velocity P-wave (km/s) = 7.14416 8.12042 7.64788
#
# Compressibility (1/GPa) = 0.01355428
#
# Stress axis : x y z
#
# Youngs Moduli (GPa) = 230.77434 149.65051 97.65505
#
# Poissons Ratio (x) = 0.18747 0.03610
# Poissons Ratio (y) = 0.28910 0.21760
# Poissons Ratio (z) = 0.08530 0.33346
#
# Static dielectric constant tensor:
#      x y z
#    x 2.335140 0.000000 -0.287920 
#    y 0.000000 3.009300 0.000000 
#    z -0.287920 0.000000 2.250860 
# 
# From -- ./inp_files/20081.got.cif
#   From: 2010.05.17/outbox.cif.g08.bks.cpg/sg14_11_cif.got.tgz:20081.got - 2010.06.03 17:49:19.
