data_PCOD9249946
_publ_section_title
;
Structure prediction by ZEFSAII (Michael W. Deem and Ramdas Pophale) SiO2 
 PCOD9249946
Probable space group: P 21/C
;
_chemical_formula_sum "Si O2"
_cell_formula_units_Z 32
_cell_length_a 25.989676
_cell_length_b 8.195007
_cell_length_c 14.163249
_cell_angle_alpha 90.000000
_cell_angle_beta 24.541409
_cell_angle_gamma 90.000000
_cell_volume 1252.933785
_symmetry_space_group_name_H-M "P 21/C"
_symmetry_group_IT_number 14
_symmetry_cell_setting 'monoclinic'
loop_
_space_group_symop_operation_xyz
x,y,z
-x,1/2+y,1/2-z
-x,-y,-z
x,1/2-y,1/2+z
loop_
_atom_site_type_symbol
_atom_site_label
_atom_site_fract_x
_atom_site_fract_y
_atom_site_fract_z
Si Si1 0.434243 0.169084 0.368968
Si Si2 0.881917 0.665124 0.854494
Si Si3 0.374503 0.493556 0.773742
Si Si4 0.275046 0.691063 0.795265
Si Si5 0.864569 0.502978 0.304796
Si Si6 0.020433 0.796957 0.787656
Si Si7 0.371328 0.490549 0.158869
Si Si8 0.321563 0.988768 0.042245
O O1 0.406145 0.044338 0.329075
O O2 0.386246 0.340871 0.412992
O O3 0.370919 0.137871 0.575497
O O4 0.578507 0.147877 0.151837
O O5 0.956896 0.488988 0.722002
O O6 0.901938 0.741228 0.925806
O O7 0.738247 0.628453 0.066841
O O8 0.922124 0.816446 0.721030
O O9 0.500000 0.500000 0.500000
O O10 0.308596 0.659230 0.848728
O O11 0.358618 0.838676 0.624754
O O12 0.300849 0.537387 0.687426
O O13 0.131729 0.727357 0.026299
O O14 0.948929 0.348207 0.190709
O O15 0.746495 0.510733 0.574912
O O16 0.804000 0.477728 0.304800
O O17 0.500000 0.500000 0.000000
#
# Coordination Sequence:
#
# PCOD9249946 Si02
#       8
#     4   4   4   4   4   4   4   4
#     4  12  26  38  67  99 144 190 236 291 365 442
#     4  11  22  43  75 104 141 189 248 297 368 427
#     4  11  24  42  71 102 140 187 235 291 365 439
#     4  10  25  43  67  97 142 183 236 297 364 430
#     4  11  24  45  69 104 143 190 247 298 367 433
#     4  10  23  44  75 103 136 189 243 307 360 436
#     4  11  25  40  64 103 138 187 237 290 359 439
#     4  12  25  43  65 101 146 193 237 303 359 440
#
# _framework density 25.540056
#
# number of rings (size 3 to 8) (size 9 to 14) (size 15 to 20)
#    0.000    1.000    5.000    0.750    7.000    4.000 
#    0.000    0.625    2.750    2.250    0.000    0.000 
#    0.000    0.000    0.000    0.000    0.000    0.000 
#
# Total GULP energy -178699.628559 kJ/mol
# GULP energy per Si atom -5584.363392 kJ/mol
# Density = 2.548193 g / cm^3
# Si number density = 25.540056 Si / 1000 Ang^3
#
#
#
# Elastic Constant Matrix: (Units=GPa)
#
#
# Indices 1 2 3 4 5 6 
#
# 1 137.3973 41.8711 46.5766 0.0000 -25.2998 0.0000
# 2 41.8711 158.6156 26.0474 0.0000 -17.5050 0.0000
# 3 46.5766 26.0474 94.9714 0.0000 -4.9465 0.0000
# 4 0.0000 0.0000 0.0000 15.9322 0.0000 -11.2015
# 5 -25.2998 -17.5050 -4.9465 0.0000 44.6315 0.0000
# 6 0.0000 0.0000 0.0000 -11.2015 0.0000 33.3605
#
#
#
# Elastic Compliance Matrix: (Units=1/GPa)
#
#
# Indices 1 2 3 4 5 6 
#
# 1 0.010020 -0.001430 -0.004280 0.000000 0.004645 0.000000
# 2 -0.001430 0.007072 -0.001143 0.000000 0.001837 0.000000
# 3 -0.004280 -0.001143 0.012867 0.000000 -0.001448 0.000000
# 4 0.000000 0.000000 0.000000 0.082162 0.000000 0.027588
# 5 0.004645 0.001837 -0.001448 0.000000 0.025599 0.000000
# 6 0.000000 0.000000 0.000000 0.027588 0.000000 0.039239
#
#
# Mechanical properties :
#
#
# Convention : Reuss Voigt Hill
#
# Bulk Modulus (GPa) = 61.52424 68.88604 65.20514
# Shear Modulus (GPa) = 25.49965 37.21746 31.35856
#
# Velocity S-wave (km/s) = 3.16320 3.82150 3.50783
# Velocity P-wave (km/s) = 6.12232 6.81924 6.48016
#
# Compressibility (1/GPa) = 0.01625375
#
# Stress axis : x y z
#
# Youngs Moduli (GPa) = 99.80005 141.39614 77.72076
#
# Poissons Ratio (x) = 0.20214 0.33265
# Poissons Ratio (y) = 0.14267 0.08883
# Poissons Ratio (z) = 0.42715 0.16160
#
# Static dielectric constant tensor:
#      x y z
#    x 2.011100 0.000000 -0.017180 
#    y 0.000000 2.098850 0.000000 
#    z -0.017180 0.000000 2.072230 
# 
# From -- ./inp_files/51357.got.cif
#   From: 2010.05.17/outbox.cif.g08.bks.cpg/sg14_26_cif.got.tgz:51357.got - 2010.06.03 17:49:19.
