data_PCOD9249873
_publ_section_title
;
Structure prediction by ZEFSAII (Michael W. Deem and Ramdas Pophale) SiO2 
 PCOD9249873
Probable space group: P 21/C
;
_chemical_formula_sum "Si O2"
_cell_formula_units_Z 28
_cell_length_a 18.655780
_cell_length_b 9.866457
_cell_length_c 8.660154
_cell_angle_alpha 90.000000
_cell_angle_beta 49.292760
_cell_angle_gamma 90.000000
_cell_volume 1208.367989
_symmetry_space_group_name_H-M "P 21/C"
_symmetry_group_IT_number 14
_symmetry_cell_setting 'monoclinic'
loop_
_space_group_symop_operation_xyz
x,y,z
-x,1/2+y,1/2-z
-x,-y,-z
x,1/2-y,1/2+z
loop_
_atom_site_type_symbol
_atom_site_label
_atom_site_fract_x
_atom_site_fract_y
_atom_site_fract_z
Si Si1 0.170592 0.850787 0.281634
Si Si2 0.271238 0.079231 0.784847
Si Si3 0.496558 0.342829 0.508895
Si Si4 0.631643 0.764189 0.076353
Si Si5 0.005218 0.650854 0.426196
Si Si6 0.911478 0.878314 0.750920
Si Si7 0.298602 0.717615 0.324005
O O1 0.223576 0.829497 0.368920
O O2 0.100793 0.726631 0.342341
O O3 0.112677 0.987700 0.317249
O O4 0.259572 0.836440 0.040858
O O5 0.291980 0.156394 0.594509
O O6 0.336658 0.131210 0.836710
O O7 0.288808 0.919726 0.735430
O O8 0.171001 0.114178 0.003518
O O9 0.500000 0.500000 0.500000
O O10 0.404460 0.322994 0.531937
O O11 0.463739 0.300449 0.723896
O O12 0.594913 0.272201 0.326735
O O13 0.927051 0.751965 0.614242
O O14 0.998465 0.634214 0.250047
O O15 0.000000 0.500000 0.500000
#
# Coordination Sequence:
#
# PCOD9249873 Si02
#       7
#     4   4   4   4   4   4   4
#     4  11  25  45  69 101 134 185 229 281 349 414
#     4  10  23  44  67  97 136 181 224 290 353 410
#     4  11  26  41  68  99 132 184 231 291 349 410
#     4  10  24  42  65  98 136 171 233 283 356 408
#     4  12  24  44  70 103 138 179 227 285 351 415
#     4  11  24  43  70  99 140 177 230 280 345 416
#     4  11  25  44  70  94 135 181 236 281 346 420
#
# _framework density 23.171748000000001
#
# number of rings (size 3 to 8) (size 9 to 14) (size 15 to 20)
#    0.000    1.143    0.000    5.571   10.000    2.286 
#    2.571    0.000    0.000    0.000    0.000    0.000 
#    0.000    0.000    0.000    0.000    0.000    0.000 
#
# Total GULP energy -156110.335434 kJ/mol
# GULP energy per Si atom -5575.369123 kJ/mol
# Density = 2.311901 g / cm^3
# Si number density = 23.171748 Si / 1000 Ang^3
#
#
#
# Elastic Constant Matrix: (Units=GPa)
#
#
# Indices 1 2 3 4 5 6 
#
# 1 70.1646 15.5111 -0.6490 0.0000 5.2983 0.0000
# 2 15.5111 137.0776 30.5535 0.0000 0.6290 0.0000
# 3 -0.6490 30.5535 68.1571 0.0000 -10.7369 0.0000
# 4 0.0000 0.0000 0.0000 30.2544 0.0000 -0.2924
# 5 5.2983 0.6290 -10.7369 0.0000 45.6552 0.0000
# 6 0.0000 0.0000 0.0000 -0.2924 0.0000 31.0416
#
#
#
# Elastic Compliance Matrix: (Units=1/GPa)
#
#
# Indices 1 2 3 4 5 6 
#
# 1 0.014777 -0.001826 0.000720 0.000000 -0.001521 0.000000
# 2 -0.001826 0.008375 -0.003901 0.000000 -0.000821 0.000000
# 3 0.000720 -0.003901 0.017055 0.000000 0.003981 0.000000
# 4 0.000000 0.000000 0.000000 0.033056 0.000000 0.000311
# 5 -0.001521 -0.000821 0.003981 0.000000 0.023027 0.000000
# 6 0.000000 0.000000 0.000000 0.000311 0.000000 0.032218
#
#
# Mechanical properties :
#
#
# Convention : Reuss Voigt Hill
#
# Bulk Modulus (GPa) = 33.12039 40.69227 36.90633
# Shear Modulus (GPa) = 33.65044 36.72250 35.18647
#
# Velocity S-wave (km/s) = 3.81493 3.98527 3.90103
# Velocity P-wave (km/s) = 5.80770 6.22702 6.02101
#
# Compressibility (1/GPa) = 0.03019288
#
# Stress axis : x y z
#
# Youngs Moduli (GPa) = 67.67163 119.40319 58.63470
#
# Poissons Ratio (x) = 0.21797 -0.04219
# Poissons Ratio (y) = 0.12354 0.22874
# Poissons Ratio (z) = -0.04869 0.46580
#
# Static dielectric constant tensor:
#      x y z
#    x 1.847370 0.000000 -0.113610 
#    y 0.000000 1.990400 0.000000 
#    z -0.113610 0.000000 2.050600 
# 
# From -- ./inp_files/18714.got.cif
#   From: 2010.05.17/outbox.cif.g08.bks.cpg/sg14_10_cif.got.tgz:18714.got - 2010.06.03 17:49:19.
