data_PCOD9249414
_publ_section_title
;
Structure prediction by ZEFSAII (Michael W. Deem and Ramdas Pophale) SiO2 
 PCOD9249414
Probable space group: P 21/C
;
_chemical_formula_sum "Si O2"
_cell_formula_units_Z 32
_cell_length_a 5.103870
_cell_length_b 29.644842
_cell_length_c 9.378693
_cell_angle_alpha 90.000000
_cell_angle_beta 117.632753
_cell_angle_gamma 90.000000
_cell_volume 1257.171955
_symmetry_space_group_name_H-M "P 21/C"
_symmetry_group_IT_number 14
_symmetry_cell_setting 'monoclinic'
loop_
_space_group_symop_operation_xyz
x,y,z
-x,1/2+y,1/2-z
-x,-y,-z
x,1/2-y,1/2+z
loop_
_atom_site_type_symbol
_atom_site_label
_atom_site_fract_x
_atom_site_fract_y
_atom_site_fract_z
Si Si1 0.755594 0.187704 0.460773
Si Si2 0.935063 0.176691 0.036737
Si Si3 0.751209 0.383615 0.751268
Si Si4 0.167236 0.234716 0.345137
Si Si5 0.319416 0.328739 0.296462
Si Si6 0.262226 0.057535 0.482113
Si Si7 0.747037 0.591480 0.530729
Si Si8 0.092467 0.964087 0.320322
O O1 0.627960 0.143011 0.354904
O O2 0.480400 0.211865 0.465875
O O3 0.896165 0.218820 0.372642
O O4 0.048123 0.174127 0.619894
O O5 0.660106 0.185429 0.859331
O O6 0.108577 0.133313 0.018880
O O7 0.773830 0.152992 0.132285
O O8 0.101243 0.217600 0.164252
O O9 0.535119 0.421678 0.634779
O O10 0.068467 0.401936 0.873654
O O11 0.217065 0.288071 0.376186
O O12 0.334448 0.380722 0.346840
O O13 0.610063 0.065112 0.582818
O O14 0.126860 0.043825 0.601741
O O15 0.201964 0.015446 0.360848
O O16 0.946632 0.551031 0.635413
#
# Coordination Sequence:
#
# PCOD9249414 Si02
#       8
#     4   4   4   4   4   4   4   4
#     4  11  25  42  64  94 122 170 216 269 318 386
#     4  10  24  43  60  94 132 166 214 272 321 384
#     4  10  23  41  65  93 132 171 215 262 322 390
#     4  11  25  44  63  89 131 166 219 267 329 377
#     4  11  26  39  66  91 124 174 217 271 322 387
#     4  10  23  45  69 101 128 174 212 268 319 392
#     4  11  24  41  64  96 130 173 212 274 321 389
#     4  10  24  43  70  98 137 164 218 267 323 386
#
# _framework density 25.453959000000001
#
# number of rings (size 3 to 8) (size 9 to 14) (size 15 to 20)
#    0.000    1.500    1.250    1.500   12.250    1.500 
#    0.000    0.625    0.000    0.000    0.000    0.000 
#    0.000    0.000    0.000    0.000    0.000    0.000 
#
# Total GULP energy -178736.913223 kJ/mol
# GULP energy per Si atom -5585.528538 kJ/mol
# Density = 2.539602 g / cm^3
# Si number density = 25.453959 Si / 1000 Ang^3
#
#
#
# Elastic Constant Matrix: (Units=GPa)
#
#
# Indices 1 2 3 4 5 6 
#
# 1 68.7782 -7.4872 -21.4394 0.0000 14.5892 0.0000
# 2 -7.4872 16.7799 -5.4494 0.0000 -4.0376 0.0000
# 3 -21.4394 -5.4494 53.1887 0.0000 9.4841 0.0000
# 4 0.0000 0.0000 0.0000 32.9216 0.0000 11.9348
# 5 14.5892 -4.0376 9.4841 0.0000 24.4609 0.0000
# 6 0.0000 0.0000 0.0000 11.9348 0.0000 27.2748
#
#
#
# Elastic Compliance Matrix: (Units=1/GPa)
#
#
# Indices 1 2 3 4 5 6 
#
# 1 0.023830 0.010860 0.013893 0.000000 -0.017807 0.000000
# 2 0.010860 0.068205 0.011294 0.000000 0.000402 0.000000
# 3 0.013893 0.011294 0.028687 0.000000 -0.017545 0.000000
# 4 0.000000 0.000000 0.000000 0.036102 0.000000 -0.015798
# 5 -0.017807 0.000402 -0.017545 0.000000 0.058371 0.000000
# 6 0.000000 0.000000 0.000000 -0.015798 0.000000 0.043577
#
#
# Mechanical properties :
#
#
# Convention : Reuss Voigt Hill
#
# Bulk Modulus (GPa) = 5.18633 7.77720 6.48177
# Shear Modulus (GPa) = 19.92434 28.47297 24.19866
#
# Velocity S-wave (km/s) = 2.80082 3.34819 3.08666
# Velocity P-wave (km/s) = 3.53573 4.24372 3.90580
#
# Compressibility (1/GPa) = 0.19281440
#
# Stress axis : x y z
#
# Youngs Moduli (GPa) = 41.96461 14.66165 34.85957
#
# Poissons Ratio (x) = -0.15922 -0.48431
# Poissons Ratio (y) = -0.45573 -0.39369
# Poissons Ratio (z) = -0.58302 -0.16558
#
# Static dielectric constant tensor:
#      x y z
#    x 2.115300 0.000000 -0.045280 
#    y 0.000000 2.054480 0.000000 
#    z -0.045280 0.000000 2.095840 
# 
# From -- ./inp_files/22375.got.cif
#   From: 2010.05.17/outbox.cif.g08.bks.cpg/sg14_12_cif.got.tgz:22375.got - 2010.06.03 17:49:19.
