data_PCOD9249445
_publ_section_title
;
Structure prediction by ZEFSAII (Michael W. Deem and Ramdas Pophale) SiO2 
 PCOD9249445
Probable space group: P 21/C
;
_chemical_formula_sum "Si O2"
_cell_formula_units_Z 32
_cell_length_a 26.641546
_cell_length_b 12.168744
_cell_length_c 21.080311
_cell_angle_alpha 90.000000
_cell_angle_beta 11.720954
_cell_angle_gamma 90.000000
_cell_volume 1388.318732
_symmetry_space_group_name_H-M "P 21/C"
_symmetry_group_IT_number 14
_symmetry_cell_setting 'monoclinic'
loop_
_space_group_symop_operation_xyz
x,y,z
-x,1/2+y,1/2-z
-x,-y,-z
x,1/2-y,1/2+z
loop_
_atom_site_type_symbol
_atom_site_label
_atom_site_fract_x
_atom_site_fract_y
_atom_site_fract_z
Si Si1 0.832417 0.655564 0.802778
Si Si2 0.327551 0.833889 0.876453
Si Si3 0.807364 0.294128 0.077701
Si Si4 0.570963 0.700260 0.254660
Si Si5 0.064870 0.758765 0.323732
Si Si6 0.634931 0.610194 0.312206
Si Si7 0.794494 0.965600 0.136511
Si Si8 0.144663 0.068341 0.086806
O O1 0.985326 0.765131 0.627869
O O2 0.034935 0.560774 0.543842
O O3 0.623402 0.672247 0.009271
O O4 0.673530 0.640102 0.064674
O O5 0.211604 0.797672 0.953383
O O6 0.214651 0.756563 0.070990
O O7 0.263532 0.960128 0.969380
O O8 0.553419 0.298483 0.428131
O O9 0.890640 0.402306 0.936624
O O10 0.277913 0.720206 0.611281
O O11 0.651115 0.633969 0.217588
O O12 0.692945 0.821338 0.106410
O O13 0.888446 0.863758 0.533722
O O14 0.897506 0.649783 0.537475
O O15 0.500000 0.500000 0.500000
O O16 0.500000 0.000000 0.500000
O O17 0.869170 0.954724 0.970341
#
# Coordination Sequence:
#
# PCOD9249445 Si02
#       8
#     4   4   4   4   4   4   4   4
#     4  10  23  41  67  95 130 169 221 264 328 408
#     4  11  22  41  68  96 123 179 217 265 336 396
#     4  11  23  41  62  93 129 169 215 271 323 399
#     4  10  24  44  66  96 133 177 219 278 331 392
#     4  11  23  44  66  93 138 171 221 281 331 394
#     4  12  26  42  65  94 129 172 221 269 329 391
#     4  12  23  40  69 101 132 174 219 276 346 396
#     4  11  22  41  68  92 132 170 217 270 335 397
#
# _framework density 23.049461000000001
#
# number of rings (size 3 to 8) (size 9 to 14) (size 15 to 20)
#    0.000    1.000    3.750    3.000    1.750    1.500 
#    0.000    1.250    0.000    0.000    0.000    0.000 
#    0.000    0.000    0.000    0.000    0.000    0.000 
#
# Total GULP energy -178857.840639 kJ/mol
# GULP energy per Si atom -5589.307520 kJ/mol
# Density = 2.299700 g / cm^3
# Si number density = 23.049461 Si / 1000 Ang^3
#
#
#
# Elastic Constant Matrix: (Units=GPa)
#
#
# Indices 1 2 3 4 5 6 
#
# 1 40.6886 11.0235 12.2579 0.0000 -1.8507 0.0000
# 2 11.0235 91.4939 20.9706 0.0000 -13.0102 0.0000
# 3 12.2579 20.9706 126.7117 0.0000 -22.4657 0.0000
# 4 0.0000 0.0000 0.0000 38.4397 0.0000 1.5069
# 5 -1.8507 -13.0102 -22.4657 0.0000 40.4957 0.0000
# 6 0.0000 0.0000 0.0000 1.5069 0.0000 16.1524
#
#
#
# Elastic Compliance Matrix: (Units=1/GPa)
#
#
# Indices 1 2 3 4 5 6 
#
# 1 0.025948 -0.002750 -0.002220 0.000000 -0.000929 0.000000
# 2 -0.002750 0.011966 -0.001170 0.000000 0.003069 0.000000
# 3 -0.002220 -0.001170 0.009112 0.000000 0.004578 0.000000
# 4 0.000000 0.000000 0.000000 0.026110 0.000000 -0.002436
# 5 -0.000929 0.003069 0.004578 0.000000 0.028177 0.000000
# 6 0.000000 0.000000 0.000000 -0.002436 0.000000 0.062138
#
#
# Mechanical properties :
#
#
# Convention : Reuss Voigt Hill
#
# Bulk Modulus (GPa) = 28.77970 38.59980 33.68975
# Shear Modulus (GPa) = 26.69337 33.32704 30.01021
#
# Velocity S-wave (km/s) = 3.40677 3.80661 3.61223
# Velocity P-wave (km/s) = 5.29036 6.00860 5.66088
#
# Compressibility (1/GPa) = 0.03474671
#
# Stress axis : x y z
#
# Youngs Moduli (GPa) = 38.53802 83.57262 109.74622
#
# Poissons Ratio (x) = 0.22980 0.24362
# Poissons Ratio (y) = 0.10597 0.12841
# Poissons Ratio (z) = 0.08555 0.09779
#
# Static dielectric constant tensor:
#      x y z
#    x 1.853850 0.000000 0.028570 
#    y 0.000000 1.907070 0.000000 
#    z 0.028570 0.000000 1.906010 
# 
# From -- ./inp_files/75320.got.cif
#   From: 2010.05.17/outbox.cif.g08.bks.cpg/sg14_38_cif.got.tgz:75320.got - 2010.06.03 17:49:19.
