data_PCOD9249266
_publ_section_title
;
Structure prediction by ZEFSAII (Michael W. Deem and Ramdas Pophale) SiO2 
 PCOD9249266
Probable space group: P 21/C
;
_chemical_formula_sum "Si O2"
_cell_formula_units_Z 24
_cell_length_a 14.602875
_cell_length_b 5.232464
_cell_length_c 14.141125
_cell_angle_alpha 90.000000
_cell_angle_beta 72.107868
_cell_angle_gamma 90.000000
_cell_volume 1028.252361
_symmetry_space_group_name_H-M "P 21/C"
_symmetry_group_IT_number 14
_symmetry_cell_setting 'monoclinic'
loop_
_space_group_symop_operation_xyz
x,y,z
-x,1/2+y,1/2-z
-x,-y,-z
x,1/2-y,1/2+z
loop_
_atom_site_type_symbol
_atom_site_label
_atom_site_fract_x
_atom_site_fract_y
_atom_site_fract_z
Si Si1 0.312217 0.728311 0.121334
Si Si2 0.888577 0.999077 0.296854
Si Si3 0.479195 0.684229 0.201903
Si Si4 0.017232 0.245801 0.899845
Si Si5 0.349991 0.221752 0.990893
Si Si6 0.143762 0.157956 0.019350
O O1 0.197939 0.701413 0.171056
O O2 0.371324 0.676113 0.197232
O O3 0.339339 0.502298 0.039609
O O4 0.344956 0.000272 0.070752
O O5 0.914351 0.946970 0.180869
O O6 0.854697 0.764280 0.373971
O O7 0.983764 0.075036 0.325017
O O8 0.511204 0.401276 0.221734
O O9 0.551766 0.780053 0.097579
O O10 0.081549 0.334849 0.967601
O O11 0.920140 0.098226 0.962302
O O12 0.255510 0.158236 0.956917
#
# Coordination Sequence:
#
# PCOD9249266 Si02
#       6
#     4   4   4   4   4   4
#     4  11  24  44  72  96 135 180 225 273 342 408
#     4  11  22  40  64  95 133 178 226 272 339 398
#     4  12  26  45  69 104 135 168 225 285 345 404
#     4  11  21  40  61  95 132 176 222 275 326 392
#     4  11  23  46  69  97 132 182 225 273 341 410
#     4  10  23  39  63  92 132 175 227 270 331 396
#
# _framework density 23.340572000000002
#
# number of rings (size 3 to 8) (size 9 to 14) (size 15 to 20)
#    0.000    1.000    3.333    3.500    2.333    0.000 
#    3.000    0.000    0.000    0.000    0.000    0.000 
#    0.000    0.000    0.000    0.000    0.000    0.000 
#
# Total GULP energy -134094.863487 kJ/mol
# GULP energy per Si atom -5587.285979 kJ/mol
# Density = 2.328745 g / cm^3
# Si number density = 23.340572 Si / 1000 Ang^3
#
#
#
# Elastic Constant Matrix: (Units=GPa)
#
#
# Indices 1 2 3 4 5 6 
#
# 1 103.1188 -7.2778 11.5036 0.0000 24.4106 0.0000
# 2 -7.2778 41.9521 -4.2296 0.0000 -7.2224 0.0000
# 3 11.5036 -4.2296 49.4392 0.0000 -0.4811 0.0000
# 4 0.0000 0.0000 0.0000 31.0525 0.0000 3.1775
# 5 24.4106 -7.2224 -0.4811 0.0000 39.3819 0.0000
# 6 0.0000 0.0000 0.0000 3.1775 0.0000 26.2372
#
#
#
# Elastic Compliance Matrix: (Units=1/GPa)
#
#
# Indices 1 2 3 4 5 6 
#
# 1 0.011752 0.000517 -0.002761 0.000000 -0.007223 0.000000
# 2 0.000517 0.024867 0.002049 0.000000 0.004265 0.000000
# 3 -0.002761 0.002049 0.021067 0.000000 0.002344 0.000000
# 4 0.000000 0.000000 0.000000 0.032608 0.000000 -0.003949
# 5 -0.007223 0.004265 0.002344 0.000000 0.030681 0.000000
# 6 0.000000 0.000000 0.000000 -0.003949 0.000000 0.038592
#
#
# Mechanical properties :
#
#
# Convention : Reuss Voigt Hill
#
# Bulk Modulus (GPa) = 17.45313 21.61141 19.53227
# Shear Modulus (GPa) = 27.92431 32.30190 30.11310
#
# Velocity S-wave (km/s) = 3.46263 3.72417 3.59578
# Velocity P-wave (km/s) = 4.84564 5.26990 5.06222
#
# Compressibility (1/GPa) = 0.05729630
#
# Stress axis : x y z
#
# Youngs Moduli (GPa) = 85.09256 40.21365 47.46695
#
# Poissons Ratio (x) = -0.02078 0.13103
# Poissons Ratio (y) = -0.04398 -0.09724
# Poissons Ratio (z) = 0.23490 -0.08238
#
# Static dielectric constant tensor:
#      x y z
#    x 1.906890 0.000000 -0.009580 
#    y 0.000000 1.987040 0.000000 
#    z -0.009580 0.000000 1.893650 
# 
# From -- ./inp_files/45832.got.cif
#   From: 2010.05.17/outbox.cif.g08.bks.cpg/sg14_23_cif.got.tgz:45832.got - 2010.06.03 17:49:19.
