data_PCOD9249199
_publ_section_title
;
Structure prediction by ZEFSAII (Michael W. Deem and Ramdas Pophale) SiO2 
 PCOD9249199
Probable space group: P 21/C
;
_chemical_formula_sum "Si O2"
_cell_formula_units_Z 32
_cell_length_a 6.954063
_cell_length_b 25.681180
_cell_length_c 6.705783
_cell_angle_alpha 90.000000
_cell_angle_beta 104.862688
_cell_angle_gamma 90.000000
_cell_volume 1157.509107
_symmetry_space_group_name_H-M "P 21/C"
_symmetry_group_IT_number 14
_symmetry_cell_setting 'monoclinic'
loop_
_space_group_symop_operation_xyz
x,y,z
-x,1/2+y,1/2-z
-x,-y,-z
x,1/2-y,1/2+z
loop_
_atom_site_type_symbol
_atom_site_label
_atom_site_fract_x
_atom_site_fract_y
_atom_site_fract_z
Si Si1 0.904881 0.535051 0.249048
Si Si2 0.536198 0.751810 0.237581
Si Si3 0.365735 0.413695 0.480823
Si Si4 0.810868 0.333230 0.299774
Si Si5 0.146487 0.255616 0.929123
Si Si6 0.740264 0.054362 0.909992
Si Si7 0.208275 0.126605 0.544569
Si Si8 0.397509 0.640403 0.117706
O O1 0.789631 0.563701 0.402745
O O2 0.803616 0.478336 0.230081
O O3 0.887290 0.572900 0.057184
O O4 0.132403 0.529634 0.376412
O O5 0.595406 0.747126 0.503231
O O6 0.797577 0.747651 0.306095
O O7 0.408897 0.699439 0.192565
O O8 0.393374 0.802111 0.211740
O O9 0.252615 0.375818 0.294139
O O10 0.503956 0.449125 0.376044
O O11 0.538620 0.391024 0.671107
O O12 0.975790 0.289185 0.375739
O O13 0.813221 0.385861 0.425616
O O14 0.115237 0.318972 0.939743
O O15 0.422334 0.127072 0.487016
O O16 0.795146 0.141477 0.573437
#
# Coordination Sequence:
#
# PCOD9249199 Si02
#       8
#     4   4   4   4   4   4   4   4
#     4  10  26  49  73 110 145 190 251 312 365 439
#     4  11  24  45  63 100 148 181 243 298 348 450
#     4  11  23  48  80 103 143 195 241 306 380 433
#     4  12  26  46  71 105 149 200 237 301 375 438
#     4  11  27  41  70 105 145 196 239 292 377 440
#     4  11  25  48  72 106 152 189 248 311 364 444
#     4  10  22  49  75 108 145 188 248 309 368 438
#     4  10  24  44  69 104 148 185 239 301 359 443
#
# _framework density 27.645571
#
# number of rings (size 3 to 8) (size 9 to 14) (size 15 to 20)
#    0.000    1.250    3.750    0.375   10.500    1.500 
#    4.500    1.250    0.000    0.000    0.000    0.000 
#    0.000    0.000    0.000    0.000    0.000    0.000 
#
# Total GULP energy -178882.396849 kJ/mol
# GULP energy per Si atom -5590.074902 kJ/mol
# Density = 2.758265 g / cm^3
# Si number density = 27.645571 Si / 1000 Ang^3
#
#
#
# Elastic Constant Matrix: (Units=GPa)
#
#
# Indices 1 2 3 4 5 6 
#
# 1 124.4787 59.1553 47.3858 0.0000 -12.4209 0.0000
# 2 59.1553 124.5812 40.0510 0.0000 3.3645 0.0000
# 3 47.3858 40.0510 159.4442 0.0000 -13.7889 0.0000
# 4 0.0000 0.0000 0.0000 53.9613 0.0000 0.2310
# 5 -12.4209 3.3645 -13.7889 0.0000 41.9111 0.0000
# 6 0.0000 0.0000 0.0000 0.2310 0.0000 45.7596
#
#
#
# Elastic Compliance Matrix: (Units=1/GPa)
#
#
# Indices 1 2 3 4 5 6 
#
# 1 0.011387 -0.004886 -0.001885 0.000000 0.003147 0.000000
# 2 -0.004886 0.010917 -0.001535 0.000000 -0.002829 0.000000
# 3 -0.001885 -0.001535 0.007390 0.000000 0.001996 0.000000
# 4 0.000000 0.000000 0.000000 0.018532 0.000000 -0.000094
# 5 0.003147 -0.002829 0.001996 0.000000 0.025676 0.000000
# 6 0.000000 0.000000 0.000000 -0.000094 0.000000 0.021854
#
#
# Mechanical properties :
#
#
# Convention : Reuss Voigt Hill
#
# Bulk Modulus (GPa) = 76.43614 77.96539 77.20076
# Shear Modulus (GPa) = 42.83469 45.78721 44.31095
#
# Velocity S-wave (km/s) = 3.94054 4.07409 4.00787
# Velocity P-wave (km/s) = 6.95791 7.09887 7.02874
#
# Compressibility (1/GPa) = 0.01308282
#
# Stress axis : x y z
#
# Youngs Moduli (GPa) = 87.82052 91.60252 135.31730
#
# Poissons Ratio (x) = 0.44757 0.25503
# Poissons Ratio (y) = 0.42909 0.20768
# Poissons Ratio (z) = 0.16551 0.14059
#
# Static dielectric constant tensor:
#      x y z
#    x 2.192410 0.000000 -0.031670 
#    y 0.000000 2.088620 0.000000 
#    z -0.031670 0.000000 2.202930 
# 
# From -- ./inp_files/22273.got.cif
#   From: 2010.05.17/outbox.cif.g08.bks.cpg/sg14_12_cif.got.tgz:22273.got - 2010.06.03 17:49:19.
