data_PCOD9249260
_publ_section_title
;
Structure prediction by ZEFSAII (Michael W. Deem and Ramdas Pophale) SiO2 
 PCOD9249260
Probable space group: P 21/C
;
_chemical_formula_sum "Si O2"
_cell_formula_units_Z 28
_cell_length_a 7.621328
_cell_length_b 28.428206
_cell_length_c 7.537115
_cell_angle_alpha 90.000000
_cell_angle_beta 45.123231
_cell_angle_gamma 90.000000
_cell_volume 1157.183731
_symmetry_space_group_name_H-M "P 21/C"
_symmetry_group_IT_number 14
_symmetry_cell_setting 'monoclinic'
loop_
_space_group_symop_operation_xyz
x,y,z
-x,1/2+y,1/2-z
-x,-y,-z
x,1/2-y,1/2+z
loop_
_atom_site_type_symbol
_atom_site_label
_atom_site_fract_x
_atom_site_fract_y
_atom_site_fract_z
Si Si1 0.321898 0.097787 0.141063
Si Si2 0.615665 0.716490 0.042893
Si Si3 0.979415 0.344702 0.072275
Si Si4 0.720811 0.143649 0.107737
Si Si5 0.223019 0.942256 0.718412
Si Si6 0.360181 0.024767 0.864211
Si Si7 0.544620 0.818140 0.198396
O O1 0.486528 0.119779 0.179171
O O2 0.053671 0.108201 0.412391
O O3 0.416323 0.046936 0.016994
O O4 0.347914 0.133641 0.956861
O O5 0.351407 0.697458 0.305491
O O6 0.631033 0.772206 0.028738
O O7 0.620892 0.693067 0.844725
O O8 0.820053 0.695591 0.030083
O O9 0.922317 0.360918 0.312978
O O10 0.746124 0.322844 0.137807
O O11 0.767461 0.112901 0.246161
O O12 0.417755 0.954881 0.421741
O O13 0.327232 0.972571 0.811544
O O14 0.930647 0.956295 0.926350
#
# Coordination Sequence:
#
# PCOD9249260 Si02
#       7
#     4   4   4   4   4   4   4
#     4  10  23  39  62  91 125 170 218 270 331 399
#     4  11  24  41  63  92 127 170 220 275 334 395
#     4  10  24  42  59  94 130 166 223 272 330 402
#     4  10  23  39  62  91 125 170 218 270 331 399
#     4  10  23  42  66  97 131 171 223 277 334 401
#     4  10  23  42  66  97 131 171 223 277 334 401
#     4  11  24  41  63  92 127 170 220 275 334 395
#
# _framework density 24.196677000000001
#
# number of rings (size 3 to 8) (size 9 to 14) (size 15 to 20)
#    0.000    1.714    0.000    3.429   12.000    5.143 
#    0.000    0.714    0.000    0.000    0.000    0.000 
#    0.000    0.000    0.000    0.000    0.000    0.000 
#
# Total GULP energy -156069.486597 kJ/mol
# GULP energy per Si atom -5573.910236 kJ/mol
# Density = 2.414160 g / cm^3
# Si number density = 24.196677 Si / 1000 Ang^3
#
#
#
# Elastic Constant Matrix: (Units=GPa)
#
#
# Indices 1 2 3 4 5 6 
#
# 1 147.2548 -29.9350 -14.6677 0.0000 -36.0332 0.0000
# 2 -29.9350 89.5277 30.3974 0.0000 -2.2015 0.0000
# 3 -14.6677 30.3974 130.6927 0.0000 16.8699 0.0000
# 4 0.0000 0.0000 0.0000-1584.3554 0.0000 1165.1410
# 5 -36.0332 -2.2015 16.8699 0.0000 44.0966 0.0000
# 6 0.0000 0.0000 0.0000 1165.1410 0.0000 -797.7592
#
#
#
# Elastic Compliance Matrix: (Units=1/GPa)
#
#
# Indices 1 2 3 4 5 6 
#
# 1 0.009467 0.003658 -0.000852 0.000000 0.008245 0.000000
# 2 0.003658 0.013674 -0.003412 0.000000 0.004977 0.000000
# 3 -0.000852 -0.003412 0.008901 0.000000 -0.004272 0.000000
# 4 0.000000 0.000000 0.000000 0.008521 0.000000 0.012445
# 5 0.008245 0.004977 -0.004272 0.000000 0.031297 0.000000
# 6 0.000000 0.000000 0.000000 0.012445 0.000000 0.016923
#
#
# Mechanical properties :
#
#
# Convention : Reuss Voigt Hill
#
# Bulk Modulus (GPa) = 32.43848 37.67384 35.05616
# Shear Modulus (GPa) = 49.86355 -442.15823 -196.14734
#
# Velocity S-wave (km/s) = 4.54448 -13.53262 -9.01331
# Velocity P-wave (km/s) = 6.40092 15.11860 9.68505
#
# Compressibility (1/GPa) = 0.03082758
#
# Stress axis : x y z
#
# Youngs Moduli (GPa) = 105.62942 73.13327 112.34751
#
# Poissons Ratio (x) = -0.26750 0.09577
# Poissons Ratio (y) = -0.38635 0.38336
# Poissons Ratio (z) = 0.09004 0.24955
#
# Static dielectric constant tensor:
#      x y z
#    x 1.997030 0.000000 -0.030200 
#    y 0.000000 1.893480 0.000000 
#    z -0.030200 0.000000 1.988090 
# 
# From -- ./inp_files/11155.got.cif
#   From: 2010.05.17/outbox.cif.g08.bks.cpg/sg14_6_cif.got.tgz:11155.got - 2010.06.03 17:49:19.
