data_PCOD9249049
_publ_section_title
;
Structure prediction by ZEFSAII (Michael W. Deem and Ramdas Pophale) SiO2 
 PCOD9249049
Probable space group: P 21/C
;
_chemical_formula_sum "Si O2"
_cell_formula_units_Z 20
_cell_length_a 20.005496
_cell_length_b 7.377152
_cell_length_c 14.675466
_cell_angle_alpha 90.000000
_cell_angle_beta 160.176295
_cell_angle_gamma 90.000000
_cell_volume 734.501237
_symmetry_space_group_name_H-M "P 21/C"
_symmetry_group_IT_number 14
_symmetry_cell_setting 'monoclinic'
loop_
_space_group_symop_operation_xyz
x,y,z
-x,1/2+y,1/2-z
-x,-y,-z
x,1/2-y,1/2+z
loop_
_atom_site_type_symbol
_atom_site_label
_atom_site_fract_x
_atom_site_fract_y
_atom_site_fract_z
Si Si1 0.467129 0.118588 0.819694
Si Si2 0.566991 0.305567 0.245594
Si Si3 0.163167 0.635862 0.113080
Si Si4 0.129791 0.102219 0.925982
Si Si5 0.868593 0.717118 0.370633
O O1 0.581141 0.162514 0.872262
O O2 0.271501 0.235091 0.575685
O O3 0.420308 0.907345 0.756062
O O4 0.606089 0.179936 0.081776
O O5 0.733645 0.425206 0.411173
O O6 0.342927 0.361130 0.931121
O O7 0.164602 0.433809 0.158885
O O8 0.047850 0.603898 0.872264
O O9 0.037993 0.779948 0.011824
O O10 0.071697 0.137721 0.955307
#
# Coordination Sequence:
#
# PCOD9249049 Si02
#       5
#     4   4   4   4   4
#     4  11  23  45  79 102 149 201 238 306 371 427
#     4  11  21  43  72 105 145 188 244 296 364 440
#     4  10  23  49  70 107 155 186 242 314 360 427
#     4  12  24  48  74 110 145 197 247 300 369 443
#     4  10  22  45  74 103 147 192 239 306 366 429
#
# _framework density 27.229361999999998
#
# number of rings (size 3 to 8) (size 9 to 14) (size 15 to 20)
#    0.000    1.200    4.000    3.000    0.000    3.200 
#   18.000    4.000    0.000    0.000    0.000    0.000 
#    0.000    0.000    0.000    0.000    0.000    0.000 
#
# Total GULP energy -112370.630859 kJ/mol
# GULP energy per Si atom -5618.531543 kJ/mol
# Density = 2.716739 g / cm^3
# Si number density = 27.229362 Si / 1000 Ang^3
#
#
#
# Elastic Constant Matrix: (Units=GPa)
#
#
# Indices 1 2 3 4 5 6 
#
# 1 98.7557 55.1052 46.2042 0.0000 -6.2736 0.0000
# 2 55.1052 143.1276 43.3387 0.0000 7.7626 0.0000
# 3 46.2042 43.3387 172.1862 0.0000 -22.2040 0.0000
# 4 0.0000 0.0000 0.0000 36.5924 0.0000 5.2747
# 5 -6.2736 7.7626 -22.2040 0.0000 47.0509 0.0000
# 6 0.0000 0.0000 0.0000 5.2747 0.0000 46.9733
#
#
#
# Elastic Compliance Matrix: (Units=1/GPa)
#
#
# Indices 1 2 3 4 5 6 
#
# 1 0.013977 -0.004751 -0.002357 0.000000 0.001535 0.000000
# 2 -0.004751 0.009416 -0.001466 0.000000 -0.002879 0.000000
# 3 -0.002357 -0.001466 0.007240 0.000000 0.003345 0.000000
# 4 0.000000 0.000000 0.000000 0.027778 0.000000 -0.003119
# 5 0.001535 -0.002879 0.003345 0.000000 0.023512 0.000000
# 6 0.000000 0.000000 0.000000 -0.003119 0.000000 0.021639
#
#
# Mechanical properties :
#
#
# Convention : Reuss Voigt Hill
#
# Bulk Modulus (GPa) = 74.15426 78.15175 76.15300
# Shear Modulus (GPa) = 39.93432 44.08475 42.00953
#
# Velocity S-wave (km/s) = 3.83376 4.02806 3.93211
# Velocity P-wave (km/s) = 6.84758 7.09911 6.97448
#
# Compressibility (1/GPa) = 0.01348540
#
# Stress axis : x y z
#
# Youngs Moduli (GPa) = 71.54497 106.20121 138.11241
#
# Poissons Ratio (x) = 0.50456 0.32551
# Poissons Ratio (y) = 0.33991 0.20253
# Poissons Ratio (z) = 0.16862 0.15573
#
# Static dielectric constant tensor:
#      x y z
#    x 2.143950 0.000000 0.005100 
#    y 0.000000 2.129660 0.000000 
#    z 0.005100 0.000000 2.060430 
# 
# From -- ./inp_files/50176.got.cif
#   From: 2010.05.17/outbox.cif.g08.bks.cpg/sg14_26_cif.got.tgz:50176.got - 2010.06.03 17:49:19.
