data_PCOD9249930
_publ_section_title
;
Structure prediction by ZEFSAII (Michael W. Deem and Ramdas Pophale) SiO2 
 PCOD9249930
Probable space group: P 21/C
;
_chemical_formula_sum "Si O2"
_cell_formula_units_Z 20
_cell_length_a 9.178388
_cell_length_b 11.474570
_cell_length_c 10.573488
_cell_angle_alpha 90.000000
_cell_angle_beta 46.310755
_cell_angle_gamma 90.000000
_cell_volume 805.225575
_symmetry_space_group_name_H-M "P 21/C"
_symmetry_group_IT_number 14
_symmetry_cell_setting 'monoclinic'
loop_
_space_group_symop_operation_xyz
x,y,z
-x,1/2+y,1/2-z
-x,-y,-z
x,1/2-y,1/2+z
loop_
_atom_site_type_symbol
_atom_site_label
_atom_site_fract_x
_atom_site_fract_y
_atom_site_fract_z
Si Si1 0.488222 0.456020 0.302752
Si Si2 0.502986 0.838624 0.943307
Si Si3 0.676798 0.582148 0.842406
Si Si4 0.969079 0.200636 0.750471
Si Si5 0.072395 0.630149 0.996590
O O1 0.423312 0.403815 0.475163
O O2 0.561769 0.587252 0.285619
O O3 0.308640 0.454869 0.311495
O O4 0.683882 0.382748 0.142707
O O5 0.586829 0.711033 0.896338
O O6 0.261626 0.837033 0.091999
O O7 0.880942 0.596835 0.796826
O O8 0.500000 0.500000 0.000000
O O9 0.986599 0.212861 0.587812
O O10 0.997533 0.309828 0.830235
O O11 0.000000 0.500000 0.000000
#
# Coordination Sequence:
#
# PCOD9249930 Si02
#       5
#     4   4   4   4   4
#     4  10  23  44  71  93 145 183 237 291 357 425
#     4  10  24  47  66 105 137 193 231 295 363 433
#     4  12  26  42  71 106 142 183 234 300 354 431
#     4  11  26  43  75 104 147 187 246 297 368 434
#     4  11  23  48  70 105 145 195 239 300 361 438
#
# _framework density 24.837762000000001
#
# number of rings (size 3 to 8) (size 9 to 14) (size 15 to 20)
#    0.000    1.200    2.000    2.400    5.600    0.800 
#    0.000    0.000    0.000    0.000    0.000    0.000 
#    0.000    0.000    0.000    0.000    0.000    0.000 
#
# Total GULP energy -111877.118652 kJ/mol
# GULP energy per Si atom -5593.855933 kJ/mol
# Density = 2.478123 g / cm^3
# Si number density = 24.837762 Si / 1000 Ang^3
#
#
#
# Elastic Constant Matrix: (Units=GPa)
#
#
# Indices 1 2 3 4 5 6 
#
# 1 130.1060 10.8930 26.9306 0.0000 15.1838 0.0000
# 2 10.8930 109.7565 22.4085 0.0000 22.5014 0.0000
# 3 26.9306 22.4085 60.1070 0.0000 -4.5198 0.0000
# 4 0.0000 0.0000 0.0000 40.6621 0.0000 6.0797
# 5 15.1838 22.5014 -4.5198 0.0000 42.3478 0.0000
# 6 0.0000 0.0000 0.0000 6.0797 0.0000 20.7230
#
#
#
# Elastic Compliance Matrix: (Units=1/GPa)
#
#
# Indices 1 2 3 4 5 6 
#
# 1 0.009087 0.000941 -0.004742 0.000000 -0.004264 0.000000
# 2 0.000941 0.011529 -0.005248 0.000000 -0.007023 0.000000
# 3 -0.004742 -0.005248 0.021226 0.000000 0.006754 0.000000
# 4 0.000000 0.000000 0.000000 0.025721 0.000000 -0.007546
# 5 -0.004264 -0.007023 0.006754 0.000000 0.029595 0.000000
# 6 0.000000 0.000000 0.000000 -0.007546 0.000000 0.050470
#
#
# Mechanical properties :
#
#
# Convention : Reuss Voigt Hill
#
# Bulk Modulus (GPa) = 42.11849 46.71484 44.41666
# Shear Modulus (GPa) = 28.79503 36.72907 32.76205
#
# Velocity S-wave (km/s) = 3.40858 3.84964 3.63580
# Velocity P-wave (km/s) = 5.69960 6.21357 5.96213
#
# Compressibility (1/GPa) = 0.02374254
#
# Stress axis : x y z
#
# Youngs Moduli (GPa) = 110.05277 86.73810 47.11182
#
# Poissons Ratio (x) = -0.08159 0.22343
# Poissons Ratio (y) = -0.10352 0.24723
# Poissons Ratio (z) = 0.52192 0.45517
#
# Static dielectric constant tensor:
#      x y z
#    x 2.011900 0.000000 0.015310 
#    y 0.000000 2.013510 0.000000 
#    z 0.015310 0.000000 2.015080 
# 
# From -- ./inp_files/24036.got.cif
#   From: 2010.05.17/outbox.cif.g08.bks.cpg/sg14_13_cif.got.tgz:24036.got - 2010.06.03 17:49:19.
