data_PCOD9249340
_publ_section_title
;
Structure prediction by ZEFSAII (Michael W. Deem and Ramdas Pophale) SiO2 
 PCOD9249340
Probable space group: P 21/C
;
_chemical_formula_sum "Si O2"
_cell_formula_units_Z 28
_cell_length_a 7.817130
_cell_length_b 10.613740
_cell_length_c 22.074265
_cell_angle_alpha 90.000000
_cell_angle_beta 144.869528
_cell_angle_gamma 90.000000
_cell_volume 1053.907025
_symmetry_space_group_name_H-M "P 21/C"
_symmetry_group_IT_number 14
_symmetry_cell_setting 'monoclinic'
loop_
_space_group_symop_operation_xyz
x,y,z
-x,1/2+y,1/2-z
-x,-y,-z
x,1/2-y,1/2+z
loop_
_atom_site_type_symbol
_atom_site_label
_atom_site_fract_x
_atom_site_fract_y
_atom_site_fract_z
Si Si1 0.297476 0.654803 0.998080
Si Si2 0.498594 0.433877 0.824943
Si Si3 0.690621 0.947000 0.859779
Si Si4 0.083596 0.427520 0.878999
Si Si5 0.358885 0.303012 0.073851
Si Si6 0.350421 0.559469 0.530862
Si Si7 0.848843 0.367502 0.682803
O O1 0.272822 0.633555 0.063203
O O2 0.603201 0.589189 0.066679
O O3 0.054523 0.571867 0.893288
O O4 0.337054 0.801652 0.000900
O O5 0.515842 0.422615 0.757913
O O6 0.545322 0.579332 0.857237
O O7 0.172507 0.378564 0.747878
O O8 0.731529 0.817503 0.910993
O O9 0.012832 0.988969 0.926450
O O10 0.609864 0.055436 0.884234
O O11 0.874420 0.389368 0.762964
O O12 0.140007 0.344544 0.955869
O O13 0.663001 0.260776 0.127128
O O14 0.369596 0.525027 0.406937
#
# Coordination Sequence:
#
# PCOD9249340 Si02
#       7
#     4   4   4   4   4   4   4
#     4   9  20  40  66  96 126 168 217 278 327 386
#     4  10  23  40  66  99 130 172 225 271 331 391
#     4  10  24  44  60  96 139 175 219 264 326 415
#     4   9  20  42  66  96 131 164 222 279 327 383
#     4  10  23  44  65  97 135 178 216 271 339 389
#     4  10  23  42  61  95 130 173 219 269 332 388
#     4  10  23  40  70 100 125 171 226 282 332 378
#
# _framework density 26.567806999999998
#
# number of rings (size 3 to 8) (size 9 to 14) (size 15 to 20)
#    0.000    2.286    0.000    0.857    8.000    5.143 
#    5.143    1.429    0.000    0.000    0.000    0.000 
#    0.000    0.000    0.000    0.000    0.000    0.000 
#
# Total GULP energy -156579.967302 kJ/mol
# GULP energy per Si atom -5592.141689 kJ/mol
# Density = 2.650734 g / cm^3
# Si number density = 26.567807 Si / 1000 Ang^3
#
#
#
# Elastic Constant Matrix: (Units=GPa)
#
#
# Indices 1 2 3 4 5 6 
#
# 1 95.1946 9.9534 16.7378 0.0000 -25.1545 0.0000
# 2 9.9534 137.3921 38.3264 0.0000 -13.1698 0.0000
# 3 16.7378 38.3264 163.5318 0.0000 -31.7049 0.0000
# 4 0.0000 0.0000 0.0000 35.5265 0.0000 -6.0445
# 5 -25.1545 -13.1698 -31.7049 0.0000 60.7572 0.0000
# 6 0.0000 0.0000 0.0000 -6.0445 0.0000 40.8919
#
#
#
# Elastic Compliance Matrix: (Units=1/GPa)
#
#
# Indices 1 2 3 4 5 6 
#
# 1 0.011823 -0.000345 -0.000217 0.000000 0.004707 0.000000
# 2 -0.000345 0.007834 -0.001668 0.000000 0.000685 0.000000
# 3 -0.000217 -0.001668 0.007166 0.000000 0.003288 0.000000
# 4 0.000000 0.000000 0.000000 0.028874 0.000000 0.004268
# 5 0.004707 0.000685 0.003288 0.000000 0.020272 0.000000
# 6 0.000000 0.000000 0.000000 0.004268 0.000000 0.025086
#
#
# Mechanical properties :
#
#
# Convention : Reuss Voigt Hill
#
# Bulk Modulus (GPa) = 44.71557 58.46153 51.58855
# Shear Modulus (GPa) = 44.26027 49.50851 46.88439
#
# Velocity S-wave (km/s) = 4.08602 4.32148 4.20540
# Velocity P-wave (km/s) = 6.25524 6.85221 6.56051
#
# Compressibility (1/GPa) = 0.02236358
#
# Stress axis : x y z
#
# Youngs Moduli (GPa) = 84.58275 127.64241 139.55608
#
# Poissons Ratio (x) = 0.04402 0.03024
# Poissons Ratio (y) = 0.02917 0.23278
# Poissons Ratio (z) = 0.01833 0.21291
#
# Static dielectric constant tensor:
#      x y z
#    x 2.241240 0.000000 0.018710 
#    y 0.000000 2.040480 0.000000 
#    z 0.018710 0.000000 2.145730 
# 
# From -- ./inp_files/65645.got.cif
#   From: 2010.05.17/outbox.cif.g08.bks.cpg/sg14_33_cif.got.tgz:65645.got - 2010.06.03 17:49:19.
