data_PCOD9249736
_publ_section_title
;
Structure prediction by ZEFSAII (Michael W. Deem and Ramdas Pophale) SiO2 
 PCOD9249736
Probable space group: P 21/C
;
_chemical_formula_sum "Si O2"
_cell_formula_units_Z 16
_cell_length_a 4.852773
_cell_length_b 5.483333
_cell_length_c 22.704766
_cell_angle_alpha 90.000000
_cell_angle_beta 69.945888
_cell_angle_gamma 90.000000
_cell_volume 567.528843
_symmetry_space_group_name_H-M "P 21/C"
_symmetry_group_IT_number 14
_symmetry_cell_setting 'monoclinic'
loop_
_space_group_symop_operation_xyz
x,y,z
-x,1/2+y,1/2-z
-x,-y,-z
x,1/2-y,1/2+z
loop_
_atom_site_type_symbol
_atom_site_label
_atom_site_fract_x
_atom_site_fract_y
_atom_site_fract_z
Si Si1 0.155936 0.459955 0.632819
Si Si2 0.656088 0.464511 0.759383
Si Si3 0.690836 0.896294 0.039843
Si Si4 0.720371 0.459127 0.895460
O O1 0.512487 0.487271 0.609125
O O2 0.079325 0.719791 0.608565
O O3 0.976221 0.452563 0.705703
O O4 0.119367 0.207817 0.601012
O O5 0.504592 0.714878 0.748638
O O6 0.679337 0.472083 0.828051
O O7 0.592365 0.612712 0.053003
O O8 0.500000 0.000000 0.000000
O O9 0.000000 0.000000 0.000000
#
# Coordination Sequence:
#
# PCOD9249736 Si02
#       4
#     4   4   4   4
#     4  10  23  43  67  98 144 185 237 290 364 417
#     4  12  24  38  70 106 144 184 238 300 366 430
#     4  10  26  46  74 104 146 192 244 292 356 432
#     4  10  23  43  67  98 144 185 237 290 364 417
#
# _framework density 28.192399999999999
#
# number of rings (size 3 to 8) (size 9 to 14) (size 15 to 20)
#    1.500    0.000    0.000    4.500    3.500    2.000 
#    0.000    0.000    0.000    0.000    0.000    0.000 
#    0.000    0.000    0.000    0.000    0.000    0.000 
#
# Total GULP energy -89462.967927 kJ/mol
# GULP energy per Si atom -5591.435495 kJ/mol
# Density = 2.812823 g / cm^3
# Si number density = 28.192400 Si / 1000 Ang^3
#
#
#
# Elastic Constant Matrix: (Units=GPa)
#
#
# Indices 1 2 3 4 5 6 
#
# 1 127.6901 46.9797 69.0130 0.0000 -40.4068 0.0000
# 2 46.9797 247.7581 41.0977 0.0000 -2.3298 0.0000
# 3 69.0130 41.0977 165.2761 0.0000 -36.3861 0.0000
# 4 0.0000 0.0000 0.0000 55.2960 0.0000 -0.8997
# 5 -40.4068 -2.3298 -36.3861 0.0000 60.2067 0.0000
# 6 0.0000 0.0000 0.0000 -0.8997 0.0000 44.0485
#
#
#
# Elastic Compliance Matrix: (Units=1/GPa)
#
#
# Indices 1 2 3 4 5 6 
#
# 1 0.012184 -0.001702 -0.003320 0.000000 0.006105 0.000000
# 2 -0.001702 0.004463 -0.000707 0.000000 -0.001397 0.000000
# 3 -0.003320 -0.000707 0.008208 0.000000 0.002705 0.000000
# 4 0.000000 0.000000 0.000000 0.018091 0.000000 0.000369
# 5 0.006105 -0.001397 0.002705 0.000000 0.022287 0.000000
# 6 0.000000 0.000000 0.000000 0.000369 0.000000 0.022710
#
#
# Mechanical properties :
#
#
# Convention : Reuss Voigt Hill
#
# Bulk Modulus (GPa) = 74.64306 94.98947 84.81626
# Shear Modulus (GPa) = 48.13878 57.48581 52.81230
#
# Velocity S-wave (km/s) = 4.13668 4.52049 4.33284
# Velocity P-wave (km/s) = 7.02496 7.81107 7.42842
#
# Compressibility (1/GPa) = 0.01339709
#
# Stress axis : x y z
#
# Youngs Moduli (GPa) = 82.07446 224.06381 121.83074
#
# Poissons Ratio (x) = 0.38139 0.40453
# Poissons Ratio (y) = 0.13970 0.08607
# Poissons Ratio (z) = 0.27252 0.15830
#
# Static dielectric constant tensor:
#      x y z
#    x 2.271960 0.000000 0.017480 
#    y 0.000000 2.306400 0.000000 
#    z 0.017480 0.000000 2.213410 
# 
# From -- ./inp_files/70808.got.cif
#   From: 2010.05.17/outbox.cif.g08.bks.cpg/sg14_36_cif.got.tgz:70808.got - 2010.06.03 17:49:19.
