data_PCOD9249894
_publ_section_title
;
Structure prediction by ZEFSAII (Michael W. Deem and Ramdas Pophale) SiO2 
 PCOD9249894
Probable space group: P 21/C
;
_chemical_formula_sum "Si O2"
_cell_formula_units_Z 20
_cell_length_a 5.382961
_cell_length_b 13.228851
_cell_length_c 11.907258
_cell_angle_alpha 90.000000
_cell_angle_beta 66.397394
_cell_angle_gamma 90.000000
_cell_volume 776.987279
_symmetry_space_group_name_H-M "P 21/C"
_symmetry_group_IT_number 14
_symmetry_cell_setting 'monoclinic'
loop_
_space_group_symop_operation_xyz
x,y,z
-x,1/2+y,1/2-z
-x,-y,-z
x,1/2-y,1/2+z
loop_
_atom_site_type_symbol
_atom_site_label
_atom_site_fract_x
_atom_site_fract_y
_atom_site_fract_z
Si Si1 0.757425 0.461758 0.295464
Si Si2 0.516439 0.670790 0.949133
Si Si3 0.111253 0.390512 0.914599
Si Si4 0.135843 0.186758 0.812649
Si Si5 0.256970 0.111542 0.017126
O O1 0.882470 0.541977 0.364292
O O2 0.458631 0.454109 0.401475
O O3 0.828031 0.507825 0.163459
O O4 0.881676 0.350119 0.286535
O O5 0.619223 0.642655 0.805818
O O6 0.205821 0.638422 0.018506
O O7 0.586908 0.790279 0.960053
O O8 0.706292 0.616446 0.007363
O O9 0.212366 0.302332 0.813183
O O10 0.069067 0.154610 0.952344
#
# Coordination Sequence:
#
# PCOD9249894 Si02
#       5
#     4   4   4   4   4
#     4  11  23  44  70 102 134 182 231 282 334 415
#     4  11  25  46  70 100 140 181 226 280 348 400
#     4  11  26  44  69 103 138 181 225 286 341 402
#     4  11  24  44  70  99 139 179 227 287 338 403
#     4  10  23  44  69 101 131 187 232 278 334 410
#
# _framework density 25.740447
#
# number of rings (size 3 to 8) (size 9 to 14) (size 15 to 20)
#    0.000    1.200    4.000    0.600    5.600    1.600 
#    0.000    0.000    0.000    0.000    0.000    0.000 
#    0.000    0.000    0.000    0.000    0.000    0.000 
#
# Total GULP energy -111697.401363 kJ/mol
# GULP energy per Si atom -5584.870068 kJ/mol
# Density = 2.568186 g / cm^3
# Si number density = 25.740447 Si / 1000 Ang^3
#
#
#
# Elastic Constant Matrix: (Units=GPa)
#
#
# Indices 1 2 3 4 5 6 
#
# 1 100.3471 3.4453 41.9277 0.0000 9.7539 0.0000
# 2 3.4453 80.8672 21.2864 0.0000 27.9906 0.0000
# 3 41.9277 21.2864 129.4602 0.0000 7.6918 0.0000
# 4 0.0000 0.0000 0.0000 55.6105 0.0000 4.8783
# 5 9.7539 27.9906 7.6918 0.0000 32.3287 0.0000
# 6 0.0000 0.0000 0.0000 4.8783 0.0000 31.7337
#
#
#
# Elastic Compliance Matrix: (Units=1/GPa)
#
#
# Indices 1 2 3 4 5 6 
#
# 1 0.011982 0.002080 -0.003957 0.000000 -0.004474 0.000000
# 2 0.002080 0.018557 -0.002772 0.000000 -0.016035 0.000000
# 3 -0.003957 -0.002772 0.009381 0.000000 0.001362 0.000000
# 4 0.000000 0.000000 0.000000 0.018228 0.000000 -0.002802
# 5 -0.004474 -0.016035 0.001362 0.000000 0.045842 0.000000
# 6 0.000000 0.000000 0.000000 -0.002802 0.000000 0.031943
#
#
# Mechanical properties :
#
#
# Convention : Reuss Voigt Hill
#
# Bulk Modulus (GPa) = 32.65631 49.33261 40.99446
# Shear Modulus (GPa) = 32.16710 40.20223 36.18467
#
# Velocity S-wave (km/s) = 3.53890 3.95629 3.75340
# Velocity P-wave (km/s) = 5.42335 6.33061 5.89446
#
# Compressibility (1/GPa) = 0.03062195
#
# Stress axis : x y z
#
# Youngs Moduli (GPa) = 83.45744 53.88725 106.60179
#
# Poissons Ratio (x) = -0.11207 0.42179
# Poissons Ratio (y) = -0.17357 0.29551
# Poissons Ratio (z) = 0.33022 0.14938
#
# Static dielectric constant tensor:
#      x y z
#    x 2.024950 0.000000 0.057480 
#    y 0.000000 2.215210 0.000000 
#    z 0.057480 0.000000 2.005400 
# 
# From -- ./inp_files/20622.got.cif
#   From: 2010.05.17/outbox.cif.g08.bks.cpg/sg14_11_cif.got.tgz:20622.got - 2010.06.03 17:49:19.
