data_PCOD9249348
_publ_section_title
;
Structure prediction by ZEFSAII (Michael W. Deem and Ramdas Pophale) SiO2 
 PCOD9249348
Probable space group: P 21/C
;
_chemical_formula_sum "Si O2"
_cell_formula_units_Z 28
_cell_length_a 14.328412
_cell_length_b 8.499478
_cell_length_c 22.126432
_cell_angle_alpha 90.000000
_cell_angle_beta 150.550232
_cell_angle_gamma 90.000000
_cell_volume 1324.850457
_symmetry_space_group_name_H-M "P 21/C"
_symmetry_group_IT_number 14
_symmetry_cell_setting 'monoclinic'
loop_
_space_group_symop_operation_xyz
x,y,z
-x,1/2+y,1/2-z
-x,-y,-z
x,1/2-y,1/2+z
loop_
_atom_site_type_symbol
_atom_site_label
_atom_site_fract_x
_atom_site_fract_y
_atom_site_fract_z
Si Si1 0.824267 0.174585 0.624896
Si Si2 0.435020 0.884639 0.625874
Si Si3 0.258707 0.302092 0.256171
Si Si4 0.638919 0.394362 0.620516
Si Si5 0.092039 0.842934 0.524740
Si Si6 0.915382 0.559209 0.274371
Si Si7 0.728001 0.349811 0.266390
O O1 0.681050 0.085071 0.500853
O O2 0.731912 0.279472 0.624644
O O3 0.935757 0.041230 0.724842
O O4 0.928042 0.304585 0.642227
O O5 0.554170 0.724759 0.678815
O O6 0.280885 0.874975 0.591639
O O7 0.591886 0.020007 0.719568
O O8 0.241991 0.471572 0.277177
O O9 0.266398 0.172536 0.314660
O O10 0.076180 0.271035 0.111296
O O11 0.500000 0.500000 0.500000
O O12 0.600332 0.271415 0.654030
O O13 0.157518 0.737241 0.617147
O O14 0.000000 0.000000 0.500000
O O15 0.882493 0.434199 0.309359
#
# Coordination Sequence:
#
# PCOD9249348 Si02
#       7
#     4   4   4   4   4   4   4
#     4  11  22  42  67 103 142 183 231 296 355 430
#     4  11  26  44  70 103 137 185 238 294 355 416
#     4  11  23  45  69 104 139 185 233 293 349 425
#     4  11  22  40  69 103 139 177 231 285 356 418
#     4  12  26  48  71  99 144 185 237 293 348 422
#     4  10  23  40  68 100 141 179 234 285 361 417
#     4  10  26  46  68 101 138 190 232 290 351 420
#
# _framework density 21.134460000000001
#
# number of rings (size 3 to 8) (size 9 to 14) (size 15 to 20)
#    0.000    1.143    4.286    0.857    4.000    4.000 
#    2.571    0.000    0.000    0.000    0.000    0.000 
#    0.000    0.000    0.000    0.000    0.000    0.000 
#
# Total GULP energy -155919.473600 kJ/mol
# GULP energy per Si atom -5568.552629 kJ/mol
# Density = 2.108636 g / cm^3
# Si number density = 21.134460 Si / 1000 Ang^3
#
#
#
# Elastic Constant Matrix: (Units=GPa)
#
#
# Indices 1 2 3 4 5 6 
#
# 1 105.3109 18.4372 31.8670 0.0000 -8.7567 0.0000
# 2 18.4372 86.6927 26.3301 0.0000 -18.3686 0.0000
# 3 31.8670 26.3301 85.4343 0.0000 -9.7003 0.0000
# 4 0.0000 0.0000 0.0000 46.2553 0.0000 1.1664
# 5 -8.7567 -18.3686 -9.7003 0.0000 20.0374 0.0000
# 6 0.0000 0.0000 0.0000 1.1664 0.0000 28.3797
#
#
#
# Elastic Compliance Matrix: (Units=1/GPa)
#
#
# Indices 1 2 3 4 5 6 
#
# 1 0.010901 -0.000733 -0.003572 0.000000 0.002363 0.000000
# 2 -0.000733 0.015181 -0.003028 0.000000 0.012130 0.000000
# 3 -0.003572 -0.003028 0.014262 0.000000 0.002568 0.000000
# 4 0.000000 0.000000 0.000000 0.021642 0.000000 -0.000889
# 5 0.002363 0.012130 0.002568 0.000000 0.063303 0.000000
# 6 0.000000 0.000000 0.000000 -0.000889 0.000000 0.035273
#
#
# Mechanical properties :
#
#
# Convention : Reuss Voigt Hill
#
# Bulk Modulus (GPa) = 38.94324 47.85627 43.39975
# Shear Modulus (GPa) = 27.20552 32.32138 29.76345
#
# Velocity S-wave (km/s) = 3.59173 3.91490 3.75679
# Velocity P-wave (km/s) = 5.97220 6.56720 6.27675
#
# Compressibility (1/GPa) = 0.02567840
#
# Stress axis : x y z
#
# Youngs Moduli (GPa) = 91.73143 65.87323 70.11646
#
# Poissons Ratio (x) = 0.04828 0.25046
# Poissons Ratio (y) = 0.06723 0.21231
# Poissons Ratio (z) = 0.32767 0.19946
#
# Static dielectric constant tensor:
#      x y z
#    x 1.840490 0.000000 0.011790 
#    y 0.000000 1.803030 0.000000 
#    z 0.011790 0.000000 1.804430 
# 
# From -- ./inp_files/68239.got.cif
#   From: 2010.05.17/outbox.cif.g08.bks.cpg/sg14_35_cif.got.tgz:68239.got - 2010.06.03 17:49:19.
