data_PCOD9249429
_publ_section_title
;
Structure prediction by ZEFSAII (Michael W. Deem and Ramdas Pophale) SiO2 
 PCOD9249429
Probable space group: P 21/C
;
_chemical_formula_sum "Si O2"
_cell_formula_units_Z 32
_cell_length_a 19.365639
_cell_length_b 4.971117
_cell_length_c 13.270894
_cell_angle_alpha 90.000000
_cell_angle_beta 85.756342
_cell_angle_gamma 90.000000
_cell_volume 1274.071181
_symmetry_space_group_name_H-M "P 21/C"
_symmetry_group_IT_number 14
_symmetry_cell_setting 'monoclinic'
loop_
_space_group_symop_operation_xyz
x,y,z
-x,1/2+y,1/2-z
-x,-y,-z
x,1/2-y,1/2+z
loop_
_atom_site_type_symbol
_atom_site_label
_atom_site_fract_x
_atom_site_fract_y
_atom_site_fract_z
Si Si1 0.539577 0.747715 0.949811
Si Si2 0.042399 0.544425 0.274747
Si Si3 0.671185 0.293751 0.221650
Si Si4 0.685442 0.712782 0.860439
Si Si5 0.158205 0.227403 0.158948
Si Si6 0.477962 0.954959 0.264673
Si Si7 0.805682 0.525731 0.129062
Si Si8 0.875304 0.474901 0.540718
O O1 0.622527 0.702892 0.946458
O O2 0.528820 0.786364 0.827655
O O3 0.500000 0.500000 0.000000
O O4 0.500000 0.000000 0.000000
O O5 0.110718 0.468706 0.203935
O O6 0.061128 0.482702 0.389228
O O7 0.015916 0.842984 0.260101
O O8 0.680605 0.485931 0.317575
O O9 0.598008 0.383121 0.184311
O O10 0.731634 0.382771 0.140178
O O11 0.673413 0.993585 0.267372
O O12 0.765213 0.674424 0.883830
O O13 0.170898 0.043809 0.256546
O O14 0.119804 0.069887 0.073990
O O15 0.486293 0.709209 0.183606
O O16 0.814349 0.830516 0.091197
O O17 0.854734 0.334434 0.058214
#
# Coordination Sequence:
#
# PCOD9249429 Si02
#       8
#     4   4   4   4   4   4   4   4
#     4  12  25  40  59  93 133 164 212 283 336 386
#     4  11  24  44  69 102 142 178 222 276 333 404
#     4  11  20  39  65  89 124 172 225 274 333 392
#     4  11  23  41  66  92 129 176 217 269 342 401
#     4  10  25  45  72 100 138 184 224 279 345 399
#     4  12  22  39  62  85 116 169 223 259 321 406
#     4  10  23  41  66 101 136 176 228 288 333 402
#     4  11  24  43  69 101 140 175 227 274 332 410
#
# _framework density 25.116337000000001
#
# number of rings (size 3 to 8) (size 9 to 14) (size 15 to 20)
#    0.000    1.000    2.500    5.250    0.000    9.000 
#    0.000    0.000    0.000    0.000    0.000    0.000 
#    0.000    0.000    0.000    0.000    0.000    0.000 
#
# Total GULP energy -178727.499258 kJ/mol
# GULP energy per Si atom -5585.234352 kJ/mol
# Density = 2.505917 g / cm^3
# Si number density = 25.116337 Si / 1000 Ang^3
#
#
#
# Elastic Constant Matrix: (Units=GPa)
#
#
# Indices 1 2 3 4 5 6 
#
# 1 133.1929 10.4961 -0.1903 0.0000 -4.4401 0.0000
# 2 10.4961 140.9261 4.1882 0.0000 -9.9090 0.0000
# 3 -0.1903 4.1882 91.2906 0.0000 2.9199 0.0000
# 4 0.0000 0.0000 0.0000 32.8569 0.0000 -9.3609
# 5 -4.4401 -9.9090 2.9199 0.0000 26.5172 0.0000
# 6 0.0000 0.0000 0.0000 -9.3609 0.0000 36.2432
#
#
#
# Elastic Compliance Matrix: (Units=1/GPa)
#
#
# Indices 1 2 3 4 5 6 
#
# 1 0.007583 -0.000488 0.000003 0.000000 0.001087 0.000000
# 2 -0.000488 0.007335 -0.000424 0.000000 0.002706 0.000000
# 3 0.000003 -0.000424 0.011017 0.000000 -0.001371 0.000000
# 4 0.000000 0.000000 0.000000 0.032852 0.000000 0.008485
# 5 0.001087 0.002706 -0.001371 0.000000 0.039055 0.000000
# 6 0.000000 0.000000 0.000000 0.008485 0.000000 0.029783
#
#
# Mechanical properties :
#
#
# Convention : Reuss Voigt Hill
#
# Bulk Modulus (GPa) = 41.46453 43.82195 42.64324
# Shear Modulus (GPa) = 36.36810 42.51783 39.44296
#
# Velocity S-wave (km/s) = 3.80937 4.11887 3.96714
# Velocity P-wave (km/s) = 5.99109 6.33290 6.16437
#
# Compressibility (1/GPa) = 0.02411700
#
# Stress axis : x y z
#
# Youngs Moduli (GPa) = 131.88030 136.32955 90.76600
#
# Poissons Ratio (x) = 0.06659 -0.00031
# Poissons Ratio (y) = 0.06442 0.03849
# Poissons Ratio (z) = -0.00046 0.05782
#
# Static dielectric constant tensor:
#      x y z
#    x 1.715940 0.000000 0.732550 
#    y 0.000000 2.010440 0.000000 
#    z 0.732550 0.000000 0.704570 
# 
# From -- ./inp_files/48185.got.cif
#   From: 2010.05.17/outbox.cif.g08.bks.cpg/sg14_25_cif.got.tgz:48185.got - 2010.06.03 17:49:19.
