data_PCOD9249097
_publ_section_title
;
Structure prediction by ZEFSAII (Michael W. Deem and Ramdas Pophale) SiO2 
 PCOD9249097
Probable space group: P 21/C
;
_chemical_formula_sum "Si O2"
_cell_formula_units_Z 30
_cell_length_a 20.731089
_cell_length_b 10.946293
_cell_length_c 10.734262
_cell_angle_alpha 90.000000
_cell_angle_beta 32.263654
_cell_angle_gamma 90.000000
_cell_volume 1300.328252
_symmetry_space_group_name_H-M "P 21/C"
_symmetry_group_IT_number 14
_symmetry_cell_setting 'monoclinic'
loop_
_space_group_symop_operation_xyz
x,y,z
-x,1/2+y,1/2-z
-x,-y,-z
x,1/2-y,1/2+z
loop_
_atom_site_type_symbol
_atom_site_label
_atom_site_fract_x
_atom_site_fract_y
_atom_site_fract_z
Si Si1 0.333674 0.229925 0.579220
Si Si2 0.525333 0.754664 0.397702
Si Si3 0.309081 0.962270 0.524489
Si Si4 0.898513 0.119866 0.280057
Si Si5 0.500000 0.500000 0.500000
Si Si6 0.923660 0.813426 0.591486
Si Si7 0.072255 0.014785 0.199281
Si Si8 0.271582 0.820208 0.813894
O O1 0.408000 0.288179 0.340174
O O2 0.383955 0.266329 0.633311
O O3 0.196012 0.269598 0.782559
O O4 0.336859 0.083140 0.558601
O O5 0.471225 0.620667 0.461316
O O6 0.410262 0.830618 0.632179
O O7 0.182442 0.977925 0.659337
O O8 0.290737 0.839531 0.634621
O O9 0.410040 0.948611 0.256003
O O10 0.805759 0.203878 0.513635
O O11 0.999432 0.057088 0.198551
O O12 0.972847 0.211242 0.070404
O O13 0.895509 0.866810 0.772672
O O14 0.981135 0.925378 0.421036
O O15 0.190727 0.935719 0.983072
#
# Coordination Sequence:
#
# PCOD9249097 Si02
#       8
#     4   4   4   4   2   4   4   4
#     4  11  27  43  74 100 149 182 244 296 359 427
#     4  11  25  47  69 106 135 197 232 301 352 428
#     4  11  24  43  68 108 133 190 235 295 354 430
#     4  11  23  43  74  96 141 183 240 290 356 435
#     4  10  22  46  68  96 140 174 244 276 356 410
#     4  10  24  44  65 102 138 180 231 296 358 418
#     4  10  24  44  68 103 134 184 231 294 359 421
#     4  11  24  44  71 100 142 179 240 290 360 423
#
# _framework density 23.071097000000002
#
# number of rings (size 3 to 8) (size 9 to 14) (size 15 to 20)
#    0.000    1.333    1.333    2.400    7.467    3.733 
#    4.800    0.000    0.000    0.000    0.000    0.000 
#    0.000    0.000    0.000    0.000    0.000    0.000 
#
# Total GULP energy -167107.440716 kJ/mol
# GULP energy per Si atom -5570.248024 kJ/mol
# Density = 2.301859 g / cm^3
# Si number density = 23.071097 Si / 1000 Ang^3
#
#
#
# Elastic Constant Matrix: (Units=GPa)
#
#
# Indices 1 2 3 4 5 6 
#
# 1 62.3678 -13.8178 26.2620 0.0000 -11.0587 0.0000
# 2 -13.8178 29.0887 20.1620 0.0000 2.5753 0.0000
# 3 26.2620 20.1620 135.7281 0.0000 2.0947 0.0000
# 4 0.0000 0.0000 0.0000 12.3042 0.0000 0.0451
# 5 -11.0587 2.5753 2.0947 0.0000 31.9061 0.0000
# 6 0.0000 0.0000 0.0000 0.0451 0.0000 17.0036
#
#
#
# Elastic Compliance Matrix: (Units=1/GPa)
#
#
# Indices 1 2 3 4 5 6 
#
# 1 0.023728 0.015468 -0.007004 0.000000 0.007436 0.000000
# 2 0.015468 0.048644 -0.010251 0.000000 0.002108 0.000000
# 3 -0.007004 -0.010251 0.010281 0.000000 -0.002275 0.000000
# 4 0.000000 0.000000 0.000000 0.081274 0.000000 -0.000215
# 5 0.007436 0.002108 -0.002275 0.000000 0.033898 0.000000
# 6 0.000000 0.000000 0.000000 -0.000215 0.000000 0.058812
#
#
# Mechanical properties :
#
#
# Convention : Reuss Voigt Hill
#
# Bulk Modulus (GPa) = 12.64568 32.48856 22.56712
# Shear Modulus (GPa) = 17.44768 25.21467 21.33117
#
# Velocity S-wave (km/s) = 2.75300 3.30951 3.04400
# Velocity P-wave (km/s) = 3.94948 5.35876 4.70716
#
# Compressibility (1/GPa) = 0.07907836
#
# Stress axis : x y z
#
# Youngs Moduli (GPa) = 42.14368 20.55758 97.26967
#
# Poissons Ratio (x) = -0.31798 0.68124
# Poissons Ratio (y) = -0.65186 0.99713
# Poissons Ratio (z) = 0.29516 0.21074
#
# Static dielectric constant tensor:
#      x y z
#    x 1.898070 0.000000 -0.002010 
#    y 0.000000 1.924500 0.000000 
#    z -0.002010 0.000000 1.920000 
# 
# From -- ./inp_files/35258.got.cif
#   From: 2010.05.17/outbox.cif.g08.bks.cpg/sg14_18_cif.got.tgz:35258.got - 2010.06.03 17:49:19.
