data_PCOD9249839
_publ_section_title
;
Structure prediction by ZEFSAII (Michael W. Deem and Ramdas Pophale) SiO2 
 PCOD9249839
Probable space group: P 21/C
;
_chemical_formula_sum "Si O2"
_cell_formula_units_Z 32
_cell_length_a 17.009201
_cell_length_b 6.646712
_cell_length_c 13.236186
_cell_angle_alpha 90.000000
_cell_angle_beta 88.749906
_cell_angle_gamma 90.000000
_cell_volume 1496.064294
_symmetry_space_group_name_H-M "P 21/C"
_symmetry_group_IT_number 14
_symmetry_cell_setting 'monoclinic'
loop_
_space_group_symop_operation_xyz
x,y,z
-x,1/2+y,1/2-z
-x,-y,-z
x,1/2-y,1/2+z
loop_
_atom_site_type_symbol
_atom_site_label
_atom_site_fract_x
_atom_site_fract_y
_atom_site_fract_z
Si Si1 0.593153 0.188180 0.414829
Si Si2 0.147085 0.350835 0.556166
Si Si3 0.055471 0.197707 0.371856
Si Si4 0.308801 0.507508 0.456525
Si Si5 0.843119 0.405076 0.253039
Si Si6 0.095878 0.490211 0.189888
Si Si7 0.673776 0.185771 0.719969
Si Si8 0.590053 0.628855 0.091483
O O1 0.632397 0.383653 0.466012
O O2 0.635880 0.175589 0.306549
O O3 0.499583 0.202790 0.403881
O O4 0.604828 0.997158 0.487795
O O5 0.083633 0.312381 0.470512
O O6 0.227603 0.430938 0.506278
O O7 0.121956 0.507089 0.643558
O O8 0.153202 0.141921 0.618539
O O9 0.056731 0.347572 0.275512
O O10 0.972463 0.085702 0.376864
O O11 0.119630 0.027102 0.340250
O O12 0.295940 0.677162 0.372575
O O13 0.352375 0.316921 0.407791
O O14 0.861410 0.170005 0.253623
O O15 0.749635 0.432479 0.258031
O O16 0.610009 0.028813 0.679361
#
# Coordination Sequence:
#
# PCOD9249839 Si02
#       8
#     4   4   4   4   4   4   4   4
#     4  10  23  44  64  97 135 172 226 274 332 400
#     4  11  25  41  67  99 130 174 225 268 343 398
#     4  11  23  45  65  99 133 174 225 273 332 403
#     4  11  23  43  67  98 132 176 218 278 335 396
#     4  11  24  44  66  95 135 172 218 281 331 398
#     4  11  24  42  69  95 133 179 220 277 336 391
#     4  11  24  41  68  99 132 173 223 274 335 392
#     4  10  24  42  67  95 132 178 221 277 332 397
#
# _framework density 21.389455999999999
#
# number of rings (size 3 to 8) (size 9 to 14) (size 15 to 20)
#    0.000    1.250    2.500    2.250    3.500    4.500 
#    0.000    0.000    0.000    0.000    0.000    0.000 
#    0.000    0.000    0.000    0.000    0.000    0.000 
#
# Total GULP energy -178906.417822 kJ/mol
# GULP energy per Si atom -5590.825557 kJ/mol
# Density = 2.134077 g / cm^3
# Si number density = 21.389456 Si / 1000 Ang^3
#
#
#
# Elastic Constant Matrix: (Units=GPa)
#
#
# Indices 1 2 3 4 5 6 
#
# 1 70.6354 29.0641 25.9175 0.0000 1.3547 0.0000
# 2 29.0641 75.6800 15.7462 0.0000 1.0182 0.0000
# 3 25.9175 15.7462 69.9154 0.0000 -1.7129 0.0000
# 4 0.0000 0.0000 0.0000 15.0496 0.0000 -4.7044
# 5 1.3547 1.0182 -1.7129 0.0000 23.1194 0.0000
# 6 0.0000 0.0000 0.0000 -4.7044 0.0000 39.7824
#
#
#
# Elastic Compliance Matrix: (Units=1/GPa)
#
#
# Indices 1 2 3 4 5 6 
#
# 1 0.018710 -0.006000 -0.005615 0.000000 -0.001248 0.000000
# 2 -0.006000 0.015804 -0.001346 0.000000 -0.000444 0.000000
# 3 -0.005615 -0.001346 0.016727 0.000000 0.001628 0.000000
# 4 0.000000 0.000000 0.000000 0.068997 0.000000 0.008159
# 5 -0.001248 -0.000444 0.001628 0.000000 0.043467 0.000000
# 6 0.000000 0.000000 0.000000 0.008159 0.000000 0.026102
#
#
# Mechanical properties :
#
#
# Convention : Reuss Voigt Hill
#
# Bulk Modulus (GPa) = 39.49596 39.74295 39.61946
# Shear Modulus (GPa) = 22.30447 25.29048 23.79747
#
# Velocity S-wave (km/s) = 3.23271 3.44231 3.33915
# Velocity P-wave (km/s) = 5.69554 5.86688 5.78184
#
# Compressibility (1/GPa) = 0.02531905
#
# Stress axis : x y z
#
# Youngs Moduli (GPa) = 53.44613 63.27540 59.78181
#
# Poissons Ratio (x) = 0.37968 0.33568
# Poissons Ratio (y) = 0.32070 0.08046
# Poissons Ratio (z) = 0.30011 0.08516
#
# Static dielectric constant tensor:
#      x y z
#    x 1.751960 0.000000 0.024380 
#    y 0.000000 1.765650 0.000000 
#    z 0.024380 0.000000 1.771240 
# 
# From -- ./inp_files/48159.got.cif
#   From: 2010.05.17/outbox.cif.g08.bks.cpg/sg14_25_cif.got.tgz:48159.got - 2010.06.03 17:49:19.
