data_PCOD9249835
_publ_section_title
;
Structure prediction by ZEFSAII (Michael W. Deem and Ramdas Pophale) SiO2 
 PCOD9249835
Probable space group: P 21/C
;
_chemical_formula_sum "Si O2"
_cell_formula_units_Z 32
_cell_length_a 9.163015
_cell_length_b 10.009608
_cell_length_c 30.194727
_cell_angle_alpha 90.000000
_cell_angle_beta 149.877627
_cell_angle_gamma 90.000000
_cell_volume 1389.822144
_symmetry_space_group_name_H-M "P 21/C"
_symmetry_group_IT_number 14
_symmetry_cell_setting 'monoclinic'
loop_
_space_group_symop_operation_xyz
x,y,z
-x,1/2+y,1/2-z
-x,-y,-z
x,1/2-y,1/2+z
loop_
_atom_site_type_symbol
_atom_site_label
_atom_site_fract_x
_atom_site_fract_y
_atom_site_fract_z
Si Si1 0.205272 0.062007 0.903251
Si Si2 0.842488 0.446514 0.832412
Si Si3 0.389214 0.262116 0.592518
Si Si4 0.918511 0.306788 0.403316
Si Si5 0.090782 0.547001 0.762896
Si Si6 0.332101 0.360204 0.899812
Si Si7 0.012028 0.598767 0.959903
Si Si8 0.538590 0.953682 0.165755
O O1 0.277810 0.208938 0.901842
O O2 0.004225 0.074421 0.893522
O O3 0.018684 0.000652 0.814083
O O4 0.500000 0.000000 0.000000
O O5 0.769686 0.301306 0.832750
O O6 0.637213 0.491330 0.739225
O O7 0.167298 0.441449 0.895924
O O8 0.832749 0.538403 0.872448
O O9 0.648970 0.155882 0.667902
O O10 0.469612 0.416976 0.617929
O O11 0.217572 0.243875 0.501199
O O12 0.151740 0.230514 0.567574
O O13 0.723266 0.354729 0.392656
O O14 0.172839 0.419735 0.814529
O O15 0.814506 0.612999 0.715100
O O16 0.666633 0.380156 0.974740
O O17 0.000000 0.500000 0.000000
#
# Coordination Sequence:
#
# PCOD9249835 Si02
#       8
#     4   4   4   4   4   4   4   4
#     4  11  26  43  72 105 144 187 239 302 369 434
#     4  10  23  44  64 101 139 186 241 295 367 438
#     4  12  25  45  72 107 146 190 248 302 363 446
#     4  11  24  46  70 101 151 182 240 303 365 435
#     4  11  23  47  72  99 144 199 248 293 365 435
#     4  10  23  44  68  99 143 191 242 303 366 435
#     4  12  23  40  72 102 137 188 245 303 361 431
#     4  11  27  43  71 103 145 192 238 307 368 429
#
# _framework density 23.024528
#
# number of rings (size 3 to 8) (size 9 to 14) (size 15 to 20)
#    0.000    1.000    2.500    3.750    7.000    3.000 
#    2.250    1.250    0.000    0.000    0.000    0.000 
#    0.000    0.000    0.000    0.000    0.000    0.000 
#
# Total GULP energy -178781.015436 kJ/mol
# GULP energy per Si atom -5586.906732 kJ/mol
# Density = 2.297212 g / cm^3
# Si number density = 23.024528 Si / 1000 Ang^3
#
#
#
# Elastic Constant Matrix: (Units=GPa)
#
#
# Indices 1 2 3 4 5 6 
#
# 1 87.3311 32.1583 42.8614 0.0000 4.6195 0.0000
# 2 32.1583 41.5280 24.8478 0.0000 9.5323 0.0000
# 3 42.8614 24.8478 100.9369 0.0000 -8.4973 0.0000
# 4 0.0000 0.0000 0.0000 37.0768 0.0000 -5.9954
# 5 4.6195 9.5323 -8.4973 0.0000 50.5347 0.0000
# 6 0.0000 0.0000 0.0000 -5.9954 0.0000 44.2470
#
#
#
# Elastic Compliance Matrix: (Units=1/GPa)
#
#
# Indices 1 2 3 4 5 6 
#
# 1 0.017883 -0.010767 -0.004980 0.000000 -0.000441 0.000000
# 2 -0.010767 0.037065 -0.005131 0.000000 -0.006870 0.000000
# 3 -0.004980 -0.005131 0.013597 0.000000 0.003709 0.000000
# 4 0.000000 0.000000 0.000000 0.027575 0.000000 0.003736
# 5 -0.000441 -0.006870 0.003709 0.000000 0.021748 0.000000
# 6 0.000000 0.000000 0.000000 0.003736 0.000000 0.023107
#
#
# Mechanical properties :
#
#
# Convention : Reuss Voigt Hill
#
# Bulk Modulus (GPa) = 37.32869 47.72568 42.52718
# Shear Modulus (GPa) = 26.08774 35.03358 30.56066
#
# Velocity S-wave (km/s) = 3.36972 3.90497 3.64718
# Velocity P-wave (km/s) = 5.60248 6.41131 6.02049
#
# Compressibility (1/GPa) = 0.02678905
#
# Stress axis : x y z
#
# Youngs Moduli (GPa) = 55.91854 26.97996 73.54390
#
# Poissons Ratio (x) = 0.29049 0.36628
# Poissons Ratio (y) = 0.60208 0.37732
# Poissons Ratio (z) = 0.27850 0.13842
#
# Static dielectric constant tensor:
#      x y z
#    x 1.841920 0.000000 0.035020 
#    y 0.000000 1.881960 0.000000 
#    z 0.035020 0.000000 1.903680 
# 
# From -- ./inp_files/79657.got.cif
#   From: 2010.05.17/outbox.cif.g08.bks.cpg/sg14_40_cif.got.tgz:79657.got - 2010.06.03 17:49:19.
