data_PCOD9249758
_publ_section_title
;
Structure prediction by ZEFSAII (Michael W. Deem and Ramdas Pophale) SiO2 
 PCOD9249758
Probable space group: P 21/C
;
_chemical_formula_sum "Si O2"
_cell_formula_units_Z 28
_cell_length_a 14.364252
_cell_length_b 11.966162
_cell_length_c 8.692884
_cell_angle_alpha 90.000000
_cell_angle_beta 62.877013
_cell_angle_gamma 90.000000
_cell_volume 1329.861485
_symmetry_space_group_name_H-M "P 21/C"
_symmetry_group_IT_number 14
_symmetry_cell_setting 'monoclinic'
loop_
_space_group_symop_operation_xyz
x,y,z
-x,1/2+y,1/2-z
-x,-y,-z
x,1/2-y,1/2+z
loop_
_atom_site_type_symbol
_atom_site_label
_atom_site_fract_x
_atom_site_fract_y
_atom_site_fract_z
Si Si1 0.289012 0.818814 0.746686
Si Si2 0.214311 0.210844 0.737406
Si Si3 0.887834 0.892108 0.487593
Si Si4 0.763330 0.979786 0.042549
Si Si5 0.588964 0.842693 0.026502
Si Si6 0.555820 0.263225 0.606465
Si Si7 0.866458 0.391572 0.184876
O O1 0.349578 0.806493 0.862054
O O2 0.383160 0.818745 0.554416
O O3 0.208513 0.716376 0.780829
O O4 0.238037 0.938245 0.808919
O O5 0.162033 0.148828 0.633658
O O6 0.208498 0.136815 0.896698
O O7 0.329990 0.248557 0.596951
O O8 0.158183 0.324140 0.832803
O O9 0.011052 0.865989 0.390915
O O10 0.862059 0.021502 0.545195
O O11 0.656580 0.947448 0.032075
O O12 0.833764 0.040967 0.862966
O O13 0.505856 0.853220 0.950612
O O14 0.525011 0.796823 0.220019
#
# Coordination Sequence:
#
# PCOD9249758 Si02
#       7
#     4   4   4   4   4   4   4
#     4  11  25  46  63 103 141 181 227 283 345 415
#     4  12  23  45  73 104 136 176 237 291 344 410
#     4  11  25  44  75 102 134 187 232 284 356 410
#     4  12  25  44  72  99 141 186 224 290 350 400
#     4  11  21  44  67 101 137 173 233 284 326 425
#     4  10  23  43  68  97 139 184 229 274 351 403
#     4  11  26  48  68 101 144 181 231 289 349 418
#
# _framework density 21.054825999999998
#
# number of rings (size 3 to 8) (size 9 to 14) (size 15 to 20)
#    0.000    0.857    5.714    0.000    4.000    1.714 
#    2.571    0.000    0.000    0.000    0.000    0.000 
#    0.000    0.000    0.000    0.000    0.000    0.000 
#
# Total GULP energy -156221.654096 kJ/mol
# GULP energy per Si atom -5579.344789 kJ/mol
# Density = 2.100690 g / cm^3
# Si number density = 21.054826 Si / 1000 Ang^3
#
#
#
# Elastic Constant Matrix: (Units=GPa)
#
#
# Indices 1 2 3 4 5 6 
#
# 1 87.0549 30.7028 41.2208 0.0000 -5.3235 0.0000
# 2 30.7028 68.4502 12.1908 0.0000 -8.2080 0.0000
# 3 41.2208 12.1908 89.1953 0.0000 -5.9804 0.0000
# 4 0.0000 0.0000 0.0000 -14.9187 0.0000 -22.8679
# 5 -5.3235 -8.2080 -5.9804 0.0000 37.1313 0.0000
# 6 0.0000 0.0000 0.0000 -22.8679 0.0000 11.0598
#
#
#
# Elastic Compliance Matrix: (Units=1/GPa)
#
#
# Indices 1 2 3 4 5 6 
#
# 1 0.017067 -0.006418 -0.007017 0.000000 -0.000102 0.000000
# 2 -0.006418 0.017728 0.000752 0.000000 0.003120 0.000000
# 3 -0.007017 0.000752 0.014451 0.000000 0.001488 0.000000
# 4 0.000000 0.000000 0.000000 -0.016077 0.000000 -0.033241
# 5 -0.000102 0.003120 0.001488 0.000000 0.027846 0.000000
# 6 0.000000 0.000000 0.000000 -0.033241 0.000000 0.021686
#
#
# Mechanical properties :
#
#
# Convention : Reuss Voigt Hill
#
# Bulk Modulus (GPa) = 41.87479 45.88103 43.87791
# Shear Modulus (GPa) = 43.09360 17.36022 30.22691
#
# Velocity S-wave (km/s) = 4.52899 2.87457 3.79308
# Velocity P-wave (km/s) = 6.87609 5.73202 6.32996
#
# Compressibility (1/GPa) = 0.02388072
#
# Stress axis : x y z
#
# Youngs Moduli (GPa) = 58.59361 56.40818 69.19872
#
# Poissons Ratio (x) = 0.36201 0.48556
# Poissons Ratio (y) = 0.37603 -0.05204
# Poissons Ratio (z) = 0.41115 -0.04242
#
# Static dielectric constant tensor:
#      x y z
#    x 1.762960 0.000000 0.022800 
#    y 0.000000 1.798200 0.000000 
#    z 0.022800 0.000000 1.766840 
# 
# From -- ./inp_files/15676.got.cif
#   From: 2010.05.17/outbox.cif.g08.bks.cpg/sg14_8_cif.got.tgz:15676.got - 2010.06.03 17:49:19.
