data_PCOD9249707
_publ_section_title
;
Structure prediction by ZEFSAII (Michael W. Deem and Ramdas Pophale) SiO2 
 PCOD9249707
Probable space group: P 21/C
;
_chemical_formula_sum "Si O2"
_cell_formula_units_Z 20
_cell_length_a 7.697302
_cell_length_b 11.372530
_cell_length_c 8.721544
_cell_angle_alpha 90.000000
_cell_angle_beta 93.919713
_cell_angle_gamma 90.000000
_cell_volume 761.678874
_symmetry_space_group_name_H-M "P 21/C"
_symmetry_group_IT_number 14
_symmetry_cell_setting 'monoclinic'
loop_
_space_group_symop_operation_xyz
x,y,z
-x,1/2+y,1/2-z
-x,-y,-z
x,1/2-y,1/2+z
loop_
_atom_site_type_symbol
_atom_site_label
_atom_site_fract_x
_atom_site_fract_y
_atom_site_fract_z
Si Si1 0.438301 0.160416 0.361767
Si Si2 0.763681 0.038197 0.501686
Si Si3 0.777875 0.857149 0.031868
Si Si4 0.284556 0.916690 0.832548
Si Si5 0.003721 0.284813 0.178196
O O1 0.594056 0.124410 0.489412
O O2 0.380018 0.291370 0.392190
O O3 0.525796 0.131205 0.203674
O O4 0.282970 0.071545 0.395558
O O5 0.764492 0.006065 0.322070
O O6 0.927506 0.112351 0.566348
O O7 0.945031 0.833035 0.152592
O O8 0.739797 0.995791 0.027659
O O9 0.833761 0.785798 0.884823
O O10 0.150707 0.810254 0.822042
#
# Coordination Sequence:
#
# PCOD9249707 Si02
#       5
#     4   4   4   4   4
#     4   9  22  42  71  94 126 179 231 260 323 404
#     4   9  21  45  68  93 132 185 217 264 331 408
#     4  12  25  42  69 101 133 173 222 276 337 389
#     4  10  23  43  65  97 133 170 225 268 329 386
#     4  12  25  42  68  98 141 167 221 277 337 394
#
# _framework density 26.257785999999999
#
# number of rings (size 3 to 8) (size 9 to 14) (size 15 to 20)
#    1.200    0.400    2.000    1.800    5.600    1.600 
#    0.000    2.000    0.000    0.000    0.000    0.000 
#    0.000    0.000    0.000    0.000    0.000    0.000 
#
# Total GULP energy -111957.287727 kJ/mol
# GULP energy per Si atom -5597.864386 kJ/mol
# Density = 2.619802 g / cm^3
# Si number density = 26.257786 Si / 1000 Ang^3
#
#
#
# Elastic Constant Matrix: (Units=GPa)
#
#
# Indices 1 2 3 4 5 6 
#
# 1 88.7550 29.7398 4.5083 0.0000 -19.6922 0.0000
# 2 29.7398 82.9595 7.4374 0.0000 -8.1767 0.0000
# 3 4.5083 7.4374 75.6529 0.0000 0.2342 0.0000
# 4 0.0000 0.0000 0.0000 40.3624 0.0000 -8.5184
# 5 -19.6922 -8.1767 0.2342 0.0000 41.1978 0.0000
# 6 0.0000 0.0000 0.0000 -8.5184 0.0000 58.9842
#
#
#
# Elastic Compliance Matrix: (Units=1/GPa)
#
#
# Indices 1 2 3 4 5 6 
#
# 1 0.014070 -0.004430 -0.000421 0.000000 0.005849 0.000000
# 2 -0.004430 0.013802 -0.001095 0.000000 0.000628 0.000000
# 3 -0.000421 -0.001095 0.013353 0.000000 -0.000494 0.000000
# 4 0.000000 0.000000 0.000000 0.025554 0.000000 0.003691
# 5 0.005849 0.000628 -0.000494 0.000000 0.027196 0.000000
# 6 0.000000 0.000000 0.000000 0.003691 0.000000 0.017487
#
#
# Mechanical properties :
#
#
# Convention : Reuss Voigt Hill
#
# Bulk Modulus (GPa) = 34.09067 36.74871 35.41969
# Shear Modulus (GPa) = 37.55679 41.82099 39.68889
#
# Velocity S-wave (km/s) = 3.78605 3.99520 3.89203
# Velocity P-wave (km/s) = 5.66776 5.94205 5.80652
#
# Compressibility (1/GPa) = 0.02933354
#
# Stress axis : x y z
#
# Youngs Moduli (GPa) = 71.07144 72.45238 74.89222
#
# Poissons Ratio (x) = 0.32095 0.03154
# Poissons Ratio (y) = 0.31483 0.08200
# Poissons Ratio (z) = 0.02993 0.07932
#
# Static dielectric constant tensor:
#      x y z
#    x 2.099400 0.000000 0.032790 
#    y 0.000000 2.003840 0.000000 
#    z 0.032790 0.000000 2.053170 
# 
# From -- ./inp_files/23463.got.cif
#   From: 2010.05.17/outbox.cif.g08.bks.cpg/sg14_12_cif.got.tgz:23463.got - 2010.06.03 17:49:19.
