data_PCOD9249088
_publ_section_title
;
Structure prediction by ZEFSAII (Michael W. Deem and Ramdas Pophale) SiO2 
 PCOD9249088
Probable space group: P 21/C
;
_chemical_formula_sum "Si O2"
_cell_formula_units_Z 30
_cell_length_a 12.252063
_cell_length_b 8.373642
_cell_length_c 12.805963
_cell_angle_alpha 90.000000
_cell_angle_beta 104.827505
_cell_angle_gamma 90.000000
_cell_volume 1270.070603
_symmetry_space_group_name_H-M "P 21/C"
_symmetry_group_IT_number 14
_symmetry_cell_setting 'monoclinic'
loop_
_space_group_symop_operation_xyz
x,y,z
-x,1/2+y,1/2-z
-x,-y,-z
x,1/2-y,1/2+z
loop_
_atom_site_type_symbol
_atom_site_label
_atom_site_fract_x
_atom_site_fract_y
_atom_site_fract_z
Si Si1 0.500000 0.500000 0.000000
Si Si2 0.853579 0.329621 0.719431
Si Si3 0.247942 0.342383 0.233539
Si Si4 0.875390 0.001684 0.015752
Si Si5 0.707214 0.326343 0.339321
Si Si6 0.894142 0.814182 0.647611
Si Si7 0.486827 0.138010 0.908241
Si Si8 0.254186 0.000998 0.523748
O O1 0.505997 0.309505 0.965361
O O2 0.637452 0.514406 0.022535
O O3 0.829644 0.505184 0.759219
O O4 0.862963 0.359010 0.599196
O O5 0.751483 0.218263 0.734732
O O6 0.975242 0.285025 0.795180
O O7 0.178813 0.195182 0.264422
O O8 0.364670 0.366427 0.324092
O O9 0.267763 0.361324 0.115881
O O10 0.855185 0.835995 0.069078
O O11 0.784589 0.037514 0.906085
O O12 0.000000 0.000000 0.000000
O O13 0.579152 0.372726 0.336067
O O14 0.736707 0.164519 0.411025
O O15 0.859028 0.967100 0.570614
O O16 0.500000 0.000000 0.000000
#
# Coordination Sequence:
#
# PCOD9249088 Si02
#       8
#     2   4   4   4   4   4   4   4
#     4  10  22  46  68 100 144 180 242 294 372 434
#     4  10  23  41  65 102 143 182 241 298 364 447
#     4  10  23  43  67  99 141 186 238 294 365 436
#     4  11  23  43  68 104 141 182 245 298 365 457
#     4  10  23  44  67 101 140 187 235 302 376 430
#     4  11  22  41  69 100 138 185 236 296 365 439
#     4  11  22  46  75 104 146 194 241 308 369 448
#     4  10  23  44  67  98 140 181 235 299 357 437
#
# _framework density 23.620735
#
# number of rings (size 3 to 8) (size 9 to 14) (size 15 to 20)
#    0.000    1.600    2.667    1.600    1.867    4.267 
#   12.000    0.000    0.000    0.000    0.000    0.000 
#    0.000    0.000    0.000    0.000    0.000    0.000 
#
# Total GULP energy -167172.216867 kJ/mol
# GULP energy per Si atom -5572.407229 kJ/mol
# Density = 2.356697 g / cm^3
# Si number density = 23.620735 Si / 1000 Ang^3
#
#
#
# Elastic Constant Matrix: (Units=GPa)
#
#
# Indices 1 2 3 4 5 6 
#
# 1 138.1161 17.6291 34.2256 0.0000 -9.1669 0.0000
# 2 17.6291 80.1126 33.0776 0.0000 -7.9875 0.0000
# 3 34.2256 33.0776 63.9620 0.0000 -4.5937 0.0000
# 4 0.0000 0.0000 0.0000 39.8232 0.0000 -1.4325
# 5 -9.1669 -7.9875 -4.5937 0.0000 17.3030 0.0000
# 6 0.0000 0.0000 0.0000 -1.4325 0.0000 28.5369
#
#
#
# Elastic Compliance Matrix: (Units=1/GPa)
#
#
# Indices 1 2 3 4 5 6 
#
# 1 0.008542 0.000320 -0.004486 0.000000 0.003482 0.000000
# 2 0.000320 0.016365 -0.008236 0.000000 0.005537 0.000000
# 3 -0.004486 -0.008236 0.022275 0.000000 -0.000265 0.000000
# 4 0.000000 0.000000 0.000000 0.025156 0.000000 0.001263
# 5 0.003482 0.005537 -0.000265 0.000000 0.062124 0.000000
# 6 0.000000 0.000000 0.000000 0.001263 0.000000 0.035106
#
#
# Mechanical properties :
#
#
# Convention : Reuss Voigt Hill
#
# Bulk Modulus (GPa) = 44.68955 50.22836 47.45896
# Shear Modulus (GPa) = 24.77292 30.28316 27.52804
#
# Velocity S-wave (km/s) = 3.24200 3.58447 3.41753
# Velocity P-wave (km/s) = 5.74237 6.20015 5.97565
#
# Compressibility (1/GPa) = 0.02237659
#
# Stress axis : x y z
#
# Youngs Moduli (GPa) = 117.06474 61.10646 44.89298
#
# Poissons Ratio (x) = -0.01954 0.20140
# Poissons Ratio (y) = -0.03743 0.36976
# Poissons Ratio (z) = 0.52517 0.50330
#
# Static dielectric constant tensor:
#      x y z
#    x 1.896230 0.000000 -0.076700 
#    y 0.000000 23.663460 0.000000 
#    z -0.076700 0.000000 1.952850 
# 
# From -- ./inp_files/43780.got.cif
#   From: 2010.05.17/outbox.cif.g08.bks.cpg/sg14_22_cif.got.tgz:43780.got - 2010.06.03 17:49:19.
