data_PCOD9249772
_publ_section_title
;
Structure prediction by ZEFSAII (Michael W. Deem and Ramdas Pophale) SiO2 
 PCOD9249772
Probable space group: P 21/C
;
_chemical_formula_sum "Si O2"
_cell_formula_units_Z 24
_cell_length_a 10.304017
_cell_length_b 11.832720
_cell_length_c 17.026404
_cell_angle_alpha 90.000000
_cell_angle_beta 146.267634
_cell_angle_gamma 90.000000
_cell_volume 1152.797295
_symmetry_space_group_name_H-M "P 21/C"
_symmetry_group_IT_number 14
_symmetry_cell_setting 'monoclinic'
loop_
_space_group_symop_operation_xyz
x,y,z
-x,1/2+y,1/2-z
-x,-y,-z
x,1/2-y,1/2+z
loop_
_atom_site_type_symbol
_atom_site_label
_atom_site_fract_x
_atom_site_fract_y
_atom_site_fract_z
Si Si1 0.862979 0.327107 0.820633
Si Si2 0.357958 0.048580 0.265742
Si Si3 0.894453 0.054659 0.572279
Si Si4 0.887018 0.746236 0.915068
Si Si5 0.636216 0.600320 0.398236
Si Si6 0.069101 0.892017 0.227747
O O1 0.618247 0.390445 0.694910
O O2 0.057056 0.424282 0.922595
O O3 0.895373 0.241861 0.765570
O O4 0.889880 0.253407 0.914102
O O5 0.625384 0.083514 0.416475
O O6 0.172415 0.152917 0.175474
O O7 0.346409 0.015958 0.167364
O O8 0.276306 0.955326 0.285729
O O9 0.073217 0.132170 0.612642
O O10 0.935667 0.073680 0.684828
O O11 0.690094 0.779135 0.881130
O O12 0.832212 0.579301 0.561272
#
# Coordination Sequence:
#
# PCOD9249772 Si02
#       6
#     4   4   4   4   4   4
#     4  11  24  42  69  99 130 180 223 276 329 398
#     4  10  23  43  69  96 130 180 218 276 323 398
#     4  12  25  43  69  98 139 173 222 273 343 394
#     4   9  21  41  66  96 125 171 223 263 321 397
#     4   9  22  42  66  97 124 175 222 273 323 390
#     4  11  26  41  65 100 137 171 221 282 330 395
#
# _framework density 20.818923999999999
#
# number of rings (size 3 to 8) (size 9 to 14) (size 15 to 20)
#    1.000    0.667    1.667    1.500    7.000    2.000 
#    3.000    0.000    0.000    0.000    0.000    0.000 
#    0.000    0.000    0.000    0.000    0.000    0.000 
#
# Total GULP energy -133636.181063 kJ/mol
# GULP energy per Si atom -5568.174211 kJ/mol
# Density = 2.077154 g / cm^3
# Si number density = 20.818924 Si / 1000 Ang^3
#
#
#
# Elastic Constant Matrix: (Units=GPa)
#
#
# Indices 1 2 3 4 5 6 
#
# 1 58.5087 13.3393 45.2695 0.0000 -17.2942 0.0000
# 2 13.3393 74.4678 9.7825 0.0000 -3.4866 0.0000
# 3 45.2695 9.7825 99.8941 0.0000 -14.2161 0.0000
# 4 0.0000 0.0000 0.0000 15.3716 0.0000 8.3233
# 5 -17.2942 -3.4866 -14.2161 0.0000 32.7484 0.0000
# 6 0.0000 0.0000 0.0000 8.3233 0.0000 9.7204
#
#
#
# Elastic Compliance Matrix: (Units=1/GPa)
#
#
# Indices 1 2 3 4 5 6 
#
# 1 0.030073 -0.003347 -0.011822 0.000000 0.010393 0.000000
# 2 -0.003347 0.014003 0.000113 0.000000 -0.000228 0.000000
# 3 -0.011822 0.000113 0.015423 0.000000 0.000464 0.000000
# 4 0.000000 0.000000 0.000000 0.121290 0.000000 -0.103857
# 5 0.010393 -0.000228 0.000464 0.000000 0.036202 0.000000
# 6 0.000000 0.000000 0.000000 -0.103857 0.000000 0.191806
#
#
# Mechanical properties :
#
#
# Convention : Reuss Voigt Hill
#
# Bulk Modulus (GPa) = 34.02814 41.07258 37.55036
# Shear Modulus (GPa) = 11.14320 22.53338 16.83829
#
# Velocity S-wave (km/s) = 2.31604 3.29348 2.84702
# Velocity P-wave (km/s) = 4.85102 5.85098 5.37431
#
# Compressibility (1/GPa) = 0.02938745
#
# Stress axis : x y z
#
# Youngs Moduli (GPa) = 33.25200 71.41475 64.83908
#
# Poissons Ratio (x) = 0.23906 0.76650
# Poissons Ratio (y) = 0.11131 -0.00735
# Poissons Ratio (z) = 0.39309 -0.00809
#
# Static dielectric constant tensor:
#      x y z
#    x 1.739490 0.000000 -0.007750 
#    y 0.000000 1.798090 0.000000 
#    z -0.007750 0.000000 1.740470 
# 
# From -- ./inp_files/29187.got.cif
#   From: 2010.05.17/outbox.cif.g08.bks.cpg/sg14_15_cif.got.tgz:29187.got - 2010.06.03 17:49:19.
