data_PCOD9249896
_publ_section_title
;
Structure prediction by ZEFSAII (Michael W. Deem and Ramdas Pophale) SiO2 
 PCOD9249896
Probable space group: P 21/C
;
_chemical_formula_sum "Si O2"
_cell_formula_units_Z 32
_cell_length_a 11.802855
_cell_length_b 18.240664
_cell_length_c 14.414990
_cell_angle_alpha 90.000000
_cell_angle_beta 26.297727
_cell_angle_gamma 90.000000
_cell_volume 1374.930390
_symmetry_space_group_name_H-M "P 21/C"
_symmetry_group_IT_number 14
_symmetry_cell_setting 'monoclinic'
loop_
_space_group_symop_operation_xyz
x,y,z
-x,1/2+y,1/2-z
-x,-y,-z
x,1/2-y,1/2+z
loop_
_atom_site_type_symbol
_atom_site_label
_atom_site_fract_x
_atom_site_fract_y
_atom_site_fract_z
Si Si1 0.602387 0.746973 0.604902
Si Si2 0.637606 0.930393 0.351100
Si Si3 0.145285 0.956767 0.475635
Si Si4 0.996453 0.965536 0.240980
Si Si5 0.947462 0.198274 0.485544
Si Si6 0.289098 0.086226 0.918635
Si Si7 0.906723 0.165447 0.727362
Si Si8 0.529822 0.730363 0.941450
O O1 0.306728 0.743580 0.856933
O O2 0.732032 0.673296 0.550588
O O3 0.580599 0.746823 0.510118
O O4 0.793264 0.814714 0.481435
O O5 0.719661 0.936279 0.183706
O O6 0.477917 0.855698 0.471759
O O7 0.869778 0.918494 0.252052
O O8 0.500000 0.000000 0.500000
O O9 0.013830 0.878371 0.597422
O O10 0.435595 0.935447 0.241478
O O11 0.000000 0.000000 0.500000
O O12 0.167180 0.006024 0.551918
O O13 0.179461 0.909365 0.160447
O O14 0.094809 0.037199 0.117884
O O15 0.881940 0.166675 0.635386
O O16 0.205243 0.245592 0.301353
O O17 0.722703 0.227240 0.903654
#
# Coordination Sequence:
#
# PCOD9249896 Si02
#       8
#     4   4   4   4   4   4   4   4
#     4  10  23  46  68 103 140 183 236 292 360 419
#     4  12  26  50  70 102 145 190 241 296 360 429
#     4  11  23  43  71 104 145 184 236 299 356 427
#     4  12  25  46  71 104 142 185 240 292 356 433
#     4  10  23  44  69 102 138 181 235 288 361 424
#     4  11  26  45  73 102 140 196 231 294 361 430
#     4  11  24  43  70 103 140 180 232 300 353 421
#     4  11  25  45  72 105 138 186 240 298 356 432
#
# _framework density 23.273906
#
# number of rings (size 3 to 8) (size 9 to 14) (size 15 to 20)
#    0.000    1.000    3.750    1.875    3.500    3.500 
#    6.750    0.000    0.000    0.000    0.000    0.000 
#    0.000    0.000    0.000    0.000    0.000    0.000 
#
# Total GULP energy -178616.346997 kJ/mol
# GULP energy per Si atom -5581.760844 kJ/mol
# Density = 2.322093 g / cm^3
# Si number density = 23.273906 Si / 1000 Ang^3
#
#
#
# Elastic Constant Matrix: (Units=GPa)
#
#
# Indices 1 2 3 4 5 6 
#
# 1 97.8427 -1.4410 18.5160 0.0000 25.9542 0.0000
# 2 -1.4410 102.4593 33.2645 0.0000 8.2900 0.0000
# 3 18.5160 33.2645 51.6704 0.0000 4.0907 0.0000
# 4 0.0000 0.0000 0.0000 33.5200 0.0000 -1.8181
# 5 25.9542 8.2900 4.0907 0.0000 35.7252 0.0000
# 6 0.0000 0.0000 0.0000 -1.8181 0.0000 38.9259
#
#
#
# Elastic Compliance Matrix: (Units=1/GPa)
#
#
# Indices 1 2 3 4 5 6 
#
# 1 0.014175 0.003055 -0.006232 0.000000 -0.010294 0.000000
# 2 0.003055 0.013137 -0.009219 0.000000 -0.004213 0.000000
# 3 -0.006232 -0.009219 0.027241 0.000000 0.003547 0.000000
# 4 0.000000 0.000000 0.000000 0.029909 0.000000 0.001397
# 5 -0.010294 -0.004213 0.003547 0.000000 0.036041 0.000000
# 6 0.000000 0.000000 0.000000 0.001397 0.000000 0.025755
#
#
# Mechanical properties :
#
#
# Convention : Reuss Voigt Hill
#
# Bulk Modulus (GPa) = 33.59912 39.18349 36.39131
# Shear Modulus (GPa) = 27.62912 35.07640 31.35276
#
# Velocity S-wave (km/s) = 3.44921 3.88637 3.67430
# Velocity P-wave (km/s) = 5.50731 6.08365 5.80264
#
# Compressibility (1/GPa) = 0.02976268
#
# Stress axis : x y z
#
# Youngs Moduli (GPa) = 70.54479 76.12254 36.71000
#
# Poissons Ratio (x) = -0.23259 0.22877
# Poissons Ratio (y) = -0.21555 0.33842
# Poissons Ratio (z) = 0.43962 0.70174
#
# Static dielectric constant tensor:
#      x y z
#    x 1.919900 0.000000 -0.028200 
#    y 0.000000 1.945070 0.000000 
#    z -0.028200 0.000000 1.897000 
# 
# From -- ./inp_files/45445.got.cif
#   From: 2010.05.17/outbox.cif.g08.bks.cpg/sg14_23_cif.got.tgz:45445.got - 2010.06.03 17:49:19.
