data_PCOD9249041
_publ_section_title
;
Structure prediction by ZEFSAII (Michael W. Deem and Ramdas Pophale) SiO2 
 PCOD9249041
Probable space group: P 21/C
;
_chemical_formula_sum "Si O2"
_cell_formula_units_Z 24
_cell_length_a 6.253937
_cell_length_b 15.700584
_cell_length_c 9.928074
_cell_angle_alpha 90.000000
_cell_angle_beta 82.986034
_cell_angle_gamma 90.000000
_cell_volume 967.546872
_symmetry_space_group_name_H-M "P 21/C"
_symmetry_group_IT_number 14
_symmetry_cell_setting 'monoclinic'
loop_
_space_group_symop_operation_xyz
x,y,z
-x,1/2+y,1/2-z
-x,-y,-z
x,1/2-y,1/2+z
loop_
_atom_site_type_symbol
_atom_site_label
_atom_site_fract_x
_atom_site_fract_y
_atom_site_fract_z
Si Si1 0.854333 0.622581 0.531823
Si Si2 0.674575 0.076664 0.630693
Si Si3 0.255544 0.281480 0.848866
Si Si4 0.596781 0.423697 0.820541
Si Si5 0.033886 0.481016 0.710664
Si Si6 0.973472 0.273949 0.110817
O O1 0.674969 0.690199 0.592373
O O2 0.805579 0.564275 0.406916
O O3 0.047572 0.687328 0.473713
O O4 0.943267 0.562534 0.639800
O O5 0.614515 0.081392 0.480200
O O6 0.764728 0.170230 0.660463
O O7 0.484763 0.019382 0.710553
O O8 0.868849 0.014101 0.658695
O O9 0.439754 0.346838 0.793342
O O10 0.111556 0.252192 0.731891
O O11 0.121156 0.322700 0.985511
O O12 0.838021 0.417918 0.750950
#
# Coordination Sequence:
#
# PCOD9249041 Si02
#       6
#     4   4   4   4   4   4
#     4   9  23  43  75  97 139 197 233 292 354 442
#     4  11  24  42  72 105 142 188 239 297 366 427
#     4  10  23  46  70 107 144 188 240 302 354 427
#     4  11  27  40  73 113 140 184 248 307 350 439
#     4  11  22  49  72  99 145 194 237 289 376 421
#     4  10  22  45  72  98 145 197 227 300 363 424
#
# _framework density 24.805001000000001
#
# number of rings (size 3 to 8) (size 9 to 14) (size 15 to 20)
#    1.000    0.667    1.667    1.500    9.333    0.000 
#    6.000    7.500    0.000    0.000    0.000    0.000 
#    0.000    0.000    0.000    0.000    0.000    0.000 
#
# Total GULP energy -133716.668530 kJ/mol
# GULP energy per Si atom -5571.527855 kJ/mol
# Density = 2.474854 g / cm^3
# Si number density = 24.805001 Si / 1000 Ang^3
#
#
#
# Elastic Constant Matrix: (Units=GPa)
#
#
# Indices 1 2 3 4 5 6 
#
# 1 59.4234 35.3145 41.1959 0.0000 16.0994 0.0000
# 2 35.3145 119.7573 31.0013 0.0000 13.3311 0.0000
# 3 41.1959 31.0013 68.4852 0.0000 23.1720 0.0000
# 4 0.0000 0.0000 0.0000 46.4129 0.0000 -0.4127
# 5 16.0994 13.3311 23.1720 0.0000 27.3210 0.0000
# 6 0.0000 0.0000 0.0000 -0.4127 0.0000 43.5445
#
#
#
# Elastic Compliance Matrix: (Units=1/GPa)
#
#
# Indices 1 2 3 4 5 6 
#
# 1 0.031383 -0.004873 -0.015735 0.000000 -0.002770 0.000000
# 2 -0.004873 0.010252 -0.001387 0.000000 -0.000955 0.000000
# 3 -0.015735 -0.001387 0.029912 0.000000 -0.015421 0.000000
# 4 0.000000 0.000000 0.000000 0.021548 0.000000 0.000204
# 5 -0.002770 -0.000955 -0.015421 0.000000 0.051779 0.000000
# 6 0.000000 0.000000 0.000000 0.000204 0.000000 0.022967
#
#
# Mechanical properties :
#
#
# Convention : Reuss Voigt Hill
#
# Bulk Modulus (GPa) = 36.28584 51.40990 43.84787
# Shear Modulus (GPa) = 22.62275 32.79928 27.71101
#
# Velocity S-wave (km/s) = 3.02325 3.64027 3.34601
# Velocity P-wave (km/s) = 5.18140 6.19995 5.71342
#
# Compressibility (1/GPa) = 0.02755896
#
# Stress axis : x y z
#
# Youngs Moduli (GPa) = 31.86433 97.53807 33.43127
#
# Poissons Ratio (x) = 0.47528 0.52604
# Poissons Ratio (y) = 0.15527 0.04636
# Poissons Ratio (z) = 0.50138 0.13525
#
# Static dielectric constant tensor:
#      x y z
#    x 2.006030 0.000000 -0.044270 
#    y 0.000000 2.012080 0.000000 
#    z -0.044270 0.000000 1.981310 
# 
# From -- ./inp_files/21233.got.cif
#   From: 2010.05.17/outbox.cif.g08.bks.cpg/sg14_11_cif.got.tgz:21233.got - 2010.06.03 17:49:19.
