data_PCOD9249109
_publ_section_title
;
Structure prediction by ZEFSAII (Michael W. Deem and Ramdas Pophale) SiO2 
 PCOD9249109
Probable space group: P 21/C
;
_chemical_formula_sum "Si O2"
_cell_formula_units_Z 18
_cell_length_a 4.895805
_cell_length_b 8.056641
_cell_length_c 17.024506
_cell_angle_alpha 90.000000
_cell_angle_beta 91.954166
_cell_angle_gamma 90.000000
_cell_volume 671.119711
_symmetry_space_group_name_H-M "P 21/C"
_symmetry_group_IT_number 14
_symmetry_cell_setting 'monoclinic'
loop_
_space_group_symop_operation_xyz
x,y,z
-x,1/2+y,1/2-z
-x,-y,-z
x,1/2-y,1/2+z
loop_
_atom_site_type_symbol
_atom_site_label
_atom_site_fract_x
_atom_site_fract_y
_atom_site_fract_z
Si Si1 0.169695 0.947331 0.096324
Si Si2 0.344097 0.300309 0.476054
Si Si3 0.223647 0.770771 0.256232
Si Si4 0.724330 0.919682 0.328642
Si Si5 0.000000 0.000000 0.500000
O O1 0.338032 0.819370 0.040576
O O2 0.253206 0.896970 0.183273
O O3 0.847609 0.915765 0.082025
O O4 0.265010 0.119826 0.059418
O O5 0.233939 0.119075 0.461952
O O6 0.279106 0.589204 0.222737
O O7 0.427422 0.836722 0.324571
O O8 0.920304 0.789714 0.285840
O O9 0.853918 0.965477 0.412778
#
# Coordination Sequence:
#
# PCOD9249109 Si02
#       5
#     4   4   4   4   2
#     4  10  22  46  70 103 144 196 246 299 377 453
#     4  10  23  41  74 104 146 193 242 304 374 453
#     4  12  27  52  75 114 148 208 250 327 371 469
#     4  12  30  49  80 108 161 194 264 305 400 440
#     4  12  28  50  74 118 150 206 248 328 368 470
#
# _framework density 26.820848999999999
#
# number of rings (size 3 to 8) (size 9 to 14) (size 15 to 20)
#    0.000    0.889    2.222    2.667    9.333    3.556 
#    0.000    0.000    0.000    0.000    0.000    0.000 
#    0.000    0.000    0.000    0.000    0.000    0.000 
#
# Total GULP energy -100455.726939 kJ/mol
# GULP energy per Si atom -5580.873719 kJ/mol
# Density = 2.675980 g / cm^3
# Si number density = 26.820849 Si / 1000 Ang^3
#
#
#
# Elastic Constant Matrix: (Units=GPa)
#
#
# Indices 1 2 3 4 5 6 
#
# 1 85.3382 12.8532 -5.7792 0.0000 -2.0016 0.0000
# 2 12.8532 87.7215 10.5861 0.0000 11.6090 0.0000
# 3 -5.7792 10.5861 111.7548 0.0000 19.3212 0.0000
# 4 0.0000 0.0000 0.0000 32.7257 0.0000 -9.9432
# 5 -2.0016 11.6090 19.3212 0.0000 28.3844 0.0000
# 6 0.0000 0.0000 0.0000 -9.9432 0.0000 18.5486
#
#
#
# Elastic Compliance Matrix: (Units=1/GPa)
#
#
# Indices 1 2 3 4 5 6 
#
# 1 0.012091 -0.002012 0.000596 0.000000 0.001269 0.000000
# 2 -0.002012 0.012397 -0.000428 0.000000 -0.004921 0.000000
# 3 0.000596 -0.000428 0.010180 0.000000 -0.006713 0.000000
# 4 0.000000 0.000000 0.000000 0.036502 0.000000 0.019567
# 5 0.001269 -0.004921 -0.006713 0.000000 0.041902 0.000000
# 6 0.000000 0.000000 0.000000 0.019567 0.000000 0.064402
#
#
# Mechanical properties :
#
#
# Convention : Reuss Voigt Hill
#
# Bulk Modulus (GPa) = 32.27578 35.57053 33.92315
# Shear Modulus (GPa) = 26.11130 33.74203 29.92666
#
# Velocity S-wave (km/s) = 3.12355 3.55075 3.34398
# Velocity P-wave (km/s) = 5.00687 5.48648 5.25215
#
# Compressibility (1/GPa) = 0.03098299
#
# Stress axis : x y z
#
# Youngs Moduli (GPa) = 82.70464 80.66255 98.23143
#
# Poissons Ratio (x) = 0.16226 -0.05858
# Poissons Ratio (y) = 0.16637 0.04200
# Poissons Ratio (z) = -0.04932 0.03449
#
# Static dielectric constant tensor:
#      x y z
#    x 2.578610 0.000000 -0.229650 
#    y 0.000000 2.119860 0.000000 
#    z -0.229650 0.000000 2.113770 
# 
# From -- ./inp_files/52492.got.cif
#   From: 2010.05.17/outbox.cif.g08.bks.cpg/sg14_27_cif.got.tgz:52492.got - 2010.06.03 17:49:19.
