data_PCOD9249906
_publ_section_title
;
Structure prediction by ZEFSAII (Michael W. Deem and Ramdas Pophale) SiO2 
 PCOD9249906
Probable space group: P 21/C
;
_chemical_formula_sum "Si O2"
_cell_formula_units_Z 32
_cell_length_a 26.584254
_cell_length_b 9.983579
_cell_length_c 27.492465
_cell_angle_alpha 90.000000
_cell_angle_beta 170.090307
_cell_angle_gamma 90.000000
_cell_volume 1255.725089
_symmetry_space_group_name_H-M "P 21/C"
_symmetry_group_IT_number 14
_symmetry_cell_setting 'monoclinic'
loop_
_space_group_symop_operation_xyz
x,y,z
-x,1/2+y,1/2-z
-x,-y,-z
x,1/2-y,1/2+z
loop_
_atom_site_type_symbol
_atom_site_label
_atom_site_fract_x
_atom_site_fract_y
_atom_site_fract_z
Si Si1 0.107810 0.208099 0.894126
Si Si2 0.426712 0.793311 0.302961
Si Si3 0.389855 0.821533 0.432786
Si Si4 0.188685 0.538256 0.224418
Si Si5 0.535391 0.240601 0.388588
Si Si6 0.204766 0.034872 0.846365
Si Si7 0.265108 0.714418 0.049889
Si Si8 0.173819 0.387302 0.735055
O O1 0.802168 0.145303 0.623083
O O2 0.939522 0.278953 0.687548
O O3 0.262605 0.254152 0.092275
O O4 0.415273 0.160481 0.162573
O O5 0.529619 0.639741 0.398632
O O6 0.691026 0.863791 0.582629
O O7 0.338579 0.819179 0.163008
O O8 0.149477 0.830153 0.071471
O O9 0.185007 0.694429 0.232026
O O10 0.533167 0.809254 0.622724
O O11 0.628693 0.817493 0.617685
O O12 0.205524 0.956789 0.253552
O O13 0.500000 0.500000 0.500000
O O14 0.115060 0.466953 0.204527
O O15 0.000000 0.500000 0.000000
O O16 0.681175 0.388331 0.531063
O O17 0.940771 0.094477 0.626661
#
# Coordination Sequence:
#
# PCOD9249906 Si02
#       8
#     4   4   4   4   4   4   4   4
#     4  10  23  44  69  97 140 183 241 291 367 443
#     4  12  24  43  74 106 142 184 250 289 361 436
#     4  10  26  49  70 104 155 194 248 295 372 433
#     4  11  27  42  71 112 144 188 241 297 358 439
#     4  10  25  45  71 103 143 188 239 306 369 440
#     4  11  25  42  77 103 149 189 231 311 380 418
#     4  11  22  44  71 101 142 181 236 305 362 438
#     4  11  26  44  74 104 146 208 237 298 355 439
#
# _framework density 25.483284999999999
#
# number of rings (size 3 to 8) (size 9 to 14) (size 15 to 20)
#    0.000    1.250    2.500    0.750    5.250    8.000 
#    0.000   14.375    0.000    0.000    0.000    0.000 
#    0.000    0.000    0.000    0.000    0.000    0.000 
#
# Total GULP energy -178786.612282 kJ/mol
# GULP energy per Si atom -5587.081634 kJ/mol
# Density = 2.542528 g / cm^3
# Si number density = 25.483285 Si / 1000 Ang^3
#
#
#
# Elastic Constant Matrix: (Units=GPa)
#
#
# Indices 1 2 3 4 5 6 
#
# 1 137.5245 9.2840 49.8855 0.0000 -22.9738 0.0000
# 2 9.2840 49.7305 12.4804 0.0000 14.5663 0.0000
# 3 49.8855 12.4804 189.1676 0.0000 -9.1293 0.0000
# 4 0.0000 0.0000 0.0000 13.5823 0.0000 9.1602
# 5 -22.9738 14.5663 -9.1293 0.0000 50.4620 0.0000
# 6 0.0000 0.0000 0.0000 9.1602 0.0000 13.6687
#
#
#
# Elastic Compliance Matrix: (Units=1/GPa)
#
#
# Indices 1 2 3 4 5 6 
#
# 1 0.008886 -0.002453 -0.001969 0.000000 0.004397 0.000000
# 2 -0.002453 0.023247 -0.001276 0.000000 -0.008058 0.000000
# 3 -0.001969 -0.001276 0.005916 0.000000 0.000542 0.000000
# 4 0.000000 0.000000 0.000000 0.134344 0.000000 -0.090032
# 5 0.004397 -0.008058 0.000542 0.000000 0.024243 0.000000
# 6 0.000000 0.000000 0.000000 -0.090032 0.000000 0.133495
#
#
# Mechanical properties :
#
#
# Convention : Reuss Voigt Hill
#
# Bulk Modulus (GPa) = 37.51914 57.74692 47.63303
# Shear Modulus (GPa) = 14.26900 35.86080 25.06490
#
# Velocity S-wave (km/s) = 2.36886 3.75537 3.13961
# Velocity P-wave (km/s) = 4.71561 6.44311 5.64583
#
# Compressibility (1/GPa) = 0.02665307
#
# Stress axis : x y z
#
# Youngs Moduli (GPa) = 112.53788 43.01711 169.03412
#
# Poissons Ratio (x) = 0.10550 0.33288
# Poissons Ratio (y) = 0.27601 0.21565
# Poissons Ratio (z) = 0.22162 0.05488
#
# Static dielectric constant tensor:
#      x y z
#    x 2.077850 0.000000 -0.008520 
#    y 0.000000 2.017460 0.000000 
#    z -0.008520 0.000000 1.980140 
# 
# From -- ./inp_files/78352.got.cif
#   From: 2010.05.17/outbox.cif.g08.bks.cpg/sg14_40_cif.got.tgz:78352.got - 2010.06.03 17:49:19.
