data_PCOD9249541
_publ_section_title
;
Structure prediction by ZEFSAII (Michael W. Deem and Ramdas Pophale) SiO2 
 PCOD9249541
Probable space group: P 21/C
;
_chemical_formula_sum "Si O2"
_cell_formula_units_Z 20
_cell_length_a 6.622470
_cell_length_b 8.133757
_cell_length_c 17.170976
_cell_angle_alpha 90.000000
_cell_angle_beta 90.975283
_cell_angle_gamma 90.000000
_cell_volume 924.790275
_symmetry_space_group_name_H-M "P 21/C"
_symmetry_group_IT_number 14
_symmetry_cell_setting 'monoclinic'
loop_
_space_group_symop_operation_xyz
x,y,z
-x,1/2+y,1/2-z
-x,-y,-z
x,1/2-y,1/2+z
loop_
_atom_site_type_symbol
_atom_site_label
_atom_site_fract_x
_atom_site_fract_y
_atom_site_fract_z
Si Si1 0.785681 0.433986 0.095933
Si Si2 0.138314 0.050318 0.856232
Si Si3 0.870162 0.747353 0.499192
Si Si4 0.162585 0.366869 0.749498
Si Si5 0.528026 0.847956 0.882898
O O1 0.765761 0.598391 0.043325
O O2 0.843090 0.498246 0.182051
O O3 0.587487 0.324189 0.104881
O O4 0.957174 0.325810 0.054040
O O5 0.040537 0.131232 0.932422
O O6 0.149485 0.194672 0.793216
O O7 0.356479 0.986380 0.884330
O O8 0.016031 0.907404 0.812059
O O9 0.704421 0.651981 0.447714
O O10 0.365676 0.365791 0.700083
#
# Coordination Sequence:
#
# PCOD9249541 Si02
#       5
#     4   4   4   4   4
#     4  10  23  44  66  92 127 166 206 254 311 371
#     4  11  24  40  62  91 126 166 210 259 309 368
#     4  10  23  42  65  92 126 165 207 255 310 370
#     4  11  24  42  63  91 126 166 210 257 310 369
#     4  12  22  38  64  94 125 160 207 259 311 368
#
# _framework density 21.626525000000001
#
# number of rings (size 3 to 8) (size 9 to 14) (size 15 to 20)
#    0.000    1.200    0.000    6.000    0.000    4.800 
#    0.000   10.000    0.000    0.000    0.000    0.000 
#    0.000    0.000    0.000    0.000    0.000    0.000 
#
# Total GULP energy -111828.186451 kJ/mol
# GULP energy per Si atom -5591.409323 kJ/mol
# Density = 2.157730 g / cm^3
# Si number density = 21.626525 Si / 1000 Ang^3
#
#
#
# Elastic Constant Matrix: (Units=GPa)
#
#
# Indices 1 2 3 4 5 6 
#
# 1 83.6230 42.1115 55.2946 0.0000 -3.6657 0.0000
# 2 42.1115 97.4310 69.7423 0.0000 6.2226 0.0000
# 3 55.2946 69.7423 161.3180 0.0000 -13.6848 0.0000
# 4 0.0000 0.0000 0.0000 51.7527 0.0000 -6.0279
# 5 -3.6657 6.2226 -13.6848 0.0000 40.2000 0.0000
# 6 0.0000 0.0000 0.0000 -6.0279 0.0000 42.4371
#
#
#
# Elastic Compliance Matrix: (Units=1/GPa)
#
#
# Indices 1 2 3 4 5 6 
#
# 1 0.016777 -0.004726 -0.003620 0.000000 0.001029 0.000000
# 2 -0.004726 0.017078 -0.006203 0.000000 -0.005186 0.000000
# 3 -0.003620 -0.006203 0.010478 0.000000 0.004197 0.000000
# 4 0.000000 0.000000 0.000000 0.019648 0.000000 0.002791
# 5 0.001029 -0.005186 0.004197 0.000000 0.027201 0.000000
# 6 0.000000 0.000000 0.000000 0.002791 0.000000 0.023961
#
#
# Mechanical properties :
#
#
# Convention : Reuss Voigt Hill
#
# Bulk Modulus (GPa) = 65.64226 75.18544 70.41385
# Shear Modulus (GPa) = 33.48534 38.55955 36.02245
#
# Velocity S-wave (km/s) = 3.93917 4.22711 4.08568
# Velocity P-wave (km/s) = 7.14899 7.65934 7.40856
#
# Compressibility (1/GPa) = 0.01523409
#
# Stress axis : x y z
#
# Youngs Moduli (GPa) = 59.60460 58.55537 95.43978
#
# Poissons Ratio (x) = 0.27671 0.34553
# Poissons Ratio (y) = 0.28167 0.59205
# Poissons Ratio (z) = 0.21579 0.36324
#
# Static dielectric constant tensor:
#      x y z
#    x 1.757010 0.000000 -0.007900 
#    y 0.000000 1.815300 0.000000 
#    z -0.007900 0.000000 1.770550 
# 
# From -- ./inp_files/52663.got.cif
#   From: 2010.05.17/outbox.cif.g08.bks.cpg/sg14_27_cif.got.tgz:52663.got - 2010.06.03 17:49:19.
