data_PCOD9249078
_publ_section_title
;
Structure prediction by ZEFSAII (Michael W. Deem and Ramdas Pophale) SiO2 
 PCOD9249078
Probable space group: P 21/C
;
_chemical_formula_sum "Si O2"
_cell_formula_units_Z 22
_cell_length_a 15.024940
_cell_length_b 11.191504
_cell_length_c 5.259581
_cell_angle_alpha 90.000000
_cell_angle_beta 81.061663
_cell_angle_gamma 90.000000
_cell_volume 873.667230
_symmetry_space_group_name_H-M "P 21/C"
_symmetry_group_IT_number 14
_symmetry_cell_setting 'monoclinic'
loop_
_space_group_symop_operation_xyz
x,y,z
-x,1/2+y,1/2-z
-x,-y,-z
x,1/2-y,1/2+z
loop_
_atom_site_type_symbol
_atom_site_label
_atom_site_fract_x
_atom_site_fract_y
_atom_site_fract_z
Si Si1 0.301966 0.814311 0.216460
Si Si2 0.000000 0.500000 0.500000
Si Si3 0.806475 0.888540 0.174592
Si Si4 0.271638 0.377716 0.789838
Si Si5 0.913816 0.317745 0.149739
Si Si6 0.558694 0.981953 0.723443
O O1 0.324501 0.711094 0.412910
O O2 0.193938 0.824587 0.285677
O O3 0.362540 0.920506 0.293537
O O4 0.092019 0.418955 0.430801
O O5 0.043041 0.569122 0.734853
O O6 0.779365 0.941546 0.457014
O O7 0.779533 0.749368 0.214615
O O8 0.743914 0.936475 0.976761
O O9 0.377547 0.364021 0.802613
O O10 0.938388 0.208328 0.341394
O O11 0.500000 0.000000 0.500000
O O12 0.500000 0.000000 0.000000
#
# Coordination Sequence:
#
# PCOD9249078 Si02
#       6
#     4   2   4   4   4   4
#     4  10  22  46  66  96 141 186 228 299 379 431
#     4  12  26  42  76 112 146 196 258 296 358 454
#     4  10  24  42  70 101 145 196 232 296 369 439
#     4  10  23  47  66  98 151 186 234 303 379 421
#     4  10  25  43  69 100 143 190 243 298 359 435
#     4  12  25  44  73 109 137 187 253 304 369 462
#
# _framework density 25.181215000000002
#
# number of rings (size 3 to 8) (size 9 to 14) (size 15 to 20)
#    0.000    1.455    0.000    3.273    5.091    7.273 
#   19.636    0.000    0.000    0.000    0.000    0.000 
#    0.000    0.000    0.000    0.000    0.000    0.000 
#
# Total GULP energy -122520.449402 kJ/mol
# GULP energy per Si atom -5569.111336 kJ/mol
# Density = 2.512390 g / cm^3
# Si number density = 25.181215 Si / 1000 Ang^3
#
#
#
# Elastic Constant Matrix: (Units=GPa)
#
#
# Indices 1 2 3 4 5 6 
#
# 1 131.5474 46.8352 30.3220 0.0000 20.1268 0.0000
# 2 46.8352 66.4955 19.7494 0.0000 8.5903 0.0000
# 3 30.3220 19.7494 162.4133 0.0000 21.5846 0.0000
# 4 0.0000 0.0000 0.0000 36.2923 0.0000 22.8127
# 5 20.1268 8.5903 21.5846 0.0000 52.5473 0.0000
# 6 0.0000 0.0000 0.0000 22.8127 0.0000 118.5281
#
#
#
# Elastic Compliance Matrix: (Units=1/GPa)
#
#
# Indices 1 2 3 4 5 6 
#
# 1 0.010653 -0.006928 -0.000798 0.000000 -0.002620 0.000000
# 2 -0.006928 0.020284 -0.001148 0.000000 -0.000191 0.000000
# 3 -0.000798 -0.001148 0.006749 0.000000 -0.002279 0.000000
# 4 0.000000 0.000000 0.000000 0.031346 0.000000 -0.006033
# 5 -0.002620 -0.000191 -0.002279 0.000000 0.021001 0.000000
# 6 0.000000 0.000000 0.000000 -0.006033 0.000000 0.009598
#
#
# Mechanical properties :
#
#
# Convention : Reuss Voigt Hill
#
# Bulk Modulus (GPa) = 50.15620 61.58547 55.87083
# Shear Modulus (GPa) = 40.31453 59.04352 49.67902
#
# Velocity S-wave (km/s) = 4.00556 4.84751 4.44651
# Velocity P-wave (km/s) = 6.43071 7.47269 6.97120
#
# Compressibility (1/GPa) = 0.01993772
#
# Stress axis : x y z
#
# Youngs Moduli (GPa) = 93.86811 49.30065 148.17965
#
# Poissons Ratio (x) = 0.34155 0.11829
# Poissons Ratio (y) = 0.65031 0.17007
# Poissons Ratio (z) = 0.07494 0.05658
#
# Static dielectric constant tensor:
#      x y z
#    x 1.985370 0.000000 -0.026410 
#    y 0.000000 -0.865140 0.000000 
#    z -0.026410 0.000000 2.092580 
# 
# From -- ./inp_files/3500.got.cif
#   From: 2010.05.17/outbox.cif.g08.bks.cpg/sg14_2_cif.got.tgz:3500.got - 2010.06.03 17:49:19.
