data_PCOD9249060
_publ_section_title
;
Structure prediction by ZEFSAII (Michael W. Deem and Ramdas Pophale) SiO2 
 PCOD9249060
Probable space group: P 21/C
;
_chemical_formula_sum "Si O2"
_cell_formula_units_Z 22
_cell_length_a 16.829961
_cell_length_b 6.820227
_cell_length_c 12.488631
_cell_angle_alpha 90.000000
_cell_angle_beta 150.322323
_cell_angle_gamma 90.000000
_cell_volume 709.753301
_symmetry_space_group_name_H-M "P 21/C"
_symmetry_group_IT_number 14
_symmetry_cell_setting 'monoclinic'
loop_
_space_group_symop_operation_xyz
x,y,z
-x,1/2+y,1/2-z
-x,-y,-z
x,1/2-y,1/2+z
loop_
_atom_site_type_symbol
_atom_site_label
_atom_site_fract_x
_atom_site_fract_y
_atom_site_fract_z
Si Si1 0.550059 0.777101 0.662026
Si Si2 0.892828 0.780913 0.004655
Si Si3 0.764914 0.145558 0.843743
Si Si4 0.000000 0.000000 0.500000
Si Si5 0.091186 0.183892 0.223684
Si Si6 0.644974 0.403736 0.880755
O O1 0.700272 0.888423 0.782169
O O2 0.387780 0.801404 0.408216
O O3 0.604282 0.554913 0.737727
O O4 0.512015 0.850563 0.736201
O O5 0.852971 0.693851 0.821512
O O6 0.891840 0.756773 0.134148
O O7 0.044071 0.634364 0.158905
O O8 0.714098 0.216780 0.902215
O O9 0.900136 0.326550 0.970009
O O10 0.943704 0.013199 0.041899
O O11 0.236254 0.018875 0.400870
#
# Coordination Sequence:
#
# PCOD9249060 Si02
#       6
#     4   4   4   2   4   4
#     4  12  26  47  73 113 160 214 269 335 417 486
#     4  10  22  45  78 106 150 214 267 335 416 487
#     4  12  25  48  77 108 163 213 265 343 422 484
#     4   8  20  40  78 104 140 204 264 320 410 474
#     4  10  24  47  75 110 152 212 276 340 408 490
#     4  12  28  44  77 123 161 213 283 340 409 503
#
# _framework density 30.996686
#
# number of rings (size 3 to 8) (size 9 to 14) (size 15 to 20)
#    1.091    0.000    1.818    3.818    2.545    2.909 
#    0.000    1.818    0.000    0.000    0.000    0.000 
#    0.000    0.000    0.000    0.000    0.000    0.364 
#
# Total GULP energy -122823.757523 kJ/mol
# GULP energy per Si atom -5582.898069 kJ/mol
# Density = 3.092614 g / cm^3
# Si number density = 30.996686 Si / 1000 Ang^3
#
#
#
# Elastic Constant Matrix: (Units=GPa)
#
#
# Indices 1 2 3 4 5 6 
#
# 1 259.6385 119.1682 80.6591 0.0000 5.7954 0.0000
# 2 119.1682 293.6990 74.8894 0.0000 -13.5999 0.0000
# 3 80.6591 74.8894 201.0760 0.0000 0.7287 0.0000
# 4 0.0000 0.0000 0.0000 55.7434 0.0000 -5.6495
# 5 5.7954 -13.5999 0.7287 0.0000 52.5127 0.0000
# 6 0.0000 0.0000 0.0000 -5.6495 0.0000 91.4724
#
#
#
# Elastic Compliance Matrix: (Units=1/GPa)
#
#
# Indices 1 2 3 4 5 6 
#
# 1 0.005118 -0.001768 -0.001391 0.000000 -0.001003 0.000000
# 2 -0.001768 0.004426 -0.000944 0.000000 0.001354 0.000000
# 3 -0.001391 -0.000944 0.005883 0.000000 -0.000173 0.000000
# 4 0.000000 0.000000 0.000000 0.018052 0.000000 0.001115
# 5 -0.001003 0.001354 -0.000173 0.000000 0.019507 0.000000
# 6 0.000000 0.000000 0.000000 0.001115 0.000000 0.011001
#
#
# Mechanical properties :
#
#
# Convention : Reuss Voigt Hill
#
# Bulk Modulus (GPa) = 138.48750 144.87187 141.67969
# Shear Modulus (GPa) = 67.02459 71.92549 69.47504
#
# Velocity S-wave (km/s) = 4.65511 4.82231 4.73945
# Velocity P-wave (km/s) = 8.58304 8.82301 8.70385
#
# Compressibility (1/GPa) = 0.00722087
#
# Stress axis : x y z
#
# Youngs Moduli (GPa) = 195.40695 225.95087 169.97424
#
# Poissons Ratio (x) = 0.39955 0.23637
# Poissons Ratio (y) = 0.34554 0.16044
# Poissons Ratio (z) = 0.27173 0.21328
#
# Static dielectric constant tensor:
#      x y z
#    x 2.362730 0.000000 0.085080 
#    y 0.000000 2.593110 0.000000 
#    z 0.085080 0.000000 2.379370 
# 
# From -- ./inp_files/32062.got.cif
#   From: 2010.05.17/outbox.cif.g08.bks.cpg/sg14_17_cif.got.tgz:32062.got - 2010.06.03 17:49:19.
