data_PCOD9249116
_publ_section_title
;
Structure prediction by ZEFSAII (Michael W. Deem and Ramdas Pophale) SiO2 
 PCOD9249116
Probable space group: P 21/C
;
_chemical_formula_sum "Si O2"
_cell_formula_units_Z 30
_cell_length_a 11.445125
_cell_length_b 5.055325
_cell_length_c 20.594490
_cell_angle_alpha 90.000000
_cell_angle_beta 72.398259
_cell_angle_gamma 90.000000
_cell_volume 1135.785339
_symmetry_space_group_name_H-M "P 21/C"
_symmetry_group_IT_number 14
_symmetry_cell_setting 'monoclinic'
loop_
_space_group_symop_operation_xyz
x,y,z
-x,1/2+y,1/2-z
-x,-y,-z
x,1/2-y,1/2+z
loop_
_atom_site_type_symbol
_atom_site_label
_atom_site_fract_x
_atom_site_fract_y
_atom_site_fract_z
Si Si1 0.222706 0.880847 0.342367
Si Si2 0.500000 0.500000 0.000000
Si Si3 0.610287 0.549731 0.393142
Si Si4 0.461891 0.968155 0.794601
Si Si5 0.198660 0.792332 0.047174
Si Si6 0.730548 0.697437 0.040558
Si Si7 0.020451 0.560517 0.343367
Si Si8 0.177242 0.214422 0.227343
O O1 0.333449 0.673829 0.329632
O O2 0.248128 0.114523 0.389104
O O3 0.088896 0.760395 0.379385
O O4 0.211956 0.972754 0.269036
O O5 0.469395 0.239055 0.049520
O O6 0.595507 0.617108 0.039754
O O7 0.529775 0.443633 0.348160
O O8 0.685420 0.327774 0.421786
O O9 0.712829 0.737225 0.341898
O O10 0.540688 0.727901 0.749486
O O11 0.074013 0.869125 0.104396
O O12 0.230752 0.009384 0.986888
O O13 0.192605 0.503937 0.018321
O O14 0.132862 0.424600 0.286988
O O15 0.939032 0.685997 0.300294
#
# Coordination Sequence:
#
# PCOD9249116 Si02
#       8
#     4   2   4   4   4   4   4   4
#     4  12  26  44  71 106 144 192 242 305 371 435
#     4  10  22  46  72 102 148 194 238 294 362 438
#     4  10  22  46  71 107 145 193 242 297 367 442
#     4  12  26  45  70 110 148 188 236 306 373 437
#     4  10  27  47  73 106 144 194 249 296 365 437
#     4  11  26  47  71 109 145 196 245 300 364 443
#     4  11  25  45  74 101 143 188 245 306 367 433
#     4  11  23  45  70 108 139 189 245 305 370 435
#
# _framework density 26.413443999999998
#
# number of rings (size 3 to 8) (size 9 to 14) (size 15 to 20)
#    0.000    1.067    4.000    0.800    3.733    6.400 
#    0.000    0.000    0.000    0.000    0.000    0.000 
#    0.000    0.000    0.000    0.000    0.000    0.000 
#
# Total GULP energy -167805.001307 kJ/mol
# GULP energy per Si atom -5593.500044 kJ/mol
# Density = 2.635333 g / cm^3
# Si number density = 26.413444 Si / 1000 Ang^3
#
#
#
# Elastic Constant Matrix: (Units=GPa)
#
#
# Indices 1 2 3 4 5 6 
#
# 1 87.2244 11.5656 33.2355 0.0000 23.3695 0.0000
# 2 11.5656 71.9356 26.8696 0.0000 -1.4643 0.0000
# 3 33.2355 26.8696 89.5783 0.0000 20.5396 0.0000
# 4 0.0000 0.0000 0.0000 46.9085 0.0000 3.1195
# 5 23.3695 -1.4643 20.5396 0.0000 31.5333 0.0000
# 6 0.0000 0.0000 0.0000 3.1195 0.0000 6.6895
#
#
#
# Elastic Compliance Matrix: (Units=1/GPa)
#
#
# Indices 1 2 3 4 5 6 
#
# 1 0.015373 -0.001513 -0.003082 0.000000 -0.009456 0.000000
# 2 -0.001513 0.016354 -0.005614 0.000000 0.005537 0.000000
# 3 -0.003082 -0.005614 0.015902 0.000000 -0.008335 0.000000
# 4 0.000000 0.000000 0.000000 0.022000 0.000000 -0.010259
# 5 -0.009456 0.005537 -0.008335 0.000000 0.044406 0.000000
# 6 0.000000 0.000000 0.000000 -0.010259 0.000000 0.154272
#
#
# Mechanical properties :
#
#
# Convention : Reuss Voigt Hill
#
# Bulk Modulus (GPa) = 36.74878 43.56442 40.15660
# Shear Modulus (GPa) = 16.79006 28.83078 22.81042
#
# Velocity S-wave (km/s) = 2.52397 3.30740 2.94188
# Velocity P-wave (km/s) = 4.73677 5.57802 5.17452
#
# Compressibility (1/GPa) = 0.02721179
#
# Stress axis : x y z
#
# Youngs Moduli (GPa) = 65.04909 61.14633 62.88604
#
# Poissons Ratio (x) = 0.09252 0.19380
# Poissons Ratio (y) = 0.09842 0.35303
# Poissons Ratio (z) = 0.20046 0.34327
#
# Static dielectric constant tensor:
#      x y z
#    x 2.167880 0.000000 -0.207790 
#    y 0.000000 -4.115040 0.000000 
#    z -0.207790 0.000000 2.245240 
# 
# From -- ./inp_files/66485.got.cif
#   From: 2010.05.17/outbox.cif.g08.bks.cpg/sg14_34_cif.got.tgz:66485.got - 2010.06.03 17:49:19.
