data_PCOD9249714
_publ_section_title
;
Structure prediction by ZEFSAII (Michael W. Deem and Ramdas Pophale) SiO2 
 PCOD9249714
Probable space group: P 21/C
;
_chemical_formula_sum "Si O2"
_cell_formula_units_Z 16
_cell_length_a 6.859325
_cell_length_b 13.802192
_cell_length_c 9.018389
_cell_angle_alpha 90.000000
_cell_angle_beta 42.513452
_cell_angle_gamma 90.000000
_cell_volume 576.969696
_symmetry_space_group_name_H-M "P 21/C"
_symmetry_group_IT_number 14
_symmetry_cell_setting 'monoclinic'
loop_
_space_group_symop_operation_xyz
x,y,z
-x,1/2+y,1/2-z
-x,-y,-z
x,1/2-y,1/2+z
loop_
_atom_site_type_symbol
_atom_site_label
_atom_site_fract_x
_atom_site_fract_y
_atom_site_fract_z
Si Si1 0.918332 0.543284 0.884221
Si Si2 0.269386 0.615594 0.202602
Si Si3 0.496712 0.883994 0.028064
Si Si4 0.442893 0.758726 0.328506
O O1 0.941671 0.469298 0.730400
O O2 0.145684 0.628044 0.728730
O O3 0.584390 0.572123 0.067434
O O4 0.000000 0.500000 0.000000
O O5 0.222982 0.690637 0.360393
O O6 0.312322 0.672746 0.025715
O O7 0.589382 0.830546 0.127076
O O8 0.622242 0.819913 0.824294
O O9 0.500000 0.000000 0.000000
#
# Coordination Sequence:
#
# PCOD9249714 Si02
#       4
#     4   4   4   4
#     4  11  22  42  70  94 133 178 223 282 345 402
#     4  10  23  43  66  96 133 175 227 280 340 404
#     4  11  24  45  68 100 140 179 230 283 344 406
#     4  10  23  45  64 101 137 177 234 277 339 415
#
# _framework density 27.731093000000001
#
# number of rings (size 3 to 8) (size 9 to 14) (size 15 to 20)
#    0.000    1.500    2.500    1.500    3.500    3.000 
#   18.000    0.000    0.000    0.000    0.000    0.000 
#    0.000    0.000    0.000    0.000    0.000    0.000 
#
# Total GULP energy -89441.634806 kJ/mol
# GULP energy per Si atom -5590.102175 kJ/mol
# Density = 2.766798 g / cm^3
# Si number density = 27.731093 Si / 1000 Ang^3
#
#
#
# Elastic Constant Matrix: (Units=GPa)
#
#
# Indices 1 2 3 4 5 6 
#
# 1 176.6473 61.0762 60.5142 0.0000 12.4662 0.0000
# 2 61.0762 147.9206 41.3607 0.0000 12.4492 0.0000
# 3 60.5142 41.3607 91.7193 0.0000 49.2416 0.0000
# 4 0.0000 0.0000 0.0000 58.8624 0.0000 18.9264
# 5 12.4662 12.4492 49.2416 0.0000 52.8143 0.0000
# 6 0.0000 0.0000 0.0000 18.9264 0.0000 72.2030
#
#
#
# Elastic Compliance Matrix: (Units=1/GPa)
#
#
# Indices 1 2 3 4 5 6 
#
# 1 0.008622 -0.001810 -0.008026 0.000000 0.005875 0.000000
# 2 -0.001810 0.008338 -0.003484 0.000000 0.001710 0.000000
# 3 -0.008026 -0.003484 0.032659 0.000000 -0.027734 0.000000
# 4 0.000000 0.000000 0.000000 0.018552 0.000000 -0.004863
# 5 0.005875 0.001710 -0.027734 0.000000 0.043003 0.000000
# 6 0.000000 0.000000 0.000000 -0.004863 0.000000 0.015125
#
#
# Mechanical properties :
#
#
# Convention : Reuss Voigt Hill
#
# Bulk Modulus (GPa) = 43.51881 82.46546 62.99213
# Shear Modulus (GPa) = 31.13357 53.66501 42.39929
#
# Velocity S-wave (km/s) = 3.35430 4.40385 3.91441
# Velocity P-wave (km/s) = 5.54337 7.46061 6.57228
#
# Compressibility (1/GPa) = 0.02297857
#
# Stress axis : x y z
#
# Youngs Moduli (GPa) = 115.98479 119.93332 30.61933
#
# Poissons Ratio (x) = 0.21709 0.24576
# Poissons Ratio (y) = 0.20995 0.10667
# Poissons Ratio (z) = 0.93093 0.41782
#
# Static dielectric constant tensor:
#      x y z
#    x 2.194840 0.000000 -0.070910 
#    y 0.000000 2.287160 0.000000 
#    z -0.070910 0.000000 2.200930 
# 
# From -- ./inp_files/5068.got.cif
#   From: 2010.05.17/outbox.cif.g08.bks.cpg/sg14_3_cif.got.tgz:5068.got - 2010.06.03 17:49:19.
