data_PCOD9249416
_publ_section_title
;
Structure prediction by ZEFSAII (Michael W. Deem and Ramdas Pophale) SiO2 
 PCOD9249416
Probable space group: P 21/C
;
_chemical_formula_sum "Si O2"
_cell_formula_units_Z 32
_cell_length_a 13.923871
_cell_length_b 15.112948
_cell_length_c 13.030390
_cell_angle_alpha 90.000000
_cell_angle_beta 30.558478
_cell_angle_gamma 90.000000
_cell_volume 1394.078051
_symmetry_space_group_name_H-M "P 21/C"
_symmetry_group_IT_number 14
_symmetry_cell_setting 'monoclinic'
loop_
_space_group_symop_operation_xyz
x,y,z
-x,1/2+y,1/2-z
-x,-y,-z
x,1/2-y,1/2+z
loop_
_atom_site_type_symbol
_atom_site_label
_atom_site_fract_x
_atom_site_fract_y
_atom_site_fract_z
Si Si1 0.007390 0.683592 0.924297
Si Si2 0.478580 0.446606 0.413341
Si Si3 0.275454 0.009936 0.723961
Si Si4 0.317349 0.176715 0.571821
Si Si5 0.911413 0.641764 0.240183
Si Si6 0.975586 0.882950 0.910027
Si Si7 0.568431 0.293360 0.458325
Si Si8 0.657471 0.605570 0.159356
O O1 0.002981 0.641385 0.042751
O O2 0.880935 0.621422 0.968196
O O3 0.926719 0.784044 0.995356
O O4 0.221889 0.699287 0.693265
O O5 0.500000 0.500000 0.500000
O O6 0.258306 0.429455 0.600091
O O7 0.564237 0.350741 0.357145
O O8 0.588508 0.505237 0.230551
O O9 0.212109 0.088573 0.704493
O O10 0.500000 0.000000 0.500000
O O11 0.198410 0.050649 0.902285
O O12 0.155481 0.923958 0.803357
O O13 0.184908 0.260521 0.670971
O O14 0.472113 0.202622 0.514469
O O15 0.415300 0.150298 0.376120
O O16 0.016376 0.627056 0.251003
O O17 0.429699 0.340773 0.665239
#
# Coordination Sequence:
#
# PCOD9249416 Si02
#       8
#     4   4   4   4   4   4   4   4
#     4  12  22  42  68  93 135 175 217 275 335 401
#     4   9  19  41  60  90 133 168 211 276 330 383
#     4  11  25  47  70  97 136 177 226 279 345 399
#     4  11  22  44  68  92 134 181 221 281 334 402
#     4  11  22  42  67  95 137 177 224 278 340 402
#     4  11  25  44  67 100 136 175 223 283 329 408
#     4  10  23  41  65  95 127 177 221 270 337 401
#     4  11  22  42  65  94 134 171 221 278 332 399
#
# _framework density 22.954239999999999
#
# number of rings (size 3 to 8) (size 9 to 14) (size 15 to 20)
#    0.000    1.250    6.250    0.750    1.750    2.500 
#    6.750    0.000    0.000    0.000    0.000    0.000 
#    0.000    0.000    0.000    0.000    0.000    0.000 
#
# Total GULP energy -178598.527223 kJ/mol
# GULP energy per Si atom -5581.203976 kJ/mol
# Density = 2.290199 g / cm^3
# Si number density = 22.954240 Si / 1000 Ang^3
#
#
#
# Elastic Constant Matrix: (Units=GPa)
#
#
# Indices 1 2 3 4 5 6 
#
# 1 53.4328 -0.2685 9.8389 0.0000 10.2718 0.0000
# 2 -0.2685 56.3479 -0.1968 0.0000 2.0278 0.0000
# 3 9.8389 -0.1968 57.9785 0.0000 -22.1147 0.0000
# 4 0.0000 0.0000 0.0000 30.8859 0.0000 1.5223
# 5 10.2718 2.0278 -22.1147 0.0000 28.4328 0.0000
# 6 0.0000 0.0000 0.0000 1.5223 0.0000 23.9082
#
#
#
# Elastic Compliance Matrix: (Units=1/GPa)
#
#
# Indices 1 2 3 4 5 6 
#
# 1 0.023877 0.000682 -0.010462 0.000000 -0.016812 0.000000
# 2 0.000682 0.017827 -0.000902 0.000000 -0.002219 0.000000
# 3 -0.010462 -0.000902 0.029128 0.000000 0.026499 0.000000
# 4 0.000000 0.000000 0.000000 0.032479 0.000000 -0.002068
# 5 -0.016812 -0.002219 0.026499 0.000000 0.062013 0.000000
# 6 0.000000 0.000000 0.000000 -0.002068 0.000000 0.041958
#
#
# Mechanical properties :
#
#
# Convention : Reuss Voigt Hill
#
# Bulk Modulus (GPa) = 20.21499 20.72290 20.46894
# Shear Modulus (GPa) = 20.39699 27.20444 23.80072
#
# Velocity S-wave (km/s) = 2.98416 3.44635 3.22355
# Velocity P-wave (km/s) = 4.54966 4.98838 4.77406
#
# Compressibility (1/GPa) = 0.04946825
#
# Stress axis : x y z
#
# Youngs Moduli (GPa) = 41.88162 56.09512 34.33166
#
# Poissons Ratio (x) = -0.03827 0.35918
# Poissons Ratio (y) = -0.02857 0.03096
# Poissons Ratio (z) = 0.43817 0.05058
#
# Static dielectric constant tensor:
#      x y z
#    x 1.890560 0.000000 0.020860 
#    y 0.000000 1.906150 0.000000 
#    z 0.020860 0.000000 1.936450 
# 
# From -- ./inp_files/47381.got.cif
#   From: 2010.05.17/outbox.cif.g08.bks.cpg/sg14_24_cif.got.tgz:47381.got - 2010.06.03 17:49:19.
