data_PCOD9249128
_publ_section_title
;
Structure prediction by ZEFSAII (Michael W. Deem and Ramdas Pophale) SiO2 
 PCOD9249128
Probable space group: P 21/C
;
_chemical_formula_sum "Si O2"
_cell_formula_units_Z 20
_cell_length_a 5.086576
_cell_length_b 10.267001
_cell_length_c 15.807048
_cell_angle_alpha 90.000000
_cell_angle_beta 74.660167
_cell_angle_gamma 90.000000
_cell_volume 796.095719
_symmetry_space_group_name_H-M "P 21/C"
_symmetry_group_IT_number 14
_symmetry_cell_setting 'monoclinic'
loop_
_space_group_symop_operation_xyz
x,y,z
-x,1/2+y,1/2-z
-x,-y,-z
x,1/2-y,1/2+z
loop_
_atom_site_type_symbol
_atom_site_label
_atom_site_fract_x
_atom_site_fract_y
_atom_site_fract_z
Si Si1 0.376677 0.872267 0.966586
Si Si2 0.869800 0.563416 0.144654
Si Si3 0.613068 0.974216 0.199366
Si Si4 0.285214 0.118183 0.528072
Si Si5 0.867603 0.184538 0.841842
O O1 0.306978 0.918594 0.878337
O O2 0.577674 0.748457 0.948623
O O3 0.150843 0.836376 0.054953
O O4 0.500000 0.000000 0.000000
O O5 0.589045 0.533785 0.214720
O O6 0.808074 0.631121 0.060322
O O7 0.053487 0.666255 0.180406
O O8 0.036064 0.434105 0.105269
O O9 0.885086 0.906375 0.209221
O O10 0.416835 0.864204 0.172641
O O11 0.500000 0.000000 0.500000
#
# Coordination Sequence:
#
# PCOD9249128 Si02
#       5
#     4   4   4   4   4
#     4  10  22  46  73 102 141 193 236 289 361 432
#     4  11  26  44  71 106 144 191 240 307 358 434
#     4  11  27  42  75 106 143 189 246 301 362 428
#     4  11  24  46  73 101 146 192 238 291 369 429
#     4  11  24  47  70 104 148 185 242 302 361 432
#
# _framework density 25.122606000000001
#
# number of rings (size 3 to 8) (size 9 to 14) (size 15 to 20)
#    0.000    1.200    2.000    3.000    5.600    1.600 
#    3.600    0.000    0.000    0.000    0.000    0.000 
#    0.000    0.000    0.000    0.000    0.000    0.000 
#
# Total GULP energy -112060.378174 kJ/mol
# GULP energy per Si atom -5603.018909 kJ/mol
# Density = 2.506543 g / cm^3
# Si number density = 25.122606 Si / 1000 Ang^3
#
#
#
# Elastic Constant Matrix: (Units=GPa)
#
#
# Indices 1 2 3 4 5 6 
#
# 1 71.5262 27.0284 6.6405 0.0000 -11.2614 0.0000
# 2 27.0284 129.3995 6.7876 0.0000 -6.5030 0.0000
# 3 6.6405 6.7876 113.3697 0.0000 -21.3927 0.0000
# 4 0.0000 0.0000 0.0000 7.1103 0.0000 -16.5212
# 5 -11.2614 -6.5030 -21.3927 0.0000 41.3396 0.0000
# 6 0.0000 0.0000 0.0000 -16.5212 0.0000 59.3636
#
#
#
# Elastic Compliance Matrix: (Units=1/GPa)
#
#
# Indices 1 2 3 4 5 6 
#
# 1 0.015751 -0.003098 -0.000022 0.000000 0.003792 0.000000
# 2 -0.003098 0.008406 -0.000257 0.000000 0.000346 0.000000
# 3 -0.000022 -0.000257 0.009784 0.000000 0.005017 0.000000
# 4 0.000000 0.000000 0.000000 0.398030 0.000000 0.110774
# 5 0.003792 0.000346 0.005017 0.000000 0.027873 0.000000
# 6 0.000000 0.000000 0.000000 0.110774 0.000000 0.047674
#
#
# Mechanical properties :
#
#
# Convention : Reuss Voigt Hill
#
# Bulk Modulus (GPa) = 36.78094 43.91204 40.34649
# Shear Modulus (GPa) = 9.55413 39.81862 24.68638
#
# Velocity S-wave (km/s) = 1.95224 3.98549 3.13810
# Velocity P-wave (km/s) = 4.44455 6.22060 5.40601
#
# Compressibility (1/GPa) = 0.02718800
#
# Stress axis : x y z
#
# Youngs Moduli (GPa) = 63.48919 118.96303 102.20769
#
# Poissons Ratio (x) = 0.36857 0.00220
# Poissons Ratio (y) = 0.19670 0.02623
# Poissons Ratio (z) = 0.00137 0.03053
#
# Static dielectric constant tensor:
#      x y z
#    x 1.891300 0.000000 0.009430 
#    y 0.000000 1.855690 0.000000 
#    z 0.009430 0.000000 1.975780 
# 
# From -- ./inp_files/52854.got.cif
#   From: 2010.05.17/outbox.cif.g08.bks.cpg/sg14_27_cif.got.tgz:52854.got - 2010.06.03 17:49:19.
