data_PCOD9249404
_publ_section_title
;
Structure prediction by ZEFSAII (Michael W. Deem and Ramdas Pophale) SiO2 
 PCOD9249404
Probable space group: P 21/C
;
_chemical_formula_sum "Si O2"
_cell_formula_units_Z 26
_cell_length_a 12.176083
_cell_length_b 17.978333
_cell_length_c 9.222068
_cell_angle_alpha 90.000000
_cell_angle_beta 143.048073
_cell_angle_gamma 90.000000
_cell_volume 1213.568751
_symmetry_space_group_name_H-M "P 21/C"
_symmetry_group_IT_number 14
_symmetry_cell_setting 'monoclinic'
loop_
_space_group_symop_operation_xyz
x,y,z
-x,1/2+y,1/2-z
-x,-y,-z
x,1/2-y,1/2+z
loop_
_atom_site_type_symbol
_atom_site_label
_atom_site_fract_x
_atom_site_fract_y
_atom_site_fract_z
Si Si1 0.754770 0.930720 0.277481
Si Si2 0.523216 0.165885 0.168919
Si Si3 0.738920 0.090605 0.913697
Si Si4 0.657021 0.558065 0.001053
Si Si5 0.843307 0.394663 0.843947
Si Si6 0.000000 0.000000 0.000000
Si Si7 0.482088 0.184936 0.464472
O O1 0.589732 0.905787 0.002051
O O2 0.704878 0.914540 0.391270
O O3 0.938956 0.889138 0.422642
O O4 0.794275 0.018285 0.310026
O O5 0.450719 0.233993 0.995541
O O6 0.732766 0.150901 0.346657
O O7 0.492453 0.182302 0.303903
O O8 0.558004 0.037914 0.728447
O O9 0.671925 0.154884 0.734416
O O10 0.772219 0.124455 0.107730
O O11 0.916109 0.047091 0.048605
O O12 0.796366 0.496989 0.205394
O O13 0.664271 0.626217 0.124160
#
# Coordination Sequence:
#
# PCOD9249404 Si02
#       7
#     4   4   4   4   4   2   4
#     4  11  24  40  67  99 132 170 215 267 328 383
#     4  12  23  47  66  89 132 171 213 271 320 393
#     4  10  23  41  63  96 134 169 214 267 320 381
#     4  10  23  41  63  96 134 169 214 267 320 381
#     4  11  24  40  67  99 132 170 215 267 328 383
#     4  12  22  36  70  94 144 164 218 272 320 382
#     4  10  26  44  68  93 127 174 219 261 332 386
#
# _framework density 21.424415
#
# number of rings (size 3 to 8) (size 9 to 14) (size 15 to 20)
#    0.923    0.308    3.077    2.769    4.308    0.000 
#    2.769    0.000    0.000    0.000    0.000    0.000 
#    0.000    0.000    0.000    0.000    0.000    0.000 
#
# Total GULP energy -144752.040474 kJ/mol
# GULP energy per Si atom -5567.386172 kJ/mol
# Density = 2.137565 g / cm^3
# Si number density = 21.424415 Si / 1000 Ang^3
#
#
#
# Elastic Constant Matrix: (Units=GPa)
#
#
# Indices 1 2 3 4 5 6 
#
# 1 129.4588 20.5622 24.6001 0.0000 -28.7092 0.0000
# 2 20.5622 33.2561 -8.7502 0.0000 -12.7469 0.0000
# 3 24.6001 -8.7502 45.8252 0.0000 -5.6858 0.0000
# 4 0.0000 0.0000 0.0000 15.0629 0.0000 -10.2939
# 5 -28.7092 -12.7469 -5.6858 0.0000 48.1033 0.0000
# 6 0.0000 0.0000 0.0000 -10.2939 0.0000 26.4905
#
#
#
# Elastic Compliance Matrix: (Units=1/GPa)
#
#
# Indices 1 2 3 4 5 6 
#
# 1 0.011001 -0.007097 -0.006779 0.000000 0.003884 0.000000
# 2 -0.007097 0.040878 0.012619 0.000000 0.008088 0.000000
# 3 -0.006779 0.012619 0.028197 0.000000 0.002631 0.000000
# 4 0.000000 0.000000 0.000000 0.090393 0.000000 0.035126
# 5 0.003884 0.008088 0.002631 0.000000 0.025561 0.000000
# 6 0.000000 0.000000 0.000000 0.035126 0.000000 0.051399
#
#
# Mechanical properties :
#
#
# Convention : Reuss Voigt Hill
#
# Bulk Modulus (GPa) = 12.89284 31.26271 22.07777
# Shear Modulus (GPa) = 18.12926 29.40654 23.76790
#
# Velocity S-wave (km/s) = 2.91210 3.70884 3.33435
# Velocity P-wave (km/s) = 4.16389 5.74147 5.01510
#
# Compressibility (1/GPa) = 0.07756244
#
# Stress axis : x y z
#
# Youngs Moduli (GPa) = 90.89971 24.46294 35.46464
#
# Poissons Ratio (x) = 0.17361 0.24041
# Poissons Ratio (y) = 0.64511 -0.44753
# Poissons Ratio (z) = 0.61620 -0.30870
#
# Static dielectric constant tensor:
#      x y z
#    x 1.783570 0.000000 0.006920 
#    y 0.000000 1.815760 0.000000 
#    z 0.006920 0.000000 1.778970 
# 
# From -- ./inp_files/14240.got.cif
#   From: 2010.05.17/outbox.cif.g08.bks.cpg/sg14_8_cif.got.tgz:14240.got - 2010.06.03 17:49:19.
