data_PCOD9249475
_publ_section_title
;
Structure prediction by ZEFSAII (Michael W. Deem and Ramdas Pophale) SiO2 
 PCOD9249475
Probable space group: P 21/C
;
_chemical_formula_sum "Si O2"
_cell_formula_units_Z 28
_cell_length_a 4.915896
_cell_length_b 8.760770
_cell_length_c 28.535624
_cell_angle_alpha 90.000000
_cell_angle_beta 118.492509
_cell_angle_gamma 90.000000
_cell_volume 1080.094287
_symmetry_space_group_name_H-M "P 21/C"
_symmetry_group_IT_number 14
_symmetry_cell_setting 'monoclinic'
loop_
_space_group_symop_operation_xyz
x,y,z
-x,1/2+y,1/2-z
-x,-y,-z
x,1/2-y,1/2+z
loop_
_atom_site_type_symbol
_atom_site_label
_atom_site_fract_x
_atom_site_fract_y
_atom_site_fract_z
Si Si1 0.918399 0.393782 0.401298
Si Si2 0.406922 0.523142 0.756297
Si Si3 0.474266 0.255187 0.502695
Si Si4 0.100831 0.552154 0.126639
Si Si5 0.621650 0.470878 0.944485
Si Si6 0.799737 0.163920 0.222842
Si Si7 0.351765 0.906121 0.887964
O O1 0.805448 0.228364 0.375219
O O2 0.663053 0.499335 0.404152
O O3 0.205854 0.360825 0.460065
O O4 0.069949 0.476082 0.368970
O O5 0.696980 0.516959 0.815824
O O6 0.258224 0.690309 0.749260
O O7 0.566896 0.468666 0.721411
O O8 0.145903 0.401910 0.750916
O O9 0.669195 0.192102 0.474457
O O10 0.641256 0.326050 0.561067
O O11 0.334196 0.100845 0.513181
O O12 0.183158 0.478047 0.083828
O O13 0.733766 0.540812 0.102455
O O14 0.711630 0.200129 0.161786
#
# Coordination Sequence:
#
# PCOD9249475 Si02
#       7
#     4   4   4   4   4   4   4
#     4  11  25  41  70 105 140 195 230 294 351 439
#     4  12  28  51  79 107 148 187 254 309 383 440
#     4  10  23  43  67 103 145 187 236 290 357 431
#     4  11  24  45  71 101 141 184 246 294 366 417
#     4  10  23  41  70 102 138 186 240 293 353 437
#     4  12  29  49  78 110 141 197 244 315 376 439
#     4  12  26  44  69  98 150 181 245 286 374 422
#
# _framework density 25.923663000000001
#
# number of rings (size 3 to 8) (size 9 to 14) (size 15 to 20)
#    0.000    0.857    0.000    6.000    6.000   12.000 
#    0.000    0.000    0.000    0.000    0.000    0.000 
#    0.000    0.000    0.000    0.000    0.000    0.000 
#
# Total GULP energy -157000.586731 kJ/mol
# GULP energy per Si atom -5607.163812 kJ/mol
# Density = 2.586466 g / cm^3
# Si number density = 25.923663 Si / 1000 Ang^3
#
#
#
# Elastic Constant Matrix: (Units=GPa)
#
#
# Indices 1 2 3 4 5 6 
#
# 1 109.4928 12.7767 17.8662 0.0000 15.3411 0.0000
# 2 12.7767 56.5024 17.9504 0.0000 -0.9179 0.0000
# 3 17.8662 17.9504 106.2337 0.0000 5.2110 0.0000
# 4 0.0000 0.0000 0.0000 37.9350 0.0000 -3.2543
# 5 15.3411 -0.9179 5.2110 0.0000 39.5451 0.0000
# 6 0.0000 0.0000 0.0000 -3.2543 0.0000 31.7783
#
#
#
# Elastic Compliance Matrix: (Units=1/GPa)
#
#
# Indices 1 2 3 4 5 6 
#
# 1 0.010088 -0.001969 -0.001177 0.000000 -0.003804 0.000000
# 2 -0.001969 0.019115 -0.002977 0.000000 0.001600 0.000000
# 3 -0.001177 -0.002977 0.010161 0.000000 -0.000951 0.000000
# 4 0.000000 0.000000 0.000000 0.026595 0.000000 0.002723
# 5 -0.003804 0.001600 -0.000951 0.000000 0.026926 0.000000
# 6 0.000000 0.000000 0.000000 0.002723 0.000000 0.031747
#
#
# Mechanical properties :
#
#
# Convention : Reuss Voigt Hill
#
# Bulk Modulus (GPa) = 36.87689 41.04617 38.96153
# Shear Modulus (GPa) = 34.26593 36.76072 35.51332
#
# Velocity S-wave (km/s) = 3.63960 3.76977 3.70526
# Velocity P-wave (km/s) = 5.64963 5.90051 5.77643
#
# Compressibility (1/GPa) = 0.02711725
#
# Stress axis : x y z
#
# Youngs Moduli (GPa) = 99.12908 52.31372 98.41607
#
# Poissons Ratio (x) = 0.10300 0.11586
# Poissons Ratio (y) = 0.19518 0.29301
# Poissons Ratio (z) = 0.11670 0.15575
#
# Static dielectric constant tensor:
#      x y z
#    x 2.028540 0.000000 0.000260 
#    y 0.000000 2.072640 0.000000 
#    z 0.000260 0.000000 2.040080 
# 
# From -- ./inp_files/78741.got.cif
#   From: 2010.05.17/outbox.cif.g08.bks.cpg/sg14_40_cif.got.tgz:78741.got - 2010.06.03 17:49:19.
