data_PCOD9249302
_publ_section_title
;
Structure prediction by ZEFSAII (Michael W. Deem and Ramdas Pophale) SiO2 
 PCOD9249302
Probable space group: P 21/C
;
_chemical_formula_sum "Si O2"
_cell_formula_units_Z 24
_cell_length_a 12.156047
_cell_length_b 10.124343
_cell_length_c 8.663926
_cell_angle_alpha 90.000000
_cell_angle_beta 71.520838
_cell_angle_gamma 90.000000
_cell_volume 1011.307798
_symmetry_space_group_name_H-M "P 21/C"
_symmetry_group_IT_number 14
_symmetry_cell_setting 'monoclinic'
loop_
_space_group_symop_operation_xyz
x,y,z
-x,1/2+y,1/2-z
-x,-y,-z
x,1/2-y,1/2+z
loop_
_atom_site_type_symbol
_atom_site_label
_atom_site_fract_x
_atom_site_fract_y
_atom_site_fract_z
Si Si1 0.348053 0.353222 0.844621
Si Si2 0.997059 0.280173 0.969413
Si Si3 0.502938 0.219829 0.530586
Si Si4 0.151944 0.353220 0.155380
Si Si5 0.157180 0.860805 0.742182
Si Si6 0.342821 0.639197 0.757820
O O1 0.399190 0.260256 0.690557
O O2 0.302984 0.488666 0.789511
O O3 0.456457 0.374704 0.915162
O O4 0.249998 0.295968 1.000000
O O5 0.100807 0.239748 0.809441
O O6 0.896094 0.329040 0.901707
O O7 0.043540 0.374706 0.084839
O O8 0.945171 0.155669 0.086547
O O9 0.603902 0.170960 0.598293
O O10 0.554828 0.344332 0.413452
O O11 0.197014 0.488663 0.210493
O O12 0.250002 0.750002 0.750001
#
# Coordination Sequence:
#
# PCOD9249302 Si02
#       6
#     4   4   4   4   4   4
#     4  11  22  40  63  91 126 166 209 259 310 374
#     4  10  23  40  61  93 127 165 209 258 316 368
#     4  10  23  40  61  93 127 165 209 258 316 368
#     4  11  22  40  63  91 126 166 209 259 310 374
#     4  11  22  40  64  94 126 165 210 259 313 372
#     4  11  22  40  64  94 126 165 210 259 313 372
#
# _framework density 23.731648
#
# number of rings (size 3 to 8) (size 9 to 14) (size 15 to 20)
#    0.000    1.333    0.000    6.000    0.000    2.667 
#    0.000   10.000    0.000    0.000    0.000    0.000 
#    0.000    0.000    0.000    0.000    0.000    0.000 
#
# Total GULP energy -134057.163210 kJ/mol
# GULP energy per Si atom -5585.715134 kJ/mol
# Density = 2.367763 g / cm^3
# Si number density = 23.731648 Si / 1000 Ang^3
#
#
#
# Elastic Constant Matrix: (Units=GPa)
#
#
# Indices 1 2 3 4 5 6 
#
# 1 83.7959 26.2040 6.7970 0.0000 24.4362 0.0000
# 2 26.2040 77.9562 21.8201 0.0000 10.5014 0.0000
# 3 6.7970 21.8201 124.5094 0.0000 -17.2531 0.0000
# 4 0.0000 0.0000 0.0000 19.9277 0.0000 0.6332
# 5 24.4362 10.5014 -17.2531 0.0000 57.5070 0.0000
# 6 0.0000 0.0000 0.0000 0.6332 0.0000 31.8100
#
#
#
# Elastic Compliance Matrix: (Units=1/GPa)
#
#
# Indices 1 2 3 4 5 6 
#
# 1 0.014980 -0.003974 -0.000942 0.000000 -0.005922 0.000000
# 2 -0.003974 0.015176 -0.002705 0.000000 -0.001894 0.000000
# 3 -0.000942 -0.002705 0.009057 0.000000 0.003612 0.000000
# 4 0.000000 0.000000 0.000000 0.050213 0.000000 -0.000999
# 5 -0.005922 -0.001894 0.003612 0.000000 0.021335 0.000000
# 6 0.000000 0.000000 0.000000 -0.000999 0.000000 0.031457
#
#
# Mechanical properties :
#
#
# Convention : Reuss Voigt Hill
#
# Bulk Modulus (GPa) = 41.71657 43.98932 42.85294
# Shear Modulus (GPa) = 30.22055 37.27831 33.74943
#
# Velocity S-wave (km/s) = 3.57238 3.96767 3.77520
# Velocity P-wave (km/s) = 5.88494 6.29017 6.09092
#
# Compressibility (1/GPa) = 0.02397129
#
# Stress axis : x y z
#
# Youngs Moduli (GPa) = 66.75628 65.89432 110.40617
#
# Poissons Ratio (x) = 0.26185 0.10400
# Poissons Ratio (y) = 0.26528 0.29866
# Poissons Ratio (z) = 0.06288 0.17825
#
# Static dielectric constant tensor:
#      x y z
#    x 2.030870 0.000000 -0.037320 
#    y 0.000000 1.904860 0.000000 
#    z -0.037320 0.000000 1.879860 
# 
# From -- ./inp_files/12377.got.cif
#   From: 2010.05.17/outbox.cif.g08.bks.cpg/sg14_7_cif.got.tgz:12377.got - 2010.06.03 17:49:19.
