data_PCOD9249457
_publ_section_title
;
Structure prediction by ZEFSAII (Michael W. Deem and Ramdas Pophale) SiO2 
 PCOD9249457
Probable space group: P 21/C
;
_chemical_formula_sum "Si O2"
_cell_formula_units_Z 32
_cell_length_a 11.619550
_cell_length_b 8.606135
_cell_length_c 28.394439
_cell_angle_alpha 90.000000
_cell_angle_beta 151.892077
_cell_angle_gamma 90.000000
_cell_volume 1337.750350
_symmetry_space_group_name_H-M "P 21/C"
_symmetry_group_IT_number 14
_symmetry_cell_setting 'monoclinic'
loop_
_space_group_symop_operation_xyz
x,y,z
-x,1/2+y,1/2-z
-x,-y,-z
x,1/2-y,1/2+z
loop_
_atom_site_type_symbol
_atom_site_label
_atom_site_fract_x
_atom_site_fract_y
_atom_site_fract_z
Si Si1 0.660535 0.463275 0.314966
Si Si2 0.423999 0.360545 0.011755
Si Si3 0.809311 0.818609 0.387869
Si Si4 0.681825 0.669305 0.616835
Si Si5 0.857542 0.780274 0.007043
Si Si6 0.876111 0.320422 0.677186
Si Si7 0.472529 0.452590 0.347707
Si Si8 0.948407 0.111103 0.621668
O O1 0.714780 0.645007 0.340598
O O2 0.429891 0.427873 0.199100
O O3 0.583565 0.395511 0.338592
O O4 0.909597 0.377905 0.392229
O O5 0.396320 0.228310 0.961992
O O6 0.309685 0.529115 0.958176
O O7 0.228527 0.326856 0.982332
O O8 0.688731 0.314561 0.127213
O O9 0.913193 0.805340 0.477929
O O10 0.987305 0.868484 0.409778
O O11 0.777153 0.493015 0.646642
O O12 0.503663 0.656244 0.597823
O O13 0.884043 0.791899 0.706028
O O14 0.628408 0.894536 0.914752
O O15 0.939492 0.275276 0.646150
O O16 0.183600 0.473215 0.231314
#
# Coordination Sequence:
#
# PCOD9249457 Si02
#       8
#     4   4   4   4   4   4   4   4
#     4  10  23  41  68  96 127 179 217 272 340 392
#     4  12  26  40  68  98 133 176 221 272 333 401
#     4  10  23  45  66  94 137 171 224 277 325 400
#     4  11  23  43  69  93 138 170 222 277 329 398
#     4  11  24  39  68  97 129 175 219 264 337 395
#     4  11  24  44  66 101 128 177 221 274 339 386
#     4   9  19  41  62  92 127 169 214 268 320 386
#     4  10  24  43  65  94 135 174 220 279 327 390
#
# _framework density 23.920759
#
# number of rings (size 3 to 8) (size 9 to 14) (size 15 to 20)
#    0.000    1.500    1.250    3.750    7.000    1.500 
#    0.000    2.500    0.000    0.000    0.000    0.000 
#    0.000    0.000    0.000    0.000    0.000    0.000 
#
# Total GULP energy -178829.946292 kJ/mol
# GULP energy per Si atom -5588.435822 kJ/mol
# Density = 2.386631 g / cm^3
# Si number density = 23.920759 Si / 1000 Ang^3
#
#
#
# Elastic Constant Matrix: (Units=GPa)
#
#
# Indices 1 2 3 4 5 6 
#
# 1 56.0118 1.7878 11.7056 0.0000 -0.9153 0.0000
# 2 1.7878 60.6951 6.9719 0.0000 4.2283 0.0000
# 3 11.7056 6.9719 43.3076 0.0000 2.3817 0.0000
# 4 0.0000 0.0000 0.0000 21.7262 0.0000 5.9036
# 5 -0.9153 4.2283 2.3817 0.0000 26.2578 0.0000
# 6 0.0000 0.0000 0.0000 5.9036 0.0000 37.6919
#
#
#
# Elastic Compliance Matrix: (Units=1/GPa)
#
#
# Indices 1 2 3 4 5 6 
#
# 1 0.018956 -0.000043 -0.005179 0.000000 0.001137 0.000000
# 2 -0.000043 0.016947 -0.002579 0.000000 -0.002497 0.000000
# 3 -0.005179 -0.002579 0.025018 0.000000 -0.002034 0.000000
# 4 0.000000 0.000000 0.000000 0.048073 0.000000 -0.007530
# 5 0.001137 -0.002497 -0.002034 0.000000 0.038710 0.000000
# 6 0.000000 0.000000 0.000000 -0.007530 0.000000 0.027710
#
#
# Mechanical properties :
#
#
# Convention : Reuss Voigt Hill
#
# Bulk Modulus (GPa) = 22.06632 22.32726 22.19679
# Shear Modulus (GPa) = 24.25736 26.43846 25.34791
#
# Velocity S-wave (km/s) = 3.18790 3.32814 3.25878
# Velocity P-wave (km/s) = 4.77442 4.91150 4.84344
#
# Compressibility (1/GPa) = 0.04531793
#
# Stress axis : x y z
#
# Youngs Moduli (GPa) = 52.75459 59.00657 39.97177
#
# Poissons Ratio (x) = 0.00252 0.20702
# Poissons Ratio (y) = 0.00225 0.10311
# Poissons Ratio (z) = 0.27323 0.15220
#
# Static dielectric constant tensor:
#      x y z
#    x 1.951030 0.000000 -0.019560 
#    y 0.000000 1.902170 0.000000 
#    z -0.019560 0.000000 1.949250 
# 
# From -- ./inp_files/80039.got.cif
#   From: 2010.05.17/outbox.cif.g08.bks.cpg/sg14_41_cif.got.tgz:80039.got - 2010.06.03 17:49:19.
