data_PCOD9249534
_publ_section_title
;
Structure prediction by ZEFSAII (Michael W. Deem and Ramdas Pophale) SiO2 
 PCOD9249534
Probable space group: P 21/C
;
_chemical_formula_sum "Si O2"
_cell_formula_units_Z 28
_cell_length_a 5.008440
_cell_length_b 10.169661
_cell_length_c 20.879942
_cell_angle_alpha 90.000000
_cell_angle_beta 106.184524
_cell_angle_gamma 90.000000
_cell_volume 1021.354193
_symmetry_space_group_name_H-M "P 21/C"
_symmetry_group_IT_number 14
_symmetry_cell_setting 'monoclinic'
loop_
_space_group_symop_operation_xyz
x,y,z
-x,1/2+y,1/2-z
-x,-y,-z
x,1/2-y,1/2+z
loop_
_atom_site_type_symbol
_atom_site_label
_atom_site_fract_x
_atom_site_fract_y
_atom_site_fract_z
Si Si1 0.615303 0.218415 0.879444
Si Si2 0.906101 0.437417 0.225868
Si Si3 0.199649 0.965673 0.414635
Si Si4 0.410753 0.260575 0.229239
Si Si5 0.109021 0.463650 0.374158
Si Si6 0.497934 0.809245 0.906057
Si Si7 0.094549 0.321632 0.995835
O O1 0.540853 0.285665 0.805807
O O2 0.330776 0.156009 0.886268
O O3 0.824172 0.094677 0.881663
O O4 0.804177 0.303152 0.939599
O O5 0.100249 0.311547 0.221873
O O6 0.044887 0.502686 0.296094
O O7 0.895722 0.518929 0.160447
O O8 0.604044 0.387250 0.226577
O O9 0.382917 0.838978 0.409150
O O10 0.962344 0.902181 0.442997
O O11 0.285193 0.090327 0.462080
O O12 0.426794 0.178658 0.164359
O O13 0.267680 0.587909 0.412796
O O14 0.761699 0.811269 0.970681
#
# Coordination Sequence:
#
# PCOD9249534 Si02
#       7
#     4   4   4   4   4   4   4
#     4  10  24  44  62 100 130 175 217 270 330 396
#     4   9  18  40  62  91 124 163 215 268 315 381
#     4  10  23  42  64  97 129 174 221 271 329 391
#     4   9  19  38  63  88 127 162 216 263 315 383
#     4  10  24  41  69  95 133 171 222 270 334 384
#     4  11  23  40  68  94 132 172 222 270 330 393
#     4  11  24  41  67  91 137 174 219 269 329 389
#
# _framework density 27.414583
#
# number of rings (size 3 to 8) (size 9 to 14) (size 15 to 20)
#    0.000    2.000    1.429    0.429    6.000    1.143 
#    0.000    0.000    0.000    0.000    0.000    0.000 
#    0.000    0.000    0.000    0.000    0.000    0.000 
#
# Total GULP energy -156818.008265 kJ/mol
# GULP energy per Si atom -5600.643152 kJ/mol
# Density = 2.735219 g / cm^3
# Si number density = 27.414583 Si / 1000 Ang^3
#
#
#
# Elastic Constant Matrix: (Units=GPa)
#
#
# Indices 1 2 3 4 5 6 
#
# 1 84.8688 37.2630 23.0447 0.0000 -6.3690 0.0000
# 2 37.2630 84.9165 34.4264 0.0000 -6.9195 0.0000
# 3 23.0447 34.4264 123.9312 0.0000 11.8138 0.0000
# 4 0.0000 0.0000 0.0000 26.8101 0.0000 3.2619
# 5 -6.3690 -6.9195 11.8138 0.0000 20.1694 0.0000
# 6 0.0000 0.0000 0.0000 3.2619 0.0000 45.2896
#
#
#
# Elastic Compliance Matrix: (Units=1/GPa)
#
#
# Indices 1 2 3 4 5 6 
#
# 1 0.014958 -0.005623 -0.001574 0.000000 0.003716 0.000000
# 2 -0.005623 0.016422 -0.004114 0.000000 0.006268 0.000000
# 3 -0.001574 -0.004114 0.010259 0.000000 -0.007917 0.000000
# 4 0.000000 0.000000 0.000000 0.037629 0.000000 -0.002710
# 5 0.003716 0.006268 -0.007917 0.000000 0.057541 0.000000
# 6 0.000000 0.000000 0.000000 -0.002710 0.000000 0.022275
#
#
# Mechanical properties :
#
#
# Convention : Reuss Voigt Hill
#
# Bulk Modulus (GPa) = 52.58066 53.68719 53.13393
# Shear Modulus (GPa) = 26.58933 31.71931 29.15432
#
# Velocity S-wave (km/s) = 3.11770 3.40519 3.26461
# Velocity P-wave (km/s) = 5.67287 5.92338 5.79948
#
# Compressibility (1/GPa) = 0.01901840
#
# Stress axis : x y z
#
# Youngs Moduli (GPa) = 66.85411 60.89269 97.47463
#
# Poissons Ratio (x) = 0.34240 0.15339
# Poissons Ratio (y) = 0.37593 0.40099
# Poissons Ratio (z) = 0.10520 0.25050
#
# Static dielectric constant tensor:
#      x y z
#    x 2.097830 0.000000 0.048550 
#    y 0.000000 2.128990 0.000000 
#    z 0.048550 0.000000 2.188730 
# 
# From -- ./inp_files/63293.got.cif
#   From: 2010.05.17/outbox.cif.g08.bks.cpg/sg14_32_cif.got.tgz:63293.got - 2010.06.03 17:49:19.
