data_PCOD9249892
_publ_section_title
;
Structure prediction by ZEFSAII (Michael W. Deem and Ramdas Pophale) SiO2 
 PCOD9249892
Probable space group: P 21/C
;
_chemical_formula_sum "Si O2"
_cell_formula_units_Z 32
_cell_length_a 9.165937
_cell_length_b 10.233320
_cell_length_c 15.148757
_cell_angle_alpha 90.000000
_cell_angle_beta 67.472352
_cell_angle_gamma 90.000000
_cell_volume 1312.498763
_symmetry_space_group_name_H-M "P 21/C"
_symmetry_group_IT_number 14
_symmetry_cell_setting 'monoclinic'
loop_
_space_group_symop_operation_xyz
x,y,z
-x,1/2+y,1/2-z
-x,-y,-z
x,1/2-y,1/2+z
loop_
_atom_site_type_symbol
_atom_site_label
_atom_site_fract_x
_atom_site_fract_y
_atom_site_fract_z
Si Si1 0.671467 0.637406 0.172230
Si Si2 0.833823 0.962758 0.882111
Si Si3 0.993410 0.028396 0.397241
Si Si4 0.241350 0.397682 0.410362
Si Si5 0.503431 0.374523 0.618424
Si Si6 0.730111 0.252068 0.922667
Si Si7 0.556504 0.028785 0.389004
Si Si8 0.113862 0.440330 0.246458
O O1 0.837862 0.587747 0.167857
O O2 0.699753 0.750154 0.095249
O O3 0.558396 0.685535 0.276343
O O4 0.586884 0.518122 0.143785
O O5 0.814762 0.119696 0.872667
O O6 0.998673 0.934634 0.794344
O O7 0.661614 0.909120 0.893251
O O8 0.855309 0.931856 0.979857
O O9 0.857257 0.137872 0.418289
O O10 0.000000 0.000000 0.500000
O O11 0.956816 0.910688 0.336302
O O12 0.388111 0.499855 0.380019
O O13 0.143235 0.393663 0.341326
O O14 0.614735 0.289146 0.529636
O O15 0.624488 0.322924 0.873590
O O16 0.500000 0.000000 0.500000
O O17 0.704160 0.946915 0.324143
#
# Coordination Sequence:
#
# PCOD9249892 Si02
#       8
#     4   4   4   4   4   4   4   4
#     4  12  23  43  68 102 134 180 234 273 348 412
#     4  11  22  46  69  99 142 176 233 286 344 405
#     4  11  25  47  67  99 141 179 233 280 343 410
#     4  11  24  42  69 102 135 178 230 289 336 410
#     4  11  23  43  70  99 141 179 228 284 346 404
#     4  10  23  44  68  99 132 186 225 281 346 410
#     4  11  24  44  67  97 138 179 233 280 346 407
#     4  11  23  43  67  96 136 181 221 291 334 402
#
# _framework density 24.380976
#
# number of rings (size 3 to 8) (size 9 to 14) (size 15 to 20)
#    0.000    1.000    2.500    5.625    1.750    2.000 
#    4.500    2.500    0.000    0.000    0.000    0.000 
#    0.000    0.000    0.000    0.000    0.000    0.000 
#
# Total GULP energy -178447.264437 kJ/mol
# GULP energy per Si atom -5576.477014 kJ/mol
# Density = 2.432548 g / cm^3
# Si number density = 24.380976 Si / 1000 Ang^3
#
#
#
# Elastic Constant Matrix: (Units=GPa)
#
#
# Indices 1 2 3 4 5 6 
#
# 1 144.2803 3.9258 25.7792 0.0000 0.1183 0.0000
# 2 3.9258 31.2949 -10.6284 0.0000 3.5917 0.0000
# 3 25.7792 -10.6284 121.2640 0.0000 0.9998 0.0000
# 4 0.0000 0.0000 0.0000 14.0560 0.0000 10.9305
# 5 0.1183 3.5917 0.9998 0.0000 52.8470 0.0000
# 6 0.0000 0.0000 0.0000 10.9305 0.0000 26.2603
#
#
#
# Elastic Compliance Matrix: (Units=1/GPa)
#
#
# Indices 1 2 3 4 5 6 
#
# 1 0.007271 -0.001495 -0.001678 0.000000 0.000117 0.000000
# 2 -0.001495 0.033522 0.003275 0.000000 -0.002337 0.000000
# 3 -0.001678 0.003275 0.008893 0.000000 -0.000387 0.000000
# 4 0.000000 0.000000 0.000000 0.105192 0.000000 -0.043785
# 5 0.000117 -0.002337 -0.000387 0.000000 0.019088 0.000000
# 6 0.000000 0.000000 0.000000 -0.043785 0.000000 0.056305
#
#
# Mechanical properties :
#
#
# Convention : Reuss Voigt Hill
#
# Bulk Modulus (GPa) = 20.04363 37.22137 28.63250
# Shear Modulus (GPa) = 20.26758 37.15016 28.70887
#
# Velocity S-wave (km/s) = 2.88633 3.90774 3.43521
# Velocity P-wave (km/s) = 4.39849 5.97162 5.24438
#
# Compressibility (1/GPa) = 0.04989116
#
# Stress axis : x y z
#
# Youngs Moduli (GPa) = 137.52631 29.83088 112.44265
#
# Poissons Ratio (x) = 0.04461 0.18866
# Poissons Ratio (y) = 0.20566 -0.36829
# Poissons Ratio (z) = 0.23075 -0.09771
#
# Static dielectric constant tensor:
#      x y z
#    x 2.025350 0.000000 -0.051640 
#    y 0.000000 2.042140 0.000000 
#    z -0.051640 0.000000 1.992490 
# 
# From -- ./inp_files/40301.got.cif
#   From: 2010.05.17/outbox.cif.g08.bks.cpg/sg14_21_cif.got.tgz:40301.got - 2010.06.03 17:49:19.
