data_PCOD9249596
_publ_section_title
;
Structure prediction by ZEFSAII (Michael W. Deem and Ramdas Pophale) SiO2 
 PCOD9249596
Probable space group: P 21/C
;
_chemical_formula_sum "Si O2"
_cell_formula_units_Z 28
_cell_length_a 5.966037
_cell_length_b 14.390358
_cell_length_c 15.369960
_cell_angle_alpha 90.000000
_cell_angle_beta 118.651246
_cell_angle_gamma 90.000000
_cell_volume 1157.988814
_symmetry_space_group_name_H-M "P 21/C"
_symmetry_group_IT_number 14
_symmetry_cell_setting 'monoclinic'
loop_
_space_group_symop_operation_xyz
x,y,z
-x,1/2+y,1/2-z
-x,-y,-z
x,1/2-y,1/2+z
loop_
_atom_site_type_symbol
_atom_site_label
_atom_site_fract_x
_atom_site_fract_y
_atom_site_fract_z
Si Si1 0.035031 0.862604 0.897882
Si Si2 0.303805 0.455621 0.212731
Si Si3 0.846614 0.115050 0.421487
Si Si4 0.304109 0.213611 0.606775
Si Si5 0.906593 0.457095 0.298629
Si Si6 0.466287 0.729380 0.020261
Si Si7 0.024144 0.739506 0.206637
O O1 0.274693 0.816737 0.993155
O O2 0.786983 0.818203 0.897346
O O3 0.021412 0.815949 0.798117
O O4 0.029745 0.973351 0.892814
O O5 0.155253 0.510548 0.109410
O O6 0.311206 0.345346 0.195583
O O7 0.602442 0.485471 0.252756
O O8 0.115991 0.473861 0.259335
O O9 0.632494 0.137513 0.451427
O O10 0.092824 0.160117 0.510545
O O11 0.806408 0.175707 0.326399
O O12 0.535689 0.211246 0.583573
O O13 0.889770 0.345800 0.291319
O O14 0.737878 0.745799 0.113956
#
# Coordination Sequence:
#
# PCOD9249596 Si02
#       7
#     4   4   4   4   4   4   4
#     4  11  23  45  69  99 139 181 232 286 344 414
#     4  12  25  43  68 106 138 178 232 285 353 414
#     4  10  23  42  68 101 136 179 228 289 351 412
#     4  10  23  42  68 101 136 179 228 289 351 412
#     4  12  28  41  71 105 133 186 234 281 344 412
#     4  10  24  42  70  98 138 186 230 284 348 404
#     4  11  23  45  69  99 139 181 232 286 344 414
#
# _framework density 24.179850999999999
#
# number of rings (size 3 to 8) (size 9 to 14) (size 15 to 20)
#    0.000    1.143    2.857    2.143    8.000    3.429 
#    0.000    6.429    0.000    0.000    0.000    0.000 
#    0.000    0.000    0.000    0.000    0.000    0.000 
#
# Total GULP energy -155926.453196 kJ/mol
# GULP energy per Si atom -5568.801900 kJ/mol
# Density = 2.412482 g / cm^3
# Si number density = 24.179851 Si / 1000 Ang^3
#
#
#
# Elastic Constant Matrix: (Units=GPa)
#
#
# Indices 1 2 3 4 5 6 
#
# 1 107.2971 -6.6889 9.9247 0.0000 -12.3867 0.0000
# 2 -6.6889 56.7882 -13.2492 0.0000 -4.4710 0.0000
# 3 9.9247 -13.2492 32.4581 0.0000 9.1482 0.0000
# 4 0.0000 0.0000 0.0000 22.7866 0.0000 -7.5926
# 5 -12.3867 -4.4710 9.1482 0.0000 39.7751 0.0000
# 6 0.0000 0.0000 0.0000 -7.5926 0.0000 8.9382
#
#
#
# Elastic Compliance Matrix: (Units=1/GPa)
#
#
# Indices 1 2 3 4 5 6 
#
# 1 0.010215 0.000584 -0.004063 0.000000 0.004181 0.000000
# 2 0.000584 0.019502 0.007606 0.000000 0.000625 0.000000
# 3 -0.004063 0.007606 0.037717 0.000000 -0.009085 0.000000
# 4 0.000000 0.000000 0.000000 0.061211 0.000000 0.051996
# 5 0.004181 0.000625 -0.009085 0.000000 0.028603 0.000000
# 6 0.000000 0.000000 0.000000 0.051996 0.000000 0.156047
#
#
# Mechanical properties :
#
#
# Convention : Reuss Voigt Hill
#
# Bulk Modulus (GPa) = 13.21236 19.61297 16.41267
# Shear Modulus (GPa) = 15.13913 28.07042 21.60478
#
# Velocity S-wave (km/s) = 2.50492 3.41090 2.99240
# Velocity P-wave (km/s) = 3.72052 4.86222 4.32917
#
# Compressibility (1/GPa) = 0.07568670
#
# Stress axis : x y z
#
# Youngs Moduli (GPa) = 97.89616 51.27736 26.51353
#
# Poissons Ratio (x) = -0.02996 0.10773
# Poissons Ratio (y) = -0.05721 -0.20165
# Poissons Ratio (z) = 0.39779 -0.39000
#
# Static dielectric constant tensor:
#      x y z
#    x 2.128980 0.000000 0.025900 
#    y 0.000000 1.913160 0.000000 
#    z 0.025900 0.000000 1.986960 
# 
# From -- ./inp_files/53529.got.cif
#   From: 2010.05.17/outbox.cif.g08.bks.cpg/sg14_27_cif.got.tgz:53529.got - 2010.06.03 17:49:19.
