data_PCOD9249474
_publ_section_title
;
Structure prediction by ZEFSAII (Michael W. Deem and Ramdas Pophale) SiO2 
 PCOD9249474
Probable space group: P 21/C
;
_chemical_formula_sum "Si O2"
_cell_formula_units_Z 28
_cell_length_a 10.986072
_cell_length_b 10.624594
_cell_length_c 20.276557
_cell_angle_alpha 90.000000
_cell_angle_beta 153.842785
_cell_angle_gamma 90.000000
_cell_volume 1043.339780
_symmetry_space_group_name_H-M "P 21/C"
_symmetry_group_IT_number 14
_symmetry_cell_setting 'monoclinic'
loop_
_space_group_symop_operation_xyz
x,y,z
-x,1/2+y,1/2-z
-x,-y,-z
x,1/2-y,1/2+z
loop_
_atom_site_type_symbol
_atom_site_label
_atom_site_fract_x
_atom_site_fract_y
_atom_site_fract_z
Si Si1 0.103004 0.208406 0.290591
Si Si2 0.971754 0.504754 0.631127
Si Si3 0.396032 0.099687 0.854734
Si Si4 0.782628 0.397730 0.827601
Si Si5 0.462161 0.716216 0.180084
Si Si6 0.395114 0.727582 0.870517
Si Si7 0.018376 0.167678 0.985380
O O1 0.179451 0.347928 0.301771
O O2 0.332915 0.185399 0.458597
O O3 0.109136 0.116808 0.230997
O O4 0.801954 0.193528 0.175930
O O5 0.652498 0.489027 0.498551
O O6 0.940219 0.545249 0.538895
O O7 0.188653 0.612339 0.756583
O O8 0.541800 0.225036 0.894151
O O9 0.226215 0.028265 0.714442
O O10 0.692516 0.403517 0.860881
O O11 0.576617 0.310161 0.682137
O O12 0.037768 0.300878 0.953597
O O13 0.770881 0.690066 0.353076
O O14 0.292871 0.822540 0.138371
#
# Coordination Sequence:
#
# PCOD9249474 Si02
#       7
#     4   4   4   4   4   4   4
#     4  12  27  42  69 109 135 181 231 293 334 412
#     4  11  23  46  70  97 135 186 227 279 349 404
#     4  12  25  44  70 105 142 177 227 291 350 401
#     4   9  23  44  69  98 135 185 224 273 349 405
#     4  10  23  41  70 102 134 179 230 278 342 411
#     4  11  25  46  72  97 143 180 237 275 350 410
#     4   9  21  45  68  99 132 186 225 272 343 415
#
# _framework density 26.836891999999999
#
# number of rings (size 3 to 8) (size 9 to 14) (size 15 to 20)
#    0.857    0.571    2.857    1.286    6.000    3.429 
#    2.571    0.000    0.000    0.000    0.000    0.000 
#    0.000    0.000    0.000    0.000    0.000    0.000 
#
# Total GULP energy -156097.478056 kJ/mol
# GULP energy per Si atom -5574.909931 kJ/mol
# Density = 2.677581 g / cm^3
# Si number density = 26.836892 Si / 1000 Ang^3
#
#
#
# Elastic Constant Matrix: (Units=GPa)
#
#
# Indices 1 2 3 4 5 6 
#
# 1 79.3215 3.0947 19.9975 0.0000 4.3610 0.0000
# 2 3.0947 63.5728 20.0425 0.0000 1.0882 0.0000
# 3 19.9975 20.0425 115.1062 0.0000 -4.0405 0.0000
# 4 0.0000 0.0000 0.0000 54.3607 0.0000 -13.7838
# 5 4.3610 1.0882 -4.0405 0.0000 36.0977 0.0000
# 6 0.0000 0.0000 0.0000 -13.7838 0.0000 33.5162
#
#
#
# Elastic Compliance Matrix: (Units=1/GPa)
#
#
# Indices 1 2 3 4 5 6 
#
# 1 0.013311 0.000142 -0.002403 0.000000 -0.001881 0.000000
# 2 0.000142 0.016670 -0.002957 0.000000 -0.000851 0.000000
# 3 -0.002403 -0.002957 0.009671 0.000000 0.001462 0.000000
# 4 0.000000 0.000000 0.000000 0.020537 0.000000 0.008446
# 5 -0.001881 -0.000851 0.001462 0.000000 0.028119 0.000000
# 6 0.000000 0.000000 0.000000 0.008446 0.000000 0.033310
#
#
# Mechanical properties :
#
#
# Convention : Reuss Voigt Hill
#
# Bulk Modulus (GPa) = 34.22885 38.25221 36.24053
# Shear Modulus (GPa) = 35.26252 39.11929 37.19090
#
# Velocity S-wave (km/s) = 3.62879 3.82208 3.72669
# Velocity P-wave (km/s) = 5.50813 5.81053 5.66135
#
# Compressibility (1/GPa) = 0.02921512
#
# Stress axis : x y z
#
# Youngs Moduli (GPa) = 75.12751 59.98823 103.39801
#
# Poissons Ratio (x) = -0.00851 0.24849
# Poissons Ratio (y) = -0.01066 0.30576
# Poissons Ratio (z) = 0.18055 0.17739
#
# Static dielectric constant tensor:
#      x y z
#    x 2.207650 0.000000 -0.037130 
#    y 0.000000 2.200990 0.000000 
#    z -0.037130 0.000000 2.051500 
# 
# From -- ./inp_files/67351.got.cif
#   From: 2010.05.17/outbox.cif.g08.bks.cpg/sg14_34_cif.got.tgz:67351.got - 2010.06.03 17:49:19.
