data_PCOD9249997
_publ_section_title
;
Structure prediction by ZEFSAII (Michael W. Deem and Ramdas Pophale) SiO2 
 PCOD9249997
Probable space group: P 21/C
;
_chemical_formula_sum "Si O2"
_cell_formula_units_Z 32
_cell_length_a 5.453352
_cell_length_b 11.442034
_cell_length_c 23.887380
_cell_angle_alpha 90.000000
_cell_angle_beta 114.490379
_cell_angle_gamma 90.000000
_cell_volume 1356.411362
_symmetry_space_group_name_H-M "P 21/C"
_symmetry_group_IT_number 14
_symmetry_cell_setting 'monoclinic'
loop_
_space_group_symop_operation_xyz
x,y,z
-x,1/2+y,1/2-z
-x,-y,-z
x,1/2-y,1/2+z
loop_
_atom_site_type_symbol
_atom_site_label
_atom_site_fract_x
_atom_site_fract_y
_atom_site_fract_z
Si Si1 0.793008 0.704302 0.977794
Si Si2 0.691028 0.146879 0.006484
Si Si3 0.599170 0.386037 0.140037
Si Si4 0.553771 0.396902 0.807009
Si Si5 0.216774 0.261827 0.838896
Si Si6 0.247284 0.650405 0.287216
Si Si7 0.739974 0.524195 0.607893
Si Si8 0.136004 0.051115 0.413899
O O1 0.553174 0.785611 0.982523
O O2 0.691626 0.655564 0.908829
O O3 0.071821 0.773165 0.995860
O O4 0.838485 0.590540 0.020584
O O5 0.825736 0.056298 0.063650
O O6 0.545210 0.074882 0.942791
O O7 0.611192 0.492400 0.184773
O O8 0.719645 0.273175 0.179466
O O9 0.747699 0.430603 0.097861
O O10 0.475416 0.268626 0.823203
O O11 0.536154 0.388987 0.738780
O O12 0.841419 0.427870 0.861141
O O13 0.119670 0.143521 0.857820
O O14 0.302645 0.347977 0.896941
O O15 0.003432 0.323677 0.777664
O O16 0.250178 0.555821 0.336311
#
# Coordination Sequence:
#
# PCOD9249997 Si02
#       8
#     4   4   4   4   4   4   4   4
#     4  12  25  50  76 111 153 191 255 308 379 456
#     4  11  27  49  76 114 149 198 252 313 384 448
#     4  11  26  45  69 107 148 192 254 311 376 454
#     4  10  25  44  70 105 141 200 245 312 374 451
#     4  10  23  45  69 104 143 191 252 307 376 452
#     4  11  26  45  69 108 141 198 249 311 375 454
#     4  11  24  48  75 104 153 194 252 318 378 453
#     4  10  23  45  72 101 146 192 247 303 384 439
#
# _framework density 23.591661999999999
#
# number of rings (size 3 to 8) (size 9 to 14) (size 15 to 20)
#    0.000    1.250    2.500    1.125   10.500    3.500 
#    6.750    0.000    0.000    0.000    0.000    0.000 
#    0.000    0.000    0.000    0.000    0.000    0.000 
#
# Total GULP energy -178477.779696 kJ/mol
# GULP energy per Si atom -5577.430616 kJ/mol
# Density = 2.353797 g / cm^3
# Si number density = 23.591662 Si / 1000 Ang^3
#
#
#
# Elastic Constant Matrix: (Units=GPa)
#
#
# Indices 1 2 3 4 5 6 
#
# 1 71.0158 32.3064 11.1682 0.0000 -1.2112 0.0000
# 2 32.3064 108.8464 37.9824 0.0000 1.7737 0.0000
# 3 11.1682 37.9824 90.2531 0.0000 36.9318 0.0000
# 4 0.0000 0.0000 0.0000 35.7816 0.0000 -42.6829
# 5 -1.2112 1.7737 36.9318 0.0000 -33.6384 0.0000
# 6 0.0000 0.0000 0.0000 -42.6829 0.0000 -41.2476
#
#
#
# Elastic Compliance Matrix: (Units=1/GPa)
#
#
# Indices 1 2 3 4 5 6 
#
# 1 0.016265 -0.004915 0.000277 0.000000 -0.000541 0.000000
# 2 -0.004915 0.011821 -0.003239 0.000000 -0.002756 0.000000
# 3 0.000277 -0.003239 0.008613 0.000000 0.009276 0.000000
# 4 0.000000 0.000000 0.000000 0.012508 0.000000 -0.012943
# 5 -0.000541 -0.002756 0.009276 0.000000 -0.019670 0.000000
# 6 0.000000 0.000000 0.000000 -0.012943 0.000000 -0.010850
#
#
# Mechanical properties :
#
#
# Convention : Reuss Voigt Hill
#
# Bulk Modulus (GPa) = 47.74481 48.11439 47.92960
# Shear Modulus (GPa) = 120.70671 4.75633 62.73152
#
# Velocity S-wave (km/s) = 7.16073 1.42144 5.16220
# Velocity P-wave (km/s) = 9.41541 4.80967 7.47606
#
# Compressibility (1/GPa) = 0.02094468
#
# Stress axis : x y z
#
# Youngs Moduli (GPa) = 61.48301 84.59268 116.10154
#
# Poissons Ratio (x) = 0.41580 -0.03218
# Poissons Ratio (y) = 0.30221 0.37605
# Poissons Ratio (z) = -0.01704 0.27400
#
# Static dielectric constant tensor:
#      x y z
#    x 2.214060 0.000000 -0.029840 
#    y 0.000000 1.957590 0.000000 
#    z -0.029840 0.000000 1.866190 
# 
# From -- ./inp_files/71323.got.cif
#   From: 2010.05.17/outbox.cif.g08.bks.cpg/sg14_36_cif.got.tgz:71323.got - 2010.06.03 17:49:19.
