data_PCOD9249917
_publ_section_title
;
Structure prediction by ZEFSAII (Michael W. Deem and Ramdas Pophale) SiO2 
 PCOD9249917
Probable space group: P 21/C
;
_chemical_formula_sum "Si O2"
_cell_formula_units_Z 16
_cell_length_a 6.872418
_cell_length_b 7.117254
_cell_length_c 13.491992
_cell_angle_alpha 90.000000
_cell_angle_beta 118.446008
_cell_angle_gamma 90.000000
_cell_volume 580.254568
_symmetry_space_group_name_H-M "P 21/C"
_symmetry_group_IT_number 14
_symmetry_cell_setting 'monoclinic'
loop_
_space_group_symop_operation_xyz
x,y,z
-x,1/2+y,1/2-z
-x,-y,-z
x,1/2-y,1/2+z
loop_
_atom_site_type_symbol
_atom_site_label
_atom_site_fract_x
_atom_site_fract_y
_atom_site_fract_z
Si Si1 0.858771 0.959143 0.253727
Si Si2 0.788577 0.248720 0.914143
Si Si3 0.681957 0.224306 0.598945
Si Si4 0.268289 0.183021 0.127397
O O1 0.802988 0.111132 0.325868
O O2 0.883122 0.093612 0.684605
O O3 0.776917 0.059487 0.134413
O O4 0.740008 0.773401 0.265584
O O5 0.714377 0.040534 0.866607
O O6 0.648460 0.313941 0.975246
O O7 0.036997 0.235167 0.018938
O O8 0.462951 0.228219 0.610002
#
# Coordination Sequence:
#
# PCOD9249917 Si02
#       4
#     4   4   4   4
#     4  11  27  42  67 103 136 174 231 277 331 409
#     4  10  24  47  66 100 135 174 228 280 330 407
#     4  11  25  45  69  99 137 182 219 281 341 393
#     4  10  23  44  70  95 134 177 222 281 336 399
#
# _framework density 27.574104999999999
#
# number of rings (size 3 to 8) (size 9 to 14) (size 15 to 20)
#    0.000    1.500    0.000    3.750   14.000    4.000 
#    0.000    0.000    0.000    0.000    0.000    0.000 
#    0.000    0.000    0.000    0.000    0.000    0.000 
#
# Total GULP energy -89892.237261 kJ/mol
# GULP energy per Si atom -5618.264829 kJ/mol
# Density = 2.751135 g / cm^3
# Si number density = 27.574105 Si / 1000 Ang^3
#
#
#
# Elastic Constant Matrix: (Units=GPa)
#
#
# Indices 1 2 3 4 5 6 
#
# 1 173.4584 48.1532 57.3411 0.0000 -30.9492 0.0000
# 2 48.1532 144.1703 36.3185 0.0000 -15.0160 0.0000
# 3 57.3411 36.3185 98.1631 0.0000 -7.9798 0.0000
# 4 0.0000 0.0000 0.0000 59.5259 0.0000 -3.8882
# 5 -30.9492 -15.0160 -7.9798 0.0000 48.9433 0.0000
# 6 0.0000 0.0000 0.0000 -3.8882 0.0000 49.0084
#
#
#
# Elastic Compliance Matrix: (Units=1/GPa)
#
#
# Indices 1 2 3 4 5 6 
#
# 1 0.008170 -0.001303 -0.003955 0.000000 0.004121 0.000000
# 2 -0.001303 0.008037 -0.002107 0.000000 0.001298 0.000000
# 3 -0.003955 -0.002107 0.013196 0.000000 -0.000996 0.000000
# 4 0.000000 0.000000 0.000000 0.016887 0.000000 0.001340
# 5 0.004121 0.001298 -0.000996 0.000000 0.023274 0.000000
# 6 0.000000 0.000000 0.000000 0.001340 0.000000 0.020511
#
#
# Mechanical properties :
#
#
# Convention : Reuss Voigt Hill
#
# Bulk Modulus (GPa) = 68.15294 77.71305 72.93299
# Shear Modulus (GPa) = 45.58042 49.76078 47.67060
#
# Velocity S-wave (km/s) = 4.07014 4.25269 4.16242
# Velocity P-wave (km/s) = 6.84529 7.23591 7.04331
#
# Compressibility (1/GPa) = 0.01467288
#
# Stress axis : x y z
#
# Youngs Moduli (GPa) = 122.40474 124.41698 75.78034
#
# Poissons Ratio (x) = 0.16212 0.29972
# Poissons Ratio (y) = 0.15950 0.15967
# Poissons Ratio (z) = 0.48412 0.26215
#
# Static dielectric constant tensor:
#      x y z
#    x 2.142080 0.000000 0.019670 
#    y 0.000000 2.143700 0.000000 
#    z 0.019670 0.000000 2.109270 
# 
# From -- ./inp_files/22811.got.cif
#   From: 2010.05.17/outbox.cif.g08.bks.cpg/sg14_12_cif.got.tgz:22811.got - 2010.06.03 17:49:19.
