data_PCOD9249556
_publ_section_title
;
Structure prediction by ZEFSAII (Michael W. Deem and Ramdas Pophale) SiO2 
 PCOD9249556
Probable space group: P 21/C
;
_chemical_formula_sum "Si O2"
_cell_formula_units_Z 32
_cell_length_a 9.368805
_cell_length_b 21.477186
_cell_length_c 12.498798
_cell_angle_alpha 90.000000
_cell_angle_beta 144.243391
_cell_angle_gamma 90.000000
_cell_volume 1469.595719
_symmetry_space_group_name_H-M "P 21/C"
_symmetry_group_IT_number 14
_symmetry_cell_setting 'monoclinic'
loop_
_space_group_symop_operation_xyz
x,y,z
-x,1/2+y,1/2-z
-x,-y,-z
x,1/2-y,1/2+z
loop_
_atom_site_type_symbol
_atom_site_label
_atom_site_fract_x
_atom_site_fract_y
_atom_site_fract_z
Si Si1 0.303261 0.511993 0.564686
Si Si2 0.583686 0.727006 0.877223
Si Si3 0.885837 0.086598 0.857900
Si Si4 0.113600 0.777500 0.223091
Si Si5 0.052265 0.530487 0.207265
Si Si6 0.228859 0.935347 0.594031
Si Si7 0.552682 0.182999 0.387096
Si Si8 0.609643 0.606908 0.019162
O O1 0.200655 0.566438 0.577385
O O2 0.278475 0.528516 0.425582
O O3 0.565412 0.488801 0.763658
O O4 0.116545 0.454764 0.468297
O O5 0.549700 0.758780 0.741290
O O6 0.579061 0.653243 0.898614
O O7 0.348822 0.751213 0.803648
O O8 0.858384 0.743446 0.078804
O O9 0.652814 0.072855 0.639019
O O10 0.944300 0.158609 0.875863
O O11 0.219714 0.794559 0.403224
O O12 0.106353 0.571127 0.135200
O O13 0.964762 0.463832 0.107654
O O14 0.831917 0.561484 0.138657
O O15 0.356020 0.872646 0.632935
O O16 0.374858 0.150355 0.366398
#
# Coordination Sequence:
#
# PCOD9249556 Si02
#       8
#     4   4   4   4   4   4   4   4
#     4  11  21  37  65  95 123 173 204 260 312 383
#     4  10  23  42  66  91 131 162 222 271 320 383
#     4   9  20  38  63  94 124 155 215 258 303 383
#     4  10  23  44  61  99 126 166 216 273 320 389
#     4  11  24  40  61  93 137 166 205 264 327 384
#     4  11  24  41  62  97 131 168 209 266 319 388
#     4  10  23  42  69  92 124 174 215 266 321 384
#     4  10  23  44  62  95 126 168 210 266 323 380
#
# _framework density 21.774698000000001
#
# number of rings (size 3 to 8) (size 9 to 14) (size 15 to 20)
#    0.000    2.000    1.250    2.625    7.000    3.000 
#    2.250    0.000    0.000    0.000    0.000    0.000 
#    0.000    0.000    0.000    0.000    0.000    0.000 
#
# Total GULP energy -178637.385420 kJ/mol
# GULP energy per Si atom -5582.418294 kJ/mol
# Density = 2.172514 g / cm^3
# Si number density = 21.774698 Si / 1000 Ang^3
#
#
#
# Elastic Constant Matrix: (Units=GPa)
#
#
# Indices 1 2 3 4 5 6 
#
# 1 80.7365 16.2830 21.4181 0.0000 4.9286 0.0000
# 2 16.2830 29.3972 15.9633 0.0000 1.6128 0.0000
# 3 21.4181 15.9633 72.0601 0.0000 -8.6969 0.0000
# 4 0.0000 0.0000 0.0000 22.5356 0.0000 -1.8880
# 5 4.9286 1.6128 -8.6969 0.0000 39.9197 0.0000
# 6 0.0000 0.0000 0.0000 -1.8880 0.0000 36.8300
#
#
#
# Elastic Compliance Matrix: (Units=1/GPa)
#
#
# Indices 1 2 3 4 5 6 
#
# 1 0.014640 -0.006222 -0.003246 0.000000 -0.002263 0.000000
# 2 -0.006222 0.041801 -0.007725 0.000000 -0.002603 0.000000
# 3 -0.003246 -0.007725 0.017089 0.000000 0.004436 0.000000
# 4 0.000000 0.000000 0.000000 0.044566 0.000000 0.002285
# 5 -0.002263 -0.002603 0.004436 0.000000 0.026401 0.000000
# 6 0.000000 0.000000 0.000000 0.002285 0.000000 0.027269
#
#
# Mechanical properties :
#
#
# Convention : Reuss Voigt Hill
#
# Bulk Modulus (GPa) = 25.54717 32.16919 28.85818
# Shear Modulus (GPa) = 22.81021 28.42568 25.61795
#
# Velocity S-wave (km/s) = 3.24011 3.61701 3.43374
# Velocity P-wave (km/s) = 5.07501 5.67886 5.38540
#
# Compressibility (1/GPa) = 0.03914328
#
# Stress axis : x y z
#
# Youngs Moduli (GPa) = 68.30502 23.92294 58.51796
#
# Poissons Ratio (x) = 0.14885 0.18996
# Poissons Ratio (y) = 0.42501 0.45204
# Poissons Ratio (z) = 0.22173 0.18480
#
# Static dielectric constant tensor:
#      x y z
#    x 1.837230 0.000000 0.012420 
#    y 0.000000 1.792430 0.000000 
#    z 0.012420 0.000000 1.840520 
# 
# From -- ./inp_files/27046.got.cif
#   From: 2010.05.17/outbox.cif.g08.bks.cpg/sg14_14_cif.got.tgz:27046.got - 2010.06.03 17:49:19.
