data_PCOD9249224
_publ_section_title
;
Structure prediction by ZEFSAII (Michael W. Deem and Ramdas Pophale) SiO2 
 PCOD9249224
Probable space group: P 21/C
;
_chemical_formula_sum "Si O2"
_cell_formula_units_Z 16
_cell_length_a 19.264802
_cell_length_b 8.999578
_cell_length_c 14.258175
_cell_angle_alpha 90.000000
_cell_angle_beta 18.880688
_cell_angle_gamma 90.000000
_cell_volume 799.939523
_symmetry_space_group_name_H-M "P 21/C"
_symmetry_group_IT_number 14
_symmetry_cell_setting 'monoclinic'
loop_
_space_group_symop_operation_xyz
x,y,z
-x,1/2+y,1/2-z
-x,-y,-z
x,1/2-y,1/2+z
loop_
_atom_site_type_symbol
_atom_site_label
_atom_site_fract_x
_atom_site_fract_y
_atom_site_fract_z
Si Si1 0.593880 0.767992 0.744266
Si Si2 0.602321 0.283802 0.817657
Si Si3 0.309250 0.921385 0.472419
Si Si4 0.827663 0.917190 0.084802
O O1 0.474654 0.644426 0.835290
O O2 0.799214 0.691852 0.531116
O O3 0.642371 0.911955 0.622116
O O4 0.440560 0.802840 0.029782
O O5 0.669396 0.180675 0.647536
O O6 0.764324 0.418094 0.632168
O O7 0.367942 0.360696 0.099722
O O8 0.065198 0.909307 0.820017
#
# Coordination Sequence:
#
# PCOD9249224 Si02
#       4
#     4   4   4   4
#     4  10  23  37  60  92 115 157 200 237 289 361
#     4   9  21  43  57  92 119 147 207 240 286 359
#     4  12  21  40  63  85 124 157 192 246 294 343
#     4   9  21  41  62  84 120 155 193 243 299 337
#
# _framework density 20.001512999999999
#
# number of rings (size 3 to 8) (size 9 to 14) (size 15 to 20)
#    1.500    0.500    0.000    3.750    0.000    1.000 
#    4.500    1.250    0.000    0.000    0.000    0.000 
#    0.000    0.000    0.000    0.000    0.000    0.000 
#
# Total GULP energy -89234.476939 kJ/mol
# GULP energy per Si atom -5577.154809 kJ/mol
# Density = 1.995599 g / cm^3
# Si number density = 20.001513 Si / 1000 Ang^3
#
#
#
# Elastic Constant Matrix: (Units=GPa)
#
#
# Indices 1 2 3 4 5 6 
#
# 1 46.5094 6.2985 0.4741 0.0000 12.0723 0.0000
# 2 6.2985 78.9694 28.4926 0.0000 -4.9648 0.0000
# 3 0.4741 28.4926 58.0444 0.0000 -4.3669 0.0000
# 4 0.0000 0.0000 0.0000 17.2939 0.0000 11.9522
# 5 12.0723 -4.9648 -4.3669 0.0000 21.0596 0.0000
# 6 0.0000 0.0000 0.0000 11.9522 0.0000 40.1345
#
#
#
# Elastic Compliance Matrix: (Units=1/GPa)
#
#
# Indices 1 2 3 4 5 6 
#
# 1 0.025965 -0.003100 0.000137 0.000000 -0.015587 0.000000
# 2 -0.003100 0.015850 -0.007457 0.000000 0.003968 0.000000
# 3 0.000137 -0.007457 0.021078 0.000000 0.002534 0.000000
# 4 0.000000 0.000000 0.000000 0.072809 0.000000 -0.021683
# 5 -0.015587 0.003968 0.002534 0.000000 0.057880 0.000000
# 6 0.000000 0.000000 0.000000 -0.021683 0.000000 0.031373
#
#
# Mechanical properties :
#
#
# Convention : Reuss Voigt Hill
#
# Bulk Modulus (GPa) = 23.77903 28.22815 26.00359
# Shear Modulus (GPa) = 19.24453 25.58148 22.41300
#
# Velocity S-wave (km/s) = 3.10523 3.58016 3.35112
# Velocity P-wave (km/s) = 4.97705 5.58871 5.29172
#
# Compressibility (1/GPa) = 0.04205387
#
# Stress axis : x y z
#
# Youngs Moduli (GPa) = 38.51284 63.09040 47.44273
#
# Poissons Ratio (x) = 0.19560 -0.00651
# Poissons Ratio (y) = 0.11940 0.35377
# Poissons Ratio (z) = -0.00528 0.47044
#
# Static dielectric constant tensor:
#      x y z
#    x 1.731070 0.000000 0.013530 
#    y 0.000000 1.675090 0.000000 
#    z 0.013530 0.000000 1.688950 
# 
# From -- ./inp_files/33455.got.cif
#   From: 2010.05.17/outbox.cif.g08.bks.cpg/sg14_17_cif.got.tgz:33455.got - 2010.06.03 17:49:19.
