data_PCOD9249615
_publ_section_title
;
Structure prediction by ZEFSAII (Michael W. Deem and Ramdas Pophale) SiO2 
 PCOD9249615
Probable space group: P 21/C
;
_chemical_formula_sum "Si O2"
_cell_formula_units_Z 18
_cell_length_a 29.677731
_cell_length_b 4.845662
_cell_length_c 24.207966
_cell_angle_alpha 90.000000
_cell_angle_beta 11.536470
_cell_angle_gamma 90.000000
_cell_volume 696.231948
_symmetry_space_group_name_H-M "P 21/C"
_symmetry_group_IT_number 14
_symmetry_cell_setting 'monoclinic'
loop_
_space_group_symop_operation_xyz
x,y,z
-x,1/2+y,1/2-z
-x,-y,-z
x,1/2-y,1/2+z
loop_
_atom_site_type_symbol
_atom_site_label
_atom_site_fract_x
_atom_site_fract_y
_atom_site_fract_z
Si Si1 0.170691 0.801854 0.398517
Si Si2 0.447541 0.198131 0.983241
Si Si3 0.201821 0.645714 0.592382
Si Si4 0.000000 0.000000 0.000000
Si Si5 0.378606 0.354279 0.827201
O O1 0.356924 0.671313 0.214614
O O2 0.012910 0.003198 0.623394
O O3 0.036795 0.590295 0.521031
O O4 0.295069 0.999973 0.204923
O O5 0.558172 0.996807 0.805510
O O6 0.268097 0.409671 0.174073
O O7 0.397398 0.633469 0.403905
O O8 0.192790 0.954499 0.580937
O O9 0.287667 0.454501 0.438618
#
# Coordination Sequence:
#
# PCOD9249615 Si02
#       5
#     4   4   4   2   4
#     4  11  26  44  70 105 141 186 240 295 359 427
#     4  11  26  44  70 105 141 186 240 295 359 427
#     4  10  23  42  69 101 140 189 238 291 360 428
#     4  12  24  44  72  96 140 184 234 294 354 424
#     4  10  23  42  69 101 140 189 238 291 360 428
#
# _framework density 25.853452999999998
#
# number of rings (size 3 to 8) (size 9 to 14) (size 15 to 20)
#    0.000    1.333    2.222    1.333    6.222    1.778 
#    0.000    0.000    0.000    0.000    0.000    0.000 
#    0.000    0.000    0.000    0.000    0.000    0.000 
#
# Total GULP energy -100434.455110 kJ/mol
# GULP energy per Si atom -5579.691951 kJ/mol
# Density = 2.579461 g / cm^3
# Si number density = 25.853453 Si / 1000 Ang^3
#
#
#
# Elastic Constant Matrix: (Units=GPa)
#
#
# Indices 1 2 3 4 5 6 
#
# 1 352.1618 23.2277 -179.8270 0.0000 37.8859 0.0000
# 2 23.2277 73.0786 15.2402 0.0000 -14.0959 0.0000
# 3 -179.8270 15.2402 332.6860 0.0000 -72.3918 0.0000
# 4 0.0000 0.0000 0.0000 28.9259 0.0000 24.6572
# 5 37.8859 -14.0959 -72.3918 0.0000 86.5756 0.0000
# 6 0.0000 0.0000 0.0000 24.6572 0.0000 14.6763
#
#
#
# Elastic Compliance Matrix: (Units=1/GPa)
#
#
# Indices 1 2 3 4 5 6 
#
# 1 0.004147 -0.001834 0.002281 0.000000 -0.000206 0.000000
# 2 -0.001834 0.014947 -0.001188 0.000000 0.002243 0.000000
# 3 0.002281 -0.001188 0.004931 0.000000 0.002932 0.000000
# 4 0.000000 0.000000 0.000000 -0.080000 0.000000 0.134406
# 5 -0.000206 0.002243 0.002932 0.000000 0.014457 0.000000
# 6 0.000000 0.000000 0.000000 0.134406 0.000000 -0.157674
#
#
# Mechanical properties :
#
#
# Convention : Reuss Voigt Hill
#
# Bulk Modulus (GPa) = 44.35691 52.80091 48.57891
# Shear Modulus (GPa) = -26.28877 85.98793 29.84958
#
# Velocity S-wave (km/s) = -3.19225 5.77338 3.40158
# Velocity P-wave (km/s) = 1.89922 8.05668 5.85308
#
# Compressibility (1/GPa) = 0.02254440
#
# Stress axis : x y z
#
# Youngs Moduli (GPa) = 241.10971 66.90268 202.79391
#
# Poissons Ratio (x) = 0.12268 -0.46257
# Poissons Ratio (y) = 0.44213 0.24089
# Poissons Ratio (z) = -0.54996 0.07947
#
# Static dielectric constant tensor:
#      x y z
#    x 1.993190 0.000000 0.030790 
#    y 0.000000 2.034760 0.000000 
#    z 0.030790 0.000000 2.011010 
# 
# From -- ./inp_files/1065.got.cif
#   From: 2010.05.17/outbox.cif.g08.bks.cpg/sg14_1_cif.got.tgz:1065.got - 2010.06.03 17:49:19.
