data_PCOD9249909
_publ_section_title
;
Structure prediction by ZEFSAII (Michael W. Deem and Ramdas Pophale) SiO2 
 PCOD9249909
Probable space group: P 21/C
;
_chemical_formula_sum "Si O2"
_cell_formula_units_Z 28
_cell_length_a 19.608264
_cell_length_b 9.282457
_cell_length_c 8.381760
_cell_angle_alpha 90.000000
_cell_angle_beta 51.154017
_cell_angle_gamma 90.000000
_cell_volume 1188.181205
_symmetry_space_group_name_H-M "P 21/C"
_symmetry_group_IT_number 14
_symmetry_cell_setting 'monoclinic'
loop_
_space_group_symop_operation_xyz
x,y,z
-x,1/2+y,1/2-z
-x,-y,-z
x,1/2-y,1/2+z
loop_
_atom_site_type_symbol
_atom_site_label
_atom_site_fract_x
_atom_site_fract_y
_atom_site_fract_z
Si Si1 0.151578 0.370814 0.682032
Si Si2 0.235744 0.600684 0.736714
Si Si3 0.241055 0.071721 0.561614
Si Si4 0.976861 0.786571 0.368445
Si Si5 0.104666 0.636242 0.422480
Si Si6 0.433384 0.969011 0.335626
Si Si7 0.568747 0.190367 0.001254
O O1 0.205817 0.517455 0.619994
O O2 0.220518 0.240301 0.599901
O O3 0.090253 0.310643 0.632696
O O4 0.082812 0.380736 0.928517
O O5 0.167966 0.729022 0.866897
O O6 0.332485 0.665460 0.581710
O O7 0.237239 0.492070 0.886608
O O8 0.165501 0.991881 0.772906
O O9 0.336170 0.034050 0.490072
O O10 0.040271 0.685422 0.376324
O O11 0.038878 0.882199 0.166194
O O12 0.453050 0.858175 0.448220
O O13 0.502397 0.094316 0.202028
O O14 0.435107 0.869970 0.172583
#
# Coordination Sequence:
#
# PCOD9249909 Si02
#       7
#     4   4   4   4   4   4   4
#     4  11  24  42  59  94 132 170 215 272 312 383
#     4  11  23  43  65  96 130 171 215 264 321 381
#     4  11  23  43  65  96 130 171 215 264 321 381
#     4  10  24  40  64  94 122 172 222 264 330 366
#     4  11  22  40  67  90 126 170 215 276 314 387
#     4  10  23  44  70 100 133 166 209 262 320 385
#     4  10  23  44  70 100 133 166 209 262 320 385
#
# _framework density 23.565429000000002
#
# number of rings (size 3 to 8) (size 9 to 14) (size 15 to 20)
#    0.000    1.429    4.286    0.000    2.000    8.571 
#    2.571    0.000    0.000    0.000    0.000    0.000 
#    0.000    0.000    0.000    0.000    0.000    0.000 
#
# Total GULP energy -156858.690966 kJ/mol
# GULP energy per Si atom -5602.096106 kJ/mol
# Density = 2.351179 g / cm^3
# Si number density = 23.565429 Si / 1000 Ang^3
#
#
#
# Elastic Constant Matrix: (Units=GPa)
#
#
# Indices 1 2 3 4 5 6 
#
# 1 56.7443 9.3489 16.9817 0.0000 -11.3437 0.0000
# 2 9.3489 84.5115 7.0637 0.0000 -15.6316 0.0000
# 3 16.9817 7.0637 78.8402 0.0000 -17.8522 0.0000
# 4 0.0000 0.0000 0.0000 28.1058 0.0000 1.8759
# 5 -11.3437 -15.6316 -17.8522 0.0000 22.4922 0.0000
# 6 0.0000 0.0000 0.0000 1.8759 0.0000 33.0180
#
#
#
# Elastic Compliance Matrix: (Units=1/GPa)
#
#
# Indices 1 2 3 4 5 6 
#
# 1 0.020009 -0.000581 -0.002516 0.000000 0.007691 0.000000
# 2 -0.000581 0.013677 0.001202 0.000000 0.010166 0.000000
# 3 -0.002516 0.001202 0.015873 0.000000 0.012164 0.000000
# 4 0.000000 0.000000 0.000000 0.035715 0.000000 -0.002029
# 5 0.007691 0.010166 0.012164 0.000000 0.065058 0.000000
# 6 0.000000 0.000000 0.000000 -0.002029 0.000000 0.030402
#
#
# Mechanical properties :
#
#
# Convention : Reuss Voigt Hill
#
# Bulk Modulus (GPa) = 21.84949 31.87606 26.86277
# Shear Modulus (GPa) = 25.02745 29.16999 27.09872
#
# Velocity S-wave (km/s) = 3.26243 3.52210 3.39475
# Velocity P-wave (km/s) = 4.84595 5.48600 5.17588
#
# Compressibility (1/GPa) = 0.04576766
#
# Stress axis : x y z
#
# Youngs Moduli (GPa) = 49.97734 73.11629 63.00146
#
# Poissons Ratio (x) = 0.04246 0.15854
# Poissons Ratio (y) = 0.02902 -0.07570
# Poissons Ratio (z) = 0.12576 -0.08786
#
# Static dielectric constant tensor:
#      x y z
#    x 1.896740 0.000000 0.075120 
#    y 0.000000 1.871400 0.000000 
#    z 0.075120 0.000000 1.889430 
# 
# From -- ./inp_files/18707.got.cif
#   From: 2010.05.17/outbox.cif.g08.bks.cpg/sg14_10_cif.got.tgz:18707.got - 2010.06.03 17:49:19.
