data_PCOD9249786
_publ_section_title
;
Structure prediction by ZEFSAII (Michael W. Deem and Ramdas Pophale) SiO2 
 PCOD9249786
Probable space group: P 21/C
;
_chemical_formula_sum "Si O2"
_cell_formula_units_Z 32
_cell_length_a 6.456800
_cell_length_b 19.762106
_cell_length_c 10.930445
_cell_angle_alpha 90.000000
_cell_angle_beta 110.166312
_cell_angle_gamma 90.000000
_cell_volume 1309.222064
_symmetry_space_group_name_H-M "P 21/C"
_symmetry_group_IT_number 14
_symmetry_cell_setting 'monoclinic'
loop_
_space_group_symop_operation_xyz
x,y,z
-x,1/2+y,1/2-z
-x,-y,-z
x,1/2-y,1/2+z
loop_
_atom_site_type_symbol
_atom_site_label
_atom_site_fract_x
_atom_site_fract_y
_atom_site_fract_z
Si Si1 0.637477 0.047735 0.619031
Si Si2 0.988524 0.983089 0.141343
Si Si3 0.460094 0.799129 0.705636
Si Si4 0.318540 0.592685 0.360037
Si Si5 0.372969 0.334882 0.185784
Si Si6 0.115143 0.822791 0.439002
Si Si7 0.243236 0.146109 0.932784
Si Si8 0.062967 0.309549 0.647518
O O1 0.490998 0.095933 0.675890
O O2 0.779956 0.105627 0.577377
O O3 0.500000 0.000000 0.500000
O O4 0.793966 0.001849 0.736771
O O5 0.776675 0.017778 0.161219
O O6 0.955999 0.903057 0.141671
O O7 0.000000 0.000000 0.000000
O O8 0.352485 0.865583 0.743923
O O9 0.486477 0.734275 0.802163
O O10 0.294431 0.786410 0.561823
O O11 0.714146 0.819225 0.728986
O O12 0.553061 0.602079 0.472314
O O13 0.116127 0.631951 0.383527
O O14 0.333457 0.327549 0.323516
O O15 0.136643 0.337255 0.069525
O O16 0.051899 0.760209 0.336275
O O17 0.154165 0.191391 0.025819
#
# Coordination Sequence:
#
# PCOD9249786 Si02
#       8
#     4   4   4   4   4   4   4   4
#     4  12  30  48  72 110 158 205 254 306 384 460
#     4  12  25  45  74 105 147 198 253 305 365 446
#     4  10  25  41  71 104 137 191 245 298 381 444
#     4  11  23  41  70 102 144 182 243 312 361 438
#     4  11  25  47  72 104 148 195 248 313 377 456
#     4  11  25  45  71 102 148 196 247 309 382 444
#     4  11  23  43  71 108 138 188 249 308 376 433
#     4  10  23  43  70 106 139 181 246 310 372 438
#
# _framework density 24.441994999999999
#
# number of rings (size 3 to 8) (size 9 to 14) (size 15 to 20)
#    0.000    1.000    2.500    2.625    5.250    5.500 
#    0.000    0.000    0.000    0.000    0.000    0.000 
#    0.000    0.000    0.000    0.000    0.000    0.000 
#
# Total GULP energy -178590.291610 kJ/mol
# GULP energy per Si atom -5580.946613 kJ/mol
# Density = 2.438636 g / cm^3
# Si number density = 24.441995 Si / 1000 Ang^3
#
#
#
# Elastic Constant Matrix: (Units=GPa)
#
#
# Indices 1 2 3 4 5 6 
#
# 1 113.3982 20.3933 46.0997 0.0000 15.6784 0.0000
# 2 20.3933 83.4207 13.4187 0.0000 2.6711 0.0000
# 3 46.0997 13.4187 103.5042 0.0000 36.8204 0.0000
# 4 0.0000 0.0000 0.0000 23.4556 0.0000 22.9147
# 5 15.6784 2.6711 36.8204 0.0000 34.1864 0.0000
# 6 0.0000 0.0000 0.0000 22.9147 0.0000 19.6716
#
#
#
# Elastic Compliance Matrix: (Units=1/GPa)
#
#
# Indices 1 2 3 4 5 6 
#
# 1 0.011072 -0.001950 -0.004744 0.000000 0.000184 0.000000
# 2 -0.001950 0.012618 -0.001191 0.000000 0.001191 0.000000
# 3 -0.004744 -0.001191 0.018030 0.000000 -0.017150 0.000000
# 4 0.000000 0.000000 0.000000 -0.308954 0.000000 0.359888
# 5 0.000184 0.001191 -0.017150 0.000000 0.047545 0.000000
# 6 0.000000 0.000000 0.000000 0.359888 0.000000 -0.368384
#
#
# Mechanical properties :
#
#
# Convention : Reuss Voigt Hill
#
# Bulk Modulus (GPa) = 38.53626 51.12738 44.83182
# Shear Modulus (GPa) = -8.87071 30.15682 10.64306
#
# Velocity S-wave (km/s) = -1.90714 3.51638 2.08899
# Velocity P-wave (km/s) = 3.30924 6.11962 4.91939
#
# Compressibility (1/GPa) = 0.02594958
#
# Stress axis : x y z
#
# Youngs Moduli (GPa) = 90.31542 79.25496 55.46336
#
# Poissons Ratio (x) = 0.15451 0.26313
# Poissons Ratio (y) = 0.17607 0.06607
# Poissons Ratio (z) = 0.42848 0.09441
#
# Static dielectric constant tensor:
#      x y z
#    x 2.021880 0.000000 -0.048620 
#    y 0.000000 2.570280 0.000000 
#    z -0.048620 0.000000 2.104040 
# 
# From -- ./inp_files/22196.got.cif
#   From: 2010.05.17/outbox.cif.g08.bks.cpg/sg14_12_cif.got.tgz:22196.got - 2010.06.03 17:49:19.
