data_PCOD9249114
_publ_section_title
;
Structure prediction by ZEFSAII (Michael W. Deem and Ramdas Pophale) SiO2 
 PCOD9249114
Probable space group: P 21/C
;
_chemical_formula_sum "Si O2"
_cell_formula_units_Z 28
_cell_length_a 5.524059
_cell_length_b 8.930597
_cell_length_c 21.777219
_cell_angle_alpha 90.000000
_cell_angle_beta 81.890333
_cell_angle_gamma 90.000000
_cell_volume 1063.595171
_symmetry_space_group_name_H-M "P 21/C"
_symmetry_group_IT_number 14
_symmetry_cell_setting 'monoclinic'
loop_
_space_group_symop_operation_xyz
x,y,z
-x,1/2+y,1/2-z
-x,-y,-z
x,1/2-y,1/2+z
loop_
_atom_site_type_symbol
_atom_site_label
_atom_site_fract_x
_atom_site_fract_y
_atom_site_fract_z
Si Si1 0.572251 0.647119 0.681656
Si Si2 0.974287 0.530905 0.090875
Si Si3 0.715886 0.839335 0.344404
Si Si4 0.309198 0.769751 0.443056
Si Si5 0.687387 0.304831 0.427810
Si Si6 0.003043 0.072368 0.124067
Si Si7 0.377343 0.460985 0.781235
O O1 0.491023 0.731109 0.622240
O O2 0.798908 0.538508 0.659944
O O3 0.352934 0.550658 0.719117
O O4 0.611844 0.783913 0.727303
O O5 0.803304 0.438123 0.050723
O O6 0.833450 0.518325 0.161359
O O7 0.211977 0.431971 0.096555
O O8 0.073621 0.697007 0.078177
O O9 0.472113 0.758200 0.376295
O O10 0.628760 0.966283 0.299614
O O11 0.918911 0.708961 0.333424
O O12 0.429882 0.720261 0.501917
O O13 0.098180 0.652804 0.433579
O O14 0.776163 0.469845 0.407784
#
# Coordination Sequence:
#
# PCOD9249114 Si02
#       7
#     4   4   4   4   4   4   4
#     4  12  28  45  73 102 147 185 242 304 353 428
#     4  10  22  46  71 102 140 184 239 287 357 428
#     4  10  23  47  71 100 140 189 234 284 362 421
#     4  10  24  43  74 103 146 185 232 297 353 434
#     4  12  24  45  70 110 139 188 238 290 365 426
#     4  11  25  45  70 107 142 184 232 295 360 429
#     4  11  26  49  68 102 144 185 243 305 350 429
#
# _framework density 26.325804999999999
#
# number of rings (size 3 to 8) (size 9 to 14) (size 15 to 20)
#    0.000    1.143    2.857    1.714    8.000    6.286 
#    0.000    0.000    0.000    0.000    0.000    0.000 
#    0.000    0.000    0.000    0.000    0.000    0.000 
#
# Total GULP energy -156544.827978 kJ/mol
# GULP energy per Si atom -5590.886714 kJ/mol
# Density = 2.626589 g / cm^3
# Si number density = 26.325805 Si / 1000 Ang^3
#
#
#
# Elastic Constant Matrix: (Units=GPa)
#
#
# Indices 1 2 3 4 5 6 
#
# 1 47.5494 18.7395 7.2780 0.0000 2.5299 0.0000
# 2 18.7395 156.5516 21.3414 0.0000 -3.1268 0.0000
# 3 7.2780 21.3414 82.5424 0.0000 3.7738 0.0000
# 4 0.0000 0.0000 0.0000 36.3364 0.0000 -2.3960
# 5 2.5299 -3.1268 3.7738 0.0000 34.6565 0.0000
# 6 0.0000 0.0000 0.0000 -2.3960 0.0000 53.5883
#
#
#
# Elastic Compliance Matrix: (Units=1/GPa)
#
#
# Indices 1 2 3 4 5 6 
#
# 1 0.022311 -0.002537 -0.001232 0.000000 -0.001723 0.000000
# 2 -0.002537 0.006931 -0.001613 0.000000 0.000986 0.000000
# 3 -0.001232 -0.001613 0.012707 0.000000 -0.001439 0.000000
# 4 0.000000 0.000000 0.000000 0.027602 0.000000 0.001234
# 5 -0.001723 0.000986 -0.001439 0.000000 0.029226 0.000000
# 6 0.000000 0.000000 0.000000 0.001234 0.000000 0.018716
#
#
# Mechanical properties :
#
#
# Convention : Reuss Voigt Hill
#
# Bulk Modulus (GPa) = 32.06906 42.37347 37.22127
# Shear Modulus (GPa) = 36.06131 40.86855 38.46493
#
# Velocity S-wave (km/s) = 3.70511 3.94434 3.82660
# Velocity P-wave (km/s) = 5.52375 6.07244 5.80458
#
# Compressibility (1/GPa) = 0.03118270
#
# Stress axis : x y z
#
# Youngs Moduli (GPa) = 44.82098 144.27922 78.69925
#
# Poissons Ratio (x) = 0.36605 0.09699
# Poissons Ratio (y) = 0.11371 0.12697
# Poissons Ratio (z) = 0.05524 0.23278
#
# Static dielectric constant tensor:
#      x y z
#    x 2.054560 0.000000 0.020350 
#    y 0.000000 2.038270 0.000000 
#    z 0.020350 0.000000 2.090500 
# 
# From -- ./inp_files/75654.got.cif
#   From: 2010.05.17/outbox.cif.g08.bks.cpg/sg14_38_cif.got.tgz:75654.got - 2010.06.03 17:49:19.
