data_PCOD9249172
_publ_section_title
;
Structure prediction by ZEFSAII (Michael W. Deem and Ramdas Pophale) SiO2 
 PCOD9249172
Probable space group: P 21/C
;
_chemical_formula_sum "Si O2"
_cell_formula_units_Z 24
_cell_length_a 11.385386
_cell_length_b 11.695566
_cell_length_c 10.940102
_cell_angle_alpha 90.000000
_cell_angle_beta 38.965239
_cell_angle_gamma 90.000000
_cell_volume 916.086748
_symmetry_space_group_name_H-M "P 21/C"
_symmetry_group_IT_number 14
_symmetry_cell_setting 'monoclinic'
loop_
_space_group_symop_operation_xyz
x,y,z
-x,1/2+y,1/2-z
-x,-y,-z
x,1/2-y,1/2+z
loop_
_atom_site_type_symbol
_atom_site_label
_atom_site_fract_x
_atom_site_fract_y
_atom_site_fract_z
Si Si1 0.383856 0.908190 0.168048
Si Si2 0.533890 0.823289 0.477314
Si Si3 0.209839 0.305912 0.446324
Si Si4 0.815431 0.229059 0.860355
Si Si5 0.289897 0.446686 0.972996
Si Si6 0.081843 0.965396 0.067609
O O1 0.215846 0.870491 0.215135
O O2 0.317725 0.961626 0.346332
O O3 0.500000 0.000000 0.000000
O O4 0.503654 0.792406 0.080077
O O5 0.364124 0.810114 0.518142
O O6 0.451674 0.070962 0.442932
O O7 0.726308 0.814527 0.246850
O O8 0.238677 0.437561 0.467951
O O9 0.998642 0.292443 0.666851
O O10 0.285769 0.180142 0.417243
O O11 0.834238 0.162315 0.974269
O O12 0.094608 0.466808 0.198924
O O13 0.000000 0.000000 0.000000
#
# Coordination Sequence:
#
# PCOD9249172 Si02
#       6
#     4   4   4   4   4   4
#     4  10  22  47  73 110 147 207 267 311 393 473
#     4  10  23  48  75 106 155 207 258 325 385 467
#     4  11  23  46  74 109 153 207 255 323 392 467
#     4   9  25  47  75 108 156 206 259 312 401 474
#     4  11  23  45  79 112 156 203 261 331 391 459
#     4  11  24  46  76 120 158 204 262 329 392 473
#
# _framework density 26.198391000000001
#
# number of rings (size 3 to 8) (size 9 to 14) (size 15 to 20)
#    1.000    0.667    3.333    0.000    2.333    4.000 
#   12.000    2.500    0.000    0.000    0.000    0.000 
#    0.000    0.000    0.000    0.000    0.000    0.000 
#
# Total GULP energy -134073.365429 kJ/mol
# GULP energy per Si atom -5586.390226 kJ/mol
# Density = 2.613876 g / cm^3
# Si number density = 26.198391 Si / 1000 Ang^3
#
#
#
# Elastic Constant Matrix: (Units=GPa)
#
#
# Indices 1 2 3 4 5 6 
#
# 1 79.5540 37.9646 9.7654 0.0000 20.1351 0.0000
# 2 37.9646 87.0709 40.9139 0.0000 11.0622 0.0000
# 3 9.7654 40.9139 110.0633 0.0000 24.6392 0.0000
# 4 0.0000 0.0000 0.0000 61.2098 0.0000 11.1602
# 5 20.1351 11.0622 24.6392 0.0000 31.8616 0.0000
# 6 0.0000 0.0000 0.0000 11.1602 0.0000 73.6703
#
#
#
# Elastic Compliance Matrix: (Units=1/GPa)
#
#
# Indices 1 2 3 4 5 6 
#
# 1 0.019516 -0.008989 0.004441 0.000000 -0.012646 0.000000
# 2 -0.008989 0.018083 -0.007003 0.000000 0.004818 0.000000
# 3 0.004441 -0.007003 0.013761 0.000000 -0.011017 0.000000
# 4 0.000000 0.000000 0.000000 0.016801 0.000000 -0.002545
# 5 -0.012646 0.004818 -0.011017 0.000000 0.046225 0.000000
# 6 0.000000 0.000000 0.000000 -0.002545 0.000000 0.013960
#
#
# Mechanical properties :
#
#
# Convention : Reuss Voigt Hill
#
# Bulk Modulus (GPa) = 35.38905 50.44178 42.91541
# Shear Modulus (GPa) = 31.08164 45.88461 38.48313
#
# Velocity S-wave (km/s) = 3.44815 4.18955 3.83680
# Velocity P-wave (km/s) = 5.42129 6.53442 6.00371
#
# Compressibility (1/GPa) = 0.02825733
#
# Stress axis : x y z
#
# Youngs Moduli (GPa) = 51.24106 55.30071 72.66820
#
# Poissons Ratio (x) = 0.49712 -0.32273
# Poissons Ratio (y) = 0.46062 0.50890
# Poissons Ratio (z) = -0.22757 0.38727
#
# Static dielectric constant tensor:
#      x y z
#    x 2.237460 0.000000 -0.012210 
#    y 0.000000 2.150400 0.000000 
#    z -0.012210 0.000000 1.963650 
# 
# From -- ./inp_files/32145.got.cif
#   From: 2010.05.17/outbox.cif.g08.bks.cpg/sg14_17_cif.got.tgz:32145.got - 2010.06.03 17:49:19.
