data_PCOD9249551
_publ_section_title
;
Structure prediction by ZEFSAII (Michael W. Deem and Ramdas Pophale) SiO2 
 PCOD9249551
Probable space group: P 21/C
;
_chemical_formula_sum "Si O2"
_cell_formula_units_Z 28
_cell_length_a 16.271902
_cell_length_b 7.573493
_cell_length_c 19.480530
_cell_angle_alpha 90.000000
_cell_angle_beta 153.043392
_cell_angle_gamma 90.000000
_cell_volume 1088.268260
_symmetry_space_group_name_H-M "P 21/C"
_symmetry_group_IT_number 14
_symmetry_cell_setting 'monoclinic'
loop_
_space_group_symop_operation_xyz
x,y,z
-x,1/2+y,1/2-z
-x,-y,-z
x,1/2-y,1/2+z
loop_
_atom_site_type_symbol
_atom_site_label
_atom_site_fract_x
_atom_site_fract_y
_atom_site_fract_z
Si Si1 0.393657 0.772192 0.436921
Si Si2 0.109772 0.293438 0.009238
Si Si3 0.492843 0.188714 0.341985
Si Si4 0.084086 0.800291 0.488885
Si Si5 0.751775 0.480237 0.572485
Si Si6 0.522903 0.287575 0.161287
Si Si7 0.937051 0.501174 0.284543
O O1 0.556575 0.787632 0.612932
O O2 0.301644 0.585862 0.391142
O O3 0.419662 0.785690 0.376367
O O4 0.267597 0.935749 0.367550
O O5 0.323703 0.261003 0.174877
O O6 0.069017 0.494289 0.961355
O O7 0.015073 0.260401 0.012404
O O8 0.031944 0.153234 0.898747
O O9 0.666008 0.315628 0.465633
O O10 0.525611 0.984803 0.351763
O O11 0.298198 0.765303 0.662758
O O12 0.984887 0.680107 0.359096
O O13 0.642447 0.649804 0.464542
O O14 0.962443 0.494081 0.713432
#
# Coordination Sequence:
#
# PCOD9249551 Si02
#       7
#     4   4   4   4   4   4   4
#     4  10  24  46  66  99 134 177 232 275 335 412
#     4  11  22  43  69 100 132 173 232 279 330 410
#     4  10  23  42  65  99 130 168 230 273 340 400
#     4  11  23  39  72 104 129 177 230 277 342 402
#     4  10  27  42  64  99 136 178 229 275 351 403
#     4  12  20  45  72  96 136 179 227 286 330 406
#     4  12  24  46  67  95 145 177 222 289 345 411
#
# _framework density 25.728950000000001
#
# number of rings (size 3 to 8) (size 9 to 14) (size 15 to 20)
#    0.857    0.286    4.286    2.143    0.000    3.429 
#    5.143    0.000    0.000    0.000    0.000    0.000 
#    0.000    0.000    0.000    0.000    0.000    0.000 
#
# Total GULP energy -156825.470183 kJ/mol
# GULP energy per Si atom -5600.909649 kJ/mol
# Density = 2.567039 g / cm^3
# Si number density = 25.728950 Si / 1000 Ang^3
#
#
#
# Elastic Constant Matrix: (Units=GPa)
#
#
# Indices 1 2 3 4 5 6 
#
# 1 89.0098 27.0848 6.8390 0.0000 4.6796 0.0000
# 2 27.0848 110.2480 -5.6030 0.0000 7.4963 0.0000
# 3 6.8390 -5.6030 67.5624 0.0000 -8.2527 0.0000
# 4 0.0000 0.0000 0.0000 33.0725 0.0000 13.1665
# 5 4.6796 7.4963 -8.2527 0.0000 31.3665 0.0000
# 6 0.0000 0.0000 0.0000 13.1665 0.0000 -52.6992
#
#
#
# Elastic Compliance Matrix: (Units=1/GPa)
#
#
# Indices 1 2 3 4 5 6 
#
# 1 0.012365 -0.003017 -0.001694 0.000000 -0.001569 0.000000
# 2 -0.003017 0.009974 0.000926 0.000000 -0.001690 0.000000
# 3 -0.001694 0.000926 0.015553 0.000000 0.004123 0.000000
# 4 0.000000 0.000000 0.000000 0.027501 0.000000 0.006871
# 5 -0.001569 -0.001690 0.004123 0.000000 0.033604 0.000000
# 6 0.000000 0.000000 0.000000 0.006871 0.000000 -0.017259
#
#
# Mechanical properties :
#
#
# Convention : Reuss Voigt Hill
#
# Bulk Modulus (GPa) = 32.97846 35.94018 34.45932
# Shear Modulus (GPa) = 50.29403 18.24792 34.27098
#
# Velocity S-wave (km/s) = 4.42607 2.66604 3.65362
# Velocity P-wave (km/s) = 6.24224 4.84522 5.58756
#
# Compressibility (1/GPa) = 0.03032283
#
# Stress axis : x y z
#
# Youngs Moduli (GPa) = 80.87040 100.26398 64.29611
#
# Poissons Ratio (x) = 0.30252 0.10889
# Poissons Ratio (y) = 0.24400 -0.05955
# Poissons Ratio (z) = 0.13696 -0.09286
#
# Static dielectric constant tensor:
#      x y z
#    x 2.058810 0.000000 0.045100 
#    y 0.000000 1.975510 0.000000 
#    z 0.045100 0.000000 1.982920 
# 
# From -- ./inp_files/68245.got.cif
#   From: 2010.05.17/outbox.cif.g08.bks.cpg/sg14_35_cif.got.tgz:68245.got - 2010.06.03 17:49:19.
