data_PCOD9249619
_publ_section_title
;
Structure prediction by ZEFSAII (Michael W. Deem and Ramdas Pophale) SiO2 
 PCOD9249619
Probable space group: P 21/C
;
_chemical_formula_sum "Si O2"
_cell_formula_units_Z 32
_cell_length_a 16.263975
_cell_length_b 11.578735
_cell_length_c 8.344628
_cell_angle_alpha 90.000000
_cell_angle_beta 71.258803
_cell_angle_gamma 90.000000
_cell_volume 1488.111158
_symmetry_space_group_name_H-M "P 21/C"
_symmetry_group_IT_number 14
_symmetry_cell_setting 'monoclinic'
loop_
_space_group_symop_operation_xyz
x,y,z
-x,1/2+y,1/2-z
-x,-y,-z
x,1/2-y,1/2+z
loop_
_atom_site_type_symbol
_atom_site_label
_atom_site_fract_x
_atom_site_fract_y
_atom_site_fract_z
Si Si1 0.250075 0.850993 0.341131
Si Si2 0.956705 0.654800 0.462565
Si Si3 0.443543 0.630350 0.710216
Si Si4 0.978153 0.609798 0.820602
Si Si5 0.272250 0.598724 0.272583
Si Si6 0.455906 0.612336 0.315144
Si Si7 0.875545 0.093450 0.339492
Si Si8 0.839042 0.473891 0.354241
O O1 0.346797 0.868064 0.347432
O O2 0.260840 0.733562 0.234192
O O3 0.169578 0.823021 0.507096
O O4 0.223541 0.965135 0.259547
O O5 0.949851 0.621108 0.651363
O O6 0.942097 0.788832 0.449376
O O7 0.890230 0.584731 0.391531
O O8 0.055455 0.634238 0.336593
O O9 0.436639 0.627490 0.518838
O O10 0.487268 0.506774 0.729814
O O11 0.483914 0.756589 0.737837
O O12 0.935391 0.492168 0.903097
O O13 0.081077 0.608338 0.742794
O O14 0.371883 0.583467 0.257216
O O15 0.211590 0.535289 0.180246
O O16 0.220911 0.570994 0.466629
#
# Coordination Sequence:
#
# PCOD9249619 Si02
#       8
#     4   4   4   4   4   4   4   4
#     4  11  23  35  64  93 114 150 200 250 289 354
#     4  11  23  38  56  79 118 158 195 244 294 347
#     4  10  23  44  64  98 127 161 199 256 307 377
#     4  11  23  38  56  80 116 158 198 241 294 350
#     4  11  19  39  62  90 112 158 192 251 293 344
#     4  10  23  42  69  93 129 159 203 251 314 370
#     4  11  23  38  57  85 119 149 201 245 292 345
#     4  11  21  38  58  82 118 150 198 245 295 340
#
# _framework density 21.503769999999999
#
# number of rings (size 3 to 8) (size 9 to 14) (size 15 to 20)
#    0.000    1.250    3.750    3.000    8.750    1.500 
#    0.000    2.500    0.000    0.000    0.000    0.000 
#    0.000    0.000    0.000    0.000    0.000    0.000 
#
# Total GULP energy -178152.710574 kJ/mol
# GULP energy per Si atom -5567.272205 kJ/mol
# Density = 2.145483 g / cm^3
# Si number density = 21.503770 Si / 1000 Ang^3
#
#
#
# Elastic Constant Matrix: (Units=GPa)
#
#
# Indices 1 2 3 4 5 6 
#
# 1 92.5297 36.3298 10.7834 0.0000 5.3219 0.0000
# 2 36.3298 77.8066 7.1708 0.0000 -13.9538 0.0000
# 3 10.7834 7.1708 34.1000 0.0000 -4.7292 0.0000
# 4 0.0000 0.0000 0.0000 31.1360 0.0000 1.9211
# 5 5.3219 -13.9538 -4.7292 0.0000 30.1000 0.0000
# 6 0.0000 0.0000 0.0000 1.9211 0.0000 29.8762
#
#
#
# Elastic Compliance Matrix: (Units=1/GPa)
#
#
# Indices 1 2 3 4 5 6 
#
# 1 0.014688 -0.007711 -0.003966 0.000000 -0.006795 0.000000
# 2 -0.007711 0.018214 -0.000032 0.000000 0.009802 0.000000
# 3 -0.003966 -0.000032 0.031365 0.000000 0.005614 0.000000
# 4 0.000000 0.000000 0.000000 0.032245 0.000000 -0.002073
# 5 -0.006795 0.009802 0.005614 0.000000 0.039850 0.000000
# 6 0.000000 0.000000 0.000000 -0.002073 0.000000 0.033605
#
#
# Mechanical properties :
#
#
# Convention : Reuss Voigt Hill
#
# Bulk Modulus (GPa) = 24.48060 34.77826 29.62943
# Shear Modulus (GPa) = 24.15452 28.23262 26.19357
#
# Velocity S-wave (km/s) = 3.35516 3.62735 3.49390
# Velocity P-wave (km/s) = 5.13989 5.80963 5.48499
#
# Compressibility (1/GPa) = 0.04084867
#
# Stress axis : x y z
#
# Youngs Moduli (GPa) = 68.08302 54.90345 31.88276
#
# Poissons Ratio (x) = 0.42338 0.12643
# Poissons Ratio (y) = 0.52501 0.00103
# Poissons Ratio (z) = 0.26998 0.00177
#
# Static dielectric constant tensor:
#      x y z
#    x 1.800530 0.000000 0.059010 
#    y 0.000000 1.834300 0.000000 
#    z 0.059010 0.000000 1.862200 
# 
# From -- ./inp_files/15772.got.cif
#   From: 2010.05.17/outbox.cif.g08.bks.cpg/sg14_8_cif.got.tgz:15772.got - 2010.06.03 17:49:19.
