data_PCOD9249183
_publ_section_title
;
Structure prediction by ZEFSAII (Michael W. Deem and Ramdas Pophale) SiO2 
 PCOD9249183
Probable space group: P 21/C
;
_chemical_formula_sum "Si O2"
_cell_formula_units_Z 28
_cell_length_a 24.494130
_cell_length_b 9.575668
_cell_length_c 9.151123
_cell_angle_alpha 90.000000
_cell_angle_beta 148.806077
_cell_angle_gamma 90.000000
_cell_volume 1111.685209
_symmetry_space_group_name_H-M "P 21/C"
_symmetry_group_IT_number 14
_symmetry_cell_setting 'monoclinic'
loop_
_space_group_symop_operation_xyz
x,y,z
-x,1/2+y,1/2-z
-x,-y,-z
x,1/2-y,1/2+z
loop_
_atom_site_type_symbol
_atom_site_label
_atom_site_fract_x
_atom_site_fract_y
_atom_site_fract_z
Si Si1 0.485640 0.851775 0.048894
Si Si2 0.839914 0.424179 0.398404
Si Si3 0.000000 0.000000 0.500000
Si Si4 0.085726 0.861764 0.403208
Si Si5 0.284115 0.333951 0.998438
Si Si6 0.000000 0.500000 0.500000
Si Si7 0.415121 0.904131 0.219920
Si Si8 0.771245 0.596935 0.807077
O O1 0.602197 0.787181 0.298157
O O2 0.455235 0.874059 0.147035
O O3 0.409398 0.741287 0.795101
O O4 0.500000 0.000000 0.000000
O O5 0.830543 0.260425 0.409422
O O6 0.889578 0.493300 0.654386
O O7 0.926743 0.431394 0.469357
O O8 0.741291 0.512912 0.120710
O O9 0.054412 0.911408 0.488781
O O10 0.124672 0.007560 0.409624
O O11 0.994192 0.838782 0.076751
O O12 0.278049 0.344001 0.157960
O O13 0.205669 0.221276 0.749625
O O14 0.500000 0.000000 0.500000
O O15 0.306558 0.988765 0.950573
#
# Coordination Sequence:
#
# PCOD9249183 Si02
#       8
#     4   4   2   4   4   2   4   4
#     4  12  25  47  76 109 148 199 253 312 378 447
#     4  11  25  46  76 104 144 186 247 301 369 445
#     4  10  26  44  70 110 136 196 236 302 380 438
#     4  11  25  46  74 106 141 189 244 303 367 444
#     4  12  27  49  71 111 151 191 248 311 375 449
#     4  10  22  48  66 102 146 182 236 304 366 448
#     4  12  26  49  75 109 150 201 251 309 380 458
#     4  12  28  47  72 109 151 193 249 311 379 448
#
# _framework density 25.186986999999998
#
# number of rings (size 3 to 8) (size 9 to 14) (size 15 to 20)
#    0.000    0.571    4.286    2.571    4.000    6.857 
#    0.000    0.000    0.000    0.000    0.000    0.000 
#    0.000    0.000    0.000    0.000    0.000    0.000 
#
# Total GULP energy -155920.260476 kJ/mol
# GULP energy per Si atom -5568.580731 kJ/mol
# Density = 2.512966 g / cm^3
# Si number density = 25.186987 Si / 1000 Ang^3
#
#
#
# Elastic Constant Matrix: (Units=GPa)
#
#
# Indices 1 2 3 4 5 6 
#
# 1 73.5264 23.7771 34.5490 0.0000 -15.3575 0.0000
# 2 23.7771 136.6789 56.8555 0.0000 -13.2266 0.0000
# 3 34.5490 56.8555 135.1056 0.0000 -24.5231 0.0000
# 4 0.0000 0.0000 0.0000 58.3653 0.0000 5.3149
# 5 -15.3575 -13.2266 -24.5231 0.0000 50.3985 0.0000
# 6 0.0000 0.0000 0.0000 5.3149 0.0000 25.4482
#
#
#
# Elastic Compliance Matrix: (Units=1/GPa)
#
#
# Indices 1 2 3 4 5 6 
#
# 1 0.016070 -0.001237 -0.003026 0.000000 0.003100 0.000000
# 2 -0.001237 0.008979 -0.003403 0.000000 0.000323 0.000000
# 3 -0.003026 -0.003403 0.010177 0.000000 0.003137 0.000000
# 4 0.000000 0.000000 0.000000 0.017466 0.000000 -0.003648
# 5 0.003100 0.000323 0.003137 0.000000 0.022398 0.000000
# 6 0.000000 0.000000 0.000000 -0.003648 0.000000 0.040057
#
#
# Mechanical properties :
#
#
# Convention : Reuss Voigt Hill
#
# Bulk Modulus (GPa) = 50.26972 63.96379 57.11676
# Shear Modulus (GPa) = 36.46706 42.18434 39.32570
#
# Velocity S-wave (km/s) = 3.80919 4.09693 3.95568
# Velocity P-wave (km/s) = 6.27284 6.91596 6.60224
#
# Compressibility (1/GPa) = 0.01989269
#
# Stress axis : x y z
#
# Youngs Moduli (GPa) = 62.22794 111.37568 98.26007
#
# Poissons Ratio (x) = 0.13774 0.29736
# Poissons Ratio (y) = 0.07696 0.33442
# Poissons Ratio (z) = 0.18832 0.37906
#
# Static dielectric constant tensor:
#      x y z
#    x 2.055970 0.000000 0.019000 
#    y 0.000000 2.145350 0.000000 
#    z 0.019000 0.000000 2.344210 
# 
# From -- ./inp_files/19694.got.cif
#   From: 2010.05.17/outbox.cif.g08.bks.cpg/sg14_10_cif.got.tgz:19694.got - 2010.06.03 17:49:19.
