data_PCOD9249812
_publ_section_title
;
Structure prediction by ZEFSAII (Michael W. Deem and Ramdas Pophale) SiO2 
 PCOD9249812
Probable space group: P 21/C
;
_chemical_formula_sum "Si O2"
_cell_formula_units_Z 28
_cell_length_a 5.483879
_cell_length_b 15.635575
_cell_length_c 16.447784
_cell_angle_alpha 90.000000
_cell_angle_beta 114.788583
_cell_angle_gamma 90.000000
_cell_volume 1280.349379
_symmetry_space_group_name_H-M "P 21/C"
_symmetry_group_IT_number 14
_symmetry_cell_setting 'monoclinic'
loop_
_space_group_symop_operation_xyz
x,y,z
-x,1/2+y,1/2-z
-x,-y,-z
x,1/2-y,1/2+z
loop_
_atom_site_type_symbol
_atom_site_label
_atom_site_fract_x
_atom_site_fract_y
_atom_site_fract_z
Si Si1 0.747191 0.053837 0.496657
Si Si2 0.349182 0.338091 0.856741
Si Si3 0.813383 0.521029 0.551852
Si Si4 0.869797 0.377037 0.688177
Si Si5 0.002338 0.277533 0.082392
Si Si6 0.038114 0.284750 0.408201
Si Si7 0.541426 0.245080 0.229126
O O1 0.605001 0.103028 0.402281
O O2 0.856520 0.131110 0.568560
O O3 0.500000 0.000000 0.500000
O O4 0.000000 0.000000 0.500000
O O5 0.263873 0.287196 0.924500
O O6 0.398704 0.268103 0.795099
O O7 0.091134 0.388016 0.788919
O O8 0.500000 0.500000 0.500000
O O9 0.891491 0.460031 0.636863
O O10 0.846637 0.620760 0.573897
O O11 0.000000 0.500000 0.500000
O O12 0.597961 0.347521 0.695464
O O13 0.917838 0.294681 0.635791
O O14 0.324229 0.290594 0.141347
O O15 0.934260 0.238273 0.983978
O O16 0.827607 0.279531 0.302764
#
# Coordination Sequence:
#
# PCOD9249812 Si02
#       7
#     4   4   4   4   4   4   4
#     4  12  28  46  74 107 139 189 247 309 364 429
#     4  10  24  47  69 101 145 195 237 295 376 429
#     4  12  27  44  71 114 143 187 249 301 371 431
#     4  10  24  45  71 103 147 195 235 305 361 440
#     4  11  23  44  75  99 144 188 245 295 370 438
#     4  11  23  44  77 105 147 194 244 302 365 453
#     4  10  23  43  73 103 136 204 239 288 372 435
#
# _framework density 21.869032000000001
#
# number of rings (size 3 to 8) (size 9 to 14) (size 15 to 20)
#    0.000    1.143    2.857    1.714   12.000    1.143 
#    5.143    0.000    0.000    0.000    0.000    0.000 
#    0.000    0.000    0.000    0.000    0.000    0.000 
#
# Total GULP energy -156186.658684 kJ/mol
# GULP energy per Si atom -5578.094953 kJ/mol
# Density = 2.181926 g / cm^3
# Si number density = 21.869032 Si / 1000 Ang^3
#
#
#
# Elastic Constant Matrix: (Units=GPa)
#
#
# Indices 1 2 3 4 5 6 
#
# 1 82.0560 16.0949 32.0224 0.0000 21.4957 0.0000
# 2 16.0949 91.2133 45.4821 0.0000 25.7961 0.0000
# 3 32.0224 45.4821 96.2421 0.0000 12.8129 0.0000
# 4 0.0000 0.0000 0.0000 34.4625 0.0000 1.2907
# 5 21.4957 25.7961 12.8129 0.0000 37.8399 0.0000
# 6 0.0000 0.0000 0.0000 1.2907 0.0000 44.1770
#
#
#
# Elastic Compliance Matrix: (Units=1/GPa)
#
#
# Indices 1 2 3 4 5 6 
#
# 1 0.016137 0.002314 -0.005270 0.000000 -0.008960 0.000000
# 2 0.002314 0.017300 -0.007540 0.000000 -0.010555 0.000000
# 3 -0.005270 -0.007540 0.015315 0.000000 0.002948 0.000000
# 4 0.000000 0.000000 0.000000 0.029049 0.000000 -0.000849
# 5 -0.008960 -0.010555 0.002948 0.000000 0.037714 0.000000
# 6 0.000000 0.000000 0.000000 -0.000849 0.000000 0.022661
#
#
# Mechanical properties :
#
#
# Convention : Reuss Voigt Hill
#
# Bulk Modulus (GPa) = 36.02372 50.74558 43.38465
# Shear Modulus (GPa) = 29.68750 35.02335 32.35543
#
# Velocity S-wave (km/s) = 3.68844 4.00622 3.85061
# Velocity P-wave (km/s) = 5.88623 6.68240 6.29691
#
# Compressibility (1/GPa) = 0.02775949
#
# Stress axis : x y z
#
# Youngs Moduli (GPa) = 61.97060 57.80353 65.29593
#
# Poissons Ratio (x) = -0.13378 0.34411
# Poissons Ratio (y) = -0.14343 0.49236
# Poissons Ratio (z) = 0.32659 0.43587
#
# Static dielectric constant tensor:
#      x y z
#    x 1.810700 0.000000 -0.001560 
#    y 0.000000 1.802140 0.000000 
#    z -0.001560 0.000000 1.802330 
# 
# From -- ./inp_files/53512.got.cif
#   From: 2010.05.17/outbox.cif.g08.bks.cpg/sg14_27_cif.got.tgz:53512.got - 2010.06.03 17:49:19.
