data_PCOD9249083
_publ_section_title
;
Structure prediction by ZEFSAII (Michael W. Deem and Ramdas Pophale) SiO2 
 PCOD9249083
Probable space group: P 21/C
;
_chemical_formula_sum "Si O2"
_cell_formula_units_Z 24
_cell_length_a 7.271215
_cell_length_b 8.893588
_cell_length_c 14.272636
_cell_angle_alpha 90.000000
_cell_angle_beta 86.246424
_cell_angle_gamma 90.000000
_cell_volume 920.991349
_symmetry_space_group_name_H-M "P 21/C"
_symmetry_group_IT_number 14
_symmetry_cell_setting 'monoclinic'
loop_
_space_group_symop_operation_xyz
x,y,z
-x,1/2+y,1/2-z
-x,-y,-z
x,1/2-y,1/2+z
loop_
_atom_site_type_symbol
_atom_site_label
_atom_site_fract_x
_atom_site_fract_y
_atom_site_fract_z
Si Si1 0.111563 0.625054 0.443360
Si Si2 0.643321 0.341229 0.385573
Si Si3 0.111329 0.415841 0.076216
Si Si4 0.458160 0.996811 0.637069
Si Si5 0.830819 0.545916 0.215355
Si Si6 0.727391 0.883685 0.180141
O O1 0.262484 0.674478 0.515515
O O2 0.962449 0.749190 0.424446
O O3 0.178861 0.540976 0.348689
O O4 0.000000 0.500000 0.500000
O O5 0.752495 0.461890 0.313341
O O6 0.425389 0.378229 0.398675
O O7 0.623142 0.171361 0.346244
O O8 0.025424 0.481271 0.175339
O O9 0.330675 0.435055 0.059874
O O10 0.000000 0.500000 0.000000
O O11 0.675992 0.998980 0.642509
O O12 0.396988 0.100522 0.724951
O O13 0.835133 0.727726 0.196984
#
# Coordination Sequence:
#
# PCOD9249083 Si02
#       6
#     4   4   4   4   4   4
#     4  12  26  42  64 101 135 174 220 278 339 393
#     4  10  22  46  67  96 136 175 222 277 332 400
#     4  12  25  44  68  97 134 175 222 278 333 397
#     4  10  23  44  70  99 132 174 231 268 332 401
#     4  10  24  44  72  97 132 180 220 275 335 397
#     4  10  23  43  68 100 130 178 224 273 334 400
#
# _framework density 26.058876000000001
#
# number of rings (size 3 to 8) (size 9 to 14) (size 15 to 20)
#    0.000    1.333    1.667    2.500    4.667    2.000 
#    3.000    0.000    0.000    0.000    0.000    0.000 
#    0.000    0.000    0.000    0.000    0.000    0.000 
#
# Total GULP energy -133986.242209 kJ/mol
# GULP energy per Si atom -5582.760092 kJ/mol
# Density = 2.599956 g / cm^3
# Si number density = 26.058876 Si / 1000 Ang^3
#
#
#
# Elastic Constant Matrix: (Units=GPa)
#
#
# Indices 1 2 3 4 5 6 
#
# 1 85.0175 27.2962 7.1195 0.0000 27.7138 0.0000
# 2 27.2962 112.1437 -6.7324 0.0000 2.2678 0.0000
# 3 7.1195 -6.7324 97.8583 0.0000 26.2040 0.0000
# 4 0.0000 0.0000 0.0000 37.5508 0.0000 -2.1889
# 5 27.7138 2.2678 26.2040 0.0000 42.7853 0.0000
# 6 0.0000 0.0000 0.0000 -2.1889 0.0000 47.4211
#
#
#
# Elastic Compliance Matrix: (Units=1/GPa)
#
#
# Indices 1 2 3 4 5 6 
#
# 1 0.016576 -0.003704 0.001629 0.000000 -0.011538 0.000000
# 2 -0.003704 0.009819 0.000529 0.000000 0.001555 0.000000
# 3 0.001629 0.000529 0.012472 0.000000 -0.008722 0.000000
# 4 0.000000 0.000000 0.000000 0.026702 0.000000 0.001233
# 5 -0.011538 0.001555 -0.008722 0.000000 0.036106 0.000000
# 6 0.000000 0.000000 0.000000 0.001233 0.000000 0.021145
#
#
# Mechanical properties :
#
#
# Convention : Reuss Voigt Hill
#
# Bulk Modulus (GPa) = 27.95224 38.93179 33.44202
# Shear Modulus (GPa) = 36.27467 43.37386 39.82426
#
# Velocity S-wave (km/s) = 3.73504 4.08420 3.91351
# Velocity P-wave (km/s) = 5.41761 6.10027 5.76905
#
# Compressibility (1/GPa) = 0.03577531
#
# Stress axis : x y z
#
# Youngs Moduli (GPa) = 60.32720 101.84444 80.17833
#
# Poissons Ratio (x) = 0.37719 -0.13061
# Poissons Ratio (y) = 0.22343 -0.04238
# Poissons Ratio (z) = -0.09827 -0.05384
#
# Static dielectric constant tensor:
#      x y z
#    x 2.025460 0.000000 0.210420 
#    y 0.000000 2.035840 0.000000 
#    z 0.210420 0.000000 2.165690 
# 
# From -- ./inp_files/38991.got.cif
#   From: 2010.05.17/outbox.cif.g08.bks.cpg/sg14_20_cif.got.tgz:38991.got - 2010.06.03 17:49:19.
