data_PCOD9249179
_publ_section_title
;
Structure prediction by ZEFSAII (Michael W. Deem and Ramdas Pophale) SiO2 
 PCOD9249179
Probable space group: P 21/C
;
_chemical_formula_sum "Si O2"
_cell_formula_units_Z 24
_cell_length_a 7.990903
_cell_length_b 8.998997
_cell_length_c 18.074331
_cell_angle_alpha 90.000000
_cell_angle_beta 44.361529
_cell_angle_gamma 90.000000
_cell_volume 908.747730
_symmetry_space_group_name_H-M "P 21/C"
_symmetry_group_IT_number 14
_symmetry_cell_setting 'monoclinic'
loop_
_space_group_symop_operation_xyz
x,y,z
-x,1/2+y,1/2-z
-x,-y,-z
x,1/2-y,1/2+z
loop_
_atom_site_type_symbol
_atom_site_label
_atom_site_fract_x
_atom_site_fract_y
_atom_site_fract_z
Si Si1 0.997665 0.369849 0.230798
Si Si2 0.462212 0.459157 0.598351
Si Si3 0.131907 0.784708 0.521446
Si Si4 0.678355 0.398566 0.807346
Si Si5 0.854011 0.887428 0.469083
Si Si6 0.784025 0.959109 0.123686
O O1 0.815495 0.511346 0.297365
O O2 0.817044 0.234512 0.305580
O O3 0.231139 0.440707 0.193523
O O4 0.101397 0.304815 0.120832
O O5 0.500000 0.500000 0.500000
O O6 0.623203 0.309040 0.555127
O O7 0.573715 0.557586 0.630890
O O8 0.057506 0.838498 0.462192
O O9 0.907726 0.685930 0.620289
O O10 0.864797 0.441583 0.939650
O O11 0.716409 0.420953 0.706885
O O12 0.400846 0.375687 0.912464
O O13 0.000000 0.000000 0.000000
#
# Coordination Sequence:
#
# PCOD9249179 Si02
#       6
#     4   4   4   4   4   4
#     4  12  28  48  79 117 162 211 269 334 403 473
#     4  11  25  45  83 113 153 206 270 320 398 483
#     4  10  24  48  79 112 157 207 268 321 401 472
#     4  12  29  50  81 116 164 213 269 335 403 479
#     4  11  27  50  77 116 166 204 270 334 398 472
#     4  10  22  47  77 106 154 203 268 317 392 484
#
# _framework density 26.409970999999999
#
# number of rings (size 3 to 8) (size 9 to 14) (size 15 to 20)
#    0.000    1.000    0.000    5.500   11.667    2.667 
#    3.000    0.000    0.000    0.000    0.000    0.000 
#    0.000    0.000    0.000    0.000    0.000    0.000 
#
# Total GULP energy -133918.334844 kJ/mol
# GULP energy per Si atom -5579.930618 kJ/mol
# Density = 2.634986 g / cm^3
# Si number density = 26.409971 Si / 1000 Ang^3
#
#
#
# Elastic Constant Matrix: (Units=GPa)
#
#
# Indices 1 2 3 4 5 6 
#
# 1 102.1434 50.8497 38.2340 0.0000 -5.0890 0.0000
# 2 50.8497 129.8892 23.3666 0.0000 -11.9017 0.0000
# 3 38.2340 23.3666 140.6648 0.0000 2.9134 0.0000
# 4 0.0000 0.0000 0.0000 29.1978 0.0000 -4.9834
# 5 -5.0890 -11.9017 2.9134 0.0000 36.6185 0.0000
# 6 0.0000 0.0000 0.0000 -4.9834 0.0000 55.5896
#
#
#
# Elastic Compliance Matrix: (Units=1/GPa)
#
#
# Indices 1 2 3 4 5 6 
#
# 1 0.013163 -0.004593 -0.002826 0.000000 0.000561 0.000000
# 2 -0.004593 0.009812 -0.000435 0.000000 0.002585 0.000000
# 3 -0.002826 -0.000435 0.007974 0.000000 -0.001169 0.000000
# 4 0.000000 0.000000 0.000000 0.034781 0.000000 0.003118
# 5 0.000561 0.002585 -0.001169 0.000000 0.028320 0.000000
# 6 0.000000 0.000000 0.000000 0.003118 0.000000 0.018268
#
#
# Mechanical properties :
#
#
# Convention : Reuss Voigt Hill
#
# Bulk Modulus (GPa) = 65.61863 66.39977 66.00920
# Shear Modulus (GPa) = 37.56371 41.63100 39.59736
#
# Velocity S-wave (km/s) = 3.77547 3.97462 3.87632
# Velocity P-wave (km/s) = 6.62614 6.80147 6.71437
#
# Compressibility (1/GPa) = 0.01523957
#
# Stress axis : x y z
#
# Youngs Moduli (GPa) = 75.97258 101.91427 125.41061
#
# Poissons Ratio (x) = 0.46810 0.35446
# Poissons Ratio (y) = 0.34895 0.05456
# Poissons Ratio (z) = 0.21473 0.04434
#
# Static dielectric constant tensor:
#      x y z
#    x 2.198130 0.000000 -0.032300 
#    y 0.000000 2.151600 0.000000 
#    z -0.032300 0.000000 2.173040 
# 
# From -- ./inp_files/55328.got.cif
#   From: 2010.05.17/outbox.cif.g08.bks.cpg/sg14_28_cif.got.tgz:55328.got - 2010.06.03 17:49:19.
