data_PCOD9249274
_publ_section_title
;
Structure prediction by ZEFSAII (Michael W. Deem and Ramdas Pophale) SiO2 
 PCOD9249274
Probable space group: P 21/C
;
_chemical_formula_sum "Si O2"
_cell_formula_units_Z 30
_cell_length_a 29.515826
_cell_length_b 8.195387
_cell_length_c 17.271373
_cell_angle_alpha 90.000000
_cell_angle_beta 18.451401
_cell_angle_gamma 90.000000
_cell_volume 1322.285418
_symmetry_space_group_name_H-M "P 21/C"
_symmetry_group_IT_number 14
_symmetry_cell_setting 'monoclinic'
loop_
_space_group_symop_operation_xyz
x,y,z
-x,1/2+y,1/2-z
-x,-y,-z
x,1/2-y,1/2+z
loop_
_atom_site_type_symbol
_atom_site_label
_atom_site_fract_x
_atom_site_fract_y
_atom_site_fract_z
Si Si1 0.088325 0.702727 0.167029
Si Si2 0.691089 0.449393 0.767882
Si Si3 0.683734 0.948106 0.960296
Si Si4 0.563265 0.746593 0.889851
Si Si5 0.100449 0.482473 0.002583
Si Si6 0.378135 0.068056 0.459298
Si Si7 0.000000 0.000000 0.500000
Si Si8 0.664569 0.066226 0.638976
O O1 0.070894 0.563505 0.131839
O O2 0.943814 0.792472 0.425401
O O3 0.184465 0.840093 0.969184
O O4 0.181379 0.639143 0.087926
O O5 0.668166 0.614518 0.756673
O O6 0.544558 0.345650 0.993746
O O7 0.709561 0.495022 0.827092
O O8 0.734760 0.000178 0.790666
O O9 0.824460 0.978566 0.783111
O O10 0.653127 0.756180 0.006888
O O11 0.545343 0.046910 0.208666
O O12 0.642095 0.895116 0.720358
O O13 0.459208 0.818051 0.125492
O O14 0.010469 0.551035 0.076058
O O15 0.350666 0.964952 0.426579
#
# Coordination Sequence:
#
# PCOD9249274 Si02
#       8
#     4   4   4   4   4   4   2   4
#     4  11  26  43  71  95 141 191 235 293 359 418
#     4  10  23  39  65 103 135 180 236 284 354 421
#     4  10  26  45  73 105 142 184 235 299 352 425
#     4   9  20  39  60  96 141 176 218 284 356 413
#     4  10  26  49  69  97 138 194 240 286 353 438
#     4  12  24  40  77 108 140 181 239 297 359 412
#     4   8  24  48  72  92 146 184 236 280 358 428
#     4  10  23  39  66 103 141 177 225 299 352 412
#
# _framework density 22.687992000000001
#
# number of rings (size 3 to 8) (size 9 to 14) (size 15 to 20)
#    0.800    1.067    0.000    1.600   11.200    7.467 
#    0.000    0.667    0.000    0.000    0.000    0.000 
#    0.000    0.000    0.000    0.000    0.000    0.000 
#
# Total GULP energy -167317.093442 kJ/mol
# GULP energy per Si atom -5577.236448 kJ/mol
# Density = 2.263635 g / cm^3
# Si number density = 22.687992 Si / 1000 Ang^3
#
#
#
# Elastic Constant Matrix: (Units=GPa)
#
#
# Indices 1 2 3 4 5 6 
#
# 1 94.6803 19.8030 19.7263 0.0000 -12.5553 0.0000
# 2 19.8030 74.7318 17.2943 0.0000 -13.7097 0.0000
# 3 19.7263 17.2943 52.3472 0.0000 -14.7966 0.0000
# 4 0.0000 0.0000 0.0000 33.2475 0.0000 -5.7975
# 5 -12.5553 -13.7097 -14.7966 0.0000 26.4118 0.0000
# 6 0.0000 0.0000 0.0000 -5.7975 0.0000 8.4983
#
#
#
# Elastic Compliance Matrix: (Units=1/GPa)
#
#
# Indices 1 2 3 4 5 6 
#
# 1 0.011995 -0.001925 -0.003035 0.000000 0.003002 0.000000
# 2 -0.001925 0.015572 -0.002843 0.000000 0.005575 0.000000
# 3 -0.003035 -0.002843 0.024192 0.000000 0.010634 0.000000
# 4 0.000000 0.000000 0.000000 0.034138 0.000000 0.023289
# 5 0.003002 0.005575 0.010634 0.000000 0.048141 0.000000
# 6 0.000000 0.000000 0.000000 0.023289 0.000000 0.133559
#
#
# Mechanical properties :
#
#
# Convention : Reuss Voigt Hill
#
# Bulk Modulus (GPa) = 27.66145 37.26739 32.46442
# Shear Modulus (GPa) = 16.93444 24.62723 20.78084
#
# Velocity S-wave (km/s) = 2.73501 3.29823 3.02973
# Velocity P-wave (km/s) = 4.71087 5.56472 5.15550
#
# Compressibility (1/GPa) = 0.03615139
#
# Stress axis : x y z
#
# Youngs Moduli (GPa) = 83.36742 64.21741 41.33525
#
# Poissons Ratio (x) = 0.12364 0.12547
# Poissons Ratio (y) = 0.16051 0.11753
# Poissons Ratio (z) = 0.25306 0.18259
#
# Static dielectric constant tensor:
#      x y z
#    x 1.843210 0.000000 0.018670 
#    y 0.000000 1.837280 0.000000 
#    z 0.018670 0.000000 1.840790 
# 
# From -- ./inp_files/62641.got.cif
#   From: 2010.05.17/outbox.cif.g08.bks.cpg/sg14_32_cif.got.tgz:62641.got - 2010.06.03 17:49:19.
