data_PCOD9249694
_publ_section_title
;
Structure prediction by ZEFSAII (Michael W. Deem and Ramdas Pophale) SiO2 
 PCOD9249694
Probable space group: P 21/C
;
_chemical_formula_sum "Si O2"
_cell_formula_units_Z 28
_cell_length_a 18.800141
_cell_length_b 7.546455
_cell_length_c 9.277169
_cell_angle_alpha 90.000000
_cell_angle_beta 123.719871
_cell_angle_gamma 90.000000
_cell_volume 1094.758815
_symmetry_space_group_name_H-M "P 21/C"
_symmetry_group_IT_number 14
_symmetry_cell_setting 'monoclinic'
loop_
_space_group_symop_operation_xyz
x,y,z
-x,1/2+y,1/2-z
-x,-y,-z
x,1/2-y,1/2+z
loop_
_atom_site_type_symbol
_atom_site_label
_atom_site_fract_x
_atom_site_fract_y
_atom_site_fract_z
Si Si1 0.337725 0.661459 0.470105
Si Si2 0.848985 0.106191 0.214790
Si Si3 0.579097 0.065402 0.237010
Si Si4 0.395441 0.293829 0.565626
Si Si5 0.057921 0.730681 0.911819
Si Si6 0.127039 0.120726 0.335969
Si Si7 0.223755 0.247917 0.713441
O O1 0.239845 0.711722 0.383251
O O2 0.359529 0.612717 0.328725
O O3 0.393763 0.818291 0.594690
O O4 0.358448 0.481188 0.583440
O O5 0.919634 0.192109 0.398252
O O6 0.889830 0.110154 0.103588
O O7 0.816872 0.923278 0.249070
O O8 0.484218 0.138393 0.095127
O O9 0.585673 0.863944 0.301649
O O10 0.322333 0.234619 0.369834
O O11 0.093842 0.558985 0.869580
O O12 0.958354 0.763317 0.778181
O O13 0.198307 0.208113 0.521572
O O14 0.171264 0.097431 0.231596
#
# Coordination Sequence:
#
# PCOD9249694 Si02
#       7
#     4   4   4   4   4   4   4
#     4  11  26  47  71 108 145 188 243 298 358 431
#     4  10  23  43  64  97 132 177 220 285 338 409
#     4  12  26  47  75 104 146 189 244 297 362 431
#     4  11  26  45  74 104 143 190 235 300 358 427
#     4  11  23  41  69  94 137 172 228 275 342 407
#     4  11  24  43  65 100 130 180 222 283 338 411
#     4  10  25  42  66  94 138 172 229 278 347 409
#
# _framework density 25.576409999999999
#
# number of rings (size 3 to 8) (size 9 to 14) (size 15 to 20)
#    0.000    1.143    1.429    3.000    8.000    7.429 
#    2.571    0.000    0.000    0.000    0.000    0.000 
#    0.000    0.000    0.000    0.000    0.000    0.000 
#
# Total GULP energy -156770.532280 kJ/mol
# GULP energy per Si atom -5598.947581 kJ/mol
# Density = 2.551820 g / cm^3
# Si number density = 25.576410 Si / 1000 Ang^3
#
#
#
# Elastic Constant Matrix: (Units=GPa)
#
#
# Indices 1 2 3 4 5 6 
#
# 1 123.0399 19.3237 58.4453 0.0000 20.4801 0.0000
# 2 19.3237 109.9133 48.2913 0.0000 -4.3435 0.0000
# 3 58.4453 48.2913 145.3772 0.0000 5.8489 0.0000
# 4 0.0000 0.0000 0.0000 39.3412 0.0000 -4.7285
# 5 20.4801 -4.3435 5.8489 0.0000 51.2325 0.0000
# 6 0.0000 0.0000 0.0000 -4.7285 0.0000 34.5570
#
#
#
# Elastic Compliance Matrix: (Units=1/GPa)
#
#
# Indices 1 2 3 4 5 6 
#
# 1 0.010747 -0.000248 -0.004083 0.000000 -0.003851 0.000000
# 2 -0.000248 0.010747 -0.003527 0.000000 0.001413 0.000000
# 3 -0.004083 -0.003527 0.009683 0.000000 0.000228 0.000000
# 4 0.000000 0.000000 0.000000 0.025844 0.000000 0.003536
# 5 -0.003851 0.001413 0.000228 0.000000 0.021152 0.000000
# 6 0.000000 0.000000 0.000000 0.003536 0.000000 0.029422
#
#
# Mechanical properties :
#
#
# Convention : Reuss Voigt Hill
#
# Bulk Modulus (GPa) = 64.68099 70.05012 67.36555
# Shear Modulus (GPa) = 38.92136 41.84416 40.38276
#
# Velocity S-wave (km/s) = 3.90522 4.04919 3.97786
# Velocity P-wave (km/s) = 6.75859 7.02206 6.89158
#
# Compressibility (1/GPa) = 0.01546049
#
# Stress axis : x y z
#
# Youngs Moduli (GPa) = 93.04955 93.04758 103.27565
#
# Poissons Ratio (x) = 0.02303 0.42172
# Poissons Ratio (y) = 0.02303 0.36429
# Poissons Ratio (z) = 0.37996 0.32821
#
# Static dielectric constant tensor:
#      x y z
#    x 2.002880 0.000000 0.016890 
#    y 0.000000 2.100680 0.000000 
#    z 0.016890 0.000000 1.987880 
# 
# From -- ./inp_files/18784.got.cif
#   From: 2010.05.17/outbox.cif.g08.bks.cpg/sg14_10_cif.got.tgz:18784.got - 2010.06.03 17:49:19.
