data_PCOD9249545
_publ_section_title
;
Structure prediction by ZEFSAII (Michael W. Deem and Ramdas Pophale) SiO2 
 PCOD9249545
Probable space group: P 21/C
;
_chemical_formula_sum "Si O2"
_cell_formula_units_Z 18
_cell_length_a 12.963589
_cell_length_b 4.734016
_cell_length_c 10.143956
_cell_angle_alpha 90.000000
_cell_angle_beta 101.636753
_cell_angle_gamma 90.000000
_cell_volume 609.737432
_symmetry_space_group_name_H-M "P 21/C"
_symmetry_group_IT_number 14
_symmetry_cell_setting 'monoclinic'
loop_
_space_group_symop_operation_xyz
x,y,z
-x,1/2+y,1/2-z
-x,-y,-z
x,1/2-y,1/2+z
loop_
_atom_site_type_symbol
_atom_site_label
_atom_site_fract_x
_atom_site_fract_y
_atom_site_fract_z
Si Si1 0.396572 0.870527 0.343194
Si Si2 0.000000 0.500000 0.500000
Si Si3 0.632840 0.868589 0.348314
Si Si4 0.940029 0.518661 0.791384
Si Si5 0.229882 0.951444 0.955580
O O1 0.520763 0.822435 0.393173
O O2 0.363947 0.682508 0.208111
O O3 0.321387 0.768200 0.440242
O O4 0.378648 0.186391 0.290010
O O5 0.050738 0.219520 0.584605
O O6 0.124829 0.640894 0.505887
O O7 0.721202 0.715332 0.456262
O O8 0.825754 0.510988 0.700572
O O9 0.995285 0.206447 0.808526
#
# Coordination Sequence:
#
# PCOD9249545 Si02
#       5
#     4   2   4   4   4
#     4  10  23  42  65  95 130 165 213 265 323 376
#     4  10  24  42  64  94 132 168 210 260 314 376
#     4  10  23  43  66  95 127 167 214 268 318 377
#     4  10  24  43  63  92 128 169 214 259 312 374
#     4  11  23  41  68  95 129 172 215 261 317 382
#
# _framework density 29.520899
#
# number of rings (size 3 to 8) (size 9 to 14) (size 15 to 20)
#    0.000    1.778    0.000    2.000    0.000   19.556 
#    0.000    6.667    0.000    0.000    0.000    0.000 
#    0.000    0.000    0.000    0.000    0.000    0.000 
#
# Total GULP energy -100694.986592 kJ/mol
# GULP energy per Si atom -5594.165922 kJ/mol
# Density = 2.945371 g / cm^3
# Si number density = 29.520899 Si / 1000 Ang^3
#
#
#
# Elastic Constant Matrix: (Units=GPa)
#
#
# Indices 1 2 3 4 5 6 
#
# 1 230.1616 15.2527 20.2485 0.0000 -15.7920 0.0000
# 2 15.2527 141.3176 -0.2545 0.0000 -9.5109 0.0000
# 3 20.2485 -0.2545 75.9279 0.0000 -3.1531 0.0000
# 4 0.0000 0.0000 0.0000 38.5318 0.0000 -8.0764
# 5 -15.7920 -9.5109 -3.1531 0.0000 61.1890 0.0000
# 6 0.0000 0.0000 0.0000 -8.0764 0.0000 32.7715
#
#
#
# Elastic Compliance Matrix: (Units=1/GPa)
#
#
# Indices 1 2 3 4 5 6 
#
# 1 0.004548 -0.000422 -0.001171 0.000000 0.001048 0.000000
# 2 -0.000422 0.007191 0.000179 0.000000 0.001018 0.000000
# 3 -0.001171 0.000179 0.013501 0.000000 0.000421 0.000000
# 4 0.000000 0.000000 0.000000 0.027366 0.000000 0.006744
# 5 0.001048 0.001018 0.000421 0.000000 0.016793 0.000000
# 6 0.000000 0.000000 0.000000 0.006744 0.000000 0.032176
#
#
# Mechanical properties :
#
#
# Convention : Reuss Voigt Hill
#
# Bulk Modulus (GPa) = 44.62122 57.54448 51.08285
# Shear Modulus (GPa) = 44.69343 53.97582 49.33462
#
# Velocity S-wave (km/s) = 3.89518 4.28061 4.09244
# Velocity P-wave (km/s) = 5.94793 6.63073 6.29859
#
# Compressibility (1/GPa) = 0.02241086
#
# Stress axis : x y z
#
# Youngs Moduli (GPa) = 219.89410 139.06892 74.07027
#
# Poissons Ratio (x) = 0.05875 0.08671
# Poissons Ratio (y) = 0.09289 -0.01326
# Poissons Ratio (z) = 0.25742 -0.02490
#
# Static dielectric constant tensor:
#      x y z
#    x 2.182540 0.000000 -0.101010 
#    y 0.000000 2.165490 0.000000 
#    z -0.101010 0.000000 2.472050 
# 
# From -- ./inp_files/27431.got.cif
#   From: 2010.05.17/outbox.cif.g08.bks.cpg/sg14_14_cif.got.tgz:27431.got - 2010.06.03 17:49:19.
