data_PCOD9249293
_publ_section_title
;
Structure prediction by ZEFSAII (Michael W. Deem and Ramdas Pophale) SiO2 
 PCOD9249293
Probable space group: P 21/C
;
_chemical_formula_sum "Si O2"
_cell_formula_units_Z 28
_cell_length_a 11.271159
_cell_length_b 6.693021
_cell_length_c 20.196327
_cell_angle_alpha 90.000000
_cell_angle_beta 71.850136
_cell_angle_gamma 90.000000
_cell_volume 1447.767248
_symmetry_space_group_name_H-M "P 21/C"
_symmetry_group_IT_number 14
_symmetry_cell_setting 'monoclinic'
loop_
_space_group_symop_operation_xyz
x,y,z
-x,1/2+y,1/2-z
-x,-y,-z
x,1/2-y,1/2+z
loop_
_atom_site_type_symbol
_atom_site_label
_atom_site_fract_x
_atom_site_fract_y
_atom_site_fract_z
Si Si1 0.393771 0.218715 0.824796
Si Si2 0.802540 0.449274 0.568564
Si Si3 0.240990 0.609840 0.837135
Si Si4 0.163535 0.327213 0.183831
Si Si5 0.351510 0.904999 0.715040
Si Si6 0.071914 0.009100 0.092646
Si Si7 0.963767 0.628904 0.179088
O O1 0.340525 0.434630 0.814891
O O2 0.533010 0.265764 0.826046
O O3 0.293019 0.121215 0.892140
O O4 0.396206 0.065721 0.762663
O O5 0.739061 0.241939 0.601008
O O6 0.843003 0.472272 0.486204
O O7 0.931324 0.448300 0.589478
O O8 0.255243 0.760766 0.772118
O O9 0.106839 0.501775 0.863396
O O10 0.286148 0.464089 0.169193
O O11 0.134470 0.178460 0.128110
O O12 0.146346 0.207653 0.254901
O O13 0.049675 0.482143 0.205185
O O14 0.048448 0.805278 0.136723
#
# Coordination Sequence:
#
# PCOD9249293 Si02
#       7
#     4   4   4   4   4   4   4
#     4  11  21  39  62  89 123 159 208 260 304 361
#     4  10  23  40  59  87 124 165 210 249 303 375
#     4  11  20  37  62  91 123 155 203 260 308 366
#     4  12  23  36  59  93 127 156 199 258 323 368
#     4  11  23  37  61  95 122 160 208 259 313 368
#     4  11  23  39  59  89 126 163 202 254 310 377
#     4  12  21  36  61  93 125 155 195 258 324 367
#
# _framework density 19.340126000000001
#
# number of rings (size 3 to 8) (size 9 to 14) (size 15 to 20)
#    0.000    0.857    7.143    1.714    0.000    1.714 
#    0.000    0.714    0.000    1.714    0.000    0.000 
#    0.000    0.000    0.000    0.000    0.000    0.000 
#
# Total GULP energy -156136.388540 kJ/mol
# GULP energy per Si atom -5576.299591 kJ/mol
# Density = 1.929611 g / cm^3
# Si number density = 19.340126 Si / 1000 Ang^3
#
#
#
# Elastic Constant Matrix: (Units=GPa)
#
#
# Indices 1 2 3 4 5 6 
#
# 1 81.3399 27.8035 29.2143 0.0000 -9.5081 0.0000
# 2 27.8035 82.7013 29.7569 0.0000 0.8650 0.0000
# 3 29.2143 29.7569 90.9709 0.0000 -5.7353 0.0000
# 4 0.0000 0.0000 0.0000 9.3471 0.0000 1.4550
# 5 -9.5081 0.8650 -5.7353 0.0000 15.3467 0.0000
# 6 0.0000 0.0000 0.0000 1.4550 0.0000 45.1286
#
#
#
# Elastic Compliance Matrix: (Units=1/GPa)
#
#
# Indices 1 2 3 4 5 6 
#
# 1 0.015947 -0.004324 -0.003143 0.000000 0.008949 0.000000
# 2 -0.004324 0.014972 -0.003821 0.000000 -0.004951 0.000000
# 3 -0.003143 -0.003821 0.013459 0.000000 0.003298 0.000000
# 4 0.000000 0.000000 0.000000 0.107524 0.000000 -0.003467
# 5 0.008949 -0.004951 0.003298 0.000000 0.072217 0.000000
# 6 0.000000 0.000000 0.000000 -0.003467 0.000000 0.022271
#
#
# Mechanical properties :
#
#
# Convention : Reuss Voigt Hill
#
# Bulk Modulus (GPa) = 45.86446 47.61796 46.74121
# Shear Modulus (GPa) = 18.10064 25.18030 21.64047
#
# Velocity S-wave (km/s) = 3.06259 3.61220 3.34869
# Velocity P-wave (km/s) = 6.02263 6.48630 6.25876
#
# Compressibility (1/GPa) = 0.02180338
#
# Stress axis : x y z
#
# Youngs Moduli (GPa) = 62.70786 66.79120 74.29700
#
# Poissons Ratio (x) = 0.28881 0.23348
# Poissons Ratio (y) = 0.27116 0.28388
# Poissons Ratio (z) = 0.19706 0.25520
#
# Static dielectric constant tensor:
#      x y z
#    x 1.730350 0.000000 -0.002070 
#    y 0.000000 1.726590 0.000000 
#    z -0.002070 0.000000 1.641630 
# 
# From -- ./inp_files/66326.got.cif
#   From: 2010.05.17/outbox.cif.g08.bks.cpg/sg14_34_cif.got.tgz:66326.got - 2010.06.03 17:49:19.
