data_PCOD9249649
_publ_section_title
;
Structure prediction by ZEFSAII (Michael W. Deem and Ramdas Pophale) SiO2 
 PCOD9249649
Probable space group: P 21/C
;
_chemical_formula_sum "Si O2"
_cell_formula_units_Z 30
_cell_length_a 10.173732
_cell_length_b 8.309420
_cell_length_c 19.835232
_cell_angle_alpha 90.000000
_cell_angle_beta 40.124915
_cell_angle_gamma 90.000000
_cell_volume 1080.641622
_symmetry_space_group_name_H-M "P 21/C"
_symmetry_group_IT_number 14
_symmetry_cell_setting 'monoclinic'
loop_
_space_group_symop_operation_xyz
x,y,z
-x,1/2+y,1/2-z
-x,-y,-z
x,1/2-y,1/2+z
loop_
_atom_site_type_symbol
_atom_site_label
_atom_site_fract_x
_atom_site_fract_y
_atom_site_fract_z
Si Si1 0.692108 0.075542 0.963033
Si Si2 0.188113 0.104873 0.948398
Si Si3 0.579616 0.744371 0.844305
Si Si4 0.000000 0.500000 0.000000
Si Si5 0.362031 0.621537 0.166161
Si Si6 0.943278 0.850648 0.786509
Si Si7 0.403521 0.677696 0.783796
Si Si8 0.831479 0.618027 0.953814
O O1 0.886686 0.024032 0.842700
O O2 0.591815 0.237274 0.030522
O O3 0.500000 0.000000 0.000000
O O4 0.731737 0.967963 0.013686
O O5 0.106455 0.286553 0.998294
O O6 0.373446 0.118040 0.825784
O O7 0.000000 0.000000 0.000000
O O8 0.781921 0.834577 0.789949
O O9 0.465691 0.794439 0.821021
O O10 0.239192 0.554390 0.877877
O O11 0.070837 0.541880 0.054521
O O12 0.352572 0.437650 0.190929
O O13 0.328544 0.732561 0.245124
O O14 0.589037 0.636085 0.048802
O O15 0.184705 0.651939 0.181634
O O16 0.902953 0.710598 0.859127
#
# Coordination Sequence:
#
# PCOD9249649 Si02
#       8
#     4   4   4   2   4   4   4   4
#     4   9  22  44  70  99 143 191 254 307 382 469
#     4  10  24  41  72 106 147 200 256 323 387 461
#     4  11  25  44  73 108 149 199 259 317 395 473
#     4  12  22  42  72 106 158 212 262 316 398 466
#     4  11  24  48  73 109 155 195 260 327 387 461
#     4  10  23  50  72 104 152 203 254 321 392 468
#     4  11  26  44  72 111 157 201 266 323 390 471
#     4  10  23  42  71 103 150 202 251 324 382 460
#
# _framework density 27.761284
#
# number of rings (size 3 to 8) (size 9 to 14) (size 15 to 20)
#    0.000    1.600    2.667    0.000    7.467    0.533 
#   16.800    4.000    0.000    0.000    0.000    0.000 
#    0.000    0.000    0.000    0.000    0.000    0.000 
#
# Total GULP energy -167490.234490 kJ/mol
# GULP energy per Si atom -5583.007816 kJ/mol
# Density = 2.769810 g / cm^3
# Si number density = 27.761284 Si / 1000 Ang^3
#
#
#
# Elastic Constant Matrix: (Units=GPa)
#
#
# Indices 1 2 3 4 5 6 
#
# 1 163.5450 17.8208 72.9036 0.0000 -28.7198 0.0000
# 2 17.8208 60.4947 23.0362 0.0000 12.2946 0.0000
# 3 72.9036 23.0362 187.3179 0.0000 -19.3119 0.0000
# 4 0.0000 0.0000 0.0000 29.5349 0.0000 1.6657
# 5 -28.7198 12.2946 -19.3119 0.0000 54.0386 0.0000
# 6 0.0000 0.0000 0.0000 1.6657 0.0000 38.6708
#
#
#
# Elastic Compliance Matrix: (Units=1/GPa)
#
#
# Indices 1 2 3 4 5 6 
#
# 1 0.008168 -0.002263 -0.002492 0.000000 0.003966 0.000000
# 2 -0.002263 0.019309 -0.002150 0.000000 -0.006364 0.000000
# 3 -0.002492 -0.002150 0.006735 0.000000 0.001572 0.000000
# 4 0.000000 0.000000 0.000000 0.033941 0.000000 -0.001462
# 5 0.003966 -0.006364 0.001572 0.000000 0.022623 0.000000
# 6 0.000000 0.000000 0.000000 -0.001462 0.000000 0.025922
#
#
# Mechanical properties :
#
#
# Convention : Reuss Voigt Hill
#
# Bulk Modulus (GPa) = 49.01449 70.98651 60.00050
# Shear Modulus (GPa) = 36.41425 44.28866 40.35145
#
# Velocity S-wave (km/s) = 3.62566 3.99850 3.81664
# Velocity P-wave (km/s) = 5.93475 6.85151 6.40954
#
# Compressibility (1/GPa) = 0.02040213
#
# Stress axis : x y z
#
# Youngs Moduli (GPa) = 122.42339 51.78866 148.48277
#
# Poissons Ratio (x) = 0.11721 0.37001
# Poissons Ratio (y) = 0.27708 0.31922
# Poissons Ratio (z) = 0.30507 0.11134
#
# Static dielectric constant tensor:
#      x y z
#    x 0.250600 0.000000 0.690840 
#    y 0.000000 -2.952860 0.000000 
#    z 0.690840 0.000000 1.903770 
# 
# From -- ./inp_files/72350.got.cif
#   From: 2010.05.17/outbox.cif.g08.bks.cpg/sg14_37_cif.got.tgz:72350.got - 2010.06.03 17:49:19.
