data_PCOD9249949
_publ_section_title
;
Structure prediction by ZEFSAII (Michael W. Deem and Ramdas Pophale) SiO2 
 PCOD9249949
Probable space group: P 21/C
;
_chemical_formula_sum "Si O2"
_cell_formula_units_Z 20
_cell_length_a 11.744550
_cell_length_b 8.987699
_cell_length_c 9.040160
_cell_angle_alpha 90.000000
_cell_angle_beta 63.033985
_cell_angle_gamma 90.000000
_cell_volume 850.497537
_symmetry_space_group_name_H-M "P 21/C"
_symmetry_group_IT_number 14
_symmetry_cell_setting 'monoclinic'
loop_
_space_group_symop_operation_xyz
x,y,z
-x,1/2+y,1/2-z
-x,-y,-z
x,1/2-y,1/2+z
loop_
_atom_site_type_symbol
_atom_site_label
_atom_site_fract_x
_atom_site_fract_y
_atom_site_fract_z
Si Si1 0.242177 0.142919 0.715671
Si Si2 0.924114 0.379121 0.952413
Si Si3 0.537795 0.874274 0.860314
Si Si4 0.928726 0.813017 0.920293
Si Si5 0.635197 0.416419 0.054552
O O1 0.329592 0.290085 0.681368
O O2 0.146639 0.188804 0.635983
O O3 0.326801 0.003416 0.616684
O O4 0.178455 0.113469 0.912608
O O5 0.773114 0.389117 0.047766
O O6 0.972143 0.234766 0.010904
O O7 0.000000 0.500000 0.000000
O O8 0.983808 0.389205 0.754080
O O9 0.557971 0.964221 0.697218
O O10 0.436604 0.739619 0.916589
O O11 0.500000 0.000000 0.000000
#
# Coordination Sequence:
#
# PCOD9249949 Si02
#       5
#     4   4   4   4   4
#     4  11  21  49  77 111 155 198 250 322 385 454
#     4  11  23  48  74 113 153 196 254 313 388 463
#     4  12  28  49  75 108 152 206 263 314 378 461
#     4  10  23  44  77 109 153 197 248 322 387 458
#     4  12  26  49  78 110 154 207 259 319 379 456
#
# _framework density 23.515647999999999
#
# number of rings (size 3 to 8) (size 9 to 14) (size 15 to 20)
#    0.000    0.800    4.000    3.000    2.800    0.800 
#    0.000    0.000    0.000    0.000    0.000    0.000 
#    0.000    0.000    0.000    0.000    0.000    0.000 
#
# Total GULP energy -111808.155872 kJ/mol
# GULP energy per Si atom -5590.407794 kJ/mol
# Density = 2.346213 g / cm^3
# Si number density = 23.515648 Si / 1000 Ang^3
#
#
#
# Elastic Constant Matrix: (Units=GPa)
#
#
# Indices 1 2 3 4 5 6 
#
# 1 108.8885 49.6136 29.6972 0.0000 1.0573 0.0000
# 2 49.6136 143.5054 71.1030 0.0000 -11.3288 0.0000
# 3 29.6972 71.1030 187.8899 0.0000 11.6228 0.0000
# 4 0.0000 0.0000 0.0000 38.9186 0.0000 -2.9930
# 5 1.0573 -11.3288 11.6228 0.0000 25.0365 0.0000
# 6 0.0000 0.0000 0.0000 -2.9930 0.0000 40.9072
#
#
#
# Elastic Compliance Matrix: (Units=1/GPa)
#
#
# Indices 1 2 3 4 5 6 
#
# 1 0.011026 -0.003924 -0.000123 0.000000 -0.002184 0.000000
# 2 -0.003924 0.010792 -0.003888 0.000000 0.006854 0.000000
# 3 -0.000123 -0.003888 0.007126 0.000000 -0.005062 0.000000
# 4 0.000000 0.000000 0.000000 0.025840 0.000000 0.001891
# 5 -0.002184 0.006854 -0.005062 0.000000 0.045485 0.000000
# 6 0.000000 0.000000 0.000000 0.001891 0.000000 0.024584
#
#
# Mechanical properties :
#
#
# Convention : Reuss Voigt Hill
#
# Bulk Modulus (GPa) = 76.47703 82.34573 79.41138
# Shear Modulus (GPa) = 34.46341 40.29713 37.38027
#
# Velocity S-wave (km/s) = 3.83241 4.14409 3.99129
# Velocity P-wave (km/s) = 7.22326 7.61521 7.42182
#
# Compressibility (1/GPa) = 0.01307582
#
# Stress axis : x y z
#
# Youngs Moduli (GPa) = 90.69359 92.65846 140.32803
#
# Poissons Ratio (x) = 0.36355 0.01724
# Poissons Ratio (y) = 0.35584 0.54559
# Poissons Ratio (z) = 0.01114 0.36025
#
# Static dielectric constant tensor:
#      x y z
#    x 1.950220 0.000000 0.000260 
#    y 0.000000 2.091600 0.000000 
#    z 0.000260 0.000000 1.907650 
# 
# From -- ./inp_files/15185.got.cif
#   From: 2010.05.17/outbox.cif.g08.bks.cpg/sg14_8_cif.got.tgz:15185.got - 2010.06.03 17:49:19.
