data_PCOD9249610
_publ_section_title
;
Structure prediction by ZEFSAII (Michael W. Deem and Ramdas Pophale) SiO2 
 PCOD9249610
Probable space group: P 21/C
;
_chemical_formula_sum "Si O2"
_cell_formula_units_Z 32
_cell_length_a 13.716562
_cell_length_b 10.743640
_cell_length_c 15.800924
_cell_angle_alpha 90.000000
_cell_angle_beta 35.450791
_cell_angle_gamma 90.000000
_cell_volume 1350.547428
_symmetry_space_group_name_H-M "P 21/C"
_symmetry_group_IT_number 14
_symmetry_cell_setting 'monoclinic'
loop_
_space_group_symop_operation_xyz
x,y,z
-x,1/2+y,1/2-z
-x,-y,-z
x,1/2-y,1/2+z
loop_
_atom_site_type_symbol
_atom_site_label
_atom_site_fract_x
_atom_site_fract_y
_atom_site_fract_z
Si Si1 0.335948 0.203608 0.357861
Si Si2 0.701902 0.590386 0.413041
Si Si3 0.248739 0.973942 0.687088
Si Si4 0.469630 0.155864 0.615454
Si Si5 0.334424 0.969957 0.233002
Si Si6 0.741007 0.341108 0.465002
Si Si7 0.964533 0.697650 0.332475
Si Si8 0.677164 0.294200 0.705367
O O1 0.398874 0.325103 0.259523
O O2 0.347800 0.072152 0.298639
O O3 0.146461 0.236499 0.517005
O O4 0.474582 0.197357 0.333938
O O5 0.743363 0.543637 0.290371
O O6 0.503981 0.590604 0.571496
O O7 0.747987 0.485521 0.448275
O O8 0.830068 0.693594 0.351432
O O9 0.379855 0.935487 0.519419
O O10 0.281167 0.889786 0.748836
O O11 0.064192 0.929280 0.788920
O O12 0.312207 0.110939 0.670744
O O13 0.570046 0.287362 0.541132
O O14 0.252227 0.842420 0.321899
O O15 0.741702 0.315970 0.564059
O O16 0.886459 0.281144 0.307958
#
# Coordination Sequence:
#
# PCOD9249610 Si02
#       8
#     4   4   4   4   4   4   4   4
#     4  11  24  39  68  99 132 167 229 273 331 401
#     4  11  23  44  68  97 136 177 225 280 339 399
#     4  10  23  42  68  97 136 172 218 277 341 401
#     4   9  20  42  65  93 130 172 218 262 327 406
#     4  11  23  42  72  98 128 182 230 274 324 420
#     4  10  23  43  65  95 141 172 219 277 337 400
#     4  11  25  45  62 104 136 171 221 293 342 386
#     4  11  23  41  72  93 134 180 225 268 334 411
#
# _framework density 23.694094
#
# number of rings (size 3 to 8) (size 9 to 14) (size 15 to 20)
#    0.000    1.500    3.750    1.500    7.000    2.500 
#    6.750    1.875    0.000    0.000    0.000    0.000 
#    0.000    0.000    0.000    0.000    0.000    0.000 
#
# Total GULP energy -178216.716031 kJ/mol
# GULP energy per Si atom -5569.272376 kJ/mol
# Density = 2.364017 g / cm^3
# Si number density = 23.694094 Si / 1000 Ang^3
#
#
#
# Elastic Constant Matrix: (Units=GPa)
#
#
# Indices 1 2 3 4 5 6 
#
# 1 101.8844 32.8604 34.0292 0.0000 15.8583 0.0000
# 2 32.8604 23.7580 16.0674 0.0000 15.7589 0.0000
# 3 34.0292 16.0674 106.2691 0.0000 -3.3301 0.0000
# 4 0.0000 0.0000 0.0000 17.2613 0.0000 9.2572
# 5 15.8583 15.7589 -3.3301 0.0000 20.8916 0.0000
# 6 0.0000 0.0000 0.0000 9.2572 0.0000 35.7338
#
#
#
# Elastic Compliance Matrix: (Units=1/GPa)
#
#
# Indices 1 2 3 4 5 6 
#
# 1 0.018917 -0.031816 -0.000950 0.000000 0.009489 0.000000
# 2 -0.031816 0.169707 -0.018820 0.000000 -0.106862 0.000000
# 3 -0.000950 -0.018820 0.013092 0.000000 0.017004 0.000000
# 4 0.000000 0.000000 0.000000 0.067280 0.000000 -0.017430
# 5 0.009489 -0.106862 0.017004 0.000000 0.123981 0.000000
# 6 0.000000 0.000000 0.000000 -0.017430 0.000000 0.032500
#
#
# Mechanical properties :
#
#
# Convention : Reuss Voigt Hill
#
# Bulk Modulus (GPa) = 10.14760 44.20284 27.17522
# Shear Modulus (GPa) = 8.90476 24.70766 16.80621
#
# Velocity S-wave (km/s) = 1.94072 3.23271 2.66616
# Velocity P-wave (km/s) = 3.05187 5.71227 4.57951
#
# Compressibility (1/GPa) = 0.09854548
#
# Stress axis : x y z
#
# Youngs Moduli (GPa) = 52.86279 5.89250 76.37997
#
# Poissons Ratio (x) = 0.18748 0.07254
# Poissons Ratio (y) = 1.68190 1.43743
# Poissons Ratio (z) = 0.05020 0.11089
#
# Static dielectric constant tensor:
#      x y z
#    x 1.981680 0.000000 -0.067460 
#    y 0.000000 2.877440 0.000000 
#    z -0.067460 0.000000 1.995370 
# 
# From -- ./inp_files/59455.got.cif
#   From: 2010.05.17/outbox.cif.g08.bks.cpg/sg14_30_cif.got.tgz:59455.got - 2010.06.03 17:49:19.
