data_PCOD9249364
_publ_section_title
;
Structure prediction by ZEFSAII (Michael W. Deem and Ramdas Pophale) SiO2 
 PCOD9249364
Probable space group: P 21/C
;
_chemical_formula_sum "Si O2"
_cell_formula_units_Z 18
_cell_length_a 7.113414
_cell_length_b 9.354499
_cell_length_c 11.625016
_cell_angle_alpha 90.000000
_cell_angle_beta 124.641191
_cell_angle_gamma 90.000000
_cell_volume 636.426734
_symmetry_space_group_name_H-M "P 21/C"
_symmetry_group_IT_number 14
_symmetry_cell_setting 'monoclinic'
loop_
_space_group_symop_operation_xyz
x,y,z
-x,1/2+y,1/2-z
-x,-y,-z
x,1/2-y,1/2+z
loop_
_atom_site_type_symbol
_atom_site_label
_atom_site_fract_x
_atom_site_fract_y
_atom_site_fract_z
Si Si1 0.162145 0.511198 0.443591
Si Si2 0.396019 0.572087 0.072496
Si Si3 0.932511 0.256512 0.781879
Si Si4 0.499612 0.850762 0.223084
Si Si5 0.000000 0.500000 0.000000
O O1 0.100637 0.638548 0.336836
O O2 0.401616 0.549717 0.587768
O O3 0.000000 0.500000 0.500000
O O4 0.126858 0.365183 0.361217
O O5 0.541396 0.695406 0.182714
O O6 0.323115 0.451865 0.145915
O O7 0.500000 0.500000 0.000000
O O8 0.139939 0.610717 0.954513
O O9 0.694787 0.182634 0.746904
O O10 0.995485 0.368412 0.902815
#
# Coordination Sequence:
#
# PCOD9249364 Si02
#       5
#     4   4   4   4   2
#     4  10  23  40  71 104 145 191 246 300 373 439
#     4  11  25  49  75 101 154 196 244 314 371 434
#     4  10  23  43  71 102 153 184 249 307 364 442
#     4  10  24  46  68 111 143 192 260 295 373 453
#     4  10  26  46  72 108 140 196 254 292 372 444
#
# _framework density 28.282909
#
# number of rings (size 3 to 8) (size 9 to 14) (size 15 to 20)
#    0.000    1.778    0.000    1.333   18.667    0.000 
#    8.000    5.556    0.000    0.000    0.000    0.000 
#    0.000    0.000    0.000    0.000    0.000    0.000 
#
# Total GULP energy -100460.813034 kJ/mol
# GULP energy per Si atom -5581.156280 kJ/mol
# Density = 2.821854 g / cm^3
# Si number density = 28.282909 Si / 1000 Ang^3
#
#
#
# Elastic Constant Matrix: (Units=GPa)
#
#
# Indices 1 2 3 4 5 6 
#
# 1 114.6912 63.8535 60.4346 0.0000 -19.3630 0.0000
# 2 63.8535 239.6805 103.1771 0.0000 -7.4124 0.0000
# 3 60.4346 103.1771 137.6371 0.0000 4.4393 0.0000
# 4 0.0000 0.0000 0.0000 37.1058 0.0000 -0.6259
# 5 -19.3630 -7.4124 4.4393 0.0000 37.7336 0.0000
# 6 0.0000 0.0000 0.0000 -0.6259 0.0000 51.2452
#
#
#
# Elastic Compliance Matrix: (Units=1/GPa)
#
#
# Indices 1 2 3 4 5 6 
#
# 1 0.013316 -0.001042 -0.005300 0.000000 0.007252 0.000000
# 2 -0.001042 0.006360 -0.004350 0.000000 0.001227 0.000000
# 3 -0.005300 -0.004350 0.013018 0.000000 -0.005106 0.000000
# 4 0.000000 0.000000 0.000000 0.026956 0.000000 0.000329
# 5 0.007252 0.001227 -0.005106 0.000000 0.031065 0.000000
# 6 0.000000 0.000000 0.000000 0.000329 0.000000 0.019518
#
#
# Mechanical properties :
#
#
# Convention : Reuss Voigt Hill
#
# Bulk Modulus (GPa) = 88.40774 105.21547 96.81161
# Shear Modulus (GPa) = 36.93136 42.85316 39.89226
#
# Velocity S-wave (km/s) = 3.61748 3.89673 3.75970
# Velocity P-wave (km/s) = 6.98387 7.58471 7.29048
#
# Compressibility (1/GPa) = 0.01131123
#
# Stress axis : x y z
#
# Youngs Moduli (GPa) = 75.09707 157.22609 76.81600
#
# Poissons Ratio (x) = 0.16380 0.40711
# Poissons Ratio (y) = 0.07824 0.33415
# Poissons Ratio (z) = 0.39800 0.68393
#
# Static dielectric constant tensor:
#      x y z
#    x 2.999020 0.000000 0.441710 
#    y 0.000000 2.160160 0.000000 
#    z 0.441710 0.000000 2.480400 
# 
# From -- ./inp_files/22957.got.cif
#   From: 2010.05.17/outbox.cif.g08.bks.cpg/sg14_12_cif.got.tgz:22957.got - 2010.06.03 17:49:19.
