data_PCOD9249913
_publ_section_title
;
Structure prediction by ZEFSAII (Michael W. Deem and Ramdas Pophale) SiO2 
 PCOD9249913
Probable space group: P 21/C
;
_chemical_formula_sum "Si O2"
_cell_formula_units_Z 20
_cell_length_a 4.950361
_cell_length_b 5.842717
_cell_length_c 25.044689
_cell_angle_alpha 90.000000
_cell_angle_beta 83.839789
_cell_angle_gamma 90.000000
_cell_volume 720.198746
_symmetry_space_group_name_H-M "P 21/C"
_symmetry_group_IT_number 14
_symmetry_cell_setting 'monoclinic'
loop_
_space_group_symop_operation_xyz
x,y,z
-x,1/2+y,1/2-z
-x,-y,-z
x,1/2-y,1/2+z
loop_
_atom_site_type_symbol
_atom_site_label
_atom_site_fract_x
_atom_site_fract_y
_atom_site_fract_z
Si Si1 0.576937 0.261976 0.915902
Si Si2 0.139290 0.754395 0.985595
Si Si3 0.684593 0.272983 0.717036
Si Si4 0.100093 0.976423 0.383352
Si Si5 0.202250 0.520950 0.683847
O O1 0.276807 0.314397 0.902708
O O2 0.783017 0.468080 0.895212
O O3 0.703491 0.059295 0.878345
O O4 0.608055 0.242492 0.978692
O O5 0.183190 0.729702 0.921420
O O6 0.000000 0.500000 0.000000
O O7 0.000000 0.000000 0.000000
O O8 0.379941 0.317134 0.705111
O O9 0.884844 0.478274 0.696521
O O10 0.808945 0.071301 0.678392
O O11 0.712810 0.226280 0.778762
#
# Coordination Sequence:
#
# PCOD9249913 Si02
#       5
#     4   4   4   4   4
#     4  11  23  43  66  97 133 176 226 286 347 415
#     4  10  23  44  70 102 140 184 234 288 348 414
#     4  12  24  41  64  94 130 176 226 286 347 416
#     4  11  23  43  66  97 133 176 226 286 347 415
#     4  12  24  41  64  94 130 176 226 286 347 416
#
# _framework density 27.770109000000001
#
# number of rings (size 3 to 8) (size 9 to 14) (size 15 to 20)
#    0.000    0.800    0.000    7.800    0.000    3.200 
#    0.000    9.000    0.000    0.000    0.000    0.000 
#    0.000    0.000    0.000    0.000    0.000    0.000 
#
# Total GULP energy -112036.361740 kJ/mol
# GULP energy per Si atom -5601.818087 kJ/mol
# Density = 2.770690 g / cm^3
# Si number density = 27.770109 Si / 1000 Ang^3
#
#
#
# Elastic Constant Matrix: (Units=GPa)
#
#
# Indices 1 2 3 4 5 6 
#
# 1 87.4369 41.3326 27.8493 0.0000 -0.1677 0.0000
# 2 41.3326 109.0017 27.9070 0.0000 1.3331 0.0000
# 3 27.8493 27.9070 92.3866 0.0000 18.0186 0.0000
# 4 0.0000 0.0000 0.0000 54.5257 0.0000 -7.9318
# 5 -0.1677 1.3331 18.0186 0.0000 38.5616 0.0000
# 6 0.0000 0.0000 0.0000 -7.9318 0.0000 54.7585
#
#
#
# Elastic Compliance Matrix: (Units=1/GPa)
#
#
# Indices 1 2 3 4 5 6 
#
# 1 0.014761 -0.004758 -0.003363 0.000000 0.001800 0.000000
# 2 -0.004758 0.011525 -0.002162 0.000000 0.000591 0.000000
# 3 -0.003363 -0.002162 0.013731 0.000000 -0.006356 0.000000
# 4 0.000000 0.000000 0.000000 0.018735 0.000000 0.002714
# 5 0.001800 0.000591 -0.006356 0.000000 0.028890 0.000000
# 6 0.000000 0.000000 0.000000 0.002714 0.000000 0.018655
#
#
# Mechanical properties :
#
#
# Convention : Reuss Voigt Hill
#
# Bulk Modulus (GPa) = 51.41722 53.66700 52.54211
# Shear Modulus (GPa) = 37.49639 42.35159 39.92399
#
# Velocity S-wave (km/s) = 3.67855 3.90946 3.79576
# Velocity P-wave (km/s) = 6.04961 6.30444 6.17834
#
# Compressibility (1/GPa) = 0.01944874
#
# Stress axis : x y z
#
# Youngs Moduli (GPa) = 67.74730 86.76976 72.82943
#
# Poissons Ratio (x) = 0.41286 0.24495
# Poissons Ratio (y) = 0.32235 0.15748
# Poissons Ratio (z) = 0.22786 0.18762
#
# Static dielectric constant tensor:
#      x y z
#    x 2.059600 0.000000 -0.035910 
#    y 0.000000 2.242300 0.000000 
#    z -0.035910 0.000000 2.126590 
# 
# From -- ./inp_files/75397.got.cif
#   From: 2010.05.17/outbox.cif.g08.bks.cpg/sg14_38_cif.got.tgz:75397.got - 2010.06.03 17:49:19.
