data_PCOD9249124
_publ_section_title
;
Structure prediction by ZEFSAII (Michael W. Deem and Ramdas Pophale) SiO2 
 PCOD9249124
Probable space group: P 21/C
;
_chemical_formula_sum "Si O2"
_cell_formula_units_Z 14
_cell_length_a 13.212557
_cell_length_b 4.792568
_cell_length_c 9.543504
_cell_angle_alpha 90.000000
_cell_angle_beta 54.625963
_cell_angle_gamma 90.000000
_cell_volume 492.752128
_symmetry_space_group_name_H-M "P 21/C"
_symmetry_group_IT_number 14
_symmetry_cell_setting 'monoclinic'
loop_
_space_group_symop_operation_xyz
x,y,z
-x,1/2+y,1/2-z
-x,-y,-z
x,1/2-y,1/2+z
loop_
_atom_site_type_symbol
_atom_site_label
_atom_site_fract_x
_atom_site_fract_y
_atom_site_fract_z
Si Si1 0.000000 0.000000 0.500000
Si Si2 0.952320 0.000524 0.264598
Si Si3 0.581688 0.007900 0.168565
Si Si4 0.266023 0.260392 0.702417
O O1 0.986015 0.766073 0.371120
O O2 0.027876 0.759561 0.618314
O O3 0.811810 0.953315 0.334199
O O4 0.842766 0.963008 0.658831
O O5 0.455000 0.829410 0.289079
O O6 0.640003 0.924327 0.973276
O O7 0.330377 0.096467 0.776587
#
# Coordination Sequence:
#
# PCOD9249124 Si02
#       4
#     2   4   4   4
#     4  10  22  46  72 112 148 186 236 312 394 434
#     4  10  23  41  68 104 146 186 231 296 379 449
#     4  12  28  50  77 107 152 207 260 303 363 445
#     4  11  24  50  74 115 147 199 247 319 373 453
#
# _framework density 28.411849
#
# number of rings (size 3 to 8) (size 9 to 14) (size 15 to 20)
#    0.000    1.143    2.857    1.714    0.000   13.714 
#    0.000    0.000    0.000    0.000    0.000    0.000 
#    0.000    0.000    0.000    0.000    0.000    0.000 
#
# Total GULP energy -78436.342658 kJ/mol
# GULP energy per Si atom -5602.595904 kJ/mol
# Density = 2.834718 g / cm^3
# Si number density = 28.411849 Si / 1000 Ang^3
#
#
#
# Elastic Constant Matrix: (Units=GPa)
#
#
# Indices 1 2 3 4 5 6 
#
# 1 172.9898 26.6265 42.4796 0.0000 28.8024 0.0000
# 2 26.6265 225.6267 22.5276 0.0000 -1.6922 0.0000
# 3 42.4796 22.5276 216.0412 0.0000 20.7487 0.0000
# 4 0.0000 0.0000 0.0000 45.0788 0.0000 -6.1604
# 5 28.8024 -1.6922 20.7487 0.0000 73.6728 0.0000
# 6 0.0000 0.0000 0.0000 -6.1604 0.0000 48.5174
#
#
#
# Elastic Compliance Matrix: (Units=1/GPa)
#
#
# Indices 1 2 3 4 5 6 
#
# 1 0.006509 -0.000687 -0.000989 0.000000 -0.002282 0.000000
# 2 -0.000687 0.004555 -0.000386 0.000000 0.000482 0.000000
# 3 -0.000989 -0.000386 0.004961 0.000000 -0.001019 0.000000
# 4 0.000000 0.000000 0.000000 0.022575 0.000000 0.002866
# 5 -0.002282 0.000482 -0.001019 0.000000 0.014764 0.000000
# 6 0.000000 0.000000 0.000000 0.002866 0.000000 0.020975
#
#
# Mechanical properties :
#
#
# Convention : Reuss Voigt Hill
#
# Bulk Modulus (GPa) = 84.01920 88.65834 86.33877
# Shear Modulus (GPa) = 60.65662 68.32205 64.48933
#
# Velocity S-wave (km/s) = 4.62552 4.90910 4.76941
# Velocity P-wave (km/s) = 7.62649 7.96271 7.79641
#
# Compressibility (1/GPa) = 0.01190204
#
# Stress axis : x y z
#
# Youngs Moduli (GPa) = 153.62886 219.52458 201.55482
#
# Poissons Ratio (x) = 0.15071 0.19937
# Poissons Ratio (y) = 0.10547 0.07786
# Poissons Ratio (z) = 0.15196 0.08480
#
# Static dielectric constant tensor:
#      x y z
#    x 2.115040 0.000000 0.127980 
#    y 0.000000 2.128310 0.000000 
#    z 0.127980 0.000000 2.149520 
# 
# From -- ./inp_files/11415.got.cif
#   From: 2010.05.17/outbox.cif.g08.bks.cpg/sg14_6_cif.got.tgz:11415.got - 2010.06.03 17:49:19.
