data_PCOD9249042
_publ_section_title
;
Structure prediction by ZEFSAII (Michael W. Deem and Ramdas Pophale) SiO2 
 PCOD9249042
Probable space group: P 21/C
;
_chemical_formula_sum "Si O2"
_cell_formula_units_Z 30
_cell_length_a 14.401488
_cell_length_b 8.406390
_cell_length_c 17.888062
_cell_angle_alpha 90.000000
_cell_angle_beta 35.097877
_cell_angle_gamma 90.000000
_cell_volume 1245.171313
_symmetry_space_group_name_H-M "P 21/C"
_symmetry_group_IT_number 14
_symmetry_cell_setting 'monoclinic'
loop_
_space_group_symop_operation_xyz
x,y,z
-x,1/2+y,1/2-z
-x,-y,-z
x,1/2-y,1/2+z
loop_
_atom_site_type_symbol
_atom_site_label
_atom_site_fract_x
_atom_site_fract_y
_atom_site_fract_z
Si Si1 0.696626 0.551262 0.116609
Si Si2 0.323147 0.812504 0.655001
Si Si3 0.988779 0.774606 0.934919
Si Si4 0.807786 0.972886 0.387157
Si Si5 0.603016 0.270738 0.727153
Si Si6 0.923981 0.368247 0.453984
Si Si7 0.500000 0.000000 0.000000
Si Si8 0.138697 0.354973 0.703779
O O1 0.568913 0.691988 0.194069
O O2 0.637433 0.417234 0.212983
O O3 0.867539 0.629136 0.019671
O O4 0.714950 0.473037 0.022822
O O5 0.283297 0.956961 0.625294
O O6 0.380193 0.852672 0.702361
O O7 0.444386 0.685931 0.541024
O O8 0.149922 0.731132 0.785014
O O9 0.936185 0.943368 0.935107
O O10 0.028592 0.821559 0.993200
O O11 0.993124 0.032573 0.271137
O O12 0.808131 0.781776 0.389832
O O13 0.734244 0.332931 0.581691
O O14 0.041851 0.259795 0.326704
O O15 0.302800 0.056955 0.119801
#
# Coordination Sequence:
#
# PCOD9249042 Si02
#       8
#     4   4   4   4   4   4   2   4
#     4  12  25  44  70 106 144 191 244 314 366 438
#     4  11  26  48  70 104 144 192 245 307 366 454
#     4  10  22  45  73 100 139 187 245 302 368 448
#     4  12  26  49  76 105 154 198 246 304 385 445
#     4  11  26  45  71 105 143 187 248 305 368 437
#     4  10  22  45  73 101 135 191 239 295 377 441
#     4  12  28  44  70 112 146 190 254 304 372 432
#     4  12  25  47  74 109 146 199 244 311 368 455
#
# _framework density 24.093070000000001
#
# number of rings (size 3 to 8) (size 9 to 14) (size 15 to 20)
#    0.000    0.800    2.667    4.000    1.867    4.267 
#    4.800    0.000    0.000    0.000    0.000    0.000 
#    0.000    0.000    0.000    0.000    0.000    0.000 
#
# Total GULP energy -167161.583284 kJ/mol
# GULP energy per Si atom -5572.052776 kJ/mol
# Density = 2.403823 g / cm^3
# Si number density = 24.093070 Si / 1000 Ang^3
#
#
#
# Elastic Constant Matrix: (Units=GPa)
#
#
# Indices 1 2 3 4 5 6 
#
# 1 34.5584 29.2756 18.0131 0.0000 3.8092 0.0000
# 2 29.2756 90.0835 34.2699 0.0000 -13.1287 0.0000
# 3 18.0131 34.2699 53.0229 0.0000 -19.0521 0.0000
# 4 0.0000 0.0000 0.0000 52.1538 0.0000 -8.1019
# 5 3.8092 -13.1287 -19.0521 0.0000 36.0720 0.0000
# 6 0.0000 0.0000 0.0000 -8.1019 0.0000 28.9038
#
#
#
# Elastic Compliance Matrix: (Units=1/GPa)
#
#
# Indices 1 2 3 4 5 6 
#
# 1 0.049768 -0.013132 -0.014842 0.000000 -0.017874 0.000000
# 2 -0.013132 0.018190 -0.005453 0.000000 0.005127 0.000000
# 3 -0.014842 -0.005453 0.033666 0.000000 0.017364 0.000000
# 4 0.000000 0.000000 0.000000 0.020047 0.000000 0.005619
# 5 -0.017874 0.005127 0.017364 0.000000 0.040647 0.000000
# 6 0.000000 0.000000 0.000000 0.005619 0.000000 0.036173
#
#
# Mechanical properties :
#
#
# Convention : Reuss Voigt Hill
#
# Bulk Modulus (GPa) = 28.76167 37.86464 33.31315
# Shear Modulus (GPa) = 18.05474 29.83299 23.94387
#
# Velocity S-wave (km/s) = 2.74044 3.52268 3.15589
# Velocity P-wave (km/s) = 4.68796 5.68294 5.20926
#
# Compressibility (1/GPa) = 0.03476850
#
# Stress axis : x y z
#
# Youngs Moduli (GPa) = 20.09325 54.97415 29.70391
#
# Poissons Ratio (x) = 0.72194 0.44087
# Poissons Ratio (y) = 0.26387 0.16198
# Poissons Ratio (z) = 0.29823 0.29978
#
# Static dielectric constant tensor:
#      x y z
#    x 1.967000 0.000000 0.010540 
#    y 0.000000 1.916350 0.000000 
#    z 0.010540 0.000000 1.955840 
# 
# From -- ./inp_files/68351.got.cif
#   From: 2010.05.17/outbox.cif.g08.bks.cpg/sg14_35_cif.got.tgz:68351.got - 2010.06.03 17:49:19.
