data_PCOD9249419
_publ_section_title
;
Structure prediction by ZEFSAII (Michael W. Deem and Ramdas Pophale) SiO2 
 PCOD9249419
Probable space group: P 21/C
;
_chemical_formula_sum "Si O2"
_cell_formula_units_Z 20
_cell_length_a 9.249915
_cell_length_b 8.770447
_cell_length_c 15.892622
_cell_angle_alpha 90.000000
_cell_angle_beta 138.065441
_cell_angle_gamma 90.000000
_cell_volume 861.617249
_symmetry_space_group_name_H-M "P 21/C"
_symmetry_group_IT_number 14
_symmetry_cell_setting 'monoclinic'
loop_
_space_group_symop_operation_xyz
x,y,z
-x,1/2+y,1/2-z
-x,-y,-z
x,1/2-y,1/2+z
loop_
_atom_site_type_symbol
_atom_site_label
_atom_site_fract_x
_atom_site_fract_y
_atom_site_fract_z
Si Si1 0.716854 0.376652 0.718308
Si Si2 0.962725 0.617483 0.907728
Si Si3 0.060043 0.592819 0.654912
Si Si4 0.697670 0.382324 0.083121
Si Si5 0.715579 0.594395 0.377271
O O1 0.646499 0.283055 0.604064
O O2 0.522800 0.360532 0.700655
O O3 0.795323 0.548053 0.765968
O O4 0.925001 0.275033 0.833821
O O5 0.188116 0.641159 0.956475
O O6 0.853632 0.768125 0.897471
O O7 0.000000 0.500000 0.000000
O O8 0.839184 0.544771 0.516336
O O9 0.125099 0.542655 0.775905
O O10 0.253018 0.537543 0.677320
O O11 0.500000 0.500000 0.000000
#
# Coordination Sequence:
#
# PCOD9249419 Si02
#       5
#     4   4   4   4   4
#     4  10  23  41  65  96 126 172 222 264 331 394
#     4  12  23  41  69  95 129 177 224 269 332 395
#     4   9  23  39  64  93 135 166 217 267 331 382
#     4  10  24  40  65  93 135 169 219 272 330 389
#     4  11  21  42  67  93 134 169 219 275 323 399
#
# _framework density 23.212163
#
# number of rings (size 3 to 8) (size 9 to 14) (size 15 to 20)
#    1.200    0.400    2.000    2.400    5.600    0.000 
#    0.000    1.000    0.000    0.000    0.000    0.000 
#    0.000    0.000    0.000    0.000    0.000    0.000 
#
# Total GULP energy -111457.953100 kJ/mol
# GULP energy per Si atom -5572.897655 kJ/mol
# Density = 2.315933 g / cm^3
# Si number density = 23.212163 Si / 1000 Ang^3
#
#
#
# Elastic Constant Matrix: (Units=GPa)
#
#
# Indices 1 2 3 4 5 6 
#
# 1 103.2017 3.2295 15.0901 0.0000 1.5953 0.0000
# 2 3.2295 60.1160 13.4224 0.0000 2.9602 0.0000
# 3 15.0901 13.4224 59.8840 0.0000 -14.0009 0.0000
# 4 0.0000 0.0000 0.0000 38.3838 0.0000 -1.8552
# 5 1.5953 2.9602 -14.0009 0.0000 25.7830 0.0000
# 6 0.0000 0.0000 0.0000 -1.8552 0.0000 28.2376
#
#
#
# Elastic Compliance Matrix: (Units=1/GPa)
#
#
# Indices 1 2 3 4 5 6 
#
# 1 0.010184 0.000283 -0.003190 0.000000 -0.002395 0.000000
# 2 0.000283 0.018040 -0.005273 0.000000 -0.004952 0.000000
# 3 -0.003190 -0.005273 0.021617 0.000000 0.012541 0.000000
# 4 0.000000 0.000000 0.000000 0.026136 0.000000 0.001717
# 5 -0.002395 -0.004952 0.012541 0.000000 0.046312 0.000000
# 6 0.000000 0.000000 0.000000 0.001717 0.000000 0.035527
#
#
# Mechanical properties :
#
#
# Convention : Reuss Voigt Hill
#
# Bulk Modulus (GPa) = 29.86614 31.85396 30.86005
# Shear Modulus (GPa) = 26.97810 31.24485 29.11148
#
# Velocity S-wave (km/s) = 3.41286 3.67284 3.54524
# Velocity P-wave (km/s) = 5.33148 5.63375 5.48470
#
# Compressibility (1/GPa) = 0.03348273
#
# Stress axis : x y z
#
# Youngs Moduli (GPa) = 98.19025 55.43113 46.26061
#
# Poissons Ratio (x) = -0.01569 0.14756
# Poissons Ratio (y) = -0.02779 0.24392
# Poissons Ratio (z) = 0.31319 0.29227
#
# Static dielectric constant tensor:
#      x y z
#    x 1.852870 0.000000 -0.033490 
#    y 0.000000 1.875030 0.000000 
#    z -0.033490 0.000000 1.934900 
# 
# From -- ./inp_files/54975.got.cif
#   From: 2010.05.17/outbox.cif.g08.bks.cpg/sg14_28_cif.got.tgz:54975.got - 2010.06.03 17:49:19.
