data_PCOD9249618
_publ_section_title
;
Structure prediction by ZEFSAII (Michael W. Deem and Ramdas Pophale) SiO2 
 PCOD9249618
Probable space group: P 21/C
;
_chemical_formula_sum "Si O2"
_cell_formula_units_Z 26
_cell_length_a 14.411236
_cell_length_b 12.096286
_cell_length_c 12.303638
_cell_angle_alpha 90.000000
_cell_angle_beta 146.968263
_cell_angle_gamma 90.000000
_cell_volume 1169.138050
_symmetry_space_group_name_H-M "P 21/C"
_symmetry_group_IT_number 14
_symmetry_cell_setting 'monoclinic'
loop_
_space_group_symop_operation_xyz
x,y,z
-x,1/2+y,1/2-z
-x,-y,-z
x,1/2-y,1/2+z
loop_
_atom_site_type_symbol
_atom_site_label
_atom_site_fract_x
_atom_site_fract_y
_atom_site_fract_z
Si Si1 0.875697 0.954125 0.152617
Si Si2 0.293496 0.311450 0.693274
Si Si3 0.923267 0.743803 0.327076
Si Si4 0.500000 0.500000 0.000000
Si Si5 0.250682 0.685689 0.516328
Si Si6 0.373542 0.133800 0.612581
Si Si7 0.763209 0.076893 0.600219
O O1 0.907040 0.874628 0.285902
O O2 0.046696 0.955539 0.248057
O O3 0.811324 0.077259 0.109488
O O4 0.743910 0.889093 0.946516
O O5 0.125848 0.288019 0.599578
O O6 0.358698 0.194472 0.712650
O O7 0.430094 0.379563 0.894149
O O8 0.107924 0.707315 0.467287
O O9 0.779428 0.684528 0.110020
O O10 0.696359 0.463756 0.150743
O O11 0.437753 0.658795 0.746396
O O12 0.258659 0.795297 0.450890
O O13 0.352595 0.002359 0.590853
#
# Coordination Sequence:
#
# PCOD9249618 Si02
#       7
#     4   4   4   2   4   4   4
#     4  10  23  42  69  92 135 176 219 275 335 384
#     4  11  23  41  67  96 129 174 219 279 326 388
#     4  10  23  43  64  95 131 169 223 274 323 399
#     4  12  20  38  64 104 120 166 230 278 310 408
#     4  11  22  41  67  95 127 181 211 268 339 388
#     4  11  22  41  64  92 134 168 211 273 331 381
#     4  11  23  41  68  97 136 168 223 274 326 401
#
# _framework density 22.238603999999999
#
# number of rings (size 3 to 8) (size 9 to 14) (size 15 to 20)
#    0.000    1.231    4.615    0.923    2.154    3.692 
#    0.000    3.846    6.769    0.000    0.000    0.000 
#    0.000    0.000    0.000    0.000    0.000    0.000 
#
# Total GULP energy -144745.542525 kJ/mol
# GULP energy per Si atom -5567.136251 kJ/mol
# Density = 2.218799 g / cm^3
# Si number density = 22.238604 Si / 1000 Ang^3
#
#
#
# Elastic Constant Matrix: (Units=GPa)
#
#
# Indices 1 2 3 4 5 6 
#
# 1 66.2875 33.3708 9.0042 0.0000 19.0237 0.0000
# 2 33.3708 178.9317 22.2338 0.0000 0.2171 0.0000
# 3 9.0042 22.2338 76.0810 0.0000 28.9260 0.0000
# 4 0.0000 0.0000 0.0000 27.8322 0.0000 12.1724
# 5 19.0237 0.2171 28.9260 0.0000 32.5302 0.0000
# 6 0.0000 0.0000 0.0000 12.1724 0.0000 19.5082
#
#
#
# Elastic Compliance Matrix: (Units=1/GPa)
#
#
# Indices 1 2 3 4 5 6 
#
# 1 0.021758 -0.004718 0.005483 0.000000 -0.017568 0.000000
# 2 -0.004718 0.006930 -0.003774 0.000000 0.006069 0.000000
# 3 0.005483 -0.003774 0.022370 0.000000 -0.023073 0.000000
# 4 0.000000 0.000000 0.000000 0.049414 0.000000 -0.030833
# 5 -0.017568 0.006069 -0.023073 0.000000 0.061491 0.000000
# 6 0.000000 0.000000 0.000000 -0.030833 0.000000 0.070499
#
#
# Mechanical properties :
#
#
# Convention : Reuss Voigt Hill
#
# Bulk Modulus (GPa) = 22.20224 50.05754 36.12989
# Shear Modulus (GPa) = 19.72429 33.08689 26.40559
#
# Velocity S-wave (km/s) = 2.98138 3.86140 3.44957
# Velocity P-wave (km/s) = 4.67513 6.51450 5.66990
#
# Compressibility (1/GPa) = 0.04504050
#
# Stress axis : x y z
#
# Youngs Moduli (GPa) = 45.96013 144.29523 44.70193
#
# Poissons Ratio (x) = 0.68077 -0.24511
# Poissons Ratio (y) = 0.21683 0.16872
# Poissons Ratio (z) = -0.25201 0.54462
#
# Static dielectric constant tensor:
#      x y z
#    x 1.877910 0.000000 -0.037360 
#    y 0.000000 1.836690 0.000000 
#    z -0.037360 0.000000 1.833820 
# 
# From -- ./inp_files/39859.got.cif
#   From: 2010.05.17/outbox.cif.g08.bks.cpg/sg14_20_cif.got.tgz:39859.got - 2010.06.03 17:49:19.
