data_PCOD9249572
_publ_section_title
;
Structure prediction by ZEFSAII (Michael W. Deem and Ramdas Pophale) SiO2 
 PCOD9249572
Probable space group: P 21/C
;
_chemical_formula_sum "Si O2"
_cell_formula_units_Z 28
_cell_length_a 5.237041
_cell_length_b 8.878057
_cell_length_c 32.534124
_cell_angle_alpha 90.000000
_cell_angle_beta 54.546323
_cell_angle_gamma 90.000000
_cell_volume 1232.194576
_symmetry_space_group_name_H-M "P 21/C"
_symmetry_group_IT_number 14
_symmetry_cell_setting 'monoclinic'
loop_
_space_group_symop_operation_xyz
x,y,z
-x,1/2+y,1/2-z
-x,-y,-z
x,1/2-y,1/2+z
loop_
_atom_site_type_symbol
_atom_site_label
_atom_site_fract_x
_atom_site_fract_y
_atom_site_fract_z
Si Si1 0.202193 0.190299 0.366231
Si Si2 0.758893 0.596651 0.361492
Si Si3 0.797549 0.602432 0.988082
Si Si4 0.340035 0.408415 0.289159
Si Si5 0.654521 0.809444 0.780962
Si Si6 0.950662 0.350516 0.123627
Si Si7 0.502307 0.306182 0.419719
O O1 0.424601 0.275448 0.312811
O O2 0.375785 0.205143 0.393547
O O3 0.856769 0.264157 0.399477
O O4 0.115437 0.023106 0.360618
O O5 0.803869 0.634996 0.309184
O O6 0.760178 0.755934 0.384466
O O7 0.499140 0.478128 0.402198
O O8 0.071704 0.498587 0.338200
O O9 0.997680 0.650853 0.929861
O O10 0.500000 0.500000 0.000000
O O11 0.693209 0.751510 0.022702
O O12 0.000000 0.500000 0.000000
O O13 0.218201 0.321491 0.260394
O O14 0.597430 0.537884 0.260088
O O15 0.340939 0.734434 0.828967
#
# Coordination Sequence:
#
# PCOD9249572 Si02
#       7
#     4   4   4   4   4   4   4
#     4  11  22  42  70  99 134 181 225 283 345 404
#     4  10  25  43  65  98 143 179 232 291 356 415
#     4  12  24  43  70 104 135 179 239 287 350 419
#     4  10  23  42  66  98 132 182 229 280 350 418
#     4  11  23  44  64  95 139 174 232 282 347 418
#     4  11  25  41  67 102 134 180 235 289 345 416
#     4  11  22  45  69  95 140 181 225 288 344 411
#
# _framework density 22.723683000000001
#
# number of rings (size 3 to 8) (size 9 to 14) (size 15 to 20)
#    0.000    1.143    4.286    0.857    4.000    4.000 
#    2.571    0.714    0.000    0.000    0.000    0.000 
#    0.000    0.000    0.000    0.000    0.000    0.000 
#
# Total GULP energy -155958.301491 kJ/mol
# GULP energy per Si atom -5569.939339 kJ/mol
# Density = 2.267196 g / cm^3
# Si number density = 22.723683 Si / 1000 Ang^3
#
#
#
# Elastic Constant Matrix: (Units=GPa)
#
#
# Indices 1 2 3 4 5 6 
#
# 1 58.1580 8.6903 11.3501 0.0000 14.1258 0.0000
# 2 8.6903 133.9424 48.8354 0.0000 16.2845 0.0000
# 3 11.3501 48.8354 93.2330 0.0000 20.8112 0.0000
# 4 0.0000 0.0000 0.0000 820.2676 0.0000 116.2247
# 5 14.1258 16.2845 20.8112 0.0000 27.4802 0.0000
# 6 0.0000 0.0000 0.0000 116.2247 0.0000 38.3946
#
#
#
# Elastic Compliance Matrix: (Units=1/GPa)
#
#
# Indices 1 2 3 4 5 6 
#
# 1 0.019650 -0.000002 -0.000164 0.000000 -0.009975 0.000000
# 2 -0.000002 0.009338 -0.004400 0.000000 -0.002200 0.000000
# 3 -0.000164 -0.004400 0.014982 0.000000 -0.008655 0.000000
# 4 0.000000 0.000000 0.000000 0.002135 0.000000 -0.006462
# 5 -0.009975 -0.002200 -0.008655 0.000000 0.049376 0.000000
# 6 0.000000 0.000000 0.000000 -0.006462 0.000000 0.045607
#
#
# Mechanical properties :
#
#
# Convention : Reuss Voigt Hill
#
# Bulk Modulus (GPa) = 28.70504 47.00943 37.85723
# Shear Modulus (GPa) = 30.89630 191.65896 111.27763
#
# Velocity S-wave (km/s) = 3.69135 9.19382 7.00544
# Velocity P-wave (km/s) = 5.55227 11.55137 9.06261
#
# Compressibility (1/GPa) = 0.03483709
#
# Stress axis : x y z
#
# Youngs Moduli (GPa) = 50.89126 107.09314 66.74577
#
# Poissons Ratio (x) = 0.00024 0.01098
# Poissons Ratio (y) = 0.00011 0.29366
# Poissons Ratio (z) = 0.00837 0.47117
#
# Static dielectric constant tensor:
#      x y z
#    x 1.610830 0.000000 -0.126580 
#    y 0.000000 1.887700 0.000000 
#    z -0.126580 0.000000 1.836800 
# 
# From -- ./inp_files/78769.got.cif
#   From: 2010.05.17/outbox.cif.g08.bks.cpg/sg14_40_cif.got.tgz:78769.got - 2010.06.03 17:49:19.
