data_PCOD9249854
_publ_section_title
;
Structure prediction by ZEFSAII (Michael W. Deem and Ramdas Pophale) SiO2 
 PCOD9249854
Probable space group: P 21/C
;
_chemical_formula_sum "Si O2"
_cell_formula_units_Z 32
_cell_length_a 6.418202
_cell_length_b 11.441271
_cell_length_c 23.016335
_cell_angle_alpha 90.000000
_cell_angle_beta 72.591727
_cell_angle_gamma 90.000000
_cell_volume 1612.731001
_symmetry_space_group_name_H-M "P 21/C"
_symmetry_group_IT_number 14
_symmetry_cell_setting 'monoclinic'
loop_
_space_group_symop_operation_xyz
x,y,z
-x,1/2+y,1/2-z
-x,-y,-z
x,1/2-y,1/2+z
loop_
_atom_site_type_symbol
_atom_site_label
_atom_site_fract_x
_atom_site_fract_y
_atom_site_fract_z
Si Si1 0.644354 0.418877 0.059606
Si Si2 0.885970 0.447357 0.277655
Si Si3 0.746541 0.840429 0.332990
Si Si4 0.001095 0.257774 0.577707
Si Si5 0.580232 0.649356 0.258763
Si Si6 0.187243 0.525613 0.350482
Si Si7 0.392437 0.322566 0.971369
Si Si8 0.518921 0.700369 0.653952
O O1 0.430239 0.418580 0.118636
O O2 0.831091 0.343059 0.074185
O O3 0.704648 0.551904 0.040378
O O4 0.567119 0.354968 0.006736
O O5 0.759308 0.550775 0.255966
O O6 0.713114 0.344406 0.302744
O O7 0.089763 0.408444 0.222310
O O8 0.974641 0.487580 0.332642
O O9 0.617364 0.749604 0.303541
O O10 0.889943 0.774240 0.369495
O O11 0.879202 0.381139 0.595006
O O12 0.199071 0.253554 0.515589
O O13 0.346685 0.591943 0.291737
O O14 0.601755 0.705820 0.193981
O O15 0.320761 0.412186 0.360276
O O16 0.493203 0.257610 0.908028
#
# Coordination Sequence:
#
# PCOD9249854 Si02
#       8
#     4   4   4   4   4   4   4   4
#     4  10  23  44  66  91 128 165 221 274 320 382
#     4  11  25  40  63 101 134 169 216 261 331 399
#     4  11  22  38  66  98 123 168 211 264 330 388
#     4  11  22  42  70  89 126 173 217 264 323 385
#     4  11  23  40  64  96 134 166 209 268 329 394
#     4  11  23  42  65  94 128 172 214 264 328 392
#     4  10  25  43  62  96 125 170 220 267 322 381
#     4  11  26  41  62  96 136 167 216 271 319 390
#
# _framework density 19.842119
#
# number of rings (size 3 to 8) (size 9 to 14) (size 15 to 20)
#    0.000    1.250    3.750    1.125    3.500    1.500 
#    0.000    1.250    0.000    0.000    0.000    0.000 
#    0.000    0.000    0.000    0.000    0.000    0.000 
#
# Total GULP energy -178913.778482 kJ/mol
# GULP energy per Si atom -5591.055578 kJ/mol
# Density = 1.979696 g / cm^3
# Si number density = 19.842119 Si / 1000 Ang^3
#
#
#
# Elastic Constant Matrix: (Units=GPa)
#
#
# Indices 1 2 3 4 5 6 
#
# 1 44.0206 0.9004 7.4960 0.0000 0.2170 0.0000
# 2 0.9004 57.2129 36.9484 0.0000 -7.2900 0.0000
# 3 7.4960 36.9484 97.0026 0.0000 1.3519 0.0000
# 4 0.0000 0.0000 0.0000 33.6762 0.0000 0.9915
# 5 0.2170 -7.2900 1.3519 0.0000 10.8926 0.0000
# 6 0.0000 0.0000 0.0000 0.9915 0.0000 5.7476
#
#
#
# Elastic Compliance Matrix: (Units=1/GPa)
#
#
# Indices 1 2 3 4 5 6 
#
# 1 0.023070 0.001152 -0.002230 0.000000 0.000588 0.000000
# 2 0.001152 0.026698 -0.010525 0.000000 0.019151 0.000000
# 3 -0.002230 -0.010525 0.014613 0.000000 -0.008813 0.000000
# 4 0.000000 0.000000 0.000000 0.029846 0.000000 -0.005149
# 5 0.000588 0.019151 -0.008813 0.000000 0.105705 0.000000
# 6 0.000000 0.000000 0.000000 -0.005149 0.000000 0.174875
#
#
# Mechanical properties :
#
#
# Convention : Reuss Voigt Hill
#
# Bulk Modulus (GPa) = 24.28672 32.10286 28.19479
# Shear Modulus (GPa) = 12.14366 20.25602 16.19984
#
# Velocity S-wave (km/s) = 2.47658 3.19856 2.86044
# Velocity P-wave (km/s) = 4.52155 5.46400 5.01496
#
# Compressibility (1/GPa) = 0.04117476
#
# Stress axis : x y z
#
# Youngs Moduli (GPa) = 43.34665 37.45623 68.43140
#
# Poissons Ratio (x) = -0.04314 0.15258
# Poissons Ratio (y) = -0.04992 0.72025
# Poissons Ratio (z) = 0.09665 0.39423
#
# Static dielectric constant tensor:
#      x y z
#    x 1.680350 0.000000 -0.002890 
#    y 0.000000 1.687420 0.000000 
#    z -0.002890 0.000000 1.678500 
# 
# From -- ./inp_files/71240.got.cif
#   From: 2010.05.17/outbox.cif.g08.bks.cpg/sg14_36_cif.got.tgz:71240.got - 2010.06.03 17:49:19.
