data_PCOD9249678
_publ_section_title
;
Structure prediction by ZEFSAII (Michael W. Deem and Ramdas Pophale) SiO2 
 PCOD9249678
Probable space group: P 21/C
;
_chemical_formula_sum "Si O2"
_cell_formula_units_Z 24
_cell_length_a 21.087121
_cell_length_b 7.593839
_cell_length_c 19.950961
_cell_angle_alpha 90.000000
_cell_angle_beta 20.646972
_cell_angle_gamma 90.000000
_cell_volume 1126.511936
_symmetry_space_group_name_H-M "P 21/C"
_symmetry_group_IT_number 14
_symmetry_cell_setting 'monoclinic'
loop_
_space_group_symop_operation_xyz
x,y,z
-x,1/2+y,1/2-z
-x,-y,-z
x,1/2-y,1/2+z
loop_
_atom_site_type_symbol
_atom_site_label
_atom_site_fract_x
_atom_site_fract_y
_atom_site_fract_z
Si Si1 0.401843 0.657923 0.882904
Si Si2 0.879708 0.834752 0.542371
Si Si3 0.527352 0.487848 0.327576
Si Si4 0.890747 0.633049 0.809699
Si Si5 0.789526 0.582663 0.521571
Si Si6 0.816003 0.622444 0.259670
O O1 0.428802 0.645874 0.776034
O O2 0.423817 0.849511 0.893562
O O3 0.578110 0.558248 0.738414
O O4 0.226613 0.544861 0.073312
O O5 0.711738 0.944203 0.677651
O O6 0.875775 0.653434 0.505139
O O7 0.845968 0.813614 0.654523
O O8 0.060435 0.948206 0.353807
O O9 0.390975 0.416151 0.517824
O O10 0.817048 0.759647 0.940729
O O11 0.876847 0.735954 0.754204
O O12 0.096679 0.580095 0.617798
#
# Coordination Sequence:
#
# PCOD9249678 Si02
#       6
#     4   4   4   4   4   4
#     4  11  22  38  63  90 126 154 202 261 298 353
#     4  10  23  43  62  87 125 162 204 249 303 365
#     4  11  21  39  62  92 121 163 205 250 304 361
#     4  12  24  38  63  92 122 160 206 254 306 359
#     4  11  24  39  61  92 122 158 205 255 306 361
#     4  11  23  41  63  89 123 164 204 247 305 365
#
# _framework density 21.3047
#
# number of rings (size 3 to 8) (size 9 to 14) (size 15 to 20)
#    0.000    1.000    5.000    2.500    2.333    2.000 
#    0.000    3.333    0.000    0.000    0.000    0.000 
#    0.000    0.000    0.000    0.000    0.000    0.000 
#
# Total GULP energy -134268.034368 kJ/mol
# GULP energy per Si atom -5594.501432 kJ/mol
# Density = 2.125621 g / cm^3
# Si number density = 21.304700 Si / 1000 Ang^3
#
#
#
# Elastic Constant Matrix: (Units=GPa)
#
#
# Indices 1 2 3 4 5 6 
#
# 1 85.8013 0.9660 8.1556 0.0000 24.1730 0.0000
# 2 0.9660 42.2994 -7.7839 0.0000 13.8260 0.0000
# 3 8.1556 -7.7839 86.7845 0.0000 8.5087 0.0000
# 4 0.0000 0.0000 0.0000 29.0244 0.0000 -3.1934
# 5 24.1730 13.8260 8.5087 0.0000 29.7245 0.0000
# 6 0.0000 0.0000 0.0000 -3.1934 0.0000 37.5139
#
#
#
# Elastic Compliance Matrix: (Units=1/GPa)
#
#
# Indices 1 2 3 4 5 6 
#
# 1 0.015837 0.004675 0.000419 0.000000 -0.015174 0.000000
# 2 0.004675 0.030591 0.004190 0.000000 -0.019230 0.000000
# 3 0.000419 0.004190 0.012433 0.000000 -0.005848 0.000000
# 4 0.000000 0.000000 0.000000 0.034780 0.000000 0.002961
# 5 -0.015174 -0.019230 -0.005848 0.000000 0.056601 0.000000
# 6 0.000000 0.000000 0.000000 0.002961 0.000000 0.026909
#
#
# Mechanical properties :
#
#
# Convention : Reuss Voigt Hill
#
# Bulk Modulus (GPa) = 12.91517 24.17341 18.54429
# Shear Modulus (GPa) = 27.11606 33.48905 30.30256
#
# Velocity S-wave (km/s) = 3.57147 3.96903 3.77549
# Velocity P-wave (km/s) = 4.80442 5.68994 5.26583
#
# Compressibility (1/GPa) = 0.07742832
#
# Stress axis : x y z
#
# Youngs Moduli (GPa) = 63.14157 32.68950 80.43359
#
# Poissons Ratio (x) = -0.15283 -0.03368
# Poissons Ratio (y) = -0.29520 -0.33700
# Poissons Ratio (z) = -0.02644 -0.13696
#
# Static dielectric constant tensor:
#      x y z
#    x 1.742410 0.000000 -0.022670 
#    y 0.000000 1.780310 0.000000 
#    z -0.022670 0.000000 1.763580 
# 
# From -- ./inp_files/69733.got.cif
#   From: 2010.05.17/outbox.cif.g08.bks.cpg/sg14_35_cif.got.tgz:69733.got - 2010.06.03 17:49:19.
