data_PCOD9249243
_publ_section_title
;
Structure prediction by ZEFSAII (Michael W. Deem and Ramdas Pophale) SiO2 
 PCOD9249243
Probable space group: P 21/C
;
_chemical_formula_sum "Si O2"
_cell_formula_units_Z 32
_cell_length_a 27.175799
_cell_length_b 10.146306
_cell_length_c 14.729716
_cell_angle_alpha 90.000000
_cell_angle_beta 162.009113
_cell_angle_gamma 90.000000
_cell_volume 1254.452917
_symmetry_space_group_name_H-M "P 21/C"
_symmetry_group_IT_number 14
_symmetry_cell_setting 'monoclinic'
loop_
_space_group_symop_operation_xyz
x,y,z
-x,1/2+y,1/2-z
-x,-y,-z
x,1/2-y,1/2+z
loop_
_atom_site_type_symbol
_atom_site_label
_atom_site_fract_x
_atom_site_fract_y
_atom_site_fract_z
Si Si1 0.622340 0.580120 0.779369
Si Si2 0.469735 0.391577 0.637420
Si Si3 0.608736 0.221179 0.545794
Si Si4 0.079366 0.813676 0.675431
Si Si5 0.682599 0.490604 0.296314
Si Si6 0.929056 0.351096 0.172866
Si Si7 0.203242 0.227527 0.542014
Si Si8 0.148524 0.980453 0.633525
O O1 0.500000 0.500000 0.500000
O O2 0.607988 0.485648 0.840673
O O3 0.539658 0.718711 0.659432
O O4 0.788691 0.616675 0.023144
O O5 0.550642 0.284338 0.842277
O O6 0.361807 0.313818 0.375536
O O7 0.334677 0.481248 0.450161
O O8 0.671575 0.075040 0.678056
O O9 0.753241 0.310034 0.831614
O O10 0.064632 0.676365 0.707065
O O11 0.109614 0.844793 0.621726
O O12 0.929892 0.903191 0.444439
O O13 0.229974 0.886100 0.986419
O O14 0.767249 0.629196 0.448451
O O15 0.500000 0.500000 0.000000
O O16 0.060534 0.253738 0.360738
O O17 0.935250 0.475986 0.113999
#
# Coordination Sequence:
#
# PCOD9249243 Si02
#       8
#     4   4   4   4   4   4   4   4
#     4  10  23  44  66  95 132 183 222 272 346 408
#     4  11  24  42  67  98 135 182 229 286 338 409
#     4  11  24  41  67  96 139 170 232 282 335 409
#     4  10  23  38  64  98 128 176 228 281 345 406
#     4  11  21  37  62  98 129 174 226 281 336 401
#     4  11  23  44  66  99 137 180 223 291 344 408
#     4  11  23  42  69  94 137 183 227 280 350 405
#     4  11  21  41  69  96 133 177 231 280 345 414
#
# _framework density 25.509128
#
# number of rings (size 3 to 8) (size 9 to 14) (size 15 to 20)
#    0.000    1.250    5.000    0.750    1.750    1.000 
#    2.250    0.625    0.000    0.000    0.000    0.000 
#    0.000    0.000    0.000    0.000    0.000    0.000 
#
# Total GULP energy -178449.948450 kJ/mol
# GULP energy per Si atom -5576.560889 kJ/mol
# Density = 2.545107 g / cm^3
# Si number density = 25.509128 Si / 1000 Ang^3
#
#
#
# Elastic Constant Matrix: (Units=GPa)
#
#
# Indices 1 2 3 4 5 6 
#
# 1 70.0406 3.4415 -2.2320 0.0000 -3.1421 0.0000
# 2 3.4415 63.7335 -16.0943 0.0000 -13.2618 0.0000
# 3 -2.2320 -16.0943 40.7195 0.0000 0.5396 0.0000
# 4 0.0000 0.0000 0.0000 14.1808 0.0000 -5.1294
# 5 -3.1421 -13.2618 0.5396 0.0000 36.8484 0.0000
# 6 0.0000 0.0000 0.0000 -5.1294 0.0000 45.1722
#
#
#
# Elastic Compliance Matrix: (Units=1/GPa)
#
#
# Indices 1 2 3 4 5 6 
#
# 1 0.014365 -0.000397 0.000616 0.000000 0.001073 0.000000
# 2 -0.000397 0.018968 0.007387 0.000000 0.006685 0.000000
# 3 0.000616 0.007387 0.027481 0.000000 0.002309 0.000000
# 4 0.000000 0.000000 0.000000 0.073539 0.000000 0.008350
# 5 0.001073 0.006685 0.002309 0.000000 0.029602 0.000000
# 6 0.000000 0.000000 0.000000 0.008350 0.000000 0.023086
#
#
# Mechanical properties :
#
#
# Convention : Reuss Voigt Hill
#
# Bulk Modulus (GPa) = 13.15329 16.08044 14.61686
# Shear Modulus (GPa) = 25.35893 31.86550 28.61221
#
# Velocity S-wave (km/s) = 3.15637 3.53821 3.35273
# Velocity P-wave (km/s) = 4.29547 4.79681 4.55305
#
# Compressibility (1/GPa) = 0.07602663
#
# Stress axis : x y z
#
# Youngs Moduli (GPa) = 69.61505 52.72019 36.38870
#
# Poissons Ratio (x) = 0.02092 -0.02243
# Poissons Ratio (y) = 0.02762 -0.26880
# Poissons Ratio (z) = -0.04291 -0.38943
#
# Static dielectric constant tensor:
#      x y z
#    x 2.321560 0.000000 0.001700 
#    y 0.000000 2.228590 0.000000 
#    z 0.001700 0.000000 1.973890 
# 
# From -- ./inp_files/52071.got.cif
#   From: 2010.05.17/outbox.cif.g08.bks.cpg/sg14_27_cif.got.tgz:52071.got - 2010.06.03 17:49:19.
