data_PCOD9249105
_publ_section_title
;
Structure prediction by ZEFSAII (Michael W. Deem and Ramdas Pophale) SiO2 
 PCOD9249105
Probable space group: P 21/C
;
_chemical_formula_sum "Si O2"
_cell_formula_units_Z 28
_cell_length_a 6.429357
_cell_length_b 20.511933
_cell_length_c 11.421169
_cell_angle_alpha 90.000000
_cell_angle_beta 124.263980
_cell_angle_gamma 90.000000
_cell_volume 1244.808470
_symmetry_space_group_name_H-M "P 21/C"
_symmetry_group_IT_number 14
_symmetry_cell_setting 'monoclinic'
loop_
_space_group_symop_operation_xyz
x,y,z
-x,1/2+y,1/2-z
-x,-y,-z
x,1/2-y,1/2+z
loop_
_atom_site_type_symbol
_atom_site_label
_atom_site_fract_x
_atom_site_fract_y
_atom_site_fract_z
Si Si1 0.037251 0.162417 0.875506
Si Si2 0.391180 0.064953 0.916318
Si Si3 0.141952 0.662243 0.431420
Si Si4 0.714556 0.513813 0.867625
Si Si5 0.452689 0.633023 0.911378
Si Si6 0.584945 0.877117 0.719129
Si Si7 0.483269 0.270773 0.597368
O O1 0.188250 0.094747 0.940838
O O2 0.835874 0.142351 0.716626
O O3 0.268862 0.211568 0.932755
O O4 0.911180 0.186864 0.954608
O O5 0.276833 0.050444 0.753814
O O6 0.627497 0.112830 0.983136
O O7 0.500000 0.000000 0.000000
O O8 0.245364 0.717443 0.376821
O O9 0.890122 0.625288 0.309591
O O10 0.571287 0.564705 0.908108
O O11 0.551132 0.446981 0.801004
O O12 0.000000 0.500000 0.000000
O O13 0.570120 0.696639 0.884973
O O14 0.487820 0.641837 0.060083
O O15 0.525311 0.822286 0.798668
#
# Coordination Sequence:
#
# PCOD9249105 Si02
#       7
#     4   4   4   4   4   4   4
#     4  10  23  45  66 105 133 181 243 292 356 425
#     4  11  23  40  72  98 135 188 234 293 348 430
#     4  10  22  46  70 100 140 179 243 296 356 421
#     4  12  27  46  69 109 154 195 242 297 376 440
#     4  12  27  45  75 102 148 192 239 302 371 442
#     4  11  27  47  72 106 147 190 240 303 367 435
#     4  10  26  47  72 103 139 192 243 305 361 430
#
# _framework density 22.493421000000001
#
# number of rings (size 3 to 8) (size 9 to 14) (size 15 to 20)
#    0.000    1.143    1.429    3.857   10.000    1.143 
#    5.143    0.000    0.000    0.000    0.000    0.000 
#    0.000    0.000    0.000    0.000    0.000    0.000 
#
# Total GULP energy -156269.486911 kJ/mol
# GULP energy per Si atom -5581.053104 kJ/mol
# Density = 2.244223 g / cm^3
# Si number density = 22.493421 Si / 1000 Ang^3
#
#
#
# Elastic Constant Matrix: (Units=GPa)
#
#
# Indices 1 2 3 4 5 6 
#
# 1 93.5835 32.8062 39.7357 0.0000 9.9923 0.0000
# 2 32.8062 127.3465 18.3908 0.0000 12.1811 0.0000
# 3 39.7357 18.3908 133.4997 0.0000 21.6810 0.0000
# 4 0.0000 0.0000 0.0000 16.0574 0.0000 7.2455
# 5 9.9923 12.1811 21.6810 0.0000 47.6151 0.0000
# 6 0.0000 0.0000 0.0000 7.2455 0.0000 22.3473
#
#
#
# Elastic Compliance Matrix: (Units=1/GPa)
#
#
# Indices 1 2 3 4 5 6 
#
# 1 0.013207 -0.002858 -0.003462 0.000000 -0.000464 0.000000
# 2 -0.002858 0.008755 -0.000096 0.000000 -0.001596 0.000000
# 3 -0.003462 -0.000096 0.009084 0.000000 -0.003385 0.000000
# 4 0.000000 0.000000 0.000000 0.072949 0.000000 -0.023652
# 5 -0.000464 -0.001596 -0.003385 0.000000 0.023049 0.000000
# 6 0.000000 0.000000 0.000000 -0.023652 0.000000 0.052417
#
#
# Mechanical properties :
#
#
# Convention : Reuss Voigt Hill
#
# Bulk Modulus (GPa) = 54.90192 59.58833 57.24512
# Shear Modulus (GPa) = 25.20614 34.77044 29.98829
#
# Velocity S-wave (km/s) = 3.35117 3.93594 3.65527
# Velocity P-wave (km/s) = 6.27971 6.87055 6.58176
#
# Compressibility (1/GPa) = 0.01821430
#
# Stress axis : x y z
#
# Youngs Moduli (GPa) = 75.71735 114.21485 110.08225
#
# Poissons Ratio (x) = 0.32642 0.38110
# Poissons Ratio (y) = 0.21640 0.01059
# Poissons Ratio (z) = 0.26213 0.01099
#
# Static dielectric constant tensor:
#      x y z
#    x 1.882750 0.000000 0.015790 
#    y 0.000000 1.847350 0.000000 
#    z 0.015790 0.000000 1.993130 
# 
# From -- ./inp_files/21880.got.cif
#   From: 2010.05.17/outbox.cif.g08.bks.cpg/sg14_11_cif.got.tgz:21880.got - 2010.06.03 17:49:19.
