data_PCOD9249425
_publ_section_title
;
Structure prediction by ZEFSAII (Michael W. Deem and Ramdas Pophale) SiO2 
 PCOD9249425
Probable space group: P 21/C
;
_chemical_formula_sum "Si O2"
_cell_formula_units_Z 32
_cell_length_a 6.466361
_cell_length_b 16.427140
_cell_length_c 14.781322
_cell_angle_alpha 90.000000
_cell_angle_beta 114.673151
_cell_angle_gamma 90.000000
_cell_volume 1426.781833
_symmetry_space_group_name_H-M "P 21/C"
_symmetry_group_IT_number 14
_symmetry_cell_setting 'monoclinic'
loop_
_space_group_symop_operation_xyz
x,y,z
-x,1/2+y,1/2-z
-x,-y,-z
x,1/2-y,1/2+z
loop_
_atom_site_type_symbol
_atom_site_label
_atom_site_fract_x
_atom_site_fract_y
_atom_site_fract_z
Si Si1 0.735544 0.511769 0.252446
Si Si2 0.969997 0.434733 0.133615
Si Si3 0.687444 0.137400 0.862109
Si Si4 0.583155 0.705755 0.528077
Si Si5 0.116249 0.121380 0.054894
Si Si6 0.039074 0.703667 0.150743
Si Si7 0.723452 0.444101 0.910209
Si Si8 0.907484 0.251452 0.639668
O O1 0.924637 0.488412 0.213670
O O2 0.639481 0.426840 0.275289
O O3 0.822331 0.562205 0.353204
O O4 0.536144 0.560740 0.166679
O O5 0.983937 0.341277 0.165546
O O6 0.172915 0.472612 0.111803
O O7 0.760926 0.440550 0.024204
O O8 0.482385 0.164588 0.888580
O O9 0.803738 0.218585 0.844721
O O10 0.883350 0.098357 0.961867
O O11 0.685645 0.636742 0.480867
O O12 0.352524 0.741765 0.442862
O O13 0.781334 0.771741 0.579074
O O14 0.061677 0.208361 0.090721
O O15 0.132552 0.628166 0.110655
O O16 0.062872 0.697115 0.263155
#
# Coordination Sequence:
#
# PCOD9249425 Si02
#       8
#     4   4   4   4   4   4   4   4
#     4  12  24  42  68  98 133 175 218 268 338 389
#     4  11  25  44  62  95 139 172 220 278 320 391
#     4  10  23  42  67  99 130 172 219 270 330 393
#     4  10  23  41  67  94 130 175 218 276 325 388
#     4  10  23  41  65  99 133 169 217 273 326 392
#     4  11  23  45  68  96 133 171 226 272 325 398
#     4  11  26  43  65  98 134 176 221 270 333 394
#     4  11  23  42  68  97 129 176 224 266 329 391
#
# _framework density 22.428094999999999
#
# number of rings (size 3 to 8) (size 9 to 14) (size 15 to 20)
#    0.000    1.250    1.250    4.500    1.750    9.500 
#    0.000    0.000    0.000    0.000    0.000    0.000 
#    0.000    0.000    0.000    0.000    0.000    0.000 
#
# Total GULP energy -179095.932150 kJ/mol
# GULP energy per Si atom -5596.747880 kJ/mol
# Density = 2.237705 g / cm^3
# Si number density = 22.428095 Si / 1000 Ang^3
#
#
#
# Elastic Constant Matrix: (Units=GPa)
#
#
# Indices 1 2 3 4 5 6 
#
# 1 54.7054 18.3360 -0.7962 0.0000 -16.5167 0.0000
# 2 18.3360 66.0419 -3.0270 0.0000 8.3236 0.0000
# 3 -0.7962 -3.0270 55.9980 0.0000 -6.7321 0.0000
# 4 0.0000 0.0000 0.0000 41.8506 0.0000 -13.5899
# 5 -16.5167 8.3236 -6.7321 0.0000 27.8769 0.0000
# 6 0.0000 0.0000 0.0000 -13.5899 0.0000 21.1245
#
#
#
# Elastic Compliance Matrix: (Units=1/GPa)
#
#
# Indices 1 2 3 4 5 6 
#
# 1 0.027745 -0.010121 0.002252 0.000000 0.020004 0.000000
# 2 -0.010121 0.019431 -0.000527 0.000000 -0.011926 0.000000
# 3 0.002252 -0.000527 0.018580 0.000000 0.005979 0.000000
# 4 0.000000 0.000000 0.000000 0.030204 0.000000 0.019431
# 5 0.020004 -0.011926 0.005979 0.000000 0.052729 0.000000
# 6 0.000000 0.000000 0.000000 0.019431 0.000000 0.059839
#
#
# Mechanical properties :
#
#
# Convention : Reuss Voigt Hill
#
# Bulk Modulus (GPa) = 20.42342 22.86343 21.64342
# Shear Modulus (GPa) = 20.69188 28.98588 24.83888
#
# Velocity S-wave (km/s) = 3.04071 3.59889 3.33151
# Velocity P-wave (km/s) = 4.63183 5.24266 4.94668
#
# Compressibility (1/GPa) = 0.04896340
#
# Stress axis : x y z
#
# Youngs Moduli (GPa) = 36.04314 51.46466 53.82106
#
# Poissons Ratio (x) = 0.52088 -0.12122
# Poissons Ratio (y) = 0.36479 0.02838
# Poissons Ratio (z) = -0.08118 0.02714
#
# Static dielectric constant tensor:
#      x y z
#    x 1.807390 0.000000 0.012270 
#    y 0.000000 1.835120 0.000000 
#    z 0.012270 0.000000 1.824360 
# 
# From -- ./inp_files/37891.got.cif
#   From: 2010.05.17/outbox.cif.g08.bks.cpg/sg14_19_cif.got.tgz:37891.got - 2010.06.03 17:49:19.
