data_PCOD9249080
_publ_section_title
;
Structure prediction by ZEFSAII (Michael W. Deem and Ramdas Pophale) SiO2 
 PCOD9249080
Probable space group: P 21/C
;
_chemical_formula_sum "Si O2"
_cell_formula_units_Z 32
_cell_length_a 12.832097
_cell_length_b 9.168169
_cell_length_c 30.134325
_cell_angle_alpha 90.000000
_cell_angle_beta 151.218935
_cell_angle_gamma 90.000000
_cell_volume 1706.890159
_symmetry_space_group_name_H-M "P 21/C"
_symmetry_group_IT_number 14
_symmetry_cell_setting 'monoclinic'
loop_
_space_group_symop_operation_xyz
x,y,z
-x,1/2+y,1/2-z
-x,-y,-z
x,1/2-y,1/2+z
loop_
_atom_site_type_symbol
_atom_site_label
_atom_site_fract_x
_atom_site_fract_y
_atom_site_fract_z
Si Si1 0.468063 0.306950 0.598273
Si Si2 0.300260 0.565930 0.652692
Si Si3 0.154796 0.580488 0.499677
Si Si4 0.280574 0.724642 0.966136
Si Si5 0.161600 0.393464 0.933979
Si Si6 0.214339 0.231862 0.861515
Si Si7 0.155613 0.888192 0.830464
Si Si8 0.331768 0.834849 0.730603
O O1 0.302048 0.442455 0.540163
O O2 0.328680 0.166243 0.532899
O O3 0.643150 0.341833 0.625664
O O4 0.588504 0.292209 0.690194
O O5 0.232822 0.620909 0.578334
O O6 0.341283 0.697972 0.701292
O O7 0.507983 0.462349 0.725565
O O8 0.093126 0.471741 0.591138
O O9 0.191406 0.707779 0.478287
O O10 0.222156 0.555188 0.941267
O O11 0.184393 0.813494 0.888827
O O12 0.538137 0.745825 0.060069
O O13 0.184833 0.285114 0.900861
O O14 0.915698 0.387347 0.858776
O O15 0.058464 0.328474 0.772892
O O16 0.155230 0.062206 0.834867
#
# Coordination Sequence:
#
# PCOD9249080 Si02
#       8
#     4   4   4   4   4   4   4   4
#     4  11  22  43  69  93 132 179 210 267 341 392
#     4  10  24  44  68  95 127 173 226 278 340 387
#     4  10  22  46  67  90 129 179 219 274 336 392
#     4  12  26  41  68  99 138 176 221 274 326 400
#     4  12  25  42  66 100 136 173 224 271 329 400
#     4  12  25  43  65  98 140 179 218 268 327 404
#     4  12  25  40  68 100 137 179 222 262 334 404
#     4  11  25  44  70  95 131 168 222 284 333 395
#
# _framework density 18.747546
#
# number of rings (size 3 to 8) (size 9 to 14) (size 15 to 20)
#    0.000    0.750    5.000    2.250    3.500    1.000 
#    0.000    1.250    0.000    0.000    0.000    0.000 
#    0.000    0.000    0.000    0.000    0.000    0.000 
#
# Total GULP energy -179018.178478 kJ/mol
# GULP energy per Si atom -5594.318077 kJ/mol
# Density = 1.870488 g / cm^3
# Si number density = 18.747546 Si / 1000 Ang^3
#
#
#
# Elastic Constant Matrix: (Units=GPa)
#
#
# Indices 1 2 3 4 5 6 
#
# 1 -42.7619 -30.3422 -98.0566 0.0000 -48.5801 0.0000
# 2 -30.3422 73.8424 -32.0464 0.0000 -47.7643 0.0000
# 3 -98.0566 -32.0464 -86.6295 0.0000 -64.4810 0.0000
# 4 0.0000 0.0000 0.0000 24.1874 0.0000 -4.3517
# 5 -48.5801 -47.7643 -64.4810 0.0000 -7.0546 0.0000
# 6 0.0000 0.0000 0.0000 -4.3517 0.0000 33.0750
#
#
#
# Elastic Compliance Matrix: (Units=1/GPa)
#
#
# Indices 1 2 3 4 5 6 
#
# 1 0.020834 -0.005863 -0.009620 0.000000 -0.015844 0.000000
# 2 -0.005863 0.015591 -0.008510 0.000000 0.012601 0.000000
# 3 -0.009620 -0.008510 0.015457 0.000000 -0.017416 0.000000
# 4 0.000000 0.000000 0.000000 0.042346 0.000000 0.005572
# 5 -0.015844 0.012601 -0.017416 0.000000 0.041230 0.000000
# 6 0.000000 0.000000 0.000000 0.005572 0.000000 0.030967
#
#
# Mechanical properties :
#
#
# Convention : Reuss Voigt Hill
#
# Bulk Modulus (GPa) = 256.70778 -41.82659 107.44060
# Shear Modulus (GPa) = 23.17928 17.03466 20.10697
#
# Velocity S-wave (km/s) = 3.52005 3.01763 3.27848
# Velocity P-wave (km/s) = 12.39948 3.19647 8.47141
#
# Compressibility (1/GPa) = 0.00389548
#
# Stress axis : x y z
#
# Youngs Moduli (GPa) = 47.99899 64.14123 64.69502
#
# Poissons Ratio (x) = 0.37604 0.62236
# Poissons Ratio (y) = 0.28141 0.55057
# Poissons Ratio (z) = 0.46175 0.54586
#
# Static dielectric constant tensor:
#      x y z
#    x 1.635770 0.000000 -0.003590 
#    y 0.000000 1.609390 0.000000 
#    z -0.003590 0.000000 1.635050 
# 
# From -- ./inp_files/80016.got.cif
#   From: 2010.05.17/outbox.cif.g08.bks.cpg/sg14_41_cif.got.tgz:80016.got - 2010.06.03 17:49:19.
