data_PCOD9249653
_publ_section_title
;
Structure prediction by ZEFSAII (Michael W. Deem and Ramdas Pophale) SiO2 
 PCOD9249653
Probable space group: P 21/C
;
_chemical_formula_sum "Si O2"
_cell_formula_units_Z 32
_cell_length_a 8.604725
_cell_length_b 7.152201
_cell_length_c 23.958159
_cell_angle_alpha 90.000000
_cell_angle_beta 117.676488
_cell_angle_gamma 90.000000
_cell_volume 1305.750076
_symmetry_space_group_name_H-M "P 21/C"
_symmetry_group_IT_number 14
_symmetry_cell_setting 'monoclinic'
loop_
_space_group_symop_operation_xyz
x,y,z
-x,1/2+y,1/2-z
-x,-y,-z
x,1/2-y,1/2+z
loop_
_atom_site_type_symbol
_atom_site_label
_atom_site_fract_x
_atom_site_fract_y
_atom_site_fract_z
Si Si1 0.201172 0.303314 0.965722
Si Si2 0.572242 0.669903 0.102555
Si Si3 0.825766 0.965914 0.733151
Si Si4 0.796292 0.134188 0.169690
Si Si5 0.250469 0.185812 0.159121
Si Si6 0.890274 0.275017 0.064593
Si Si7 0.813030 0.332355 0.430949
Si Si8 0.460888 0.239161 0.604243
O O1 0.335379 0.248867 0.937941
O O2 0.199468 0.529227 0.963923
O O3 0.992763 0.253475 0.932621
O O4 0.293072 0.230684 0.037213
O O5 0.733122 0.671718 0.173558
O O6 0.379623 0.732614 0.092833
O O7 0.543153 0.444990 0.089951
O O8 0.750725 0.892250 0.779280
O O9 0.036436 0.964312 0.776136
O O10 0.789754 0.173638 0.704722
O O11 0.829526 0.169533 0.109739
O O12 0.591485 0.084165 0.131832
O O13 0.411251 0.298709 0.160276
O O14 0.087613 0.317463 0.116852
O O15 0.226366 0.005648 0.115658
O O16 0.872347 0.152766 0.005932
#
# Coordination Sequence:
#
# PCOD9249653 Si02
#       8
#     4   4   4   4   4   4   4   4
#     4  12  22  42  73 101 132 175 233 284 329 397
#     4  11  24  43  69 101 126 182 238 277 323 406
#     4  10  24  45  64  94 134 178 229 274 336 405
#     4  10  23  42  71  91 134 175 226 286 329 401
#     4  11  26  41  62 100 144 181 210 279 357 404
#     4  11  20  43  68  97 132 176 223 282 336 391
#     4  12  25  41  68 104 143 170 226 285 347 405
#     4  11  21  43  66  97 133 172 228 278 335 401
#
# _framework density 24.506986999999999
#
# number of rings (size 3 to 8) (size 9 to 14) (size 15 to 20)
#    0.000    1.000    5.000    2.625    1.750    3.000 
#    2.250    2.500    0.000    0.000    0.000    0.000 
#    0.000    0.000    0.000    0.000    0.000    0.000 
#
# Total GULP energy -178280.223125 kJ/mol
# GULP energy per Si atom -5571.256973 kJ/mol
# Density = 2.445121 g / cm^3
# Si number density = 24.506987 Si / 1000 Ang^3
#
#
#
# Elastic Constant Matrix: (Units=GPa)
#
#
# Indices 1 2 3 4 5 6 
#
# 1 129.8379 11.7429 12.6625 0.0000 11.1409 0.0000
# 2 11.7429 42.3483 18.2126 0.0000 12.7761 0.0000
# 3 12.6625 18.2126 97.1260 0.0000 -11.8204 0.0000
# 4 0.0000 0.0000 0.0000 23.9068 0.0000 16.6890
# 5 11.1409 12.7761 -11.8204 0.0000 34.2527 0.0000
# 6 0.0000 0.0000 0.0000 16.6890 0.0000 31.1046
#
#
#
# Elastic Compliance Matrix: (Units=1/GPa)
#
#
# Indices 1 2 3 4 5 6 
#
# 1 0.008138 -0.000907 -0.001223 0.000000 -0.002731 0.000000
# 2 -0.000907 0.031270 -0.007442 0.000000 -0.013937 0.000000
# 3 -0.001223 -0.007442 0.012773 0.000000 0.007582 0.000000
# 4 0.000000 0.000000 0.000000 0.066879 0.000000 -0.035884
# 5 -0.002731 -0.013937 0.007582 0.000000 0.037898 0.000000
# 6 0.000000 0.000000 0.000000 -0.035884 0.000000 0.051403
#
#
# Mechanical properties :
#
#
# Convention : Reuss Voigt Hill
#
# Bulk Modulus (GPa) = 30.26790 39.39426 34.83108
# Shear Modulus (GPa) = 20.96299 32.96576 26.96438
#
# Velocity S-wave (km/s) = 2.92788 3.67162 3.32063
# Velocity P-wave (km/s) = 4.87929 5.83815 5.38012
#
# Compressibility (1/GPa) = 0.03303830
#
# Stress axis : x y z
#
# Youngs Moduli (GPa) = 122.88760 31.97957 78.28731
#
# Poissons Ratio (x) = 0.02899 0.09577
# Poissons Ratio (y) = 0.11140 0.58258
# Poissons Ratio (z) = 0.15032 0.23798
#
# Static dielectric constant tensor:
#      x y z
#    x 2.175030 0.000000 0.076980 
#    y 0.000000 2.020270 0.000000 
#    z 0.076980 0.000000 1.909330 
# 
# From -- ./inp_files/72094.got.cif
#   From: 2010.05.17/outbox.cif.g08.bks.cpg/sg14_37_cif.got.tgz:72094.got - 2010.06.03 17:49:19.
