data_PCOD9249119
_publ_section_title
;
Structure prediction by ZEFSAII (Michael W. Deem and Ramdas Pophale) SiO2 
 PCOD9249119
Probable space group: P 21/C
;
_chemical_formula_sum "Si O2"
_cell_formula_units_Z 20
_cell_length_a 18.166268
_cell_length_b 8.436569
_cell_length_c 13.761227
_cell_angle_alpha 90.000000
_cell_angle_beta 21.293241
_cell_angle_gamma 90.000000
_cell_volume 765.886484
_symmetry_space_group_name_H-M "P 21/C"
_symmetry_group_IT_number 14
_symmetry_cell_setting 'monoclinic'
loop_
_space_group_symop_operation_xyz
x,y,z
-x,1/2+y,1/2-z
-x,-y,-z
x,1/2-y,1/2+z
loop_
_atom_site_type_symbol
_atom_site_label
_atom_site_fract_x
_atom_site_fract_y
_atom_site_fract_z
Si Si1 0.578189 0.649529 0.732250
Si Si2 0.903407 0.691924 0.030552
Si Si3 0.283117 0.642570 0.712101
Si Si4 0.880334 0.119562 0.935742
Si Si5 0.756009 0.890612 0.369007
O O1 0.743490 0.527253 0.570533
O O2 0.664510 0.734571 0.531787
O O3 0.485434 0.788468 0.913713
O O4 0.390306 0.537239 0.941074
O O5 0.751066 0.542355 0.226340
O O6 0.791542 0.843306 0.213956
O O7 0.095572 0.674629 0.867834
O O8 0.998862 0.686002 0.806269
O O9 0.247148 0.742593 0.854618
O O10 0.045969 0.073573 0.812110
#
# Coordination Sequence:
#
# PCOD9249119 Si02
#       5
#     4   4   4   4   4
#     4  12  25  46  72 105 143 184 237 291 347 419
#     4  10  22  46  72 101 143 186 232 289 352 415
#     4  10  23  43  71 104 140 185 235 288 345 416
#     4  11  24  43  70 101 139 185 229 283 350 413
#     4  11  27  46  72 105 141 186 234 292 352 416
#
# _framework density 26.113530000000001
#
# number of rings (size 3 to 8) (size 9 to 14) (size 15 to 20)
#    0.000    1.200    0.000    6.600    0.000   14.400 
#    0.000    3.000    0.000    0.000    0.000    0.000 
#    0.000    0.000    0.000    0.000    0.000    0.000 
#
# Total GULP energy -112267.056982 kJ/mol
# GULP energy per Si atom -5613.352849 kJ/mol
# Density = 2.605409 g / cm^3
# Si number density = 26.113530 Si / 1000 Ang^3
#
#
#
# Elastic Constant Matrix: (Units=GPa)
#
#
# Indices 1 2 3 4 5 6 
#
# 1 95.4334 70.8955 53.8547 0.0000 29.5407 0.0000
# 2 70.8955 111.6413 78.6578 0.0000 18.5756 0.0000
# 3 53.8547 78.6578 145.6938 0.0000 39.0500 0.0000
# 4 0.0000 0.0000 0.0000 59.4616 0.0000 -8.4839
# 5 29.5407 18.5756 39.0500 0.0000 53.0262 0.0000
# 6 0.0000 0.0000 0.0000 -8.4839 0.0000 57.4365
#
#
#
# Elastic Compliance Matrix: (Units=1/GPa)
#
#
# Indices 1 2 3 4 5 6 
#
# 1 0.022863 -0.014146 0.001585 0.000000 -0.008948 0.000000
# 2 -0.014146 0.023240 -0.009030 0.000000 0.006390 0.000000
# 3 0.001585 -0.009030 0.013135 0.000000 -0.007392 0.000000
# 4 0.000000 0.000000 0.000000 0.017180 0.000000 0.002538
# 5 -0.008948 0.006390 -0.007392 0.000000 0.027049 0.000000
# 6 0.000000 0.000000 0.000000 0.002538 0.000000 0.017785
#
#
# Mechanical properties :
#
#
# Convention : Reuss Voigt Hill
#
# Bulk Modulus (GPa) = 62.29248 84.39828 73.34538
# Shear Modulus (GPa) = 29.44860 43.94222 36.69541
#
# Velocity S-wave (km/s) = 3.36179 4.10657 3.75270
# Velocity P-wave (km/s) = 6.24300 7.40777 6.85019
#
# Compressibility (1/GPa) = 0.01605330
#
# Stress axis : x y z
#
# Youngs Moduli (GPa) = 43.73831 43.02945 76.13444
#
# Poissons Ratio (x) = 0.60871 -0.12064
# Poissons Ratio (y) = 0.61874 0.68753
# Poissons Ratio (z) = -0.06931 0.38858
#
# Static dielectric constant tensor:
#      x y z
#    x 2.030480 0.000000 -0.040480 
#    y 0.000000 2.016580 0.000000 
#    z -0.040480 0.000000 2.019010 
# 
# From -- ./inp_files/49994.got.cif
#   From: 2010.05.17/outbox.cif.g08.bks.cpg/sg14_25_cif.got.tgz:49994.got - 2010.06.03 17:49:19.
