data_PCOD9249297
_publ_section_title
;
Structure prediction by ZEFSAII (Michael W. Deem and Ramdas Pophale) SiO2 
 PCOD9249297
Probable space group: P 21/C
;
_chemical_formula_sum "Si O2"
_cell_formula_units_Z 24
_cell_length_a 19.025632
_cell_length_b 7.548210
_cell_length_c 18.979239
_cell_angle_alpha 90.000000
_cell_angle_beta 21.915428
_cell_angle_gamma 90.000000
_cell_volume 1017.295814
_symmetry_space_group_name_H-M "P 21/C"
_symmetry_group_IT_number 14
_symmetry_cell_setting 'monoclinic'
loop_
_space_group_symop_operation_xyz
x,y,z
-x,1/2+y,1/2-z
-x,-y,-z
x,1/2-y,1/2+z
loop_
_atom_site_type_symbol
_atom_site_label
_atom_site_fract_x
_atom_site_fract_y
_atom_site_fract_z
Si Si1 0.984621 0.826905 0.785493
Si Si2 0.552080 0.477143 0.814324
Si Si3 0.814651 0.481429 0.019710
Si Si4 0.807425 0.455588 0.772836
Si Si5 0.911673 0.224663 0.042199
Si Si6 0.417918 0.127639 0.860955
O O1 0.905698 0.651854 0.897872
O O2 0.130763 0.820270 0.585051
O O3 0.088020 0.936031 0.749948
O O4 0.798966 0.919362 0.925145
O O5 0.750130 0.405071 0.658716
O O6 0.452671 0.312211 0.867626
O O7 0.568593 0.618133 0.736394
O O8 0.412503 0.539814 0.005168
O O9 0.887852 0.413571 0.026940
O O10 0.588813 0.489793 0.231412
O O11 0.868509 0.295786 0.664769
O O12 0.889218 0.633658 0.661011
#
# Coordination Sequence:
#
# PCOD9249297 Si02
#       6
#     4   4   4   4   4   4
#     4  12  22  37  62  87 122 151 202 251 300 353
#     4  11  21  38  59  88 119 156 200 244 295 350
#     4  11  24  38  60  91 118 157 198 253 301 349
#     4  11  22  40  61  88 119 163 199 241 299 357
#     4  10  23  40  61  85 124 160 199 242 296 361
#     4  11  21  35  58  88 118 151 194 247 298 344
#
# _framework density 23.591958000000002
#
# number of rings (size 3 to 8) (size 9 to 14) (size 15 to 20)
#    0.000    1.000    5.000    2.500    2.333    0.667 
#    0.000    0.000    0.000    1.000    0.000    0.000 
#    0.000    0.000    0.000    0.000    0.000    0.000 
#
# Total GULP energy -134094.416452 kJ/mol
# GULP energy per Si atom -5587.267352 kJ/mol
# Density = 2.353826 g / cm^3
# Si number density = 23.591958 Si / 1000 Ang^3
#
#
#
# Elastic Constant Matrix: (Units=GPa)
#
#
# Indices 1 2 3 4 5 6 
#
# 1 65.7430 -20.2411 1.2229 0.0000 2.6638 0.0000
# 2 -20.2411 53.6064 0.9842 0.0000 -5.5003 0.0000
# 3 1.2229 0.9842 82.9161 0.0000 -0.9198 0.0000
# 4 0.0000 0.0000 0.0000 24.1622 0.0000 -0.9380
# 5 2.6638 -5.5003 -0.9198 0.0000 32.0788 0.0000
# 6 0.0000 0.0000 0.0000 -0.9380 0.0000 33.0709
#
#
#
# Elastic Compliance Matrix: (Units=1/GPa)
#
#
# Indices 1 2 3 4 5 6 
#
# 1 0.017224 0.006476 -0.000335 0.000000 -0.000329 0.000000
# 2 0.006476 0.021426 -0.000315 0.000000 0.003127 0.000000
# 3 -0.000335 -0.000315 0.012073 0.000000 0.000320 0.000000
# 4 0.000000 0.000000 0.000000 0.041433 0.000000 0.001175
# 5 -0.000329 0.003127 0.000320 0.000000 0.031746 0.000000
# 6 0.000000 0.000000 0.000000 0.001175 0.000000 0.030271
#
#
# Mechanical properties :
#
#
# Convention : Reuss Voigt Hill
#
# Bulk Modulus (GPa) = 16.03189 18.46638 17.24913
# Shear Modulus (GPa) = 30.61619 32.54903 31.58261
#
# Velocity S-wave (km/s) = 3.60632 3.71842 3.66280
# Velocity P-wave (km/s) = 4.91436 5.12639 5.02150
#
# Compressibility (1/GPa) = 0.06237570
#
# Stress axis : x y z
#
# Youngs Moduli (GPa) = 58.05796 46.67145 82.83217
#
# Poissons Ratio (x) = -0.30224 0.02771
# Poissons Ratio (y) = -0.37598 0.02610
# Poissons Ratio (z) = 0.01942 0.01471
#
# Static dielectric constant tensor:
#      x y z
#    x 1.866880 0.000000 -0.015490 
#    y 0.000000 1.957220 0.000000 
#    z -0.015490 0.000000 1.884890 
# 
# From -- ./inp_files/69729.got.cif
#   From: 2010.05.17/outbox.cif.g08.bks.cpg/sg14_35_cif.got.tgz:69729.got - 2010.06.03 17:49:19.
