data_PCOD9249663
_publ_section_title
;
Structure prediction by ZEFSAII (Michael W. Deem and Ramdas Pophale) SiO2 
 PCOD9249663
Probable space group: P 21/C
;
_chemical_formula_sum "Si O2"
_cell_formula_units_Z 28
_cell_length_a 17.770613
_cell_length_b 13.856940
_cell_length_c 9.882710
_cell_angle_alpha 90.000000
_cell_angle_beta 26.943671
_cell_angle_gamma 90.000000
_cell_volume 1102.690349
_symmetry_space_group_name_H-M "P 21/C"
_symmetry_group_IT_number 14
_symmetry_cell_setting 'monoclinic'
loop_
_space_group_symop_operation_xyz
x,y,z
-x,1/2+y,1/2-z
-x,-y,-z
x,1/2-y,1/2+z
loop_
_atom_site_type_symbol
_atom_site_label
_atom_site_fract_x
_atom_site_fract_y
_atom_site_fract_z
Si Si1 0.979626 0.667213 0.169868
Si Si2 0.048201 0.536423 0.717812
Si Si3 0.886277 0.251648 0.285651
Si Si4 0.738937 0.938256 0.549090
Si Si5 0.348449 0.414816 0.309806
Si Si6 0.513779 0.914771 0.681319
Si Si7 0.582564 0.356364 0.383009
O O1 0.039608 0.554990 0.065851
O O2 0.996984 0.691175 0.300515
O O3 0.788436 0.662335 0.426208
O O4 0.074933 0.749644 0.935168
O O5 0.070502 0.637176 0.755528
O O6 0.232058 0.492695 0.416385
O O7 0.929103 0.558546 0.783519
O O8 0.589418 0.358017 0.537602
O O9 0.702416 0.220441 0.622645
O O10 0.691690 0.918844 0.470495
O O11 0.661502 0.042513 0.707948
O O12 0.615846 0.863728 0.826266
O O13 0.437439 0.477606 0.281677
O O14 0.466518 0.376760 0.002387
#
# Coordination Sequence:
#
# PCOD9249663 Si02
#       7
#     4   4   4   4   4   4   4
#     4  10  26  43  71 107 147 192 261 319 376 458
#     4  10  23  42  73 108 143 199 244 322 372 450
#     4  12  24  43  73 109 149 199 250 315 388 450
#     4   9  19  38  70 105 141 188 245 310 375 441
#     4   9  21  41  69 107 148 194 246 303 380 456
#     4   9  19  38  74 103 144 199 239 300 382 455
#     4   9  20  38  70 104 142 192 243 300 374 465
#
# _framework density 25.392441000000002
#
# number of rings (size 3 to 8) (size 9 to 14) (size 15 to 20)
#    1.714    0.571    1.429    0.429    4.000    2.857 
#    0.000    2.857    0.000    0.000    0.000    0.000 
#    0.000    0.000    0.000    0.000    0.000    0.000 
#
# Total GULP energy -155983.391670 kJ/mol
# GULP energy per Si atom -5570.835417 kJ/mol
# Density = 2.533465 g / cm^3
# Si number density = 25.392441 Si / 1000 Ang^3
#
#
#
# Elastic Constant Matrix: (Units=GPa)
#
#
# Indices 1 2 3 4 5 6 
#
# 1 76.9520 24.2475 44.2137 0.0000 9.0841 0.0000
# 2 24.2475 95.2222 41.4329 0.0000 -0.8601 0.0000
# 3 44.2137 41.4329 71.7001 0.0000 -7.9590 0.0000
# 4 0.0000 0.0000 0.0000 45.7807 0.0000 8.3088
# 5 9.0841 -0.8601 -7.9590 0.0000 34.2523 0.0000
# 6 0.0000 0.0000 0.0000 8.3088 0.0000 22.2316
#
#
#
# Elastic Compliance Matrix: (Units=1/GPa)
#
#
# Indices 1 2 3 4 5 6 
#
# 1 0.022881 0.000927 -0.015722 0.000000 -0.009698 0.000000
# 2 0.000927 0.014150 -0.008967 0.000000 -0.001974 0.000000
# 3 -0.015722 -0.008967 0.030036 0.000000 0.010924 0.000000
# 4 0.000000 0.000000 0.000000 0.023433 0.000000 -0.008758
# 5 -0.009698 -0.001974 0.010924 0.000000 0.034256 0.000000
# 6 0.000000 0.000000 0.000000 -0.008758 0.000000 0.048254
#
#
# Mechanical properties :
#
#
# Convention : Reuss Voigt Hill
#
# Bulk Modulus (GPa) = 51.17017 51.51807 51.34412
# Shear Modulus (GPa) = 22.02181 29.38495 25.70338
#
# Velocity S-wave (km/s) = 2.94812 3.40550 3.18503
# Velocity P-wave (km/s) = 5.63773 5.98298 5.81292
#
# Compressibility (1/GPa) = 0.01954264
#
# Stress axis : x y z
#
# Youngs Moduli (GPa) = 43.70442 70.67261 33.29332
#
# Poissons Ratio (x) = -0.06549 0.52342
# Poissons Ratio (y) = -0.04050 0.29855
# Poissons Ratio (z) = 0.68710 0.63374
#
# Static dielectric constant tensor:
#      x y z
#    x 2.107130 0.000000 0.082100 
#    y 0.000000 2.036450 0.000000 
#    z 0.082100 0.000000 2.120760 
# 
# From -- ./inp_files/50742.got.cif
#   From: 2010.05.17/outbox.cif.g08.bks.cpg/sg14_26_cif.got.tgz:50742.got - 2010.06.03 17:49:19.
