data_PCOD9249386
_publ_section_title
;
Structure prediction by ZEFSAII (Michael W. Deem and Ramdas Pophale) SiO2 
 PCOD9249386
Probable space group: P 21/C
;
_chemical_formula_sum "Si O2"
_cell_formula_units_Z 30
_cell_length_a 10.232425
_cell_length_b 13.913984
_cell_length_c 17.815828
_cell_angle_alpha 90.000000
_cell_angle_beta 26.449478
_cell_angle_gamma 90.000000
_cell_volume 1129.781841
_symmetry_space_group_name_H-M "P 21/C"
_symmetry_group_IT_number 14
_symmetry_cell_setting 'monoclinic'
loop_
_space_group_symop_operation_xyz
x,y,z
-x,1/2+y,1/2-z
-x,-y,-z
x,1/2-y,1/2+z
loop_
_atom_site_type_symbol
_atom_site_label
_atom_site_fract_x
_atom_site_fract_y
_atom_site_fract_z
Si Si1 0.128805 0.836832 0.860651
Si Si2 0.711112 0.569021 0.118538
Si Si3 0.404352 0.244723 0.161710
Si Si4 0.000000 0.500000 0.500000
Si Si5 0.121647 0.886205 0.089271
Si Si6 0.752253 0.347340 0.115144
Si Si7 0.867566 0.540235 0.872151
Si Si8 0.277656 0.855965 0.623002
O O1 0.369550 0.912120 0.774403
O O2 0.269122 0.736083 0.812191
O O3 0.086225 0.832167 0.793965
O O4 0.871118 0.887955 0.038027
O O5 0.886199 0.569804 0.948774
O O6 0.884813 0.647659 0.077885
O O7 0.707525 0.460704 0.149088
O O8 0.085123 0.291864 0.316350
O O9 0.577090 0.308789 0.134235
O O10 0.560768 0.270303 0.000913
O O11 0.540845 0.138520 0.100523
O O12 0.978660 0.462571 0.421613
O O13 0.066445 0.920524 0.202590
O O14 0.877314 0.425490 0.856800
O O15 0.541905 0.580090 0.021153
#
# Coordination Sequence:
#
# PCOD9249386 Si02
#       8
#     4   4   4   2   4   4   4   4
#     4  11  23  39  63  92 129 171 221 276 325 394
#     4  10  23  41  61  91 134 171 219 272 329 400
#     4  11  23  41  66  94 130 174 225 271 332 404
#     4  12  22  38  62 100 130 168 222 276 318 390
#     4  11  24  40  68  98 133 173 223 277 331 392
#     4  11  23  37  61  96 126 174 210 267 335 392
#     4   9  17  37  64  88 122 171 219 268 323 395
#     4   9  18  36  63  90 120 166 226 267 321 396
#
# _framework density 26.553799000000001
#
# number of rings (size 3 to 8) (size 9 to 14) (size 15 to 20)
#    0.000    1.600    4.000    0.800    3.733    1.067 
#    0.000    0.000    0.000    0.800    0.000    0.000 
#    0.000    0.000    0.000    0.000    0.000    0.000 
#
# Total GULP energy -167091.727409 kJ/mol
# GULP energy per Si atom -5569.724247 kJ/mol
# Density = 2.649336 g / cm^3
# Si number density = 26.553799 Si / 1000 Ang^3
#
#
#
# Elastic Constant Matrix: (Units=GPa)
#
#
# Indices 1 2 3 4 5 6 
#
# 1 57.8713 -17.1290 25.0247 0.0000 3.9625 0.0000
# 2 -17.1290 76.6892 -19.2897 0.0000 -10.8617 0.0000
# 3 25.0247 -19.2897 76.0011 0.0000 21.7100 0.0000
# 4 0.0000 0.0000 0.0000 28.3007 0.0000 -10.5350
# 5 3.9625 -10.8617 21.7100 0.0000 35.8986 0.0000
# 6 0.0000 0.0000 0.0000 -10.5350 0.0000 33.0660
#
#
#
# Elastic Compliance Matrix: (Units=1/GPa)
#
#
# Indices 1 2 3 4 5 6 
#
# 1 0.021066 0.003376 -0.006899 0.000000 0.002868 0.000000
# 2 0.003376 0.014660 0.001751 0.000000 0.003004 0.000000
# 3 -0.006899 0.001751 0.018743 0.000000 -0.010043 0.000000
# 4 0.000000 0.000000 0.000000 0.040090 0.000000 0.012773
# 5 0.002868 0.003004 -0.010043 0.000000 0.034522 0.000000
# 6 0.000000 0.000000 0.000000 0.012773 0.000000 0.034312
#
#
# Mechanical properties :
#
#
# Convention : Reuss Voigt Hill
#
# Bulk Modulus (GPa) = 19.63678 20.86373 20.25025
# Shear Modulus (GPa) = 27.18721 34.25008 30.71865
#
# Velocity S-wave (km/s) = 3.20324 3.59533 3.40493
# Velocity P-wave (km/s) = 4.59262 5.01093 4.80633
#
# Compressibility (1/GPa) = 0.05092485
#
# Stress axis : x y z
#
# Youngs Moduli (GPa) = 47.47038 68.21467 53.35437
#
# Poissons Ratio (x) = -0.23030 0.36808
# Poissons Ratio (y) = -0.16027 -0.09342
# Poissons Ratio (z) = 0.32748 -0.11944
#
# Static dielectric constant tensor:
#      x y z
#    x 2.074610 0.000000 0.105700 
#    y 0.000000 2.052680 0.000000 
#    z 0.105700 0.000000 1.524430 
# 
# From -- ./inp_files/67333.got.cif
#   From: 2010.05.17/outbox.cif.g08.bks.cpg/sg14_34_cif.got.tgz:67333.got - 2010.06.03 17:49:19.
