data_PCOD9249400
_publ_section_title
;
Structure prediction by ZEFSAII (Michael W. Deem and Ramdas Pophale) SiO2 
 PCOD9249400
Probable space group: P 21/C
;
_chemical_formula_sum "Si O2"
_cell_formula_units_Z 20
_cell_length_a 5.742480
_cell_length_b 9.815888
_cell_length_c 13.731539
_cell_angle_alpha 90.000000
_cell_angle_beta 96.990911
_cell_angle_gamma 90.000000
_cell_volume 768.258659
_symmetry_space_group_name_H-M "P 21/C"
_symmetry_group_IT_number 14
_symmetry_cell_setting 'monoclinic'
loop_
_space_group_symop_operation_xyz
x,y,z
-x,1/2+y,1/2-z
-x,-y,-z
x,1/2-y,1/2+z
loop_
_atom_site_type_symbol
_atom_site_label
_atom_site_fract_x
_atom_site_fract_y
_atom_site_fract_z
Si Si1 0.699019 0.114409 0.517170
Si Si2 0.100079 0.522626 0.163896
Si Si3 0.628249 0.643164 0.502258
Si Si4 0.556883 0.678947 0.715077
Si Si5 0.228279 0.429618 0.684983
O O1 0.566056 0.248893 0.540799
O O2 0.891900 0.060444 0.600549
O O3 0.500000 0.000000 0.500000
O O4 0.808682 0.124630 0.414619
O O5 0.290753 0.411971 0.203876
O O6 0.992529 0.585306 0.255998
O O7 0.500000 0.500000 0.500000
O O8 0.685379 0.683280 0.615738
O O9 0.817532 0.624141 0.426737
O O10 0.324035 0.585500 0.690112
O O11 0.569517 0.831193 0.758605
#
# Coordination Sequence:
#
# PCOD9249400 Si02
#       5
#     4   4   4   4   4
#     4  11  23  46  70  96 130 175 229 275 322 387
#     4  11  24  39  72 102 126 173 232 275 318 394
#     4  10  23  41  63  92 135 172 203 266 339 391
#     4  11  24  43  67  97 135 177 219 273 334 394
#     4  11  24  43  67  97 135 177 219 273 334 394
#
# _framework density 26.032896999999998
#
# number of rings (size 3 to 8) (size 9 to 14) (size 15 to 20)
#    0.000    1.200    0.000    6.000    0.000   10.400 
#    0.000    0.000    0.000    0.000    0.000    0.000 
#    0.000    0.000    0.000    0.000    0.000    0.000 
#
# Total GULP energy -112085.359586 kJ/mol
# GULP energy per Si atom -5604.267979 kJ/mol
# Density = 2.597364 g / cm^3
# Si number density = 26.032897 Si / 1000 Ang^3
#
#
#
# Elastic Constant Matrix: (Units=GPa)
#
#
# Indices 1 2 3 4 5 6 
#
# 1 66.1139 20.5728 23.0937 0.0000 -26.2564 0.0000
# 2 20.5728 138.7166 1.5842 0.0000 -15.2221 0.0000
# 3 23.0937 1.5842 137.8427 0.0000 -45.2986 0.0000
# 4 0.0000 0.0000 0.0000 31.6444 0.0000 -6.0914
# 5 -26.2564 -15.2221 -45.2986 0.0000 69.9357 0.0000
# 6 0.0000 0.0000 0.0000 -6.0914 0.0000 19.0649
#
#
#
# Elastic Compliance Matrix: (Units=1/GPa)
#
#
# Indices 1 2 3 4 5 6 
#
# 1 0.018459 -0.002099 -0.001196 0.000000 0.005699 0.000000
# 2 -0.002099 0.007659 0.000702 0.000000 0.001334 0.000000
# 3 -0.001196 0.000702 0.009337 0.000000 0.005752 0.000000
# 4 0.000000 0.000000 0.000000 0.033672 0.000000 0.010758
# 5 0.005699 0.001334 0.005752 0.000000 0.020454 0.000000
# 6 0.000000 0.000000 0.000000 0.010758 0.000000 0.055890
#
#
# Mechanical properties :
#
#
# Convention : Reuss Voigt Hill
#
# Bulk Modulus (GPa) = 33.03587 48.13051 40.58319
# Shear Modulus (GPa) = 31.10500 43.95718 37.53109
#
# Velocity S-wave (km/s) = 3.46039 4.11362 3.80106
# Velocity P-wave (km/s) = 5.35568 6.41023 5.90654
#
# Compressibility (1/GPa) = 0.03027013
#
# Stress axis : x y z
#
# Youngs Moduli (GPa) = 54.17283 130.57351 107.10044
#
# Poissons Ratio (x) = 0.27403 0.12805
# Poissons Ratio (y) = 0.11369 -0.07517
# Poissons Ratio (z) = 0.06477 -0.09164
#
# Static dielectric constant tensor:
#      x y z
#    x 2.024200 0.000000 -0.043020 
#    y 0.000000 1.984800 0.000000 
#    z -0.043020 0.000000 2.069950 
# 
# From -- ./inp_files/37064.got.cif
#   From: 2010.05.17/outbox.cif.g08.bks.cpg/sg14_19_cif.got.tgz:37064.got - 2010.06.03 17:49:19.
