data_PCOD9249115
_publ_section_title
;
Structure prediction by ZEFSAII (Michael W. Deem and Ramdas Pophale) SiO2 
 PCOD9249115
Probable space group: P 21/C
;
_chemical_formula_sum "Si O2"
_cell_formula_units_Z 24
_cell_length_a 12.136153
_cell_length_b 18.927759
_cell_length_c 14.622799
_cell_angle_alpha 90.000000
_cell_angle_beta 160.250738
_cell_angle_gamma 90.000000
_cell_volume 1135.023488
_symmetry_space_group_name_H-M "P 21/C"
_symmetry_group_IT_number 14
_symmetry_cell_setting 'monoclinic'
loop_
_space_group_symop_operation_xyz
x,y,z
-x,1/2+y,1/2-z
-x,-y,-z
x,1/2-y,1/2+z
loop_
_atom_site_type_symbol
_atom_site_label
_atom_site_fract_x
_atom_site_fract_y
_atom_site_fract_z
Si Si1 0.306322 0.780200 0.291563
Si Si2 0.846118 0.536989 0.791123
Si Si3 0.373665 0.002565 0.556218
Si Si4 0.657588 0.146599 0.852816
Si Si5 0.644481 0.596179 0.133469
Si Si6 0.307598 0.308580 0.258754
O O1 0.479538 0.799232 0.330222
O O2 0.327110 0.857398 0.357932
O O3 0.509136 0.731259 0.517341
O O4 0.973674 0.738798 0.008389
O O5 0.500000 0.500000 0.500000
O O6 0.822998 0.618915 0.799850
O O7 0.000000 0.500000 0.000000
O O8 0.076450 0.525579 0.883397
O O9 0.530921 0.067338 0.734785
O O10 0.284221 0.038066 0.389101
O O11 0.605852 0.939662 0.702056
O O12 0.562403 0.170224 0.878609
O O13 0.039089 0.144724 0.127899
#
# Coordination Sequence:
#
# PCOD9249115 Si02
#       6
#     4   4   4   4   4   4
#     4  11  26  45  66 104 136 190 231 281 350 427
#     4  12  25  46  69 106 137 185 235 288 355 416
#     4  10  23  41  74 104 140 185 237 299 345 418
#     4  11  23  45  73  98 149 180 239 293 358 418
#     4  10  22  46  71 107 137 188 235 292 349 420
#     4  12  26  44  73 101 145 184 235 288 364 423
#
# _framework density 21.144938
#
# number of rings (size 3 to 8) (size 9 to 14) (size 15 to 20)
#    0.000    1.000    3.333    2.500    4.667    2.667 
#    0.000    0.000    0.000    0.000    0.000    0.000 
#    0.000    0.000    0.000    0.000    0.000    0.000 
#
# Total GULP energy -133967.821540 kJ/mol
# GULP energy per Si atom -5581.992564 kJ/mol
# Density = 2.109681 g / cm^3
# Si number density = 21.144938 Si / 1000 Ang^3
#
#
#
# Elastic Constant Matrix: (Units=GPa)
#
#
# Indices 1 2 3 4 5 6 
#
# 1 134.3226 88.3096 69.2303 0.0000 11.5400 0.0000
# 2 88.3096 108.0969 54.6001 0.0000 9.6165 0.0000
# 3 69.2303 54.6001 121.9272 0.0000 -0.2399 0.0000
# 4 0.0000 0.0000 0.0000 30.7528 0.0000 -1.7322
# 5 11.5400 9.6165 -0.2399 0.0000 33.4621 0.0000
# 6 0.0000 0.0000 0.0000 -1.7322 0.0000 30.1877
#
#
#
# Elastic Compliance Matrix: (Units=1/GPa)
#
#
# Indices 1 2 3 4 5 6 
#
# 1 0.018191 -0.012135 -0.004900 0.000000 -0.002821 0.000000
# 2 -0.012135 0.020468 -0.002279 0.000000 -0.001714 0.000000
# 3 -0.004900 -0.002279 0.012009 0.000000 0.002431 0.000000
# 4 0.000000 0.000000 0.000000 0.032623 0.000000 0.001872
# 5 -0.002821 -0.001714 0.002431 0.000000 0.031367 0.000000
# 6 0.000000 0.000000 0.000000 0.001872 0.000000 0.033233
#
#
# Mechanical properties :
#
#
# Convention : Reuss Voigt Hill
#
# Bulk Modulus (GPa) = 83.05591 87.62519 85.34055
# Shear Modulus (GPa) = 26.24222 29.02762 27.63492
#
# Velocity S-wave (km/s) = 3.52670 3.70914 3.61907
# Velocity P-wave (km/s) = 7.47984 7.73782 7.60993
#
# Compressibility (1/GPa) = 0.01204008
#
# Stress axis : x y z
#
# Youngs Moduli (GPa) = 54.97352 48.85673 83.26905
#
# Poissons Ratio (x) = 0.59286 0.40803
# Poissons Ratio (y) = 0.66709 0.18977
# Poissons Ratio (z) = 0.26938 0.11135
#
# Static dielectric constant tensor:
#      x y z
#    x 1.732620 0.000000 -0.024180 
#    y 0.000000 1.805290 0.000000 
#    z -0.024180 0.000000 1.820270 
# 
# From -- ./inp_files/45553.got.cif
#   From: 2010.05.17/outbox.cif.g08.bks.cpg/sg14_23_cif.got.tgz:45553.got - 2010.06.03 17:49:19.
