data_PCOD9249756
_publ_section_title
;
Structure prediction by ZEFSAII (Michael W. Deem and Ramdas Pophale) SiO2 
 PCOD9249756
Probable space group: P 21/C
;
_chemical_formula_sum "Si O2"
_cell_formula_units_Z 20
_cell_length_a 8.649549
_cell_length_b 11.508305
_cell_length_c 9.175563
_cell_angle_alpha 90.000000
_cell_angle_beta 92.973668
_cell_angle_gamma 90.000000
_cell_volume 912.120819
_symmetry_space_group_name_H-M "P 21/C"
_symmetry_group_IT_number 14
_symmetry_cell_setting 'monoclinic'
loop_
_space_group_symop_operation_xyz
x,y,z
-x,1/2+y,1/2-z
-x,-y,-z
x,1/2-y,1/2+z
loop_
_atom_site_type_symbol
_atom_site_label
_atom_site_fract_x
_atom_site_fract_y
_atom_site_fract_z
Si Si1 0.352614 0.580131 0.957260
Si Si2 0.233656 0.971501 0.762582
Si Si3 0.923128 0.559763 0.140486
Si Si4 0.285030 0.224337 0.857679
Si Si5 0.501763 0.180999 0.131257
O O1 0.229959 0.518070 0.844848
O O2 0.405766 0.700757 0.895361
O O3 0.500000 0.500000 0.000000
O O4 0.272427 0.589703 0.110600
O O5 0.371114 0.920517 0.868051
O O6 0.052309 0.943395 0.773265
O O7 0.245765 0.111167 0.759274
O O8 0.857956 0.690076 0.116404
O O9 0.000000 0.500000 0.000000
O O10 0.414139 0.299548 0.779345
O O11 0.365239 0.176018 0.006590
#
# Coordination Sequence:
#
# PCOD9249756 Si02
#       5
#     4   4   4   4   4
#     4  11  19  42  69  96 131 190 223 269 341 417
#     4  11  24  41  66 102 137 176 229 287 341 398
#     4  10  23  43  68  97 137 181 223 273 349 410
#     4  12  24  44  71 100 137 180 232 284 333 415
#     4  12  23  42  70  98 140 178 232 281 339 401
#
# _framework density 21.926919000000002
#
# number of rings (size 3 to 8) (size 9 to 14) (size 15 to 20)
#    0.000    0.800    6.000    1.800    2.800    0.000 
#    0.000    1.000    0.000    0.000    0.000    0.000 
#    0.000    0.000    0.000    0.000    0.000    0.000 
#
# Total GULP energy -111593.948602 kJ/mol
# GULP energy per Si atom -5579.697430 kJ/mol
# Density = 2.187701 g / cm^3
# Si number density = 21.926919 Si / 1000 Ang^3
#
#
#
# Elastic Constant Matrix: (Units=GPa)
#
#
# Indices 1 2 3 4 5 6 
#
# 1 121.3522 57.9796 8.2648 0.0000 30.0445 0.0000
# 2 57.9796 138.3427 4.3189 0.0000 -3.0410 0.0000
# 3 8.2648 4.3189 38.6679 0.0000 5.6686 0.0000
# 4 0.0000 0.0000 0.0000 25.9190 0.0000 3.0127
# 5 30.0445 -3.0410 5.6686 0.0000 32.2788 0.0000
# 6 0.0000 0.0000 0.0000 3.0127 0.0000 51.4727
#
#
#
# Elastic Compliance Matrix: (Units=1/GPa)
#
#
# Indices 1 2 3 4 5 6 
#
# 1 0.015019 -0.006603 -0.000341 0.000000 -0.014542 0.000000
# 2 -0.006603 0.010180 -0.000788 0.000000 0.007244 0.000000
# 3 -0.000341 -0.000788 0.026673 0.000000 -0.004441 0.000000
# 4 0.000000 0.000000 0.000000 0.038846 0.000000 -0.002274
# 5 -0.014542 0.007244 -0.004441 0.000000 0.045977 0.000000
# 6 0.000000 0.000000 0.000000 -0.002274 0.000000 0.019561
#
#
# Mechanical properties :
#
#
# Convention : Reuss Voigt Hill
#
# Bulk Modulus (GPa) = 27.46631 48.83216 38.14924
# Shear Modulus (GPa) = 27.19524 37.12073 32.15799
#
# Velocity S-wave (km/s) = 3.52556 4.11899 3.83377
# Velocity P-wave (km/s) = 5.39688 6.70374 6.08549
#
# Compressibility (1/GPa) = 0.03640824
#
# Stress axis : x y z
#
# Youngs Moduli (GPa) = 66.58277 98.23417 37.49098
#
# Poissons Ratio (x) = 0.64868 0.01278
# Poissons Ratio (y) = 0.43968 0.02952
# Poissons Ratio (z) = 0.02269 0.07736
#
# Static dielectric constant tensor:
#      x y z
#    x 1.886350 0.000000 0.052500 
#    y 0.000000 1.862260 0.000000 
#    z 0.052500 0.000000 1.871290 
# 
# From -- ./inp_files/7881.got.cif
#   From: 2010.05.17/outbox.cif.g08.bks.cpg/sg14_4_cif.got.tgz:7881.got - 2010.06.03 17:49:19.
