data_PCOD9249985
_publ_section_title
;
Structure prediction by ZEFSAII (Michael W. Deem and Ramdas Pophale) SiO2 
 PCOD9249985
Probable space group: P 21/C
;
_chemical_formula_sum "Si O2"
_cell_formula_units_Z 16
_cell_length_a 11.018511
_cell_length_b 8.320506
_cell_length_c 8.220063
_cell_angle_alpha 90.000000
_cell_angle_beta 127.983782
_cell_angle_gamma 90.000000
_cell_volume 593.985651
_symmetry_space_group_name_H-M "P 21/C"
_symmetry_group_IT_number 14
_symmetry_cell_setting 'monoclinic'
loop_
_space_group_symop_operation_xyz
x,y,z
-x,1/2+y,1/2-z
-x,-y,-z
x,1/2-y,1/2+z
loop_
_atom_site_type_symbol
_atom_site_label
_atom_site_fract_x
_atom_site_fract_y
_atom_site_fract_z
Si Si1 0.335506 0.379483 0.275589
Si Si2 0.376648 0.793493 0.630378
Si Si3 0.784522 0.965571 0.972392
Si Si4 0.858976 0.532565 0.180604
O O1 0.467288 0.249363 0.337554
O O2 0.398044 0.561645 0.277424
O O3 0.280339 0.391197 0.414459
O O4 0.197924 0.375601 0.026770
O O5 0.320114 0.622682 0.646153
O O6 0.231818 0.863461 0.409912
O O7 0.803970 0.893993 0.806217
O O8 0.959529 0.013520 0.163018
#
# Coordination Sequence:
#
# PCOD9249985 Si02
#       4
#     4   4   4   4
#     4  10  23  45  70 106 149 189 238 302 369 431
#     4  10  23  45  68 108 145 185 243 295 363 447
#     4  11  20  45  70 101 145 190 239 305 356 426
#     4   9  24  42  70 107 139 188 253 289 358 445
#
# _framework density 26.936675999999999
#
# number of rings (size 3 to 8) (size 9 to 14) (size 15 to 20)
#    1.500    0.500    0.000    3.000    0.000    1.000 
#    9.000    2.500    0.000    0.000    0.000    0.000 
#    0.000    0.000    0.000    0.000    0.000    0.000 
#
# Total GULP energy -89463.960648 kJ/mol
# GULP energy per Si atom -5591.497540 kJ/mol
# Density = 2.687537 g / cm^3
# Si number density = 26.936676 Si / 1000 Ang^3
#
#
#
# Elastic Constant Matrix: (Units=GPa)
#
#
# Indices 1 2 3 4 5 6 
#
# 1 179.2504 40.1804 44.0622 0.0000 -12.3959 0.0000
# 2 40.1804 103.4767 21.2408 0.0000 -39.5586 0.0000
# 3 44.0622 21.2408 84.9462 0.0000 -15.4120 0.0000
# 4 0.0000 0.0000 0.0000 54.8374 0.0000 -0.5985
# 5 -12.3959 -39.5586 -15.4120 0.0000 70.1488 0.0000
# 6 0.0000 0.0000 0.0000 -0.5985 0.0000 25.3108
#
#
#
# Elastic Compliance Matrix: (Units=1/GPa)
#
#
# Indices 1 2 3 4 5 6 
#
# 1 0.006802 -0.002303 -0.003093 0.000000 -0.000776 0.000000
# 2 -0.002303 0.013400 -0.000895 0.000000 0.006953 0.000000
# 3 -0.003093 -0.000895 0.013966 0.000000 0.002017 0.000000
# 4 0.000000 0.000000 0.000000 0.018240 0.000000 0.000431
# 5 -0.000776 0.006953 0.002017 0.000000 0.018483 0.000000
# 6 0.000000 0.000000 0.000000 0.000431 0.000000 0.039519
#
#
# Mechanical properties :
#
#
# Convention : Reuss Voigt Hill
#
# Bulk Modulus (GPa) = 46.32481 64.29333 55.30907
# Shear Modulus (GPa) = 38.40636 47.53872 42.97254
#
# Velocity S-wave (km/s) = 3.78008 4.20555 3.99848
# Velocity P-wave (km/s) = 6.02387 6.89219 6.47261
#
# Compressibility (1/GPa) = 0.02158671
#
# Stress axis : x y z
#
# Youngs Moduli (GPa) = 147.02316 74.62657 71.60108
#
# Poissons Ratio (x) = 0.17186 0.22147
# Poissons Ratio (y) = 0.33859 0.06405
# Poissons Ratio (z) = 0.45475 0.06676
#
# Static dielectric constant tensor:
#      x y z
#    x 2.010860 0.000000 0.029030 
#    y 0.000000 2.343290 0.000000 
#    z 0.029030 0.000000 2.115820 
# 
# From -- ./inp_files/12277.got.cif
#   From: 2010.05.17/outbox.cif.g08.bks.cpg/sg14_7_cif.got.tgz:12277.got - 2010.06.03 17:49:19.
