data_PCOD9249717
_publ_section_title
;
Structure prediction by ZEFSAII (Michael W. Deem and Ramdas Pophale) SiO2 
 PCOD9249717
Probable space group: P 21/C
;
_chemical_formula_sum "Si O2"
_cell_formula_units_Z 16
_cell_length_a 7.131917
_cell_length_b 12.136907
_cell_length_c 11.347111
_cell_angle_alpha 90.000000
_cell_angle_beta 39.612640
_cell_angle_gamma 90.000000
_cell_volume 626.244320
_symmetry_space_group_name_H-M "P 21/C"
_symmetry_group_IT_number 14
_symmetry_cell_setting 'monoclinic'
loop_
_space_group_symop_operation_xyz
x,y,z
-x,1/2+y,1/2-z
-x,-y,-z
x,1/2-y,1/2+z
loop_
_atom_site_type_symbol
_atom_site_label
_atom_site_fract_x
_atom_site_fract_y
_atom_site_fract_z
Si Si1 0.900319 0.267817 0.922172
Si Si2 0.064432 0.769562 0.342492
Si Si3 0.726759 0.501683 0.000927
Si Si4 0.242393 0.404767 0.381727
O O1 0.765941 0.235237 0.862208
O O2 0.170622 0.183504 0.811320
O O3 0.754519 0.254419 0.122992
O O4 0.946363 0.397959 0.885022
O O5 0.829360 0.669492 0.469524
O O6 0.889804 0.883509 0.431943
O O7 0.534814 0.470411 0.208749
O O8 0.500000 0.500000 0.000000
O O9 0.000000 0.500000 0.500000
#
# Coordination Sequence:
#
# PCOD9249717 Si02
#       4
#     4   4   4   4
#     4  10  24  42  66  97 133 174 220 276 329 392
#     4  10  23  43  66  98 134 174 219 278 328 394
#     4  12  22  42  71  96 135 180 217 274 336 392
#     4  10  24  41  66  95 136 169 224 269 331 391
#
# _framework density 25.549133000000001
#
# number of rings (size 3 to 8) (size 9 to 14) (size 15 to 20)
#    1.500    0.000    2.500    2.250    3.500    0.000 
#    0.000    1.250    0.000    0.000    0.000    0.000 
#    0.000    0.000    0.000    0.000    0.000    0.000 
#
# Total GULP energy -89139.901471 kJ/mol
# GULP energy per Si atom -5571.243842 kJ/mol
# Density = 2.549098 g / cm^3
# Si number density = 25.549133 Si / 1000 Ang^3
#
#
#
# Elastic Constant Matrix: (Units=GPa)
#
#
# Indices 1 2 3 4 5 6 
#
# 1 134.7422 39.7698 57.1908 0.0000 38.9067 0.0000
# 2 39.7698 214.9343 39.5920 0.0000 -22.5541 0.0000
# 3 57.1908 39.5920 113.2897 0.0000 31.7368 0.0000
# 4 0.0000 0.0000 0.0000 33.7097 0.0000 -0.3678
# 5 38.9067 -22.5541 31.7368 0.0000 46.6696 0.0000
# 6 0.0000 0.0000 0.0000 -0.3678 0.0000 22.3739
#
#
#
# Elastic Compliance Matrix: (Units=1/GPa)
#
#
# Indices 1 2 3 4 5 6 
#
# 1 0.012109 -0.002842 -0.002356 0.000000 -0.009866 0.000000
# 2 -0.002842 0.006510 -0.002947 0.000000 0.007520 0.000000
# 3 -0.002356 -0.002947 0.013459 0.000000 -0.008613 0.000000
# 4 0.000000 0.000000 0.000000 0.029670 0.000000 0.000488
# 5 -0.009866 0.007520 -0.008613 0.000000 0.039143 0.000000
# 6 0.000000 0.000000 0.000000 0.000488 0.000000 0.044703
#
#
# Mechanical properties :
#
#
# Convention : Reuss Voigt Hill
#
# Bulk Modulus (GPa) = 63.33611 81.78570 72.56091
# Shear Modulus (GPa) = 29.91361 42.31154 36.11258
#
# Velocity S-wave (km/s) = 3.42545 4.07392 3.76367
# Velocity P-wave (km/s) = 6.36307 7.36272 6.88107
#
# Compressibility (1/GPa) = 0.01578878
#
# Stress axis : x y z
#
# Youngs Moduli (GPa) = 82.58139 153.60080 74.30050
#
# Poissons Ratio (x) = 0.43653 0.17504
# Poissons Ratio (y) = 0.23470 0.21897
# Poissons Ratio (z) = 0.19455 0.45267
#
# Static dielectric constant tensor:
#      x y z
#    x 2.106250 0.000000 0.007480 
#    y 0.000000 1.984910 0.000000 
#    z 0.007480 0.000000 2.086930 
# 
# From -- ./inp_files/23226.got.cif
#   From: 2010.05.17/outbox.cif.g08.bks.cpg/sg14_12_cif.got.tgz:23226.got - 2010.06.03 17:49:19.
