data_PCOD9249323
_publ_section_title
;
Structure prediction by ZEFSAII (Michael W. Deem and Ramdas Pophale) SiO2 
 PCOD9249323
Probable space group: P 21/C
;
_chemical_formula_sum "Si O2"
_cell_formula_units_Z 20
_cell_length_a 11.112365
_cell_length_b 6.902424
_cell_length_c 12.691491
_cell_angle_alpha 90.000000
_cell_angle_beta 129.351558
_cell_angle_gamma 90.000000
_cell_volume 752.751982
_symmetry_space_group_name_H-M "P 21/C"
_symmetry_group_IT_number 14
_symmetry_cell_setting 'monoclinic'
loop_
_space_group_symop_operation_xyz
x,y,z
-x,1/2+y,1/2-z
-x,-y,-z
x,1/2-y,1/2+z
loop_
_atom_site_type_symbol
_atom_site_label
_atom_site_fract_x
_atom_site_fract_y
_atom_site_fract_z
Si Si1 0.944860 0.710994 0.300843
Si Si2 0.816905 0.495306 0.954078
Si Si3 0.223898 0.563561 0.311596
Si Si4 0.734670 0.900438 0.849093
Si Si5 0.584538 0.267536 0.414071
O O1 0.860949 0.550041 0.327320
O O2 0.037804 0.868022 0.425433
O O3 0.072184 0.650143 0.287087
O O4 0.802547 0.836947 0.178067
O O5 0.772738 0.421602 0.812169
O O6 0.822479 0.726857 0.959007
O O7 0.679430 0.430243 0.954084
O O8 0.376301 0.654253 0.448490
O O9 0.586616 0.787318 0.717492
O O10 0.668520 0.072854 0.883893
#
# Coordination Sequence:
#
# PCOD9249323 Si02
#       5
#     4   4   4   4   4
#     4  10  24  39  67  94 126 163 211 262 315 367
#     4  10  23  45  62  94 129 161 213 266 308 371
#     4  10  23  40  64  96 123 163 213 258 310 380
#     4  11  22  43  63  90 129 171 203 263 313 358
#     4  11  24  41  67  91 128 171 210 252 318 377
#
# _framework density 26.569175999999999
#
# number of rings (size 3 to 8) (size 9 to 14) (size 15 to 20)
#    0.000    1.600    2.000    2.400    8.400    4.800 
#    0.000    1.000    0.000    0.000    0.000    0.000 
#    0.000    0.000    0.000    0.000    0.000    0.000 
#
# Total GULP energy -111807.966717 kJ/mol
# GULP energy per Si atom -5590.398336 kJ/mol
# Density = 2.650870 g / cm^3
# Si number density = 26.569176 Si / 1000 Ang^3
#
#
#
# Elastic Constant Matrix: (Units=GPa)
#
#
# Indices 1 2 3 4 5 6 
#
# 1 49.4685 14.4848 1.3714 0.0000 8.0823 0.0000
# 2 14.4848 68.8521 5.6612 0.0000 -8.8032 0.0000
# 3 1.3714 5.6612 108.4372 0.0000 -21.9068 0.0000
# 4 0.0000 0.0000 0.0000 37.9087 0.0000 0.3853
# 5 8.0823 -8.8032 -21.9068 0.0000 40.5439 0.0000
# 6 0.0000 0.0000 0.0000 0.3853 0.0000 46.8036
#
#
#
# Elastic Compliance Matrix: (Units=1/GPa)
#
#
# Indices 1 2 3 4 5 6 
#
# 1 0.022935 -0.005546 -0.001310 0.000000 -0.006484 0.000000
# 2 -0.005546 0.016282 0.000177 0.000000 0.004736 0.000000
# 3 -0.001310 0.000177 0.010428 0.000000 0.005934 0.000000
# 4 0.000000 0.000000 0.000000 0.026381 0.000000 -0.000217
# 5 -0.006484 0.004736 0.005934 0.000000 0.030192 0.000000
# 6 0.000000 0.000000 0.000000 -0.000217 0.000000 0.021368
#
#
# Mechanical properties :
#
#
# Convention : Reuss Voigt Hill
#
# Bulk Modulus (GPa) = 27.55952 29.97694 28.76823
# Shear Modulus (GPa) = 32.67122 38.73393 35.70257
#
# Velocity S-wave (km/s) = 3.51046 3.82232 3.66971
# Velocity P-wave (km/s) = 5.17942 5.54863 5.36720
#
# Compressibility (1/GPa) = 0.03628510
#
# Stress axis : x y z
#
# Youngs Moduli (GPa) = 43.60224 61.41860 95.89463
#
# Poissons Ratio (x) = 0.34064 0.12567
# Poissons Ratio (y) = 0.24183 -0.01697
# Poissons Ratio (z) = 0.05714 -0.01087
#
# Static dielectric constant tensor:
#      x y z
#    x 2.159590 0.000000 -0.024070 
#    y 0.000000 2.117110 0.000000 
#    z -0.024070 0.000000 2.145140 
# 
# From -- ./inp_files/23117.got.cif
#   From: 2010.05.17/outbox.cif.g08.bks.cpg/sg14_12_cif.got.tgz:23117.got - 2010.06.03 17:49:19.
