data_PCOD9249799
_publ_section_title
;
Structure prediction by ZEFSAII (Michael W. Deem and Ramdas Pophale) SiO2 
 PCOD9249799
Probable space group: P 21/C
;
_chemical_formula_sum "Si O2"
_cell_formula_units_Z 26
_cell_length_a 15.222959
_cell_length_b 7.534318
_cell_length_c 16.496752
_cell_angle_alpha 90.000000
_cell_angle_beta 32.882783
_cell_angle_gamma 90.000000
_cell_volume 1027.256766
_symmetry_space_group_name_H-M "P 21/C"
_symmetry_group_IT_number 14
_symmetry_cell_setting 'monoclinic'
loop_
_space_group_symop_operation_xyz
x,y,z
-x,1/2+y,1/2-z
-x,-y,-z
x,1/2-y,1/2+z
loop_
_atom_site_type_symbol
_atom_site_label
_atom_site_fract_x
_atom_site_fract_y
_atom_site_fract_z
Si Si1 0.360373 0.266417 0.258988
Si Si2 0.000926 0.323381 0.053534
Si Si3 0.854456 0.341892 0.454427
Si Si4 0.094760 0.444510 0.732094
Si Si5 0.553215 0.357762 0.265012
Si Si6 0.000000 0.000000 0.000000
Si Si7 0.421860 0.190398 0.039716
O O1 0.163945 0.294071 0.406999
O O2 0.432679 0.364305 0.280747
O O3 0.438198 0.302895 0.110459
O O4 0.386111 0.056285 0.258516
O O5 0.000000 0.500000 0.000000
O O6 0.980648 0.394619 0.158162
O O7 0.878394 0.168739 0.127787
O O8 0.818114 0.488582 0.415486
O O9 0.701591 0.252105 0.613667
O O10 0.948812 0.188100 0.333362
O O11 0.975513 0.421426 0.426134
O O12 0.231829 0.350715 0.678919
O O13 0.484006 0.267155 0.400852
O O14 0.500000 0.000000 0.000000
#
# Coordination Sequence:
#
# PCOD9249799 Si02
#       7
#     4   4   4   4   4   2   4
#     4  11  23  46  71 103 149 199 245 319 381 455
#     4  12  23  48  75 106 154 195 255 314 381 453
#     4  12  26  46  70 111 149 197 261 315 380 458
#     4  12  25  47  74 106 151 205 253 316 381 463
#     4  11  25  45  71 110 147 194 254 311 383 461
#     4  12  26  42  76 108 146 200 248 314 378 448
#     4  10  23  43  71  99 142 197 243 301 396 445
#
# _framework density 25.310127999999999
#
# number of rings (size 3 to 8) (size 9 to 14) (size 15 to 20)
#    0.000    0.615    4.615    2.769    8.615    0.000 
#    2.769    0.769    0.000    0.000    0.000    0.000 
#    0.000    0.000    0.000    0.000    0.000    0.000 
#
# Total GULP energy -145048.347133 kJ/mol
# GULP energy per Si atom -5578.782582 kJ/mol
# Density = 2.525252 g / cm^3
# Si number density = 25.310128 Si / 1000 Ang^3
#
#
#
# Elastic Constant Matrix: (Units=GPa)
#
#
# Indices 1 2 3 4 5 6 
#
# 1 105.6394 2.7125 34.6050 0.0000 28.2328 0.0000
# 2 2.7125 105.2126 26.9877 0.0000 21.6222 0.0000
# 3 34.6050 26.9877 136.8502 0.0000 31.4186 0.0000
# 4 0.0000 0.0000 0.0000 34.8492 0.0000 11.0486
# 5 28.2328 21.6222 31.4186 0.0000 56.0958 0.0000
# 6 0.0000 0.0000 0.0000 11.0486 0.0000 36.4472
#
#
#
# Elastic Compliance Matrix: (Units=1/GPa)
#
#
# Indices 1 2 3 4 5 6 
#
# 1 0.011454 0.001267 -0.001963 0.000000 -0.005154 0.000000
# 2 0.001267 0.010664 -0.001530 0.000000 -0.003891 0.000000
# 3 -0.001963 -0.001530 0.008886 0.000000 -0.003399 0.000000
# 4 0.000000 0.000000 0.000000 0.031746 0.000000 -0.009624
# 5 -0.005154 -0.003891 -0.003399 0.000000 0.023824 0.000000
# 6 0.000000 0.000000 0.000000 -0.009624 0.000000 0.030354
#
#
# Mechanical properties :
#
#
# Convention : Reuss Voigt Hill
#
# Bulk Modulus (GPa) = 37.66145 52.92363 45.29254
# Shear Modulus (GPa) = 38.39336 44.37157 41.38247
#
# Velocity S-wave (km/s) = 3.89899 4.19156 4.04792
# Velocity P-wave (km/s) = 5.93142 6.66191 6.30725
#
# Compressibility (1/GPa) = 0.02655235
#
# Stress axis : x y z
#
# Youngs Moduli (GPa) = 87.30525 93.77267 112.53947
#
# Poissons Ratio (x) = -0.11885 0.22092
# Poissons Ratio (y) = -0.11065 0.17220
# Poissons Ratio (z) = 0.17139 0.14348
#
# Static dielectric constant tensor:
#      x y z
#    x 1.492050 0.000000 0.422330 
#    y 0.000000 1.339880 0.000000 
#    z 0.422330 0.000000 1.696770 
# 
# From -- ./inp_files/46403.got.cif
#   From: 2010.05.17/outbox.cif.g08.bks.cpg/sg14_24_cif.got.tgz:46403.got - 2010.06.03 17:49:19.
