data_PCOD9249838
_publ_section_title
;
Structure prediction by ZEFSAII (Michael W. Deem and Ramdas Pophale) SiO2 
 PCOD9249838
Probable space group: P 21/C
;
_chemical_formula_sum "Si O2"
_cell_formula_units_Z 28
_cell_length_a 6.020023
_cell_length_b 11.442265
_cell_length_c 18.737620
_cell_angle_alpha 90.000000
_cell_angle_beta 107.772148
_cell_angle_gamma 90.000000
_cell_volume 1229.102994
_symmetry_space_group_name_H-M "P 21/C"
_symmetry_group_IT_number 14
_symmetry_cell_setting 'monoclinic'
loop_
_space_group_symop_operation_xyz
x,y,z
-x,1/2+y,1/2-z
-x,-y,-z
x,1/2-y,1/2+z
loop_
_atom_site_type_symbol
_atom_site_label
_atom_site_fract_x
_atom_site_fract_y
_atom_site_fract_z
Si Si1 0.783099 0.021579 0.425457
Si Si2 0.950419 0.183553 0.313012
Si Si3 0.317742 0.578249 0.330640
Si Si4 0.443430 0.226555 0.431005
Si Si5 0.310226 0.258515 0.083259
Si Si6 0.975929 0.436213 0.572449
Si Si7 0.650746 0.110707 0.839023
O O1 0.876149 0.090086 0.365786
O O2 0.586251 0.105177 0.440478
O O3 0.686514 0.894041 0.397378
O O4 0.000000 0.000000 0.500000
O O5 0.907565 0.126618 0.232180
O O6 0.766420 0.290006 0.302250
O O7 0.211769 0.220111 0.358946
O O8 0.507153 0.681235 0.354694
O O9 0.417281 0.463315 0.301387
O O10 0.260389 0.550818 0.407290
O O11 0.367301 0.250515 0.504367
O O12 0.604666 0.324999 0.410477
O O13 0.060249 0.196978 0.072122
O O14 0.159305 0.509897 0.636539
O O15 0.000000 0.500000 0.500000
#
# Coordination Sequence:
#
# PCOD9249838 Si02
#       7
#     4   4   4   4   4   4   4
#     4  11  25  43  71 103 138 180 232 288 347 420
#     4  11  25  44  68  98 143 182 226 290 351 420
#     4  11  26  43  68 103 136 186 231 291 353 412
#     4  11  23  44  71  99 137 183 229 287 356 407
#     4  11  24  41  69 104 132 173 238 281 336 421
#     4  11  23  42  69  97 135 174 230 288 343 410
#     4  10  23  44  64  95 131 177 227 280 350 408
#
# _framework density 22.780842
#
# number of rings (size 3 to 8) (size 9 to 14) (size 15 to 20)
#    0.000    1.143    1.429    3.857    6.000    6.857 
#    5.143    0.000    0.000    0.000    0.000    0.000 
#    0.000    0.000    0.000    0.000    0.000    0.000 
#
# Total GULP energy -156524.579355 kJ/mol
# GULP energy per Si atom -5590.163548 kJ/mol
# Density = 2.272899 g / cm^3
# Si number density = 22.780842 Si / 1000 Ang^3
#
#
#
# Elastic Constant Matrix: (Units=GPa)
#
#
# Indices 1 2 3 4 5 6 
#
# 1 80.7892 44.8046 17.6391 0.0000 3.4248 0.0000
# 2 44.8046 148.8772 23.1455 0.0000 0.5213 0.0000
# 3 17.6391 23.1455 74.6373 0.0000 9.8258 0.0000
# 4 0.0000 0.0000 0.0000 16.1836 0.0000 -1.1278
# 5 3.4248 0.5213 9.8258 0.0000 26.0842 0.0000
# 6 0.0000 0.0000 0.0000 -1.1278 0.0000 43.9783
#
#
#
# Elastic Compliance Matrix: (Units=1/GPa)
#
#
# Indices 1 2 3 4 5 6 
#
# 1 0.015251 -0.004253 -0.002139 0.000000 -0.001112 0.000000
# 2 -0.004253 0.008256 -0.001691 0.000000 0.001030 0.000000
# 3 -0.002139 -0.001691 0.015137 0.000000 -0.005388 0.000000
# 4 0.000000 0.000000 0.000000 0.061901 0.000000 0.001587
# 5 -0.001112 0.001030 -0.005388 0.000000 0.040492 0.000000
# 6 0.000000 0.000000 0.000000 0.001587 0.000000 0.022779
#
#
# Mechanical properties :
#
#
# Convention : Reuss Voigt Hill
#
# Bulk Modulus (GPa) = 44.48741 52.83134 48.65938
# Shear Modulus (GPa) = 26.67010 31.83020 29.25015
#
# Velocity S-wave (km/s) = 3.42530 3.74202 3.58715
# Velocity P-wave (km/s) = 5.93417 6.47393 6.20992
#
# Compressibility (1/GPa) = 0.02247827
#
# Stress axis : x y z
#
# Youngs Moduli (GPa) = 65.57014 121.12062 66.06249
#
# Poissons Ratio (x) = 0.51516 0.14130
# Poissons Ratio (y) = 0.27889 0.11170
# Poissons Ratio (z) = 0.14025 0.20479
#
# Static dielectric constant tensor:
#      x y z
#    x 1.894380 0.000000 0.030920 
#    y 0.000000 1.836880 0.000000 
#    z 0.030920 0.000000 1.854470 
# 
# From -- ./inp_files/63367.got.cif
#   From: 2010.05.17/outbox.cif.g08.bks.cpg/sg14_32_cif.got.tgz:63367.got - 2010.06.03 17:49:19.
