data_PCOD9249132
_publ_section_title
;
Structure prediction by ZEFSAII (Michael W. Deem and Ramdas Pophale) SiO2 
 PCOD9249132
Probable space group: P 21/C
;
_chemical_formula_sum "Si O2"
_cell_formula_units_Z 32
_cell_length_a 7.057667
_cell_length_b 21.495119
_cell_length_c 14.220685
_cell_angle_alpha 90.000000
_cell_angle_beta 43.841344
_cell_angle_gamma 90.000000
_cell_volume 1494.321447
_symmetry_space_group_name_H-M "P 21/C"
_symmetry_group_IT_number 14
_symmetry_cell_setting 'monoclinic'
loop_
_space_group_symop_operation_xyz
x,y,z
-x,1/2+y,1/2-z
-x,-y,-z
x,1/2-y,1/2+z
loop_
_atom_site_type_symbol
_atom_site_label
_atom_site_fract_x
_atom_site_fract_y
_atom_site_fract_z
Si Si1 0.489724 0.103591 0.292714
Si Si2 0.722661 0.240431 0.441460
Si Si3 0.489592 0.138636 0.983216
Si Si4 0.449989 0.598009 0.012046
Si Si5 0.996894 0.439187 0.275314
Si Si6 0.327120 0.296164 0.720031
Si Si7 0.948089 0.950236 0.935652
Si Si8 0.937458 0.984718 0.628843
O O1 0.455384 0.086230 0.414331
O O2 0.369150 0.169455 0.303504
O O3 0.338679 0.054293 0.280167
O O4 0.807222 0.099092 0.155194
O O5 0.577062 0.290732 0.424377
O O6 0.638730 0.169643 0.455295
O O7 0.593181 0.259020 0.588954
O O8 0.049531 0.243019 0.318968
O O9 0.781732 0.106798 0.900382
O O10 0.312733 0.151979 0.140823
O O11 0.323538 0.091681 0.976204
O O12 0.192760 0.555056 0.077305
O O13 0.695442 0.584961 0.850562
O O14 0.974596 0.504705 0.336276
O O15 0.898385 0.454673 0.205419
O O16 0.000000 0.000000 0.000000
O O17 0.000000 0.000000 0.500000
#
# Coordination Sequence:
#
# PCOD9249132 Si02
#       8
#     4   4   4   4   4   4   4   4
#     4  12  23  43  69 103 140 185 238 295 376 432
#     4  10  23  46  72  99 142 189 248 303 364 447
#     4  10  24  44  72 101 143 196 245 300 376 435
#     4  12  24  44  71 107 146 193 244 307 372 443
#     4  12  23  43  69 105 147 187 247 301 370 450
#     4  10  22  46  73  98 139 192 242 308 369 436
#     4  12  24  42  67 108 148 189 242 307 373 452
#     4  12  23  42  69 106 148 189 241 304 369 441
#
# _framework density 21.414401000000002
#
# number of rings (size 3 to 8) (size 9 to 14) (size 15 to 20)
#    0.750    0.000    3.750    5.250    0.000    0.000 
#    2.250    1.250    0.000    0.000    0.000    0.000 
#    0.000    0.000    0.000    0.000    0.000    0.000 
#
# Total GULP energy -178444.855579 kJ/mol
# GULP energy per Si atom -5576.401737 kJ/mol
# Density = 2.136566 g / cm^3
# Si number density = 21.414401 Si / 1000 Ang^3
#
#
#
# Elastic Constant Matrix: (Units=GPa)
#
#
# Indices 1 2 3 4 5 6 
#
# 1 72.0258 23.2961 32.6417 0.0000 -7.2031 0.0000
# 2 23.2961 87.4341 24.2958 0.0000 -8.3478 0.0000
# 3 32.6417 24.2958 92.6733 0.0000 -26.4670 0.0000
# 4 0.0000 0.0000 0.0000 37.4357 0.0000 -18.3506
# 5 -7.2031 -8.3478 -26.4670 0.0000 38.8308 0.0000
# 6 0.0000 0.0000 0.0000 -18.3506 0.0000 31.5363
#
#
#
# Elastic Compliance Matrix: (Units=1/GPa)
#
#
# Indices 1 2 3 4 5 6 
#
# 1 0.017341 -0.003176 -0.005652 0.000000 -0.001318 0.000000
# 2 -0.003176 0.012927 -0.002043 0.000000 0.000798 0.000000
# 3 -0.005652 -0.002043 0.016008 0.000000 0.009424 0.000000
# 4 0.000000 0.000000 0.000000 0.037372 0.000000 0.021747
# 5 -0.001318 0.000798 0.009424 0.000000 0.032103 0.000000
# 6 0.000000 0.000000 0.000000 0.021747 0.000000 0.044364
#
#
# Mechanical properties :
#
#
# Convention : Reuss Voigt Hill
#
# Bulk Modulus (GPa) = 40.75694 45.84449 43.30071
# Shear Modulus (GPa) = 26.31120 33.02053 29.66586
#
# Velocity S-wave (km/s) = 3.50904 3.93106 3.72603
# Velocity P-wave (km/s) = 5.95748 6.48530 6.22698
#
# Compressibility (1/GPa) = 0.02453570
#
# Stress axis : x y z
#
# Youngs Moduli (GPa) = 57.66835 77.35694 62.46839
#
# Poissons Ratio (x) = 0.24566 0.35305
# Poissons Ratio (y) = 0.18313 0.12760
# Poissons Ratio (z) = 0.32592 0.15802
#
# Static dielectric constant tensor:
#      x y z
#    x 1.807330 0.000000 0.035160 
#    y 0.000000 1.814350 0.000000 
#    z 0.035160 0.000000 1.822760 
# 
# From -- ./inp_files/38194.got.cif
#   From: 2010.05.17/outbox.cif.g08.bks.cpg/sg14_20_cif.got.tgz:38194.got - 2010.06.03 17:49:19.
