data_PCOD9249938
_publ_section_title
;
Structure prediction by ZEFSAII (Michael W. Deem and Ramdas Pophale) SiO2 
 PCOD9249938
Probable space group: P 21/C
;
_chemical_formula_sum "Si O2"
_cell_formula_units_Z 24
_cell_length_a 16.520777
_cell_length_b 11.560483
_cell_length_c 9.848450
_cell_angle_alpha 90.000000
_cell_angle_beta 150.073824
_cell_angle_gamma 90.000000
_cell_volume 938.369057
_symmetry_space_group_name_H-M "P 21/C"
_symmetry_group_IT_number 14
_symmetry_cell_setting 'monoclinic'
loop_
_space_group_symop_operation_xyz
x,y,z
-x,1/2+y,1/2-z
-x,-y,-z
x,1/2-y,1/2+z
loop_
_atom_site_type_symbol
_atom_site_label
_atom_site_fract_x
_atom_site_fract_y
_atom_site_fract_z
Si Si1 0.728195 0.199515 0.752085
Si Si2 0.046424 0.113995 0.154036
Si Si3 0.376122 0.160729 0.334469
Si Si4 0.646376 0.465263 0.606120
Si Si5 0.215699 0.326869 0.304321
Si Si6 0.661534 0.002100 0.489403
O O1 0.567723 0.155957 0.593423
O O2 0.711532 0.337213 0.726767
O O3 0.703184 0.136881 0.566724
O O4 0.905097 0.151572 0.051133
O O5 0.072410 0.232783 0.106959
O O6 0.226420 0.068164 0.454839
O O7 0.000000 0.000000 0.000000
O O8 0.341511 0.268492 0.382519
O O9 0.301406 0.056016 0.311256
O O10 0.289289 0.170646 0.063088
O O11 0.500000 0.500000 0.500000
O O12 0.795553 0.547074 0.777431
O O13 0.525584 0.473250 0.301641
#
# Coordination Sequence:
#
# PCOD9249938 Si02
#       6
#     4   4   4   4   4   4
#     4  11  21  41  66 101 135 185 231 290 360 420
#     4   9  22  44  71  97 144 182 229 286 367 426
#     4  11  22  44  74  99 136 181 247 287 346 424
#     4  12  25  40  71 104 143 180 244 301 339 411
#     4  11  24  44  73 103 138 188 231 296 348 422
#     4  10  23  44  72  97 134 188 237 289 358 420
#
# _framework density 25.576291000000001
#
# number of rings (size 3 to 8) (size 9 to 14) (size 15 to 20)
#    0.000    1.333    3.333    2.500    0.000    0.667 
#    0.000   15.000    0.000    0.000    0.000    0.000 
#    0.000    0.000    0.000    0.000    0.000    0.000 
#
# Total GULP energy -133756.779806 kJ/mol
# GULP energy per Si atom -5573.199159 kJ/mol
# Density = 2.551808 g / cm^3
# Si number density = 25.576291 Si / 1000 Ang^3
#
#
#
# Elastic Constant Matrix: (Units=GPa)
#
#
# Indices 1 2 3 4 5 6 
#
# 1 118.5882 43.6777 28.2246 0.0000 -3.8417 0.0000
# 2 43.6777 127.3077 24.2522 0.0000 11.9358 0.0000
# 3 28.2246 24.2522 47.7430 0.0000 19.6044 0.0000
# 4 0.0000 0.0000 0.0000 36.6989 0.0000 25.6769
# 5 -3.8417 11.9358 19.6044 0.0000 51.9616 0.0000
# 6 0.0000 0.0000 0.0000 25.6769 0.0000 28.3543
#
#
#
# Elastic Compliance Matrix: (Units=1/GPa)
#
#
# Indices 1 2 3 4 5 6 
#
# 1 0.011283 -0.002949 -0.006855 0.000000 0.004098 0.000000
# 2 -0.002949 0.009474 -0.002468 0.000000 -0.001463 0.000000
# 3 -0.006855 -0.002468 0.031035 0.000000 -0.011649 0.000000
# 4 0.000000 0.000000 0.000000 0.074368 0.000000 -0.067346
# 5 0.004098 -0.001463 -0.011649 0.000000 0.024279 0.000000
# 6 0.000000 0.000000 0.000000 -0.067346 0.000000 0.096255
#
#
# Mechanical properties :
#
#
# Convention : Reuss Voigt Hill
#
# Bulk Modulus (GPa) = 36.70069 53.99420 45.34744
# Shear Modulus (GPa) = 17.83664 36.56860 27.20262
#
# Velocity S-wave (km/s) = 2.64368 3.78535 3.26481
# Velocity P-wave (km/s) = 4.86820 6.34524 5.65515
#
# Compressibility (1/GPa) = 0.02724745
#
# Stress axis : x y z
#
# Youngs Moduli (GPa) = 88.62812 105.54891 32.22165
#
# Poissons Ratio (x) = 0.31131 0.22087
# Poissons Ratio (y) = 0.26140 0.07953
# Poissons Ratio (z) = 0.60753 0.26052
#
# Static dielectric constant tensor:
#      x y z
#    x 1.910020 0.000000 0.297350 
#    y 0.000000 2.119170 0.000000 
#    z 0.297350 0.000000 1.461950 
# 
# From -- ./inp_files/33981.got.cif
#   From: 2010.05.17/outbox.cif.g08.bks.cpg/sg14_17_cif.got.tgz:33981.got - 2010.06.03 17:49:19.
