data_PCOD9249958
_publ_section_title
;
Structure prediction by ZEFSAII (Michael W. Deem and Ramdas Pophale) SiO2 
 PCOD9249958
Probable space group: P 21/C
;
_chemical_formula_sum "Si O2"
_cell_formula_units_Z 24
_cell_length_a 5.322056
_cell_length_b 22.751361
_cell_length_c 8.088005
_cell_angle_alpha 90.000000
_cell_angle_beta 81.233306
_cell_angle_gamma 90.000000
_cell_volume 967.886789
_symmetry_space_group_name_H-M "P 21/C"
_symmetry_group_IT_number 14
_symmetry_cell_setting 'monoclinic'
loop_
_space_group_symop_operation_xyz
x,y,z
-x,1/2+y,1/2-z
-x,-y,-z
x,1/2-y,1/2+z
loop_
_atom_site_type_symbol
_atom_site_label
_atom_site_fract_x
_atom_site_fract_y
_atom_site_fract_z
Si Si1 0.051850 0.081007 0.446612
Si Si2 0.420019 0.544129 0.235279
Si Si3 0.215516 0.854601 0.956529
Si Si4 0.569083 0.807895 0.136385
Si Si5 0.187867 0.079362 0.799039
Si Si6 0.854026 0.802769 0.759643
O O1 0.298436 0.042914 0.368045
O O2 0.032493 0.075679 0.644591
O O3 0.130033 0.146638 0.380127
O O4 0.796446 0.062862 0.376427
O O5 0.410620 0.596510 0.369428
O O6 0.332038 0.481431 0.313504
O O7 0.276410 0.814449 0.110735
O O8 0.992198 0.899434 0.035200
O O9 0.131043 0.810193 0.819251
O O10 0.620540 0.865937 0.237661
O O11 0.720207 0.754116 0.197502
O O12 0.682650 0.812430 0.939656
#
# Coordination Sequence:
#
# PCOD9249958 Si02
#       6
#     4   4   4   4   4   4
#     4  11  24  45  70 101 140 183 234 284 344 401
#     4  11  24  45  71 100 146 183 231 284 340 416
#     4  10  24  44  67 102 133 186 226 289 349 408
#     4  11  23  43  68  94 138 176 233 282 353 406
#     4  11  25  40  68 105 138 182 231 277 349 412
#     4  10  23  45  63  99 133 177 233 287 342 415
#
# _framework density 24.796287
#
# number of rings (size 3 to 8) (size 9 to 14) (size 15 to 20)
#    0.000    1.333    1.667    2.500    4.667    3.333 
#    3.000    0.000    0.000    0.000    0.000    0.000 
#    0.000    0.000    0.000    0.000    0.000    0.000 
#
# Total GULP energy -133973.908017 kJ/mol
# GULP energy per Si atom -5582.246167 kJ/mol
# Density = 2.473985 g / cm^3
# Si number density = 24.796287 Si / 1000 Ang^3
#
#
#
# Elastic Constant Matrix: (Units=GPa)
#
#
# Indices 1 2 3 4 5 6 
#
# 1 57.8425 33.2605 12.8579 0.0000 24.7335 0.0000
# 2 33.2605 193.4243 47.0845 0.0000 49.0109 0.0000
# 3 12.8579 47.0845 70.3316 0.0000 19.6596 0.0000
# 4 0.0000 0.0000 0.0000 35.8409 0.0000 12.5967
# 5 24.7335 49.0109 19.6596 0.0000 32.6016 0.0000
# 6 0.0000 0.0000 0.0000 12.5967 0.0000 12.5755
#
#
#
# Elastic Compliance Matrix: (Units=1/GPa)
#
#
# Indices 1 2 3 4 5 6 
#
# 1 0.025700 0.000742 0.000682 0.000000 -0.021024 0.000000
# 2 0.000742 0.008756 -0.002599 0.000000 -0.012159 0.000000
# 3 0.000682 -0.002599 0.017904 0.000000 -0.007407 0.000000
# 4 0.000000 0.000000 0.000000 0.043061 0.000000 -0.043134
# 5 -0.021024 -0.012159 -0.007407 0.000000 0.069368 0.000000
# 6 0.000000 0.000000 0.000000 -0.043134 0.000000 0.122726
#
#
# Mechanical properties :
#
#
# Convention : Reuss Voigt Hill
#
# Bulk Modulus (GPa) = 19.99616 56.44491 38.22054
# Shear Modulus (GPa) = 16.31134 31.42996 23.87065
#
# Velocity S-wave (km/s) = 2.56757 3.56410 3.10606
# Velocity P-wave (km/s) = 4.10750 6.30475 5.32078
#
# Compressibility (1/GPa) = 0.05000959
#
# Stress axis : x y z
#
# Youngs Moduli (GPa) = 38.91047 114.20999 55.85365
#
# Poissons Ratio (x) = -0.08474 -0.03807
# Poissons Ratio (y) = -0.02887 0.14515
# Poissons Ratio (z) = -0.02652 0.29679
#
# Static dielectric constant tensor:
#      x y z
#    x 2.437150 0.000000 0.045130 
#    y 0.000000 1.961410 0.000000 
#    z 0.045130 0.000000 1.938810 
# 
# From -- ./inp_files/6271.got.cif
#   From: 2010.05.17/outbox.cif.g08.bks.cpg/sg14_4_cif.got.tgz:6271.got - 2010.06.03 17:49:19.
