data_PCOD9249212
_publ_section_title
;
Structure prediction by ZEFSAII (Michael W. Deem and Ramdas Pophale) SiO2 
 PCOD9249212
Probable space group: P 21/C
;
_chemical_formula_sum "Si O2"
_cell_formula_units_Z 28
_cell_length_a 12.304836
_cell_length_b 15.915270
_cell_length_c 8.083687
_cell_angle_alpha 90.000000
_cell_angle_beta 116.567745
_cell_angle_gamma 90.000000
_cell_volume 1415.904993
_symmetry_space_group_name_H-M "P 21/C"
_symmetry_group_IT_number 14
_symmetry_cell_setting 'monoclinic'
loop_
_space_group_symop_operation_xyz
x,y,z
-x,1/2+y,1/2-z
-x,-y,-z
x,1/2-y,1/2+z
loop_
_atom_site_type_symbol
_atom_site_label
_atom_site_fract_x
_atom_site_fract_y
_atom_site_fract_z
Si Si1 0.359567 0.503990 0.861492
Si Si2 0.169984 0.996431 0.533172
Si Si3 0.782475 0.160293 0.849638
Si Si4 0.998383 0.063560 0.844742
Si Si5 0.787095 0.651705 0.353097
Si Si6 0.851235 0.330397 0.776104
Si Si7 0.863947 0.677074 0.024381
O O1 0.277989 0.508110 0.971977
O O2 0.321436 0.589461 0.738843
O O3 0.317840 0.417760 0.741753
O O4 0.500000 0.500000 0.000000
O O5 0.179680 0.919127 0.662324
O O6 0.042587 0.985241 0.345599
O O7 0.170656 0.091749 0.593903
O O8 0.763787 0.256523 0.784140
O O9 0.889427 0.128387 0.801483
O O10 0.833568 0.161075 0.069067
O O11 0.122600 0.111826 0.949885
O O12 0.000000 0.000000 0.000000
O O13 0.846955 0.659962 0.209793
O O14 0.777277 0.747174 0.408390
O O15 0.992589 0.307253 0.910608
#
# Coordination Sequence:
#
# PCOD9249212 Si02
#       7
#     4   4   4   4   4   4   4
#     4  10  23  45  63  78 112 163 210 254 289 337
#     4  10  23  36  57  89 124 154 200 236 293 364
#     4  11  21  34  59  88 120 156 193 237 296 355
#     4  11  16  34  54  82 121 152 185 236 296 355
#     4  11  22  34  58  87 120 153 195 232 300 359
#     4  12  21  35  57  96 125 154 185 238 303 367
#     4  11  21  34  53  90 129 153 176 238 301 372
#
# _framework density 19.77534
#
# number of rings (size 3 to 8) (size 9 to 14) (size 15 to 20)
#    0.000    1.143    7.143    2.143    2.000    1.143 
#    0.000    6.429    0.000    0.000    0.000    0.000 
#    0.000    0.000    0.000    0.000    0.000    0.000 
#
# Total GULP energy -156273.049995 kJ/mol
# GULP energy per Si atom -5581.180357 kJ/mol
# Density = 1.973033 g / cm^3
# Si number density = 19.775340 Si / 1000 Ang^3
#
#
#
# Elastic Constant Matrix: (Units=GPa)
#
#
# Indices 1 2 3 4 5 6 
#
# 1 46.8797 31.4680 34.6828 0.0000 15.1402 0.0000
# 2 31.4680 190.1231 56.7743 0.0000 14.5563 0.0000
# 3 34.6828 56.7743 71.2310 0.0000 9.9797 0.0000
# 4 0.0000 0.0000 0.0000 33.0143 0.0000 -9.8082
# 5 15.1402 14.5563 9.9797 0.0000 34.9714 0.0000
# 6 0.0000 0.0000 0.0000 -9.8082 0.0000 16.7101
#
#
#
# Elastic Compliance Matrix: (Units=1/GPa)
#
#
# Indices 1 2 3 4 5 6 
#
# 1 0.037284 -0.000468 -0.016194 0.000000 -0.011325 0.000000
# 2 -0.000468 0.006971 -0.005156 0.000000 -0.001227 0.000000
# 3 -0.016194 -0.005156 0.025781 0.000000 0.001800 0.000000
# 4 0.000000 0.000000 0.000000 0.036687 0.000000 0.021534
# 5 -0.011325 -0.001227 0.001800 0.000000 0.033495 0.000000
# 6 0.000000 0.000000 0.000000 0.021534 0.000000 0.072484
#
#
# Mechanical properties :
#
#
# Convention : Reuss Voigt Hill
#
# Bulk Modulus (GPa) = 37.87956 61.56490 49.72223
# Shear Modulus (GPa) = 18.85808 29.29308 24.07558
#
# Velocity S-wave (km/s) = 3.09142 3.85293 3.49299
# Velocity P-wave (km/s) = 5.65146 7.14095 6.43942
#
# Compressibility (1/GPa) = 0.02639946
#
# Stress axis : x y z
#
# Youngs Moduli (GPa) = 26.82148 143.45224 38.78780
#
# Poissons Ratio (x) = 0.06715 0.62812
# Poissons Ratio (y) = 0.01255 0.20000
# Poissons Ratio (z) = 0.43434 0.73968
#
# Static dielectric constant tensor:
#      x y z
#    x 1.721330 0.000000 -0.044610 
#    y 0.000000 1.810810 0.000000 
#    z -0.044610 0.000000 1.699200 
# 
# From -- ./inp_files/13412.got.cif
#   From: 2010.05.17/outbox.cif.g08.bks.cpg/sg14_7_cif.got.tgz:13412.got - 2010.06.03 17:49:19.
