data_PCOD9249406
_publ_section_title
;
Structure prediction by ZEFSAII (Michael W. Deem and Ramdas Pophale) SiO2 
 PCOD9249406
Probable space group: P 21/C
;
_chemical_formula_sum "Si O2"
_cell_formula_units_Z 28
_cell_length_a 23.951512
_cell_length_b 7.411826
_cell_length_c 25.527747
_cell_angle_alpha 90.000000
_cell_angle_beta 15.454847
_cell_angle_gamma 90.000000
_cell_volume 1207.628744
_symmetry_space_group_name_H-M "P 21/C"
_symmetry_group_IT_number 14
_symmetry_cell_setting 'monoclinic'
loop_
_space_group_symop_operation_xyz
x,y,z
-x,1/2+y,1/2-z
-x,-y,-z
x,1/2-y,1/2+z
loop_
_atom_site_type_symbol
_atom_site_label
_atom_site_fract_x
_atom_site_fract_y
_atom_site_fract_z
Si Si1 0.544388 0.315949 0.359168
Si Si2 0.000937 0.916304 0.583446
Si Si3 0.127835 0.177424 0.186464
Si Si4 0.013837 0.909183 0.801354
Si Si5 0.680097 0.046406 0.396103
Si Si6 0.633873 0.811728 0.837067
Si Si7 0.100122 0.329685 0.489833
O O1 0.378636 0.349562 0.461956
O O2 0.437678 0.135496 0.480019
O O3 0.555109 0.496407 0.385686
O O4 0.784098 0.307465 0.122668
O O5 0.954471 0.923374 0.687368
O O6 0.812710 0.845610 0.717705
O O7 0.026289 0.125346 0.545385
O O8 0.050762 0.378343 0.268380
O O9 0.039102 0.138548 0.209543
O O10 0.234155 0.848083 0.628883
O O11 0.845455 0.849292 0.997670
O O12 0.559165 0.190553 0.470495
O O13 0.905799 0.031544 0.161738
O O14 0.714981 0.671145 0.718612
#
# Coordination Sequence:
#
# PCOD9249406 Si02
#       7
#     4   4   4   4   4   4   4
#     4  10  23  41  63  98 127 174 221 267 336 403
#     4  11  24  41  63  96 133 175 218 276 336 403
#     4  11  22  43  65  91 131 165 223 272 343 390
#     4   9  22  42  65  93 124 169 215 283 324 405
#     4   9  22  41  65  96 127 170 227 266 338 395
#     4  11  23  42  66  93 138 175 218 273 336 403
#     4   9  20  42  62  92 133 168 218 280 328 392
#
# _framework density 23.185934
#
# number of rings (size 3 to 8) (size 9 to 14) (size 15 to 20)
#    0.857    1.143    0.000    3.429    4.000    4.000 
#    5.143    4.286    0.000    0.000    0.000    0.000 
#    0.000    0.000    0.000    0.000    0.000    0.000 
#
# Total GULP energy -155998.418862 kJ/mol
# GULP energy per Si atom -5571.372102 kJ/mol
# Density = 2.313316 g / cm^3
# Si number density = 23.185934 Si / 1000 Ang^3
#
#
#
# Elastic Constant Matrix: (Units=GPa)
#
#
# Indices 1 2 3 4 5 6 
#
# 1 158.7603 15.3102 40.4792 0.0000 -25.4599 0.0000
# 2 15.3102 95.7998 26.8861 0.0000 -12.4957 0.0000
# 3 40.4792 26.8861 93.2692 0.0000 -15.4234 0.0000
# 4 0.0000 0.0000 0.0000 45.3000 0.0000 5.8169
# 5 -25.4599 -12.4957 -15.4234 0.0000 28.6063 0.0000
# 6 0.0000 0.0000 0.0000 5.8169 0.0000 25.5213
#
#
#
# Elastic Compliance Matrix: (Units=1/GPa)
#
#
# Indices 1 2 3 4 5 6 
#
# 1 0.007836 0.000197 -0.002514 0.000000 0.005704 0.000000
# 2 0.000197 0.011692 -0.002835 0.000000 0.003754 0.000000
# 3 -0.002514 -0.002835 0.013235 0.000000 0.003660 0.000000
# 4 0.000000 0.000000 0.000000 0.022741 0.000000 -0.005183
# 5 0.005704 0.003754 0.003660 0.000000 0.043647 0.000000
# 6 0.000000 0.000000 0.000000 -0.005183 0.000000 0.040364
#
#
# Mechanical properties :
#
#
# Convention : Reuss Voigt Hill
#
# Bulk Modulus (GPa) = 44.52560 57.02002 50.77281
# Shear Modulus (GPa) = 31.78509 37.56242 34.67376
#
# Velocity S-wave (km/s) = 3.70655 4.02935 3.87132
# Velocity P-wave (km/s) = 6.12890 6.80393 6.47522
#
# Compressibility (1/GPa) = 0.02245899
#
# Stress axis : x y z
#
# Youngs Moduli (GPa) = 127.62202 85.52623 75.55504
#
# Poissons Ratio (x) = -0.01689 0.18997
# Poissons Ratio (y) = -0.02520 0.21422
# Poissons Ratio (z) = 0.32088 0.24249
#
# Static dielectric constant tensor:
#      x y z
#    x 1.984570 0.000000 0.057400 
#    y 0.000000 1.894990 0.000000 
#    z 0.057400 0.000000 2.048360 
# 
# From -- ./inp_files/74627.got.cif
#   From: 2010.05.17/outbox.cif.g08.bks.cpg/sg14_38_cif.got.tgz:74627.got - 2010.06.03 17:49:19.
