data_PCOD9249031
_publ_section_title
;
Structure prediction by ZEFSAII (Michael W. Deem and Ramdas Pophale) SiO2 
 PCOD9249031
Probable space group: P 21/C
;
_chemical_formula_sum "Si O2"
_cell_formula_units_Z 28
_cell_length_a 25.056383
_cell_length_b 7.836186
_cell_length_c 8.682226
_cell_angle_alpha 90.000000
_cell_angle_beta 141.677106
_cell_angle_gamma 90.000000
_cell_volume 1057.086975
_symmetry_space_group_name_H-M "P 21/C"
_symmetry_group_IT_number 14
_symmetry_cell_setting 'monoclinic'
loop_
_space_group_symop_operation_xyz
x,y,z
-x,1/2+y,1/2-z
-x,-y,-z
x,1/2-y,1/2+z
loop_
_atom_site_type_symbol
_atom_site_label
_atom_site_fract_x
_atom_site_fract_y
_atom_site_fract_z
Si Si1 0.915384 0.091817 0.872739
Si Si2 0.159843 0.209495 0.090812
Si Si3 0.650521 0.749733 0.862349
Si Si4 0.368839 0.613431 0.130317
Si Si5 0.475099 0.638279 0.071755
Si Si6 0.254307 0.984505 0.098961
Si Si7 0.134793 0.592320 0.068327
O O1 0.858403 0.140782 0.594858
O O2 0.928307 0.266989 0.997862
O O3 0.870971 0.941087 0.868253
O O4 0.000000 0.000000 0.000000
O O5 0.259071 0.260655 0.344631
O O6 0.111528 0.389619 0.001579
O O7 0.173205 0.109184 0.960090
O O8 0.644742 0.554583 0.796840
O O9 0.567453 0.768756 0.780611
O O10 0.665930 0.894520 0.770609
O O11 0.447393 0.604959 0.184101
O O12 0.398198 0.756209 0.316254
O O13 0.287686 0.612081 0.827377
O O14 0.500000 0.500000 0.000000
O O15 0.218719 0.892826 0.866612
#
# Coordination Sequence:
#
# PCOD9249031 Si02
#       7
#     4   4   4   4   4   4   4
#     4  12  29  49  80 121 151 199 251 305 388 469
#     4  10  24  50  79 109 148 198 256 315 386 455
#     4  10  22  45  71  99 147 195 247 315 379 449
#     4  11  25  43  68 105 143 192 255 318 377 453
#     4  12  24  43  66 103 146 195 253 312 387 443
#     4  10  22  48  79 106 143 201 258 319 387 450
#     4  11  25  49  77 110 157 196 246 309 376 466
#
# _framework density 26.487888000000002
#
# number of rings (size 3 to 8) (size 9 to 14) (size 15 to 20)
#    0.000    1.143    1.429    3.857    4.000    4.000 
#    0.000    0.000    0.000    0.000    0.000    0.000 
#    0.000    0.000    0.000    0.000    0.000    0.000 
#
# Total GULP energy -156342.647913 kJ/mol
# GULP energy per Si atom -5583.665997 kJ/mol
# Density = 2.642760 g / cm^3
# Si number density = 26.487888 Si / 1000 Ang^3
#
#
#
# Elastic Constant Matrix: (Units=GPa)
#
#
# Indices 1 2 3 4 5 6 
#
# 1 125.0143 68.2762 28.0023 0.0000 -9.9636 0.0000
# 2 68.2762 156.4950 38.8868 0.0000 -9.2309 0.0000
# 3 28.0023 38.8868 106.2789 0.0000 -6.8911 0.0000
# 4 0.0000 0.0000 0.0000 38.3632 0.0000 -8.1234
# 5 -9.9636 -9.2309 -6.8911 0.0000 43.9059 0.0000
# 6 0.0000 0.0000 0.0000 -8.1234 0.0000 53.9415
#
#
#
# Elastic Compliance Matrix: (Units=1/GPa)
#
#
# Indices 1 2 3 4 5 6 
#
# 1 0.010720 -0.004309 -0.001161 0.000000 0.001345 0.000000
# 2 -0.004309 0.008813 -0.002053 0.000000 0.000553 0.000000
# 3 -0.001161 -0.002053 0.010528 0.000000 0.000957 0.000000
# 4 0.000000 0.000000 0.000000 0.026925 0.000000 0.004055
# 5 0.001345 0.000553 0.000957 0.000000 0.023348 0.000000
# 6 0.000000 0.000000 0.000000 0.004055 0.000000 0.019149
#
#
# Mechanical properties :
#
#
# Convention : Reuss Voigt Hill
#
# Bulk Modulus (GPa) = 66.60107 73.12430 69.86269
# Shear Modulus (GPa) = 41.82922 44.08367 42.95644
#
# Velocity S-wave (km/s) = 3.97820 4.08400 4.03145
# Velocity P-wave (km/s) = 6.80441 7.06438 6.93561
#
# Compressibility (1/GPa) = 0.01501477
#
# Stress axis : x y z
#
# Youngs Moduli (GPa) = 93.28715 113.47137 94.98144
#
# Poissons Ratio (x) = 0.48896 0.11023
# Poissons Ratio (y) = 0.40198 0.19503
# Poissons Ratio (z) = 0.10826 0.23300
#
# Static dielectric constant tensor:
#      x y z
#    x 2.099100 0.000000 0.047520 
#    y 0.000000 2.203740 0.000000 
#    z 0.047520 0.000000 2.093650 
# 
# From -- ./inp_files/19690.got.cif
#   From: 2010.05.17/outbox.cif.g08.bks.cpg/sg14_10_cif.got.tgz:19690.got - 2010.06.03 17:49:19.
