data_PCOD9249023
_publ_section_title
;
Structure prediction by ZEFSAII (Michael W. Deem and Ramdas Pophale) SiO2 
 PCOD9249023
Probable space group: P 21/C
;
_chemical_formula_sum "Si O2"
_cell_formula_units_Z 20
_cell_length_a 13.763828
_cell_length_b 4.977123
_cell_length_c 12.163485
_cell_angle_alpha 90.000000
_cell_angle_beta 88.394819
_cell_angle_gamma 90.000000
_cell_volume 832.923620
_symmetry_space_group_name_H-M "P 21/C"
_symmetry_group_IT_number 14
_symmetry_cell_setting 'monoclinic'
loop_
_space_group_symop_operation_xyz
x,y,z
-x,1/2+y,1/2-z
-x,-y,-z
x,1/2-y,1/2+z
loop_
_atom_site_type_symbol
_atom_site_label
_atom_site_fract_x
_atom_site_fract_y
_atom_site_fract_z
Si Si1 0.921203 0.960059 0.599753
Si Si2 0.489094 0.433589 0.820317
Si Si3 0.107986 0.683267 0.208765
Si Si4 0.407513 0.201014 0.013222
Si Si5 0.805645 0.679651 0.421146
O O1 0.842273 0.784363 0.538839
O O2 0.992025 0.837553 0.690112
O O3 0.877943 0.216575 0.665975
O O4 0.000000 0.000000 0.500000
O O5 0.534744 0.181418 0.756966
O O6 0.561818 0.560772 0.906012
O O7 0.398341 0.322591 0.891539
O O8 0.167717 0.421050 0.165635
O O9 0.141023 0.918880 0.125310
O O10 0.306749 0.100098 0.062455
O O11 0.500000 0.000000 0.000000
#
# Coordination Sequence:
#
# PCOD9249023 Si02
#       5
#     4   4   4   4   4
#     4  10  22  45  71 100 143 181 226 285 357 421
#     4  11  24  44  72  98 135 190 237 299 367 416
#     4  11  24  43  70 105 139 184 229 290 352 428
#     4  11  26  46  73 104 145 191 248 301 357 435
#     4  11  27  42  69 106 140 182 238 288 350 420
#
# _framework density 24.011807000000001
#
# number of rings (size 3 to 8) (size 9 to 14) (size 15 to 20)
#    0.000    1.200    2.000    3.000    5.600    8.000 
#    0.000    0.000    4.400    0.000    0.000    0.000 
#    0.000    0.000    0.000    0.000    0.000    0.000 
#
# Total GULP energy -111722.493621 kJ/mol
# GULP energy per Si atom -5586.124681 kJ/mol
# Density = 2.395715 g / cm^3
# Si number density = 24.011807 Si / 1000 Ang^3
#
#
#
# Elastic Constant Matrix: (Units=GPa)
#
#
# Indices 1 2 3 4 5 6 
#
# 1 118.7094 44.2195 21.8368 0.0000 -25.9207 0.0000
# 2 44.2195 141.4584 47.0638 0.0000 -16.8188 0.0000
# 3 21.8368 47.0638 109.7690 0.0000 -15.1279 0.0000
# 4 0.0000 0.0000 0.0000 -27.7027 0.0000 -41.9161
# 5 -25.9207 -16.8188 -15.1279 0.0000 19.9682 0.0000
# 6 0.0000 0.0000 0.0000 -41.9161 0.0000 11.7154
#
#
#
# Elastic Compliance Matrix: (Units=1/GPa)
#
#
# Indices 1 2 3 4 5 6 
#
# 1 0.012352 -0.002316 0.000532 0.000000 0.014487 0.000000
# 2 -0.002316 0.009107 -0.003128 0.000000 0.002295 0.000000
# 3 0.000532 -0.003128 0.011252 0.000000 0.006581 0.000000
# 4 0.000000 0.000000 0.000000 -0.005628 0.000000 -0.020137
# 5 0.014487 0.002295 0.006581 0.000000 0.075803 0.000000
# 6 0.000000 0.000000 0.000000 -0.020137 0.000000 0.013309
#
#
# Mechanical properties :
#
#
# Convention : Reuss Voigt Hill
#
# Bulk Modulus (GPa) = 43.69061 66.24187 54.96624
# Shear Modulus (GPa) = 37.41224 17.91729 27.66477
#
# Velocity S-wave (km/s) = 3.95153 2.73461 3.39799
# Velocity P-wave (km/s) = 6.24935 6.13334 6.19162
#
# Compressibility (1/GPa) = 0.02288821
#
# Stress axis : x y z
#
# Youngs Moduli (GPa) = 80.95914 109.81167 88.87236
#
# Poissons Ratio (x) = 0.25431 -0.04730
# Poissons Ratio (y) = 0.18749 0.27795
# Poissons Ratio (z) = -0.04309 0.34344
#
# Static dielectric constant tensor:
#      x y z
#    x 1.900190 0.000000 0.015790 
#    y 0.000000 1.989300 0.000000 
#    z 0.015790 0.000000 2.030970 
# 
# From -- ./inp_files/30992.got.cif
#   From: 2010.05.17/outbox.cif.g08.bks.cpg/sg14_16_cif.got.tgz:30992.got - 2010.06.03 17:49:19.
