data_PCOD9249471
_publ_section_title
;
Structure prediction by ZEFSAII (Michael W. Deem and Ramdas Pophale) SiO2 
 PCOD9249471
Probable space group: P 21/C
;
_chemical_formula_sum "Si O2"
_cell_formula_units_Z 28
_cell_length_a 20.653687
_cell_length_b 7.429222
_cell_length_c 10.959644
_cell_angle_alpha 90.000000
_cell_angle_beta 137.057840
_cell_angle_gamma 90.000000
_cell_volume 1145.645046
_symmetry_space_group_name_H-M "P 21/C"
_symmetry_group_IT_number 14
_symmetry_cell_setting 'monoclinic'
loop_
_space_group_symop_operation_xyz
x,y,z
-x,1/2+y,1/2-z
-x,-y,-z
x,1/2-y,1/2+z
loop_
_atom_site_type_symbol
_atom_site_label
_atom_site_fract_x
_atom_site_fract_y
_atom_site_fract_z
Si Si1 0.671409 0.912914 0.901827
Si Si2 0.464251 0.638625 0.050372
Si Si3 0.863143 0.673407 0.556268
Si Si4 0.310232 0.810261 0.684619
Si Si5 0.039751 0.300686 0.053037
Si Si6 0.299003 0.425368 0.954645
Si Si7 0.857117 0.356356 0.406000
O O1 0.565563 0.827404 0.750755
O O2 0.705878 0.791503 0.063163
O O3 0.676348 0.130412 0.887692
O O4 0.748781 0.848212 0.908707
O O5 0.392242 0.520113 0.028965
O O6 0.500000 0.500000 0.000000
O O7 0.402084 0.794408 0.900519
O O8 0.904716 0.774032 0.496725
O O9 0.901775 0.732834 0.740833
O O10 0.896376 0.467728 0.575615
O O11 0.300164 0.988555 0.592078
O O12 0.215487 0.787286 0.635799
O O13 0.000000 0.500000 0.000000
O O14 0.942899 0.189402 0.936267
O O15 0.211365 0.515370 0.765583
#
# Coordination Sequence:
#
# PCOD9249471 Si02
#       7
#     4   4   4   4   4   4   4
#     4  10  23  41  69  98 141 179 236 290 356 420
#     4   9  21  42  61 100 138 172 227 297 340 411
#     4  11  25  47  67 106 138 187 231 300 358 429
#     4   9  22  43  66  97 138 177 233 286 353 422
#     4  12  27  43  74 103 137 186 241 288 368 434
#     4  11  23  41  72  98 131 193 226 289 361 419
#     4  10  24  45  66  96 145 172 230 303 344 422
#
# _framework density 24.440380999999999
#
# number of rings (size 3 to 8) (size 9 to 14) (size 15 to 20)
#    0.000    1.714    0.000    3.000   12.000    0.571 
#    0.000    7.143    0.000    0.000    0.000    0.000 
#    0.000    0.000    0.000    0.000    0.000    0.000 
#
# Total GULP energy -156069.423466 kJ/mol
# GULP energy per Si atom -5573.907981 kJ/mol
# Density = 2.438475 g / cm^3
# Si number density = 24.440381 Si / 1000 Ang^3
#
#
#
# Elastic Constant Matrix: (Units=GPa)
#
#
# Indices 1 2 3 4 5 6 
#
# 1 94.7309 20.8893 33.6959 0.0000 10.0310 0.0000
# 2 20.8893 68.3203 10.3733 0.0000 8.2573 0.0000
# 3 33.6959 10.3733 72.1588 0.0000 14.6203 0.0000
# 4 0.0000 0.0000 0.0000 31.8690 0.0000 -10.6015
# 5 10.0310 8.2573 14.6203 0.0000 33.7156 0.0000
# 6 0.0000 0.0000 0.0000 -10.6015 0.0000 31.3249
#
#
#
# Elastic Compliance Matrix: (Units=1/GPa)
#
#
# Indices 1 2 3 4 5 6 
#
# 1 0.013325 -0.003129 -0.005618 0.000000 -0.000762 0.000000
# 2 -0.003129 0.015979 -0.000254 0.000000 -0.002872 0.000000
# 3 -0.005618 -0.000254 0.017724 0.000000 -0.005952 0.000000
# 4 0.000000 0.000000 0.000000 0.035359 0.000000 0.011967
# 5 -0.000762 -0.002872 -0.005952 0.000000 0.033171 0.000000
# 6 0.000000 0.000000 0.000000 0.011967 0.000000 0.035974
#
#
# Mechanical properties :
#
#
# Convention : Reuss Voigt Hill
#
# Bulk Modulus (GPa) = 34.45148 40.56968 37.51058
# Shear Modulus (GPa) = 27.89998 30.73199 29.31598
#
# Velocity S-wave (km/s) = 3.38235 3.54987 3.46712
# Velocity P-wave (km/s) = 5.42038 5.78252 5.60438
#
# Compressibility (1/GPa) = 0.02902633
#
# Stress axis : x y z
#
# Youngs Moduli (GPa) = 75.04491 62.58053 56.41937
#
# Poissons Ratio (x) = 0.19583 0.31698
# Poissons Ratio (y) = 0.23483 0.01433
# Poissons Ratio (z) = 0.42163 0.01589
#
# Static dielectric constant tensor:
#      x y z
#    x 1.639240 0.000000 -0.140940 
#    y 0.000000 1.941070 0.000000 
#    z -0.140940 0.000000 2.119840 
# 
# From -- ./inp_files/35011.got.cif
#   From: 2010.05.17/outbox.cif.g08.bks.cpg/sg14_18_cif.got.tgz:35011.got - 2010.06.03 17:49:19.
