data_PCOD9249013
_publ_section_title
;
Structure prediction by ZEFSAII (Michael W. Deem and Ramdas Pophale) SiO2 
 PCOD9249013
Probable space group: P 21/C
;
_chemical_formula_sum "Si O2"
_cell_formula_units_Z 24
_cell_length_a 11.697296
_cell_length_b 11.654241
_cell_length_c 13.952237
_cell_angle_alpha 90.000000
_cell_angle_beta 36.826385
_cell_angle_gamma 90.000000
_cell_volume 1140.051477
_symmetry_space_group_name_H-M "P 21/C"
_symmetry_group_IT_number 14
_symmetry_cell_setting 'monoclinic'
loop_
_space_group_symop_operation_xyz
x,y,z
-x,1/2+y,1/2-z
-x,-y,-z
x,1/2-y,1/2+z
loop_
_atom_site_type_symbol
_atom_site_label
_atom_site_fract_x
_atom_site_fract_y
_atom_site_fract_z
Si Si1 0.323702 0.412865 0.859603
Si Si2 0.938308 0.733168 0.106243
Si Si3 0.998445 0.514969 0.196792
Si Si4 0.658697 0.185126 0.255267
Si Si5 0.633298 0.077763 0.845115
Si Si6 0.884251 0.984629 0.176323
O O1 0.512919 0.353655 0.771415
O O2 0.363631 0.517776 0.760625
O O3 0.192986 0.325186 0.886553
O O4 0.201139 0.463668 0.029127
O O5 0.968550 0.638656 0.168310
O O6 0.842691 0.849524 0.208996
O O7 0.144484 0.766420 0.923413
O O8 0.989113 0.517390 0.317018
O O9 0.840225 0.433570 0.254873
O O10 0.576278 0.290581 0.371817
O O11 0.712430 0.074316 0.282371
O O12 0.500000 0.000000 0.000000
O O13 0.000000 0.000000 0.000000
#
# Coordination Sequence:
#
# PCOD9249013 Si02
#       6
#     4   4   4   4   4   4
#     4  11  24  43  74  97 140 191 226 290 362 413
#     4  10  22  45  70 101 142 185 229 288 357 421
#     4  11  23  46  71  94 145 187 228 291 355 419
#     4  11  24  43  70 104 147 174 241 295 337 431
#     4  11  25  43  70 105 136 188 241 280 358 424
#     4  10  26  39  68 105 134 180 233 287 354 396
#
# _framework density 21.051680999999999
#
# number of rings (size 3 to 8) (size 9 to 14) (size 15 to 20)
#    0.000    1.333    3.333    1.000    9.333    4.667 
#    0.000    0.000    0.000    0.000    0.000    0.000 
#    0.000    0.000    0.000    0.000    0.000    0.000 
#
# Total GULP energy -134163.844680 kJ/mol
# GULP energy per Si atom -5590.160195 kJ/mol
# Density = 2.100377 g / cm^3
# Si number density = 21.051681 Si / 1000 Ang^3
#
#
#
# Elastic Constant Matrix: (Units=GPa)
#
#
# Indices 1 2 3 4 5 6 
#
# 1 123.6645 80.5931 4.9477 0.0000 6.5713 0.0000
# 2 80.5931 151.2630 19.5872 0.0000 -5.1039 0.0000
# 3 4.9477 19.5872 25.7335 0.0000 5.0862 0.0000
# 4 0.0000 0.0000 0.0000 26.7127 0.0000 -4.4300
# 5 6.5713 -5.1039 5.0862 0.0000 33.2722 0.0000
# 6 0.0000 0.0000 0.0000 -4.4300 0.0000 8.7543
#
#
#
# Elastic Compliance Matrix: (Units=1/GPa)
#
#
# Indices 1 2 3 4 5 6 
#
# 1 0.013185 -0.007721 0.004218 0.000000 -0.004433 0.000000
# 2 -0.007721 0.011992 -0.008567 0.000000 0.004674 0.000000
# 3 0.004218 -0.008567 0.046396 0.000000 -0.009240 0.000000
# 4 0.000000 0.000000 0.000000 0.040865 0.000000 0.020679
# 5 -0.004433 0.004674 -0.009240 0.000000 0.033060 0.000000
# 6 0.000000 0.000000 0.000000 0.020679 0.000000 0.124695
#
#
# Mechanical properties :
#
#
# Convention : Reuss Voigt Hill
#
# Bulk Modulus (GPa) = 21.08247 56.76857 38.92552
# Shear Modulus (GPa) = 16.12166 26.78337 21.45252
#
# Velocity S-wave (km/s) = 2.77034 3.57076 3.19570
# Velocity P-wave (km/s) = 4.50215 6.63515 5.66986
#
# Compressibility (1/GPa) = 0.04743277
#
# Stress axis : x y z
#
# Youngs Moduli (GPa) = 75.84496 83.39182 21.55371
#
# Poissons Ratio (x) = 0.64384 -0.09091
# Poissons Ratio (y) = 0.58557 0.18465
# Poissons Ratio (z) = -0.31990 0.71440
#
# Static dielectric constant tensor:
#      x y z
#    x 1.714980 0.000000 -0.003870 
#    y 0.000000 1.559360 0.000000 
#    z -0.003870 0.000000 1.813440 
# 
# From -- ./inp_files/44268.got.cif
#   From: 2010.05.17/outbox.cif.g08.bks.cpg/sg14_23_cif.got.tgz:44268.got - 2010.06.03 17:49:19.
