data_PCOD9249004
_publ_section_title
;
Structure prediction by ZEFSAII (Michael W. Deem and Ramdas Pophale) SiO2 
 PCOD9249004
Probable space group: P 21/C
;
_chemical_formula_sum "Si O2"
_cell_formula_units_Z 28
_cell_length_a 12.501855
_cell_length_b 23.185513
_cell_length_c 9.362304
_cell_angle_alpha 90.000000
_cell_angle_beta 148.071717
_cell_angle_gamma 90.000000
_cell_volume 1435.200080
_symmetry_space_group_name_H-M "P 21/C"
_symmetry_group_IT_number 14
_symmetry_cell_setting 'monoclinic'
loop_
_space_group_symop_operation_xyz
x,y,z
-x,1/2+y,1/2-z
-x,-y,-z
x,1/2-y,1/2+z
loop_
_atom_site_type_symbol
_atom_site_label
_atom_site_fract_x
_atom_site_fract_y
_atom_site_fract_z
Si Si1 0.655091 0.738652 0.440189
Si Si2 0.412983 0.630400 0.260903
Si Si3 0.033641 0.248523 0.462487
Si Si4 0.725300 0.434538 0.332012
Si Si5 0.345026 0.663581 0.513594
Si Si6 0.036695 0.622942 0.635741
Si Si7 0.649277 0.563866 0.313700
O O1 0.491938 0.688040 0.270186
O O2 0.812727 0.727350 0.744593
O O3 0.810288 0.740348 0.487156
O O4 0.526025 0.797682 0.285583
O O5 0.401742 0.642003 0.417405
O O6 0.564402 0.581495 0.372816
O O7 0.195849 0.616735 0.945549
O O8 0.852250 0.204738 0.225324
O O9 0.948126 0.311622 0.404009
O O10 0.701430 0.388730 0.432099
O O11 0.909725 0.418130 0.436536
O O12 0.733021 0.499053 0.401297
O O13 0.533315 0.431302 0.007216
O O14 0.820412 0.607280 0.453971
#
# Coordination Sequence:
#
# PCOD9249004 Si02
#       7
#     4   4   4   4   4   4   4
#     4  12  24  40  60  93 131 169 208 261 321 396
#     4  11  24  40  62  92 132 168 210 267 320 386
#     4  12  24  38  65  94 129 173 211 258 334 388
#     4  10  24  42  68  97 127 172 219 278 310 387
#     4  12  26  41  62 100 135 163 216 268 329 390
#     4  11  21  40  67  93 126 170 216 268 317 382
#     4  10  22  45  69  93 126 174 227 259 329 377
#
# _framework density 19.509474999999998
#
# number of rings (size 3 to 8) (size 9 to 14) (size 15 to 20)
#    0.000    0.857    4.286    3.000    4.000    0.571 
#    0.000    0.714    0.000    0.000    0.000    0.000 
#    0.000    0.000    0.000    0.000    0.000    0.000 
#
# Total GULP energy -156310.688169 kJ/mol
# GULP energy per Si atom -5582.524577 kJ/mol
# Density = 1.946507 g / cm^3
# Si number density = 19.509475 Si / 1000 Ang^3
#
#
#
# Elastic Constant Matrix: (Units=GPa)
#
#
# Indices 1 2 3 4 5 6 
#
# 1 90.2943 16.1351 3.6466 0.0000 2.1653 0.0000
# 2 16.1351 92.7480 9.9840 0.0000 -2.1032 0.0000
# 3 3.6466 9.9840 36.8945 0.0000 12.6623 0.0000
# 4 0.0000 0.0000 0.0000 20.4997 0.0000 5.4950
# 5 2.1653 -2.1032 12.6623 0.0000 17.3245 0.0000
# 6 0.0000 0.0000 0.0000 5.4950 0.0000 28.9009
#
#
#
# Elastic Compliance Matrix: (Units=1/GPa)
#
#
# Indices 1 2 3 4 5 6 
#
# 1 0.011479 -0.002034 -0.000009 0.000000 -0.001675 0.000000
# 2 -0.002034 0.011764 -0.004752 0.000000 0.005155 0.000000
# 3 -0.000009 -0.004752 0.038161 0.000000 -0.028467 0.000000
# 4 0.000000 0.000000 0.000000 0.051401 0.000000 -0.009773
# 5 -0.001675 0.005155 -0.028467 0.000000 0.079363 0.000000
# 6 0.000000 0.000000 0.000000 -0.009773 0.000000 0.036459
#
#
# Mechanical properties :
#
#
# Convention : Reuss Voigt Hill
#
# Bulk Modulus (GPa) = 20.91439 31.05203 25.98321
# Shear Modulus (GPa) = 19.36812 26.02308 22.69560
#
# Velocity S-wave (km/s) = 3.15422 3.65618 3.41444
# Velocity P-wave (km/s) = 4.89988 5.81158 5.37510
#
# Compressibility (1/GPa) = 0.04781397
#
# Stress axis : x y z
#
# Youngs Moduli (GPa) = 87.11643 85.00389 26.20461
#
# Poissons Ratio (x) = 0.17289 0.00025
# Poissons Ratio (y) = 0.17719 0.12452
# Poissons Ratio (z) = 0.00082 0.40393
#
# Static dielectric constant tensor:
#      x y z
#    x 1.657190 0.000000 0.009830 
#    y 0.000000 1.709330 0.000000 
#    z 0.009830 0.000000 1.672340 
# 
# From -- ./inp_files/14646.got.cif
#   From: 2010.05.17/outbox.cif.g08.bks.cpg/sg14_8_cif.got.tgz:14646.got - 2010.06.03 17:49:19.
