data_PCOD9249795
_publ_section_title
;
Structure prediction by ZEFSAII (Michael W. Deem and Ramdas Pophale) SiO2 
 PCOD9249795
Probable space group: P 21/C
;
_chemical_formula_sum "Si O2"
_cell_formula_units_Z 32
_cell_length_a 8.554766
_cell_length_b 14.861776
_cell_length_c 11.404967
_cell_angle_alpha 90.000000
_cell_angle_beta 70.354610
_cell_angle_gamma 90.000000
_cell_volume 1365.612880
_symmetry_space_group_name_H-M "P 21/C"
_symmetry_group_IT_number 14
_symmetry_cell_setting 'monoclinic'
loop_
_space_group_symop_operation_xyz
x,y,z
-x,1/2+y,1/2-z
-x,-y,-z
x,1/2-y,1/2+z
loop_
_atom_site_type_symbol
_atom_site_label
_atom_site_fract_x
_atom_site_fract_y
_atom_site_fract_z
Si Si1 0.750035 0.220818 0.575476
Si Si2 0.546835 0.104105 0.455111
Si Si3 0.730046 0.969626 0.104087
Si Si4 0.509135 0.377473 0.690601
Si Si5 0.860985 0.828222 0.702328
Si Si6 0.741455 0.861430 0.317691
Si Si7 0.011221 0.621600 0.401137
Si Si8 0.000169 0.093656 0.567088
O O1 0.700172 0.156590 0.477708
O O2 0.585846 0.279663 0.642081
O O3 0.888178 0.301209 0.552601
O O4 0.826829 0.143252 0.640337
O O5 0.559107 0.108833 0.313547
O O6 0.387196 0.156554 0.545945
O O7 0.500000 0.000000 0.500000
O O8 0.658335 0.915830 0.233080
O O9 0.595367 0.042290 0.095776
O O10 0.826410 0.900369 0.995806
O O11 0.878532 0.032849 0.113861
O O12 0.311823 0.380452 0.734658
O O13 0.818381 0.725808 0.740440
O O14 0.990648 0.854737 0.770248
O O15 0.919580 0.844622 0.555607
O O16 0.889443 0.913452 0.345676
O O17 0.000000 0.000000 0.500000
#
# Coordination Sequence:
#
# PCOD9249795 Si02
#       8
#     4   4   4   4   4   4   4   4
#     4  11  25  43  68 104 135 186 231 290 352 417
#     4  12  24  44  70 103 140 185 238 300 357 425
#     4  10  23  43  71  97 135 188 229 292 356 424
#     4  11  25  44  69 101 140 184 234 290 359 432
#     4  12  25  44  68 102 143 182 229 294 358 428
#     4  12  23  42  68 101 139 183 228 291 362 411
#     4  10  23  46  69  99 142 181 236 288 356 429
#     4  12  26  43  73 106 136 182 242 294 356 426
#
# _framework density 23.432701000000002
#
# number of rings (size 3 to 8) (size 9 to 14) (size 15 to 20)
#    0.000    0.750    5.000    2.250    3.500    1.500 
#    0.000    1.250    0.000    0.000    0.000    0.000 
#    0.000    0.000    0.000    0.000    0.000    0.000 
#
# Total GULP energy -178524.571918 kJ/mol
# GULP energy per Si atom -5578.892872 kJ/mol
# Density = 2.337937 g / cm^3
# Si number density = 23.432701 Si / 1000 Ang^3
#
#
#
# Elastic Constant Matrix: (Units=GPa)
#
#
# Indices 1 2 3 4 5 6 
#
# 1 73.5082 1.6994 9.5632 0.0000 13.5599 0.0000
# 2 1.6994 84.3687 25.0197 0.0000 15.4262 0.0000
# 3 9.5632 25.0197 70.6408 0.0000 -2.0590 0.0000
# 4 0.0000 0.0000 0.0000 36.3425 0.0000 1.1722
# 5 13.5599 15.4262 -2.0590 0.0000 25.5991 0.0000
# 6 0.0000 0.0000 0.0000 1.1722 0.0000 33.2517
#
#
#
# Elastic Compliance Matrix: (Units=1/GPa)
#
#
# Indices 1 2 3 4 5 6 
#
# 1 0.015862 0.002537 -0.003343 0.000000 -0.010200 0.000000
# 2 0.002537 0.015723 -0.006242 0.000000 -0.011320 0.000000
# 3 -0.003343 -0.006242 0.017021 0.000000 0.006901 0.000000
# 4 0.000000 0.000000 0.000000 0.027547 0.000000 -0.000971
# 5 -0.010200 -0.011320 0.006901 0.000000 0.051843 0.000000
# 6 0.000000 0.000000 0.000000 -0.000971 0.000000 0.030108
#
#
# Mechanical properties :
#
#
# Convention : Reuss Voigt Hill
#
# Bulk Modulus (GPa) = 28.97853 33.45360 31.21607
# Shear Modulus (GPa) = 27.21786 31.85436 29.53611
#
# Velocity S-wave (km/s) = 3.41182 3.69100 3.55416
# Velocity P-wave (km/s) = 5.28340 5.69843 5.49483
#
# Compressibility (1/GPa) = 0.03450830
#
# Stress axis : x y z
#
# Youngs Moduli (GPa) = 63.04495 63.60290 58.75210
#
# Poissons Ratio (x) = -0.16135 0.19641
# Poissons Ratio (y) = -0.15993 0.36673
# Poissons Ratio (z) = 0.21077 0.39701
#
# Static dielectric constant tensor:
#      x y z
#    x 1.947340 0.000000 -0.055300 
#    y 0.000000 1.930250 0.000000 
#    z -0.055300 0.000000 1.873890 
# 
# From -- ./inp_files/25482.got.cif
#   From: 2010.05.17/outbox.cif.g08.bks.cpg/sg14_13_cif.got.tgz:25482.got - 2010.06.03 17:49:19.
