data_PCOD9249248
_publ_section_title
;
Structure prediction by ZEFSAII (Michael W. Deem and Ramdas Pophale) SiO2 
 PCOD9249248
Probable space group: P 21/C
;
_chemical_formula_sum "Si O2"
_cell_formula_units_Z 32
_cell_length_a 6.488687
_cell_length_b 25.147132
_cell_length_c 9.846116
_cell_angle_alpha 90.000000
_cell_angle_beta 119.191241
_cell_angle_gamma 90.000000
_cell_volume 1402.564398
_symmetry_space_group_name_H-M "P 21/C"
_symmetry_group_IT_number 14
_symmetry_cell_setting 'monoclinic'
loop_
_space_group_symop_operation_xyz
x,y,z
-x,1/2+y,1/2-z
-x,-y,-z
x,1/2-y,1/2+z
loop_
_atom_site_type_symbol
_atom_site_label
_atom_site_fract_x
_atom_site_fract_y
_atom_site_fract_z
Si Si1 0.982344 0.418239 0.926156
Si Si2 0.701122 0.340722 0.440735
Si Si3 0.406341 0.831490 0.670397
Si Si4 0.948318 0.058393 0.929146
Si Si5 0.015782 0.755532 0.055156
Si Si6 0.606877 0.668352 0.928122
Si Si7 0.264570 0.348255 0.489858
Si Si8 0.773934 0.014004 0.607810
O O1 0.896015 0.451905 0.028460
O O2 0.211709 0.381430 0.025361
O O3 0.756128 0.380787 0.832499
O O4 0.069331 0.460016 0.840268
O O5 0.827072 0.397823 0.485562
O O6 0.879003 0.292522 0.531621
O O7 0.581355 0.333242 0.253843
O O8 0.489208 0.339405 0.473391
O O9 0.239677 0.781773 0.655328
O O10 0.474888 0.831768 0.532348
O O11 0.648562 0.834554 0.830831
O O12 0.787371 0.048024 0.747594
O O13 0.176004 0.091575 0.953816
O O14 0.000000 0.000000 0.000000
O O15 0.785525 0.718632 0.968762
O O16 0.930393 0.805283 0.120584
O O17 0.500000 0.000000 0.500000
#
# Coordination Sequence:
#
# PCOD9249248 Si02
#       8
#     4   4   4   4   4   4   4   4
#     4  10  23  38  67  95 128 169 227 270 322 398
#     4  11  24  44  66  95 131 176 217 273 334 398
#     4  11  24  41  67  99 131 176 214 272 332 395
#     4  11  27  42  66  96 133 175 223 274 332 395
#     4  10  24  42  69  99 131 171 224 269 333 399
#     4  11  23  42  68  97 133 172 222 272 329 396
#     4  11  26  44  65  97 139 172 217 278 338 393
#     4  11  23  43  67  95 129 174 226 279 328 384
#
# _framework density 22.815349000000001
#
# number of rings (size 3 to 8) (size 9 to 14) (size 15 to 20)
#    0.000    1.250    0.000    4.500    5.250    9.500 
#    0.000    0.000    0.000    0.000    0.000    0.000 
#    0.000    0.000    0.000    0.000    0.000    0.000 
#
# Total GULP energy -178618.842527 kJ/mol
# GULP energy per Si atom -5581.838829 kJ/mol
# Density = 2.276342 g / cm^3
# Si number density = 22.815349 Si / 1000 Ang^3
#
#
#
# Elastic Constant Matrix: (Units=GPa)
#
#
# Indices 1 2 3 4 5 6 
#
# 1 126.7609 39.0406 15.2076 0.0000 11.0189 0.0000
# 2 39.0406 167.2630 12.4994 0.0000 14.9376 0.0000
# 3 15.2076 12.4994 75.9771 0.0000 7.0765 0.0000
# 4 0.0000 0.0000 0.0000 10.6246 0.0000 23.6737
# 5 11.0189 14.9376 7.0765 0.0000 35.7228 0.0000
# 6 0.0000 0.0000 0.0000 23.6737 0.0000 19.9155
#
#
#
# Elastic Compliance Matrix: (Units=1/GPa)
#
#
# Indices 1 2 3 4 5 6 
#
# 1 0.008744 -0.001793 -0.001298 0.000000 -0.001690 0.000000
# 2 -0.001793 0.006626 -0.000534 0.000000 -0.002112 0.000000
# 3 -0.001298 -0.000534 0.013704 0.000000 -0.002091 0.000000
# 4 0.000000 0.000000 0.000000 -0.057090 0.000000 0.067863
# 5 -0.001690 -0.002112 -0.002091 0.000000 0.029812 0.000000
# 6 0.000000 0.000000 0.000000 0.067863 0.000000 -0.030456
#
#
# Mechanical properties :
#
#
# Convention : Reuss Voigt Hill
#
# Bulk Modulus (GPa) = 45.82253 55.94402 50.88328
# Shear Modulus (GPa) = -353.70998 33.46949 -160.12024
#
# Velocity S-wave (km/s) = -12.46468 3.83426 -8.38649
# Velocity P-wave (km/s) = 13.67589 6.64648 8.45145
#
# Compressibility (1/GPa) = 0.02182332
#
# Stress axis : x y z
#
# Youngs Moduli (GPa) = 114.36830 150.92947 72.96984
#
# Poissons Ratio (x) = 0.27060 0.09470
# Poissons Ratio (y) = 0.20505 0.03900
# Poissons Ratio (z) = 0.14842 0.08067
#
# Static dielectric constant tensor:
#      x y z
#    x 1.254670 0.000000 0.213620 
#    y 0.000000 1.903470 0.000000 
#    z 0.213620 0.000000 1.802470 
# 
# From -- ./inp_files/22134.got.cif
#   From: 2010.05.17/outbox.cif.g08.bks.cpg/sg14_12_cif.got.tgz:22134.got - 2010.06.03 17:49:19.
