data_PCOD9249853
_publ_section_title
;
Structure prediction by ZEFSAII (Michael W. Deem and Ramdas Pophale) SiO2 
 PCOD9249853
Probable space group: P 21/C
;
_chemical_formula_sum "Si O2"
_cell_formula_units_Z 24
_cell_length_a 6.792929
_cell_length_b 13.321401
_cell_length_c 12.754164
_cell_angle_alpha 90.000000
_cell_angle_beta 117.111916
_cell_angle_gamma 90.000000
_cell_volume 1027.321977
_symmetry_space_group_name_H-M "P 21/C"
_symmetry_group_IT_number 14
_symmetry_cell_setting 'monoclinic'
loop_
_space_group_symop_operation_xyz
x,y,z
-x,1/2+y,1/2-z
-x,-y,-z
x,1/2-y,1/2+z
loop_
_atom_site_type_symbol
_atom_site_label
_atom_site_fract_x
_atom_site_fract_y
_atom_site_fract_z
Si Si1 0.915395 0.312438 0.704286
Si Si2 0.435322 0.065685 0.773726
Si Si3 0.536838 0.810461 0.012032
Si Si4 0.023523 0.472066 0.884287
Si Si5 0.826202 0.915161 0.919631
Si Si6 0.647209 0.124253 0.614116
O O1 0.676005 0.351946 0.604900
O O2 0.993290 0.359875 0.832611
O O3 0.858541 0.194776 0.695957
O O4 0.079230 0.347490 0.651877
O O5 0.187795 0.026032 0.718360
O O6 0.489455 0.114175 0.675004
O O7 0.614886 0.977611 0.828982
O O8 0.467690 0.143625 0.874959
O O9 0.747342 0.845968 0.996949
O O10 0.485053 0.692058 0.001177
O O11 0.250683 0.521327 0.900512
O O12 0.000000 0.500000 0.000000
O O13 0.000000 0.000000 0.000000
#
# Coordination Sequence:
#
# PCOD9249853 Si02
#       6
#     4   4   4   4   4   4
#     4  10  23  44  66 103 142 183 241 294 343 422
#     4  12  23  44  72 101 139 183 241 291 359 422
#     4  10  24  42  70 102 139 176 246 301 345 421
#     4  12  27  48  71 102 150 193 235 296 368 430
#     4  12  20  40  74 102 132 181 235 304 356 410
#     4  10  26  44  66 108 139 193 238 292 357 422
#
# _framework density 23.361712000000001
#
# number of rings (size 3 to 8) (size 9 to 14) (size 15 to 20)
#    1.000    0.000    5.000    1.500    4.667    0.667 
#    3.000    0.000    0.000    0.000    0.000    0.000 
#    0.000    0.000    0.000    0.000    0.000    0.000 
#
# Total GULP energy -134165.046458 kJ/mol
# GULP energy per Si atom -5590.210269 kJ/mol
# Density = 2.330854 g / cm^3
# Si number density = 23.361712 Si / 1000 Ang^3
#
#
#
# Elastic Constant Matrix: (Units=GPa)
#
#
# Indices 1 2 3 4 5 6 
#
# 1 93.4279 12.9770 1.1087 0.0000 5.1385 0.0000
# 2 12.9770 59.5946 -3.2394 0.0000 10.3357 0.0000
# 3 1.1087 -3.2394 54.9002 0.0000 5.0805 0.0000
# 4 0.0000 0.0000 0.0000 25.5314 0.0000 0.4523
# 5 5.1385 10.3357 5.0805 0.0000 43.4066 0.0000
# 6 0.0000 0.0000 0.0000 0.4523 0.0000 35.0477
#
#
#
# Elastic Compliance Matrix: (Units=1/GPa)
#
#
# Indices 1 2 3 4 5 6 
#
# 1 0.011066 -0.002299 -0.000292 0.000000 -0.000728 0.000000
# 2 -0.002299 0.018093 0.001504 0.000000 -0.004212 0.000000
# 3 -0.000292 0.001504 0.018540 0.000000 -0.002494 0.000000
# 4 0.000000 0.000000 0.000000 0.039176 0.000000 -0.000506
# 5 -0.000728 -0.004212 -0.002494 0.000000 0.024419 0.000000
# 6 0.000000 0.000000 0.000000 -0.000506 0.000000 0.028539
#
#
# Mechanical properties :
#
#
# Convention : Reuss Voigt Hill
#
# Bulk Modulus (GPa) = 21.96589 25.51280 23.73934
# Shear Modulus (GPa) = 31.80996 33.93557 32.87276
#
# Velocity S-wave (km/s) = 3.69403 3.81545 3.75523
# Velocity P-wave (km/s) = 5.25522 5.50951 5.38387
#
# Compressibility (1/GPa) = 0.04552514
#
# Stress axis : x y z
#
# Youngs Moduli (GPa) = 90.36418 55.27006 53.93665
#
# Poissons Ratio (x) = 0.12708 0.01574
# Poissons Ratio (y) = 0.20777 -0.08111
# Poissons Ratio (z) = 0.02636 -0.08311
#
# Static dielectric constant tensor:
#      x y z
#    x 1.845010 0.000000 0.034440 
#    y 0.000000 1.901810 0.000000 
#    z 0.034440 0.000000 1.896520 
# 
# From -- ./inp_files/21288.got.cif
#   From: 2010.05.17/outbox.cif.g08.bks.cpg/sg14_11_cif.got.tgz:21288.got - 2010.06.03 17:49:19.
