data_PCOD9249410
_publ_section_title
;
Structure prediction by ZEFSAII (Michael W. Deem and Ramdas Pophale) SiO2 
 PCOD9249410
Probable space group: P 21/C
;
_chemical_formula_sum "Si O2"
_cell_formula_units_Z 32
_cell_length_a 6.333882
_cell_length_b 27.698984
_cell_length_c 8.827703
_cell_angle_alpha 90.000000
_cell_angle_beta 97.812475
_cell_angle_gamma 90.000000
_cell_volume 1534.375629
_symmetry_space_group_name_H-M "P 21/C"
_symmetry_group_IT_number 14
_symmetry_cell_setting 'monoclinic'
loop_
_space_group_symop_operation_xyz
x,y,z
-x,1/2+y,1/2-z
-x,-y,-z
x,1/2-y,1/2+z
loop_
_atom_site_type_symbol
_atom_site_label
_atom_site_fract_x
_atom_site_fract_y
_atom_site_fract_z
Si Si1 0.856806 0.955709 0.044035
Si Si2 0.759086 0.602995 0.081365
Si Si3 0.843377 0.278116 0.620010
Si Si4 0.065553 0.615917 0.365162
Si Si5 0.795112 0.984392 0.379866
Si Si6 0.470150 0.930694 0.795413
Si Si7 0.220820 0.293757 0.053449
Si Si8 0.478427 0.739346 0.660006
O O1 0.847448 0.961692 0.221641
O O2 0.638911 0.955503 0.925361
O O3 0.961779 0.905308 0.004902
O O4 0.000000 0.000000 0.000000
O O5 0.576422 0.607395 0.190324
O O6 0.815426 0.651082 0.996423
O O7 0.958299 0.590280 0.209049
O O8 0.696433 0.558968 0.968040
O O9 0.969512 0.327498 0.657370
O O10 0.696371 0.266436 0.751018
O O11 0.672177 0.288285 0.471688
O O12 0.008697 0.236466 0.581008
O O13 0.306356 0.598886 0.380860
O O14 0.642231 0.028521 0.318327
O O15 0.000000 0.000000 0.500000
O O16 0.354274 0.269759 0.926745
O O17 0.379030 0.291327 0.211875
#
# Coordination Sequence:
#
# PCOD9249410 Si02
#       8
#     4   4   4   4   4   4   4   4
#     4  11  24  43  66  96 132 175 223 265 330 400
#     4  11  24  40  66  97 126 173 218 269 336 393
#     4  11  23  42  68  94 133 175 217 280 334 398
#     4  11  23  42  67  94 128 175 223 262 335 399
#     4  12  23  44  65  97 133 170 220 276 328 391
#     4  11  23  45  67  91 136 176 218 275 333 395
#     4  11  23  43  65  94 138 168 220 284 329 398
#     4  10  23  41  64  95 130 172 224 261 342 400
#
# _framework density 20.855388000000001
#
# number of rings (size 3 to 8) (size 9 to 14) (size 15 to 20)
#    0.000    1.000    2.500    4.500    0.000    7.000 
#    2.250    0.000    0.000    0.000    0.000    0.000 
#    0.000    0.000    0.000    0.000    0.000    0.000 
#
# Total GULP energy -178567.765505 kJ/mol
# GULP energy per Si atom -5580.242672 kJ/mol
# Density = 2.080792 g / cm^3
# Si number density = 20.855388 Si / 1000 Ang^3
#
#
#
# Elastic Constant Matrix: (Units=GPa)
#
#
# Indices 1 2 3 4 5 6 
#
# 1 89.9741 19.4419 31.4775 0.0000 -1.2955 0.0000
# 2 19.4419 57.2164 11.6621 0.0000 -1.8111 0.0000
# 3 31.4775 11.6621 126.6854 0.0000 6.3670 0.0000
# 4 0.0000 0.0000 0.0000 20.1076 0.0000 0.1519
# 5 -1.2955 -1.8111 6.3670 0.0000 38.2383 0.0000
# 6 0.0000 0.0000 0.0000 0.1519 0.0000 25.7146
#
#
#
# Elastic Compliance Matrix: (Units=1/GPa)
#
#
# Indices 1 2 3 4 5 6 
#
# 1 0.012961 -0.003788 -0.002909 0.000000 0.000744 0.000000
# 2 -0.003788 0.018967 -0.000851 0.000000 0.000912 0.000000
# 3 -0.002909 -0.000851 0.008775 0.000000 -0.001600 0.000000
# 4 0.000000 0.000000 0.000000 0.049735 0.000000 -0.000294
# 5 0.000744 0.000912 -0.001600 0.000000 0.026487 0.000000
# 6 0.000000 0.000000 0.000000 -0.000294 0.000000 0.038890
#
#
# Mechanical properties :
#
#
# Convention : Reuss Voigt Hill
#
# Bulk Modulus (GPa) = 39.05018 44.33765 41.69392
# Shear Modulus (GPa) = 27.86356 30.89839 29.38098
#
# Velocity S-wave (km/s) = 3.65915 3.85327 3.75746
# Velocity P-wave (km/s) = 6.05123 6.41114 6.23378
#
# Compressibility (1/GPa) = 0.02560808
#
# Stress axis : x y z
#
# Youngs Moduli (GPa) = 77.15292 52.72370 113.95821
#
# Poissons Ratio (x) = 0.19970 0.33153
# Poissons Ratio (y) = 0.29223 0.09694
# Poissons Ratio (z) = 0.22445 0.04485
#
# Static dielectric constant tensor:
#      x y z
#    x 1.827330 0.000000 -0.028730 
#    y 0.000000 1.739470 0.000000 
#    z -0.028730 0.000000 1.757280 
# 
# From -- ./inp_files/6793.got.cif
#   From: 2010.05.17/outbox.cif.g08.bks.cpg/sg14_4_cif.got.tgz:6793.got - 2010.06.03 17:49:19.
