data_PCOD9249358
_publ_section_title
;
Structure prediction by ZEFSAII (Michael W. Deem and Ramdas Pophale) SiO2 
 PCOD9249358
Probable space group: P 21/C
;
_chemical_formula_sum "Si O2"
_cell_formula_units_Z 24
_cell_length_a 11.165619
_cell_length_b 7.783988
_cell_length_c 12.158799
_cell_angle_alpha 90.000000
_cell_angle_beta 74.434448
_cell_angle_gamma 90.000000
_cell_volume 1018.000651
_symmetry_space_group_name_H-M "P 21/C"
_symmetry_group_IT_number 14
_symmetry_cell_setting 'monoclinic'
loop_
_space_group_symop_operation_xyz
x,y,z
-x,1/2+y,1/2-z
-x,-y,-z
x,1/2-y,1/2+z
loop_
_atom_site_type_symbol
_atom_site_label
_atom_site_fract_x
_atom_site_fract_y
_atom_site_fract_z
Si Si1 0.484914 0.393760 0.115814
Si Si2 0.620848 0.060951 0.148625
Si Si3 0.078842 0.171307 0.456135
Si Si4 0.101567 0.626239 0.356770
Si Si5 0.110251 0.512417 0.732513
Si Si6 0.295337 0.176797 0.044366
O O1 0.590542 0.251935 0.113387
O O2 0.462726 0.515712 0.225436
O O3 0.362603 0.280646 0.123115
O O4 0.500000 0.500000 0.000000
O O5 0.766533 0.050708 0.143236
O O6 0.605711 0.912544 0.061014
O O7 0.200232 0.201211 0.501069
O O8 0.983564 0.319146 0.517983
O O9 0.117585 0.138495 0.321820
O O10 0.000000 0.000000 0.500000
O O11 0.124404 0.804561 0.285757
O O12 0.022017 0.509495 0.294129
O O13 0.215460 0.475101 0.617752
#
# Coordination Sequence:
#
# PCOD9249358 Si02
#       6
#     4   4   4   4   4   4
#     4  12  30  49  76 101 142 191 252 312 372 428
#     4  12  29  48  75 105 144 191 254 306 369 437
#     4   9  21  40  67 104 145 182 228 286 361 434
#     4  10  25  39  70 102 142 183 231 288 357 438
#     4  10  23  40  70 100 147 179 232 281 366 425
#     4  11  25  45  74 103 143 190 242 301 359 435
#
# _framework density 23.575621000000002
#
# number of rings (size 3 to 8) (size 9 to 14) (size 15 to 20)
#    0.000    1.333    0.000    2.500   21.000    1.333 
#    0.000    0.000    0.000    0.000    0.000    0.000 
#    0.000    0.000    0.000    0.000    0.000    0.000 
#
# Total GULP energy -134369.910524 kJ/mol
# GULP energy per Si atom -5598.746272 kJ/mol
# Density = 2.352196 g / cm^3
# Si number density = 23.575621 Si / 1000 Ang^3
#
#
#
# Elastic Constant Matrix: (Units=GPa)
#
#
# Indices 1 2 3 4 5 6 
#
# 1 63.3631 -15.8638 -12.0314 0.0000 12.3434 0.0000
# 2 -15.8638 74.7032 16.1749 0.0000 10.9837 0.0000
# 3 -12.0314 16.1749 111.7293 0.0000 0.8427 0.0000
# 4 0.0000 0.0000 0.0000 44.0475 0.0000 8.4746
# 5 12.3434 10.9837 0.8427 0.0000 27.3507 0.0000
# 6 0.0000 0.0000 0.0000 8.4746 0.0000 38.1690
#
#
#
# Elastic Compliance Matrix: (Units=1/GPa)
#
#
# Indices 1 2 3 4 5 6 
#
# 1 0.019579 0.005485 0.001398 0.000000 -0.011082 0.000000
# 2 0.005485 0.016232 -0.001692 0.000000 -0.008942 0.000000
# 3 0.001398 -0.001692 0.009347 0.000000 -0.000239 0.000000
# 4 0.000000 0.000000 0.000000 0.023716 0.000000 -0.005266
# 5 -0.011082 -0.008942 -0.000239 0.000000 0.045162 0.000000
# 6 0.000000 0.000000 0.000000 -0.005266 0.000000 0.027368
#
#
# Mechanical properties :
#
#
# Convention : Reuss Voigt Hill
#
# Bulk Modulus (GPa) = 18.00497 25.15054 21.57775
# Shear Modulus (GPa) = 33.43657 39.34784 36.39220
#
# Velocity S-wave (km/s) = 3.77008 4.08978 3.93318
# Velocity P-wave (km/s) = 5.15800 5.74394 5.45884
#
# Compressibility (1/GPa) = 0.05554023
#
# Stress axis : x y z
#
# Youngs Moduli (GPa) = 51.07404 61.60664 106.98074
#
# Poissons Ratio (x) = -0.33788 -0.14956
# Poissons Ratio (y) = -0.28012 0.18100
# Poissons Ratio (z) = -0.07140 0.10423
#
# Static dielectric constant tensor:
#      x y z
#    x 1.869550 0.000000 -0.017140 
#    y 0.000000 1.949500 0.000000 
#    z -0.017140 0.000000 1.995460 
# 
# From -- ./inp_files/28027.got.cif
#   From: 2010.05.17/outbox.cif.g08.bks.cpg/sg14_15_cif.got.tgz:28027.got - 2010.06.03 17:49:19.
