data_PCOD9249479
_publ_section_title
;
Structure prediction by ZEFSAII (Michael W. Deem and Ramdas Pophale) SiO2 
 PCOD9249479
Probable space group: P 21/C
;
_chemical_formula_sum "Si O2"
_cell_formula_units_Z 28
_cell_length_a 14.257465
_cell_length_b 10.894931
_cell_length_c 8.990563
_cell_angle_alpha 90.000000
_cell_angle_beta 130.439985
_cell_angle_gamma 90.000000
_cell_volume 1062.887542
_symmetry_space_group_name_H-M "P 21/C"
_symmetry_group_IT_number 14
_symmetry_cell_setting 'monoclinic'
loop_
_space_group_symop_operation_xyz
x,y,z
-x,1/2+y,1/2-z
-x,-y,-z
x,1/2-y,1/2+z
loop_
_atom_site_type_symbol
_atom_site_label
_atom_site_fract_x
_atom_site_fract_y
_atom_site_fract_z
Si Si1 0.954734 0.194257 0.380929
Si Si2 0.712235 0.753401 0.678633
Si Si3 0.955242 0.573717 0.720272
Si Si4 0.740450 0.589438 0.961059
Si Si5 0.550366 0.150382 0.831264
Si Si6 0.302770 0.663559 0.220904
Si Si7 0.333395 0.413131 0.631509
O O1 0.813677 0.210784 0.300966
O O2 0.020300 0.144804 0.599665
O O3 0.983749 0.328290 0.335881
O O4 0.971212 0.074568 0.282086
O O5 0.785455 0.676823 0.875926
O O6 0.787379 0.853326 0.661760
O O7 0.619890 0.831476 0.684497
O O8 0.647876 0.657170 0.504245
O O9 0.813336 0.573906 0.522554
O O10 0.594468 0.619880 0.820459
O O11 0.754849 0.452048 0.927054
O O12 0.618121 0.264701 0.822315
O O13 0.606341 0.041146 0.793130
O O14 0.600864 0.131006 0.049892
#
# Coordination Sequence:
#
# PCOD9249479 Si02
#       7
#     4   4   4   4   4   4   4
#     4  11  25  47  74 105 141 186 229 294 350 419
#     4  10  23  41  70  98 140 175 237 280 347 404
#     4  11  24  46  73 104 140 183 237 285 359 411
#     4  11  24  44  69 101 139 185 227 286 343 417
#     4  12  26  42  71  98 142 184 232 282 346 414
#     4  12  26  47  68 102 144 182 228 287 350 409
#     4  11  23  45  66 104 134 182 230 291 340 416
#
# _framework density 26.343330999999999
#
# number of rings (size 3 to 8) (size 9 to 14) (size 15 to 20)
#    0.000    0.857    2.857    3.000    6.000    4.571 
#    2.571    0.000    0.000    0.000    0.000    0.000 
#    0.000    0.000    0.000    0.000    0.000    0.000 
#
# Total GULP energy -156237.161503 kJ/mol
# GULP energy per Si atom -5579.898625 kJ/mol
# Density = 2.628337 g / cm^3
# Si number density = 26.343331 Si / 1000 Ang^3
#
#
#
# Elastic Constant Matrix: (Units=GPa)
#
#
# Indices 1 2 3 4 5 6 
#
# 1 131.0041 32.1990 26.9946 0.0000 -3.2635 0.0000
# 2 32.1990 103.6640 14.1758 0.0000 -17.0736 0.0000
# 3 26.9946 14.1758 77.5459 0.0000 -12.9407 0.0000
# 4 0.0000 0.0000 0.0000 24.1829 0.0000 -9.4351
# 5 -3.2635 -17.0736 -12.9407 0.0000 40.3905 0.0000
# 6 0.0000 0.0000 0.0000 -9.4351 0.0000 47.0241
#
#
#
# Elastic Compliance Matrix: (Units=1/GPa)
#
#
# Indices 1 2 3 4 5 6 
#
# 1 0.008811 -0.002562 -0.002811 0.000000 -0.001272 0.000000
# 2 -0.002562 0.011225 -0.000426 0.000000 0.004402 0.000000
# 3 -0.002811 -0.000426 0.014668 0.000000 0.004292 0.000000
# 4 0.000000 0.000000 0.000000 0.044864 0.000000 0.009002
# 5 -0.001272 0.004402 0.004292 0.000000 0.027891 0.000000
# 6 0.000000 0.000000 0.000000 0.009002 0.000000 0.023072
#
#
# Mechanical properties :
#
#
# Convention : Reuss Voigt Hill
#
# Bulk Modulus (GPa) = 43.27612 50.99475 47.13543
# Shear Modulus (GPa) = 33.37108 38.24249 35.80679
#
# Velocity S-wave (km/s) = 3.56304 3.81425 3.69078
# Velocity P-wave (km/s) = 5.77844 6.22878 6.00783
#
# Compressibility (1/GPa) = 0.02310743
#
# Stress axis : x y z
#
# Youngs Moduli (GPa) = 113.50073 89.08351 68.17443
#
# Poissons Ratio (x) = 0.22820 0.19163
# Poissons Ratio (y) = 0.29075 0.02903
# Poissons Ratio (z) = 0.31904 0.03793
#
# Static dielectric constant tensor:
#      x y z
#    x 2.264450 0.000000 0.091440 
#    y 0.000000 2.099530 0.000000 
#    z 0.091440 0.000000 2.106010 
# 
# From -- ./inp_files/15615.got.cif
#   From: 2010.05.17/outbox.cif.g08.bks.cpg/sg14_8_cif.got.tgz:15615.got - 2010.06.03 17:49:19.
