data_PCOD9249110
_publ_section_title
;
Structure prediction by ZEFSAII (Michael W. Deem and Ramdas Pophale) SiO2 
 PCOD9249110
Probable space group: P 21/C
;
_chemical_formula_sum "Si O2"
_cell_formula_units_Z 26
_cell_length_a 21.453252
_cell_length_b 4.885517
_cell_length_c 10.248039
_cell_angle_alpha 90.000000
_cell_angle_beta 119.370646
_cell_angle_gamma 90.000000
_cell_volume 936.040158
_symmetry_space_group_name_H-M "P 21/C"
_symmetry_group_IT_number 14
_symmetry_cell_setting 'monoclinic'
loop_
_space_group_symop_operation_xyz
x,y,z
-x,1/2+y,1/2-z
-x,-y,-z
x,1/2-y,1/2+z
loop_
_atom_site_type_symbol
_atom_site_label
_atom_site_fract_x
_atom_site_fract_y
_atom_site_fract_z
Si Si1 0.330527 0.473499 0.351527
Si Si2 0.527462 0.508056 0.795454
Si Si3 0.310634 0.855919 0.562205
Si Si4 0.114448 0.603309 0.105512
Si Si5 0.500000 0.500000 0.500000
Si Si6 0.985878 0.774029 0.657904
Si Si7 0.793919 0.891151 0.730659
O O1 0.315676 0.588842 0.479188
O O2 0.413783 0.439872 0.422709
O O3 0.276770 0.226599 0.271949
O O4 0.311457 0.681832 0.216110
O O5 0.498447 0.735080 0.643080
O O6 0.510915 0.261834 0.655537
O O7 0.614003 0.515897 0.892958
O O8 0.239211 0.001548 0.438778
O O9 0.042766 0.711580 0.100533
O O10 0.153549 0.366808 0.229829
O O11 0.166047 0.863406 0.154591
O O12 0.086969 0.428958 0.953977
O O13 0.979129 0.464734 0.695220
#
# Coordination Sequence:
#
# PCOD9249110 Si02
#       7
#     4   4   4   4   2   4   4
#     4  11  25  50  76 114 154 211 271 340 404 484
#     4  11  23  42  68  98 137 184 251 319 396 451
#     4  11  26  47  75 110 155 204 267 332 401 484
#     4  11  26  47  77 114 160 203 259 323 389 475
#     4  10  22  46  70 108 140 204 260 336 392 464
#     4  11  24  47  78 118 155 204 261 317 386 471
#     4  12  25  49  72 112 158 214 262 325 405 477
#
# _framework density 27.776586000000002
#
# number of rings (size 3 to 8) (size 9 to 14) (size 15 to 20)
#    0.000    0.923    3.077    2.769    0.000    8.000 
#   11.077    0.000    0.000    0.000    0.000    0.000 
#    0.000    0.000    0.000    0.000    0.000    0.000 
#
# Total GULP energy -145415.164370 kJ/mol
# GULP energy per Si atom -5592.890937 kJ/mol
# Density = 2.771337 g / cm^3
# Si number density = 27.776586 Si / 1000 Ang^3
#
#
#
# Elastic Constant Matrix: (Units=GPa)
#
#
# Indices 1 2 3 4 5 6 
#
# 1 110.6422 44.5345 48.2214 0.0000 18.2158 0.0000
# 2 44.5345 186.5139 43.0787 0.0000 14.1156 0.0000
# 3 48.2214 43.0787 153.8422 0.0000 15.2861 0.0000
# 4 0.0000 0.0000 0.0000 111.6169 0.0000 220.1011
# 5 18.2158 14.1156 15.2861 0.0000 46.7958 0.0000
# 6 0.0000 0.0000 0.0000 220.1011 0.0000 712.5344
#
#
#
# Elastic Compliance Matrix: (Units=1/GPa)
#
#
# Indices 1 2 3 4 5 6 
#
# 1 0.011500 -0.001876 -0.002781 0.000000 -0.003002 0.000000
# 2 -0.001876 0.006109 -0.001046 0.000000 -0.000771 0.000000
# 3 -0.002781 -0.001046 0.007778 0.000000 -0.001143 0.000000
# 4 0.000000 0.000000 0.000000 0.022921 0.000000 -0.007080
# 5 -0.003002 -0.000771 -0.001143 0.000000 0.023144 0.000000
# 6 0.000000 0.000000 0.000000 -0.007080 0.000000 0.003591
#
#
# Mechanical properties :
#
#
# Convention : Reuss Voigt Hill
#
# Bulk Modulus (GPa) = 71.52586 80.29639 75.91112
# Shear Modulus (GPa) = 54.87900 195.20032 125.03966
#
# Velocity S-wave (km/s) = 4.44974 8.39212 6.71669
# Velocity P-wave (km/s) = 7.22541 11.08487 9.35630
#
# Compressibility (1/GPa) = 0.01398096
#
# Stress axis : x y z
#
# Youngs Moduli (GPa) = 86.95961 163.67988 128.56312
#
# Poissons Ratio (x) = 0.30712 0.35751
# Poissons Ratio (y) = 0.16316 0.13448
# Poissons Ratio (z) = 0.24182 0.17122
#
# Static dielectric constant tensor:
#      x y z
#    x 2.102250 0.000000 -0.194960 
#    y 0.000000 2.296020 0.000000 
#    z -0.194960 0.000000 2.425980 
# 
# From -- ./inp_files/35553.got.cif
#   From: 2010.05.17/outbox.cif.g08.bks.cpg/sg14_18_cif.got.tgz:35553.got - 2010.06.03 17:49:19.
