data_PCOD9249562
_publ_section_title
;
Structure prediction by ZEFSAII (Michael W. Deem and Ramdas Pophale) SiO2 
 PCOD9249562
Probable space group: P 21/C
;
_chemical_formula_sum "Si O2"
_cell_formula_units_Z 26
_cell_length_a 14.098776
_cell_length_b 8.212885
_cell_length_c 19.672462
_cell_angle_alpha 90.000000
_cell_angle_beta 154.577561
_cell_angle_gamma 90.000000
_cell_volume 977.879865
_symmetry_space_group_name_H-M "P 21/C"
_symmetry_group_IT_number 14
_symmetry_cell_setting 'monoclinic'
loop_
_space_group_symop_operation_xyz
x,y,z
-x,1/2+y,1/2-z
-x,-y,-z
x,1/2-y,1/2+z
loop_
_atom_site_type_symbol
_atom_site_label
_atom_site_fract_x
_atom_site_fract_y
_atom_site_fract_z
Si Si1 0.223261 0.820501 0.373651
Si Si2 0.155443 0.362930 0.129045
Si Si3 0.815982 0.672944 0.082399
Si Si4 0.566877 0.025721 0.732974
Si Si5 0.356443 0.675573 0.590891
Si Si6 0.352168 0.339734 0.397115
Si Si7 0.000000 0.000000 0.000000
O O1 0.210805 0.696359 0.430670
O O2 0.474108 0.800590 0.511847
O O3 0.049133 0.742767 0.209167
O O4 0.180903 0.998201 0.377203
O O5 0.409335 0.405315 0.275069
O O6 0.167156 0.352901 0.218728
O O7 0.000000 0.500000 0.000000
O O8 0.077776 0.193350 0.046632
O O9 0.745853 0.800951 0.093812
O O10 0.623570 0.655981 0.902540
O O11 0.734123 0.074757 0.903634
O O12 0.435588 0.859284 0.659315
O O13 0.756472 0.030458 0.799630
O O14 0.500000 0.500000 0.500000
#
# Coordination Sequence:
#
# PCOD9249562 Si02
#       7
#     4   4   4   4   4   4   2
#     4  10  23  44  64  96 134 176 235 281 356 417
#     4  10  24  44  69 100 135 178 233 283 346 420
#     4  11  24  44  68  96 139 182 224 289 354 426
#     4  10  23  42  66  95 132 176 231 277 354 411
#     4   9  22  41  63  94 128 170 225 285 332 407
#     4  11  25  44  67 102 139 179 234 290 351 427
#     4  10  24  44  66 100 138 180 228 292 348 412
#
# _framework density 26.588132999999999
#
# number of rings (size 3 to 8) (size 9 to 14) (size 15 to 20)
#    0.000    1.846    0.000    2.308    6.462    4.923 
#    5.538    0.000    0.000    0.000    0.000    0.000 
#    0.000    0.000    0.000    0.000    0.000    0.000 
#
# Total GULP energy -145047.980889 kJ/mol
# GULP energy per Si atom -5578.768496 kJ/mol
# Density = 2.652762 g / cm^3
# Si number density = 26.588133 Si / 1000 Ang^3
#
#
#
# Elastic Constant Matrix: (Units=GPa)
#
#
# Indices 1 2 3 4 5 6 
#
# 1 30.9373 6.4892 0.4475 0.0000 -8.2715 0.0000
# 2 6.4892 123.4815 50.4918 0.0000 -8.5729 0.0000
# 3 0.4475 50.4918 121.3598 0.0000 -3.8803 0.0000
# 4 0.0000 0.0000 0.0000 55.1971 0.0000 -1.0826
# 5 -8.2715 -8.5729 -3.8803 0.0000 32.4505 0.0000
# 6 0.0000 0.0000 0.0000 -1.0826 0.0000 23.3120
#
#
#
# Elastic Compliance Matrix: (Units=1/GPa)
#
#
# Indices 1 2 3 4 5 6 
#
# 1 0.034936 -0.001566 0.000797 0.000000 0.008587 0.000000
# 2 -0.001566 0.009973 -0.004088 0.000000 0.001747 0.000000
# 3 0.000797 -0.004088 0.009948 0.000000 0.000313 0.000000
# 4 0.000000 0.000000 0.000000 0.018133 0.000000 0.000842
# 5 0.008587 0.001747 0.000313 0.000000 0.033504 0.000000
# 6 0.000000 0.000000 0.000000 0.000842 0.000000 0.042935
#
#
# Mechanical properties :
#
#
# Convention : Reuss Voigt Hill
#
# Bulk Modulus (GPa) = 22.15112 43.40396 32.77754
# Shear Modulus (GPa) = 28.70412 36.74859 32.72636
#
# Velocity S-wave (km/s) = 3.28927 3.72175 3.51217
# Velocity P-wave (km/s) = 4.77232 5.90157 5.36673
#
# Compressibility (1/GPa) = 0.04514444
#
# Stress axis : x y z
#
# Youngs Moduli (GPa) = 28.62368 100.26597 100.52501
#
# Poissons Ratio (x) = 0.15700 -0.08014
# Poissons Ratio (y) = 0.04482 0.41093
# Poissons Ratio (z) = -0.02282 0.40987
#
# Static dielectric constant tensor:
#      x y z
#    x 1.878870 0.000000 -0.043030 
#    y 0.000000 2.124570 0.000000 
#    z -0.043030 0.000000 2.108190 
# 
# From -- ./inp_files/74296.got.cif
#   From: 2010.05.17/outbox.cif.g08.bks.cpg/sg14_38_cif.got.tgz:74296.got - 2010.06.03 17:49:19.
