data_PCOD9249871
_publ_section_title
;
Structure prediction by ZEFSAII (Michael W. Deem and Ramdas Pophale) SiO2 
 PCOD9249871
Probable space group: P 21/C
;
_chemical_formula_sum "Si O2"
_cell_formula_units_Z 28
_cell_length_a 13.461841
_cell_length_b 7.922644
_cell_length_c 11.051383
_cell_angle_alpha 90.000000
_cell_angle_beta 99.822699
_cell_angle_gamma 90.000000
_cell_volume 1161.388478
_symmetry_space_group_name_H-M "P 21/C"
_symmetry_group_IT_number 14
_symmetry_cell_setting 'monoclinic'
loop_
_space_group_symop_operation_xyz
x,y,z
-x,1/2+y,1/2-z
-x,-y,-z
x,1/2-y,1/2+z
loop_
_atom_site_type_symbol
_atom_site_label
_atom_site_fract_x
_atom_site_fract_y
_atom_site_fract_z
Si Si1 0.698810 0.448045 0.995981
Si Si2 0.830224 0.141935 0.116763
Si Si3 0.505847 0.249381 0.400959
Si Si4 0.405422 0.384077 0.632455
Si Si5 0.012507 0.229589 0.546738
Si Si6 0.863607 0.466090 0.852533
Si Si7 0.780752 0.790342 0.041572
O O1 0.584303 0.399392 0.950531
O O2 0.752042 0.490316 0.879383
O O3 0.751333 0.278175 0.055452
O O4 0.731476 0.615093 0.077127
O O5 0.864037 0.184750 0.258471
O O6 0.936284 0.124069 0.069462
O O7 0.779854 0.958275 0.122139
O O8 0.452612 0.301123 0.517839
O O9 0.565299 0.418735 0.370616
O O10 0.444075 0.191450 0.268083
O O11 0.286856 0.352474 0.586697
O O12 0.104466 0.258666 0.474868
O O13 0.926753 0.104402 0.478643
O O14 0.072687 0.132948 0.666793
#
# Coordination Sequence:
#
# PCOD9249871 Si02
#       7
#     4   4   4   4   4   4   4
#     4  10  23  44  67  96 140 171 223 286 342 406
#     4  11  22  41  68  98 130 183 224 273 342 411
#     4  11  25  48  72 103 144 185 232 302 357 426
#     4  11  26  46  73 104 142 183 239 294 361 424
#     4   9  21  42  59  96 140 168 222 282 333 399
#     4   9  21  40  65  95 135 176 219 279 338 407
#     4  11  23  43  67  99 131 179 228 279 341 417
#
# _framework density 24.109072000000001
#
# number of rings (size 3 to 8) (size 9 to 14) (size 15 to 20)
#    0.000    1.714    1.429    2.143    4.000    4.571 
#    0.000    2.857    0.000    0.000    0.000    0.000 
#    0.000    0.000    0.000    0.000    0.000    0.000 
#
# Total GULP energy -155909.348278 kJ/mol
# GULP energy per Si atom -5568.191010 kJ/mol
# Density = 2.405420 g / cm^3
# Si number density = 24.109072 Si / 1000 Ang^3
#
#
#
# Elastic Constant Matrix: (Units=GPa)
#
#
# Indices 1 2 3 4 5 6 
#
# 1 71.9032 21.7096 5.3277 0.0000 1.8075 0.0000
# 2 21.7096 123.8461 7.3590 0.0000 -1.5364 0.0000
# 3 5.3277 7.3590 46.8449 0.0000 -6.9668 0.0000
# 4 0.0000 0.0000 0.0000 13.8153 0.0000 8.1426
# 5 1.8075 -1.5364 -6.9668 0.0000 21.8539 0.0000
# 6 0.0000 0.0000 0.0000 8.1426 0.0000 40.5834
#
#
#
# Elastic Compliance Matrix: (Units=1/GPa)
#
#
# Indices 1 2 3 4 5 6 
#
# 1 0.014836 -0.002531 -0.001573 0.000000 -0.001907 0.000000
# 2 -0.002531 0.008583 -0.000986 0.000000 0.000498 0.000000
# 3 -0.001573 -0.000986 0.022769 0.000000 0.007319 0.000000
# 4 0.000000 0.000000 0.000000 0.082091 0.000000 -0.016471
# 5 -0.001907 0.000498 0.007319 0.000000 0.048284 0.000000
# 6 0.000000 0.000000 0.000000 -0.016471 0.000000 0.027945
#
#
# Mechanical properties :
#
#
# Convention : Reuss Voigt Hill
#
# Bulk Modulus (GPa) = 27.77194 34.59852 31.18523
# Shear Modulus (GPa) = 22.05622 29.13038 25.59330
#
# Velocity S-wave (km/s) = 3.02793 3.47980 3.26170
# Velocity P-wave (km/s) = 4.87533 5.52515 5.21038
#
# Compressibility (1/GPa) = 0.03600757
#
# Stress axis : x y z
#
# Youngs Moduli (GPa) = 67.40254 116.50960 43.91848
#
# Poissons Ratio (x) = 0.29487 0.06910
# Poissons Ratio (y) = 0.17059 0.04332
# Poissons Ratio (z) = 0.10604 0.11492
#
# Static dielectric constant tensor:
#      x y z
#    x 1.966360 0.000000 0.023700 
#    y 0.000000 2.094820 0.000000 
#    z 0.023700 0.000000 2.171580 
# 
# From -- ./inp_files/31684.got.cif
#   From: 2010.05.17/outbox.cif.g08.bks.cpg/sg14_16_cif.got.tgz:31684.got - 2010.06.03 17:49:19.
