data_PCOD9249094
_publ_section_title
;
Structure prediction by ZEFSAII (Michael W. Deem and Ramdas Pophale) SiO2 
 PCOD9249094
Probable space group: P 21/C
;
_chemical_formula_sum "Si O2"
_cell_formula_units_Z 28
_cell_length_a 12.986798
_cell_length_b 18.400486
_cell_length_c 5.197249
_cell_angle_alpha 90.000000
_cell_angle_beta 117.743400
_cell_angle_gamma 90.000000
_cell_volume 1099.179005
_symmetry_space_group_name_H-M "P 21/C"
_symmetry_group_IT_number 14
_symmetry_cell_setting 'monoclinic'
loop_
_space_group_symop_operation_xyz
x,y,z
-x,1/2+y,1/2-z
-x,-y,-z
x,1/2-y,1/2+z
loop_
_atom_site_type_symbol
_atom_site_label
_atom_site_fract_x
_atom_site_fract_y
_atom_site_fract_z
Si Si1 0.218934 0.301014 0.389169
Si Si2 0.737563 0.231002 0.390026
Si Si3 0.087088 0.399296 0.533168
Si Si4 0.325780 0.410942 0.145215
Si Si5 0.510864 0.706280 0.894688
Si Si6 0.117071 0.558617 0.383666
Si Si7 0.267651 0.569911 0.060346
O O1 0.230902 0.247282 0.162130
O O2 0.097513 0.339350 0.324676
O O3 0.295433 0.370589 0.378744
O O4 0.808188 0.249344 0.221907
O O5 0.628759 0.287147 0.269986
O O6 0.684228 0.150479 0.337256
O O7 0.074907 0.475963 0.373969
O O8 0.986078 0.392293 0.624475
O O9 0.209224 0.402126 0.834004
O O10 0.430283 0.368181 0.125747
O O11 0.342732 0.497460 0.194252
O O12 0.545376 0.765218 0.716224
O O13 0.220106 0.567728 0.714225
O O14 0.164338 0.567386 0.152087
#
# Coordination Sequence:
#
# PCOD9249094 Si02
#       7
#     4   4   4   4   4   4   4
#     4  12  23  36  57  89 135 178 210 266 324 380
#     4  10  22  46  68  90 126 169 217 279 342 394
#     4  10  23  40  62  95 136 175 219 270 326 390
#     4  11  23  39  65  99 132 174 223 269 330 399
#     4  10  23  40  64  93 126 172 212 265 350 397
#     4  10  23  40  67  94 130 173 225 270 325 377
#     4  11  23  41  69  97 125 178 229 273 316 400
#
# _framework density 25.473558000000001
#
# number of rings (size 3 to 8) (size 9 to 14) (size 15 to 20)
#    0.000    1.429    2.857    1.714    4.000    1.714 
#    0.000   10.000    0.000    0.000    0.000    0.000 
#    0.000    0.000    0.000    0.000    0.000    0.000 
#
# Total GULP energy -156418.549018 kJ/mol
# GULP energy per Si atom -5586.376751 kJ/mol
# Density = 2.541558 g / cm^3
# Si number density = 25.473558 Si / 1000 Ang^3
#
#
#
# Elastic Constant Matrix: (Units=GPa)
#
#
# Indices 1 2 3 4 5 6 
#
# 1 61.0803 19.1115 18.1462 0.0000 -20.7014 0.0000
# 2 19.1115 129.9315 32.4375 0.0000 -13.1206 0.0000
# 3 18.1462 32.4375 131.1589 0.0000 -34.6390 0.0000
# 4 0.0000 0.0000 0.0000 29.9776 0.0000 -9.3589
# 5 -20.7014 -13.1206 -34.6390 0.0000 36.2571 0.0000
# 6 0.0000 0.0000 0.0000 -9.3589 0.0000 40.3008
#
#
#
# Elastic Compliance Matrix: (Units=1/GPa)
#
#
# Indices 1 2 3 4 5 6 
#
# 1 0.020810 -0.002053 0.000763 0.000000 0.011867 0.000000
# 2 -0.002053 0.008457 -0.001751 0.000000 0.000216 0.000000
# 3 0.000763 -0.001751 0.010565 0.000000 0.009896 0.000000
# 4 0.000000 0.000000 0.000000 0.035966 0.000000 0.008352
# 5 0.011867 0.000216 0.009896 0.000000 0.043889 0.000000
# 6 0.000000 0.000000 0.000000 0.008352 0.000000 0.026753
#
#
# Mechanical properties :
#
#
# Convention : Reuss Voigt Hill
#
# Bulk Modulus (GPa) = 29.62896 51.28456 40.45676
# Shear Modulus (GPa) = 30.53041 38.13882 34.33461
#
# Velocity S-wave (km/s) = 3.46571 3.87355 3.67529
# Velocity P-wave (km/s) = 5.26036 6.33893 5.82467
#
# Compressibility (1/GPa) = 0.03375076
#
# Stress axis : x y z
#
# Youngs Moduli (GPa) = 48.05446 118.24319 94.65044
#
# Poissons Ratio (x) = 0.24275 -0.07220
# Poissons Ratio (y) = 0.09865 0.16569
# Poissons Ratio (z) = -0.03666 0.20699
#
# Static dielectric constant tensor:
#      x y z
#    x 2.041940 0.000000 0.040560 
#    y 0.000000 2.036240 0.000000 
#    z 0.040560 0.000000 2.189940 
# 
# From -- ./inp_files/3685.got.cif
#   From: 2010.05.17/outbox.cif.g08.bks.cpg/sg14_2_cif.got.tgz:3685.got - 2010.06.03 17:49:19.
