data_PCOD9249481
_publ_section_title
;
Structure prediction by ZEFSAII (Michael W. Deem and Ramdas Pophale) SiO2 
 PCOD9249481
Probable space group: P 21/C
;
_chemical_formula_sum "Si O2"
_cell_formula_units_Z 20
_cell_length_a 7.281630
_cell_length_b 17.269004
_cell_length_c 9.299234
_cell_angle_alpha 90.000000
_cell_angle_beta 130.940813
_cell_angle_gamma 90.000000
_cell_volume 883.308720
_symmetry_space_group_name_H-M "P 21/C"
_symmetry_group_IT_number 14
_symmetry_cell_setting 'monoclinic'
loop_
_space_group_symop_operation_xyz
x,y,z
-x,1/2+y,1/2-z
-x,-y,-z
x,1/2-y,1/2+z
loop_
_atom_site_type_symbol
_atom_site_label
_atom_site_fract_x
_atom_site_fract_y
_atom_site_fract_z
Si Si1 0.087942 0.946768 0.176772
Si Si2 0.885816 0.311412 0.642922
Si Si3 0.832055 0.805576 0.014798
Si Si4 0.090857 0.442049 0.927064
Si Si5 0.505281 0.173834 0.721138
O O1 0.295413 0.884185 0.245251
O O2 0.188649 0.001599 0.352598
O O3 0.854136 0.891860 0.090096
O O4 0.000000 0.000000 0.000000
O O5 0.627432 0.304100 0.434324
O O6 0.078744 0.311606 0.606984
O O7 0.897962 0.390039 0.740714
O O8 0.975373 0.244797 0.794832
O O9 0.586258 0.755415 0.891103
O O10 0.268111 0.379983 0.091418
O O11 0.000000 0.500000 0.000000
#
# Coordination Sequence:
#
# PCOD9249481 Si02
#       5
#     4   4   4   4   4
#     4  11  22  48  72 101 142 183 235 295 344 420
#     4  10  23  45  64 102 138 178 234 285 344 426
#     4  10  23  41  70  99 139 176 235 286 344 421
#     4  11  24  44  71 105 141 178 237 294 345 417
#     4  10  23  45  71  97 138 188 227 279 367 410
#
# _framework density 22.642140000000001
#
# number of rings (size 3 to 8) (size 9 to 14) (size 15 to 20)
#    0.000    1.600    4.000    0.600    5.600    7.200 
#    3.600    0.000    0.000    0.000    0.000    0.000 
#    0.000    0.000    0.000    0.000    0.000    0.000 
#
# Total GULP energy -111518.054723 kJ/mol
# GULP energy per Si atom -5575.902736 kJ/mol
# Density = 2.259061 g / cm^3
# Si number density = 22.642140 Si / 1000 Ang^3
#
#
#
# Elastic Constant Matrix: (Units=GPa)
#
#
# Indices 1 2 3 4 5 6 
#
# 1 23.7272 4.9460 31.5511 0.0000 -1.6765 0.0000
# 2 4.9460 113.3704 45.7095 0.0000 6.5600 0.0000
# 3 31.5511 45.7095 149.6389 0.0000 13.0824 0.0000
# 4 0.0000 0.0000 0.0000 44.8631 0.0000 -4.0787
# 5 -1.6765 6.5600 13.0824 0.0000 40.7949 0.0000
# 6 0.0000 0.0000 0.0000 -4.0787 0.0000 45.2098
#
#
#
# Elastic Compliance Matrix: (Units=1/GPa)
#
#
# Indices 1 2 3 4 5 6 
#
# 1 0.061038 0.002709 -0.014279 0.000000 0.006652 0.000000
# 2 0.002709 0.010197 -0.003655 0.000000 -0.000356 0.000000
# 3 -0.014279 -0.003655 0.011122 0.000000 -0.003566 0.000000
# 4 0.000000 0.000000 0.000000 0.022474 0.000000 0.002028
# 5 0.006652 -0.000356 -0.003566 0.000000 0.025987 0.000000
# 6 0.000000 0.000000 0.000000 0.002028 0.000000 0.022302
#
#
# Mechanical properties :
#
#
# Convention : Reuss Voigt Hill
#
# Bulk Modulus (GPa) = 19.26498 50.12773 34.69636
# Shear Modulus (GPa) = 24.89152 39.80888 32.35020
#
# Velocity S-wave (km/s) = 3.31923 4.19761 3.78400
# Velocity P-wave (km/s) = 4.81837 6.75873 5.86929
#
# Compressibility (1/GPa) = 0.05190767
#
# Stress axis : x y z
#
# Youngs Moduli (GPa) = 16.38312 98.07155 89.91508
#
# Poissons Ratio (x) = -0.26570 1.28390
# Poissons Ratio (y) = -0.04439 0.32862
# Poissons Ratio (z) = 0.23393 0.35843
#
# Static dielectric constant tensor:
#      x y z
#    x 2.240630 0.000000 -0.367240 
#    y 0.000000 1.850030 0.000000 
#    z -0.367240 0.000000 2.274110 
# 
# From -- ./inp_files/9555.got.cif
#   From: 2010.05.17/outbox.cif.g08.bks.cpg/sg14_5_cif.got.tgz:9555.got - 2010.06.03 17:49:19.
