data_PCOD9249418
_publ_section_title
;
Structure prediction by ZEFSAII (Michael W. Deem and Ramdas Pophale) SiO2 
 PCOD9249418
Probable space group: P 21/C
;
_chemical_formula_sum "Si O2"
_cell_formula_units_Z 24
_cell_length_a 6.838217
_cell_length_b 13.253634
_cell_length_c 16.753041
_cell_angle_alpha 90.000000
_cell_angle_beta 130.406695
_cell_angle_gamma 90.000000
_cell_volume 1156.165652
_symmetry_space_group_name_H-M "P 21/C"
_symmetry_group_IT_number 14
_symmetry_cell_setting 'monoclinic'
loop_
_space_group_symop_operation_xyz
x,y,z
-x,1/2+y,1/2-z
-x,-y,-z
x,1/2-y,1/2+z
loop_
_atom_site_type_symbol
_atom_site_label
_atom_site_fract_x
_atom_site_fract_y
_atom_site_fract_z
Si Si1 0.404129 0.512902 0.563120
Si Si2 0.190362 0.414443 0.224397
Si Si3 0.760510 0.936301 0.560518
Si Si4 0.015249 0.841798 0.023139
Si Si5 0.384354 0.304388 0.131556
Si Si6 0.961515 0.251955 0.291270
O O1 0.500000 0.500000 0.500000
O O2 0.649743 0.503958 0.683691
O O3 0.184704 0.432586 0.520052
O O4 0.273408 0.620009 0.549798
O O5 0.386564 0.367279 0.212962
O O6 0.974735 0.476054 0.119422
O O7 0.082696 0.331058 0.259056
O O8 0.698944 0.874778 0.463938
O O9 0.866998 0.850577 0.652036
O O10 0.500000 0.000000 0.500000
O O11 0.042975 0.796938 0.119405
O O12 0.861265 0.767511 0.924902
O O13 0.656016 0.248385 0.188743
#
# Coordination Sequence:
#
# PCOD9249418 Si02
#       6
#     4   4   4   4   4   4
#     4  11  22  40  69  98 133 171 228 281 340 413
#     4  12  24  43  68 101 133 181 232 283 350 411
#     4  11  25  46  71 100 145 184 230 293 347 418
#     4  10  23  41  65  95 130 178 222 281 341 407
#     4  11  24  45  67  99 141 177 231 282 347 414
#     4  11  23  45  68  98 137 181 232 284 342 419
#
# _framework density 20.758271000000001
#
# number of rings (size 3 to 8) (size 9 to 14) (size 15 to 20)
#    0.000    1.000    5.000    1.500    0.000    4.000 
#    6.000    0.000    0.000    0.000    0.000    0.000 
#    0.000    0.000    0.000    0.000    0.000    0.000 
#
# Total GULP energy -133710.260283 kJ/mol
# GULP energy per Si atom -5571.260845 kJ/mol
# Density = 2.071102 g / cm^3
# Si number density = 20.758271 Si / 1000 Ang^3
#
#
#
# Elastic Constant Matrix: (Units=GPa)
#
#
# Indices 1 2 3 4 5 6 
#
# 1 82.7494 31.2860 39.0988 0.0000 16.6634 0.0000
# 2 31.2860 82.4540 25.9925 0.0000 6.3584 0.0000
# 3 39.0988 25.9925 106.5935 0.0000 12.9793 0.0000
# 4 0.0000 0.0000 0.0000 43.1354 0.0000 15.6421
# 5 16.6634 6.3584 12.9793 0.0000 37.3311 0.0000
# 6 0.0000 0.0000 0.0000 15.6421 0.0000 30.1831
#
#
#
# Elastic Compliance Matrix: (Units=1/GPa)
#
#
# Indices 1 2 3 4 5 6 
#
# 1 0.017007 -0.004640 -0.004468 0.000000 -0.005248 0.000000
# 2 -0.004640 0.014453 -0.001853 0.000000 0.000254 0.000000
# 3 -0.004468 -0.001853 0.011686 0.000000 -0.001753 0.000000
# 4 0.000000 0.000000 0.000000 0.028548 0.000000 -0.014795
# 5 -0.005248 0.000254 -0.001753 0.000000 0.029696 0.000000
# 6 0.000000 0.000000 0.000000 -0.014795 0.000000 0.040798
#
#
# Mechanical properties :
#
#
# Convention : Reuss Voigt Hill
#
# Bulk Modulus (GPa) = 47.11745 51.61684 49.36715
# Shear Modulus (GPa) = 29.20840 33.82456 31.51648
#
# Velocity S-wave (km/s) = 3.75517 4.04102 3.90071
# Velocity P-wave (km/s) = 6.44586 6.83321 6.64236
#
# Compressibility (1/GPa) = 0.02122356
#
# Stress axis : x y z
#
# Youngs Moduli (GPa) = 58.80068 69.18893 85.57567
#
# Poissons Ratio (x) = 0.32103 0.38232
# Poissons Ratio (y) = 0.27283 0.15860
# Poissons Ratio (z) = 0.26270 0.12823
#
# Static dielectric constant tensor:
#      x y z
#    x 1.743020 0.000000 0.051430 
#    y 0.000000 1.872420 0.000000 
#    z 0.051430 0.000000 1.455270 
# 
# From -- ./inp_files/32518.got.cif
#   From: 2010.05.17/outbox.cif.g08.bks.cpg/sg14_17_cif.got.tgz:32518.got - 2010.06.03 17:49:19.
