data_PCOD9249020
_publ_section_title
;
Structure prediction by ZEFSAII (Michael W. Deem and Ramdas Pophale) SiO2 
 PCOD9249020
Probable space group: P 21/C
;
_chemical_formula_sum "Si O2"
_cell_formula_units_Z 32
_cell_length_a 26.055019
_cell_length_b 6.223477
_cell_length_c 27.716964
_cell_angle_alpha 90.000000
_cell_angle_beta 20.502415
_cell_angle_gamma 90.000000
_cell_volume 1574.143763
_symmetry_space_group_name_H-M "P 21/C"
_symmetry_group_IT_number 14
_symmetry_cell_setting 'monoclinic'
loop_
_space_group_symop_operation_xyz
x,y,z
-x,1/2+y,1/2-z
-x,-y,-z
x,1/2-y,1/2+z
loop_
_atom_site_type_symbol
_atom_site_label
_atom_site_fract_x
_atom_site_fract_y
_atom_site_fract_z
Si Si1 0.088310 0.295619 0.405298
Si Si2 0.963733 0.037437 0.205889
Si Si3 0.492245 0.759009 0.279011
Si Si4 0.804687 0.460082 0.124697
Si Si5 0.709312 0.538216 0.855629
Si Si6 0.161789 0.682464 0.083190
Si Si7 0.800241 0.650757 0.031682
Si Si8 0.576933 0.303882 0.404470
O O1 0.202224 0.330812 0.262550
O O2 0.000000 0.500000 0.500000
O O3 0.961128 0.143326 0.497607
O O4 0.176516 0.202449 0.372814
O O5 0.915266 0.153625 0.297801
O O6 0.816191 0.975376 0.307186
O O7 0.067384 0.843316 0.132856
O O8 0.061969 0.190236 0.085153
O O9 0.509033 0.505994 0.243640
O O10 0.329389 0.744127 0.444059
O O11 0.646395 0.773720 0.170880
O O12 0.785704 0.466059 0.084547
O O13 0.680265 0.361947 0.268375
O O14 0.673877 0.314431 0.859963
O O15 0.552488 0.649945 0.001006
O O16 0.175025 0.460149 0.041965
O O17 0.500000 0.500000 0.500000
#
# Coordination Sequence:
#
# PCOD9249020 Si02
#       8
#     4   4   4   4   4   4   4   4
#     4  11  21  41  66  98 136 169 225 286 342 423
#     4  12  24  45  70  99 134 184 235 296 362 430
#     4  10  22  45  70  98 139 185 233 303 359 426
#     4  11  24  40  68  99 134 181 222 285 355 421
#     4  11  25  43  70  99 137 185 229 288 358 426
#     4  11  24  46  68  98 139 177 240 298 356 428
#     4  11  24  43  68  99 134 181 235 292 359 434
#     4  11  24  47  65 100 143 177 230 290 348 436
#
# _framework density 20.328512
#
# number of rings (size 3 to 8) (size 9 to 14) (size 15 to 20)
#    0.000    1.000    5.000    1.500    1.750    2.000 
#   11.250    0.000    0.000    0.000    0.000    0.000 
#    0.000    0.000    0.000    0.000    0.000    0.000 
#
# Total GULP energy -178200.393369 kJ/mol
# GULP energy per Si atom -5568.762293 kJ/mol
# Density = 2.028224 g / cm^3
# Si number density = 20.328512 Si / 1000 Ang^3
#
#
#
# Elastic Constant Matrix: (Units=GPa)
#
#
# Indices 1 2 3 4 5 6 
#
# 1 61.0185 7.5665 29.5509 0.0000 4.3593 0.0000
# 2 7.5665 51.3158 21.5865 0.0000 -0.4062 0.0000
# 3 29.5509 21.5865 116.7563 0.0000 -8.4336 0.0000
# 4 0.0000 0.0000 0.0000 36.3699 0.0000 -0.9538
# 5 4.3593 -0.4062 -8.4336 0.0000 25.4507 0.0000
# 6 0.0000 0.0000 0.0000 -0.9538 0.0000 21.8066
#
#
#
# Elastic Compliance Matrix: (Units=1/GPa)
#
#
# Indices 1 2 3 4 5 6 
#
# 1 0.019315 -0.000736 -0.005115 0.000000 -0.005015 0.000000
# 2 -0.000736 0.021183 -0.003787 0.000000 -0.000791 0.000000
# 3 -0.005115 -0.003787 0.010879 0.000000 0.004421 0.000000
# 4 0.000000 0.000000 0.000000 0.027527 0.000000 0.001204
# 5 -0.005015 -0.000791 0.004421 0.000000 0.041603 0.000000
# 6 0.000000 0.000000 0.000000 0.001204 0.000000 0.045910
#
#
# Mechanical properties :
#
#
# Convention : Reuss Voigt Hill
#
# Bulk Modulus (GPa) = 31.15220 38.49983 34.82601
# Shear Modulus (GPa) = 25.45918 28.08455 26.77187
#
# Velocity S-wave (km/s) = 3.54275 3.72093 3.63293
# Velocity P-wave (km/s) = 5.66502 6.11886 5.89630
#
# Compressibility (1/GPa) = 0.03210046
#
# Stress axis : x y z
#
# Youngs Moduli (GPa) = 51.77299 47.20865 91.92114
#
# Poissons Ratio (x) = 0.03475 0.47016
# Poissons Ratio (y) = 0.03811 0.34812
# Poissons Ratio (z) = 0.26481 0.17879
#
# Static dielectric constant tensor:
#      x y z
#    x 1.741450 0.000000 -0.000650 
#    y 0.000000 1.906360 0.000000 
#    z -0.000650 0.000000 1.688910 
# 
# From -- ./inp_files/80749.got.cif
#   From: 2010.05.17/outbox.cif.g08.bks.cpg/sg14_41_cif.got.tgz:80749.got - 2010.06.03 17:49:19.
