data_PCOD9249692
_publ_section_title
;
Structure prediction by ZEFSAII (Michael W. Deem and Ramdas Pophale) SiO2 
 PCOD9249692
Probable space group: P 21/C
;
_chemical_formula_sum "Si O2"
_cell_formula_units_Z 24
_cell_length_a 22.729332
_cell_length_b 7.591087
_cell_length_c 11.776797
_cell_angle_alpha 90.000000
_cell_angle_beta 30.143912
_cell_angle_gamma 90.000000
_cell_volume 1020.403056
_symmetry_space_group_name_H-M "P 21/C"
_symmetry_group_IT_number 14
_symmetry_cell_setting 'monoclinic'
loop_
_space_group_symop_operation_xyz
x,y,z
-x,1/2+y,1/2-z
-x,-y,-z
x,1/2-y,1/2+z
loop_
_atom_site_type_symbol
_atom_site_label
_atom_site_fract_x
_atom_site_fract_y
_atom_site_fract_z
Si Si1 0.189690 0.454822 0.692422
Si Si2 0.201680 0.787102 0.533440
Si Si3 0.041635 0.136022 0.028794
Si Si4 0.410565 0.490845 0.751666
Si Si5 0.406794 0.203072 0.933756
Si Si6 0.256909 0.454130 0.329078
O O1 0.173491 0.660939 0.689749
O O2 0.301140 0.434628 0.590184
O O3 0.217605 0.383792 0.518155
O O4 0.088387 0.327449 0.908192
O O5 0.281786 0.948567 0.433781
O O6 0.274396 0.660101 0.328136
O O7 0.074419 0.838880 0.700986
O O8 0.150456 0.061932 0.918345
O O9 0.000000 0.000000 0.000000
O O10 0.500000 0.500000 0.500000
O O11 0.412951 0.304309 0.805920
O O12 0.468738 0.624828 0.743749
O O13 0.362828 0.342298 0.101494
#
# Coordination Sequence:
#
# PCOD9249692 Si02
#       6
#     4   4   4   4   4   4
#     4   9  21  41  65  96 132 177 220 275 343 400
#     4  10  23  43  64  95 134 179 223 280 340 404
#     4  11  22  40  66 102 134 172 226 277 342 416
#     4  12  27  44  70 102 134 185 233 285 348 408
#     4  11  23  44  66  97 136 175 229 281 337 409
#     4   9  23  39  66  93 134 174 217 279 335 397
#
# _framework density 23.520116999999999
#
# number of rings (size 3 to 8) (size 9 to 14) (size 15 to 20)
#    1.000    0.667    0.000    4.500    4.667    0.667 
#    6.000    0.000    0.000    0.000    0.000    0.000 
#    0.000    0.000    0.000    0.000    0.000    0.000 
#
# Total GULP energy -134043.860103 kJ/mol
# GULP energy per Si atom -5585.160838 kJ/mol
# Density = 2.346658 g / cm^3
# Si number density = 23.520117 Si / 1000 Ang^3
#
#
#
# Elastic Constant Matrix: (Units=GPa)
#
#
# Indices 1 2 3 4 5 6 
#
# 1 40.0133 0.1635 -2.5342 0.0000 7.9043 0.0000
# 2 0.1635 48.3988 -9.2598 0.0000 -2.3178 0.0000
# 3 -2.5342 -9.2598 51.6635 0.0000 -6.7257 0.0000
# 4 0.0000 0.0000 0.0000 26.8842 0.0000 5.0222
# 5 7.9043 -2.3178 -6.7257 0.0000 18.5603 0.0000
# 6 0.0000 0.0000 0.0000 5.0222 0.0000 37.7050
#
#
#
# Elastic Compliance Matrix: (Units=1/GPa)
#
#
# Indices 1 2 3 4 5 6 
#
# 1 0.027313 -0.000723 -0.000331 0.000000 -0.011842 0.000000
# 2 -0.000723 0.021741 0.004465 0.000000 0.004641 0.000000
# 3 -0.000331 0.004465 0.021233 0.000000 0.008393 0.000000
# 4 0.000000 0.000000 0.000000 0.038146 0.000000 -0.005081
# 5 -0.011842 0.004641 0.008393 0.000000 0.062542 0.000000
# 6 0.000000 0.000000 0.000000 -0.005081 0.000000 0.027198
#
#
# Mechanical properties :
#
#
# Convention : Reuss Voigt Hill
#
# Bulk Modulus (GPa) = 12.96874 12.97942 12.97408
# Shear Modulus (GPa) = 23.03578 26.74364 24.88971
#
# Velocity S-wave (km/s) = 3.13294 3.37568 3.25657
# Velocity P-wave (km/s) = 4.31428 4.55237 4.43492
#
# Compressibility (1/GPa) = 0.07710851
#
# Stress axis : x y z
#
# Youngs Moduli (GPa) = 36.61265 45.99671 47.09710
#
# Poissons Ratio (x) = 0.03325 0.01561
# Poissons Ratio (y) = 0.02646 -0.21031
# Poissons Ratio (z) = 0.01214 -0.20539
#
# Static dielectric constant tensor:
#      x y z
#    x 1.922410 0.000000 0.029040 
#    y 0.000000 2.079440 0.000000 
#    z 0.029040 0.000000 1.868450 
# 
# From -- ./inp_files/35663.got.cif
#   From: 2010.05.17/outbox.cif.g08.bks.cpg/sg14_18_cif.got.tgz:35663.got - 2010.06.03 17:49:19.
