data_PCOD9249726
_publ_section_title
;
Structure prediction by ZEFSAII (Michael W. Deem and Ramdas Pophale) SiO2 
 PCOD9249726
Probable space group: P 21/C
;
_chemical_formula_sum "Si O2"
_cell_formula_units_Z 32
_cell_length_a 8.696138
_cell_length_b 13.232189
_cell_length_c 12.631858
_cell_angle_alpha 90.000000
_cell_angle_beta 73.622364
_cell_angle_gamma 90.000000
_cell_volume 1394.556068
_symmetry_space_group_name_H-M "P 21/C"
_symmetry_group_IT_number 14
_symmetry_cell_setting 'monoclinic'
loop_
_space_group_symop_operation_xyz
x,y,z
-x,1/2+y,1/2-z
-x,-y,-z
x,1/2-y,1/2+z
loop_
_atom_site_type_symbol
_atom_site_label
_atom_site_fract_x
_atom_site_fract_y
_atom_site_fract_z
Si Si1 0.150982 0.135581 0.758603
Si Si2 0.730163 0.424519 0.668878
Si Si3 0.192102 0.632450 0.570912
Si Si4 0.437984 0.540024 0.669225
Si Si5 0.663266 0.730124 0.615658
Si Si6 0.910586 0.645086 0.973221
Si Si7 0.248915 0.944390 0.422973
Si Si8 0.362735 0.835394 0.600091
O O1 0.276559 0.219838 0.775141
O O2 0.141182 0.126240 0.636208
O O3 0.973095 0.152184 0.837054
O O4 0.210614 0.031146 0.797523
O O5 0.829576 0.393268 0.547497
O O6 0.547886 0.441411 0.661437
O O7 0.729961 0.353780 0.771596
O O8 0.294074 0.545448 0.612808
O O9 0.297414 0.733160 0.561435
O O10 0.562853 0.628794 0.613583
O O11 0.362567 0.564349 0.799164
O O12 0.828984 0.750527 0.523160
O O13 0.544757 0.818548 0.601734
O O14 0.836325 0.554045 0.057995
O O15 0.101222 0.634628 0.944158
O O16 0.337925 0.920749 0.516243
#
# Coordination Sequence:
#
# PCOD9249726 Si02
#       8
#     4   4   4   4   4   4   4   4
#     4  11  23  46  66  99 140 183 230 288 349 416
#     4  11  24  43  69  98 135 183 231 281 355 420
#     4  11  24  42  69  98 142 179 231 285 352 415
#     4  10  23  43  67 100 137 180 227 280 346 414
#     4  10  25  39  64 102 133 176 224 282 350 398
#     4  11  23  43  70 101 133 184 235 290 343 417
#     4  11  23  43  72  98 137 178 237 288 344 414
#     4  11  25  41  67 104 131 184 230 293 343 412
#
# _framework density 22.946372
#
# number of rings (size 3 to 8) (size 9 to 14) (size 15 to 20)
#    0.000    1.250    2.500    2.250    7.000    3.000 
#    0.000    2.500    0.000    0.000    0.000    0.000 
#    0.000    0.000    0.000    0.000    0.000    0.000 
#
# Total GULP energy -178828.346759 kJ/mol
# GULP energy per Si atom -5588.385836 kJ/mol
# Density = 2.289414 g / cm^3
# Si number density = 22.946372 Si / 1000 Ang^3
#
#
#
# Elastic Constant Matrix: (Units=GPa)
#
#
# Indices 1 2 3 4 5 6 
#
# 1 85.7728 15.8664 5.1060 0.0000 11.7530 0.0000
# 2 15.8664 27.3032 27.4394 0.0000 0.4853 0.0000
# 3 5.1060 27.4394 113.0716 0.0000 8.7241 0.0000
# 4 0.0000 0.0000 0.0000 15.7531 0.0000 31.3879
# 5 11.7530 0.4853 8.7241 0.0000 32.3979 0.0000
# 6 0.0000 0.0000 0.0000 31.3879 0.0000 -30.4479
#
#
#
# Elastic Compliance Matrix: (Units=1/GPa)
#
#
# Indices 1 2 3 4 5 6 
#
# 1 0.014241 -0.010536 0.002349 0.000000 -0.005641 0.000000
# 2 -0.010536 0.056432 -0.013734 0.000000 0.006675 0.000000
# 3 0.002349 -0.013734 0.012378 0.000000 -0.003979 0.000000
# 4 0.000000 0.000000 0.000000 0.020786 0.000000 0.021427
# 5 -0.005641 0.006675 -0.003979 0.000000 0.033884 0.000000
# 6 0.000000 0.000000 0.000000 0.021427 0.000000 -0.010754
#
#
# Mechanical properties :
#
#
# Convention : Reuss Voigt Hill
#
# Bulk Modulus (GPa) = 25.50441 35.88569 30.69505
# Shear Modulus (GPa) = 27.19206 15.38969 21.29087
#
# Velocity S-wave (km/s) = 3.44616 2.59256 3.04937
# Velocity P-wave (km/s) = 5.19361 4.96334 5.07978
#
# Compressibility (1/GPa) = 0.03920891
#
# Stress axis : x y z
#
# Youngs Moduli (GPa) = 70.22093 17.72048 80.79040
#
# Poissons Ratio (x) = 0.18670 -0.18977
# Poissons Ratio (y) = 0.73985 1.10955
# Poissons Ratio (z) = -0.16494 0.24337
#
# Static dielectric constant tensor:
#      x y z
#    x 1.909910 0.000000 -0.036830 
#    y 0.000000 1.920290 0.000000 
#    z -0.036830 0.000000 1.882130 
# 
# From -- ./inp_files/25483.got.cif
#   From: 2010.05.17/outbox.cif.g08.bks.cpg/sg14_13_cif.got.tgz:25483.got - 2010.06.03 17:49:19.
