data_PCOD9249673
_publ_section_title
;
Structure prediction by ZEFSAII (Michael W. Deem and Ramdas Pophale) SiO2 
 PCOD9249673
Probable space group: P 21/C
;
_chemical_formula_sum "Si O2"
_cell_formula_units_Z 16
_cell_length_a 8.727487
_cell_length_b 6.756550
_cell_length_c 24.365278
_cell_angle_alpha 90.000000
_cell_angle_beta 25.921406
_cell_angle_gamma 90.000000
_cell_volume 628.064108
_symmetry_space_group_name_H-M "P 21/C"
_symmetry_group_IT_number 14
_symmetry_cell_setting 'monoclinic'
loop_
_space_group_symop_operation_xyz
x,y,z
-x,1/2+y,1/2-z
-x,-y,-z
x,1/2-y,1/2+z
loop_
_atom_site_type_symbol
_atom_site_label
_atom_site_fract_x
_atom_site_fract_y
_atom_site_fract_z
Si Si1 0.053059 0.619386 0.305592
Si Si2 0.643006 0.141068 0.021621
Si Si3 0.916727 0.983833 0.645852
Si Si4 0.650546 0.309300 0.131096
O O1 0.772894 0.611045 0.346702
O O2 0.833567 0.535098 0.428631
O O3 0.136117 0.844637 0.293023
O O4 0.381898 0.475344 0.194247
O O5 0.781229 0.181439 0.037911
O O6 0.750793 0.340986 0.954040
O O7 0.917534 0.085205 0.585791
O O8 0.586332 0.836223 0.755367
#
# Coordination Sequence:
#
# PCOD9249673 Si02
#       4
#     4   4   4   4
#     4  10  23  43  61  95 128 157 215 255 302 379
#     4  10  24  41  65  92 123 167 207 256 314 362
#     4  11  22  42  62  92 131 161 210 257 301 374
#     4  11  23  40  65  95 125 168 206 254 311 365
#
# _framework density 25.475107999999999
#
# number of rings (size 3 to 8) (size 9 to 14) (size 15 to 20)
#    0.000    1.500    2.500    1.500    3.500    3.000 
#    0.000    0.000    0.000    0.000    0.000    0.000 
#    0.000    0.000    0.000    0.000    0.000    0.000 
#
# Total GULP energy -89616.759197 kJ/mol
# GULP energy per Si atom -5601.047450 kJ/mol
# Density = 2.541713 g / cm^3
# Si number density = 25.475108 Si / 1000 Ang^3
#
#
#
# Elastic Constant Matrix: (Units=GPa)
#
#
# Indices 1 2 3 4 5 6 
#
# 1 55.8326 45.7374 12.9290 0.0000 3.7705 0.0000
# 2 45.7374 121.5867 20.6673 0.0000 -11.7085 0.0000
# 3 12.9290 20.6673 50.2977 0.0000 -5.8878 0.0000
# 4 0.0000 0.0000 0.0000 17.9183 0.0000 -2.2423
# 5 3.7705 -11.7085 -5.8878 0.0000 34.1661 0.0000
# 6 0.0000 0.0000 0.0000 -2.2423 0.0000 45.6615
#
#
#
# Elastic Compliance Matrix: (Units=1/GPa)
#
#
# Indices 1 2 3 4 5 6 
#
# 1 0.027936 -0.010589 -0.003690 0.000000 -0.007348 0.000000
# 2 -0.010589 0.013062 -0.002025 0.000000 0.005296 0.000000
# 3 -0.003690 -0.002025 0.022074 0.000000 0.003517 0.000000
# 4 0.000000 0.000000 0.000000 0.056154 0.000000 0.002758
# 5 -0.007348 0.005296 0.003517 0.000000 0.032501 0.000000
# 6 0.000000 0.000000 0.000000 0.002758 0.000000 0.022036
#
#
# Mechanical properties :
#
#
# Convention : Reuss Voigt Hill
#
# Bulk Modulus (GPa) = 32.82641 42.93159 37.87900
# Shear Modulus (GPa) = 23.09201 29.44141 26.26671
#
# Velocity S-wave (km/s) = 3.01400 3.40324 3.21452
# Velocity P-wave (km/s) = 5.00259 5.68609 5.35526
#
# Compressibility (1/GPa) = 0.03046328
#
# Stress axis : x y z
#
# Youngs Moduli (GPa) = 35.79652 76.55753 45.30195
#
# Poissons Ratio (x) = 0.81066 0.16716
# Poissons Ratio (y) = 0.37905 0.09176
# Poissons Ratio (z) = 0.13209 0.15506
#
# Static dielectric constant tensor:
#      x y z
#    x 2.020800 0.000000 0.012120 
#    y 0.000000 1.945790 0.000000 
#    z 0.012120 0.000000 1.997660 
# 
# From -- ./inp_files/22454.got.cif
#   From: 2010.05.17/outbox.cif.g08.bks.cpg/sg14_12_cif.got.tgz:22454.got - 2010.06.03 17:49:19.
