data_PCOD9249122
_publ_section_title
;
Structure prediction by ZEFSAII (Michael W. Deem and Ramdas Pophale) SiO2 
 PCOD9249122
Probable space group: P 21/C
;
_chemical_formula_sum "Si O2"
_cell_formula_units_Z 28
_cell_length_a 20.111167
_cell_length_b 5.016437
_cell_length_c 11.966267
_cell_angle_alpha 90.000000
_cell_angle_beta 62.889890
_cell_angle_gamma 90.000000
_cell_volume 1074.597775
_symmetry_space_group_name_H-M "P 21/C"
_symmetry_group_IT_number 14
_symmetry_cell_setting 'monoclinic'
loop_
_space_group_symop_operation_xyz
x,y,z
-x,1/2+y,1/2-z
-x,-y,-z
x,1/2-y,1/2+z
loop_
_atom_site_type_symbol
_atom_site_label
_atom_site_fract_x
_atom_site_fract_y
_atom_site_fract_z
Si Si1 0.514450 0.178612 0.881254
Si Si2 0.163689 0.241184 0.640189
Si Si3 0.284935 0.808583 0.832948
Si Si4 0.117614 0.546662 0.484427
Si Si5 0.024543 0.220207 0.391461
Si Si6 0.736093 0.256472 0.402788
Si Si7 0.593288 0.807159 0.235074
O O1 0.440333 0.155293 0.862468
O O2 0.577558 0.997548 0.774322
O O3 0.544453 0.482456 0.849501
O O4 0.500000 0.000000 0.000000
O O5 0.142569 0.276120 0.526781
O O6 0.090543 0.352095 0.757877
O O7 0.229188 0.452225 0.611862
O O8 0.197313 0.960624 0.650127
O O9 0.304219 0.741582 0.687306
O O10 0.322468 0.102063 0.814003
O O11 0.194623 0.805410 0.902252
O O12 0.303103 0.698321 0.946119
O O13 0.068676 0.465864 0.416176
O O14 0.054426 0.702234 0.603017
O O15 0.000000 0.000000 0.500000
#
# Coordination Sequence:
#
# PCOD9249122 Si02
#       7
#     4   4   4   4   4   4   4
#     4  10  22  46  72 106 146 183 234 281 349 424
#     4  11  26  44  69  96 134 188 239 304 362 428
#     4  11  25  50  69 109 142 192 238 298 363 426
#     4  10  25  42  64  94 137 177 238 293 357 428
#     4  11  24  41  67  92 133 184 241 297 368 420
#     4  11  27  45  73  98 149 183 243 299 361 433
#     4  10  24  42  73 107 142 187 233 288 350 424
#
# _framework density 26.056263999999999
#
# number of rings (size 3 to 8) (size 9 to 14) (size 15 to 20)
#    0.000    1.429    1.429    1.286   12.000    3.429 
#    2.571    0.000    0.000    0.000    0.000    0.000 
#    0.000    0.000    0.000    0.000    0.000    0.000 
#
# Total GULP energy -156151.090634 kJ/mol
# GULP energy per Si atom -5576.824665 kJ/mol
# Density = 2.599696 g / cm^3
# Si number density = 26.056264 Si / 1000 Ang^3
#
#
#
# Elastic Constant Matrix: (Units=GPa)
#
#
# Indices 1 2 3 4 5 6 
#
# 1 116.8683 12.6437 26.9039 0.0000 10.1377 0.0000
# 2 12.6437 70.4264 6.2191 0.0000 8.8395 0.0000
# 3 26.9039 6.2191 134.9944 0.0000 17.5639 0.0000
# 4 0.0000 0.0000 0.0000 22.0572 0.0000 -2.5170
# 5 10.1377 8.8395 17.5639 0.0000 39.5611 0.0000
# 6 0.0000 0.0000 0.0000 -2.5170 0.0000 47.2466
#
#
#
# Elastic Compliance Matrix: (Units=1/GPa)
#
#
# Indices 1 2 3 4 5 6 
#
# 1 0.009185 -0.001339 -0.001594 0.000000 -0.001347 0.000000
# 2 -0.001339 0.014813 -0.000031 0.000000 -0.002953 0.000000
# 3 -0.001594 -0.000031 0.008143 0.000000 -0.003200 0.000000
# 4 0.000000 0.000000 0.000000 0.045614 0.000000 0.002430
# 5 -0.001347 -0.002953 -0.003200 0.000000 0.027703 0.000000
# 6 0.000000 0.000000 0.000000 0.002430 0.000000 0.021295
#
#
# Mechanical properties :
#
#
# Convention : Reuss Voigt Hill
#
# Bulk Modulus (GPa) = 38.14913 45.98029 42.06471
# Shear Modulus (GPa) = 35.35584 40.20781 37.78183
#
# Velocity S-wave (km/s) = 3.68761 3.93251 3.81203
# Velocity P-wave (km/s) = 5.72749 6.18905 5.96274
#
# Compressibility (1/GPa) = 0.02621292
#
# Stress axis : x y z
#
# Youngs Moduli (GPa) = 108.87033 67.50815 122.80340
#
# Poissons Ratio (x) = 0.09041 0.19570
# Poissons Ratio (y) = 0.14580 0.00385
# Poissons Ratio (z) = 0.17350 0.00212
#
# Static dielectric constant tensor:
#      x y z
#    x 2.028950 0.000000 -0.006520 
#    y 0.000000 2.271450 0.000000 
#    z -0.006520 0.000000 2.276680 
# 
# From -- ./inp_files/34665.got.cif
#   From: 2010.05.17/outbox.cif.g08.bks.cpg/sg14_18_cif.got.tgz:34665.got - 2010.06.03 17:49:19.
