data_PCOD9249696
_publ_section_title
;
Structure prediction by ZEFSAII (Michael W. Deem and Ramdas Pophale) SiO2 
 PCOD9249696
Probable space group: P 21/C
;
_chemical_formula_sum "Si O2"
_cell_formula_units_Z 28
_cell_length_a 8.898752
_cell_length_b 10.918096
_cell_length_c 16.427952
_cell_angle_alpha 90.000000
_cell_angle_beta 58.716468
_cell_angle_gamma 90.000000
_cell_volume 1364.037940
_symmetry_space_group_name_H-M "P 21/C"
_symmetry_group_IT_number 14
_symmetry_cell_setting 'monoclinic'
loop_
_space_group_symop_operation_xyz
x,y,z
-x,1/2+y,1/2-z
-x,-y,-z
x,1/2-y,1/2+z
loop_
_atom_site_type_symbol
_atom_site_label
_atom_site_fract_x
_atom_site_fract_y
_atom_site_fract_z
Si Si1 0.360595 0.854258 0.790237
Si Si2 0.531213 0.235086 0.572552
Si Si3 0.193061 0.595045 0.789711
Si Si4 0.991924 0.952403 0.911418
Si Si5 0.828171 0.806813 0.410071
Si Si6 0.666502 0.972761 0.597634
Si Si7 0.333348 0.576092 0.579484
O O1 0.421706 0.827097 0.866137
O O2 0.285451 0.723144 0.785073
O O3 0.513456 0.901598 0.688993
O O4 0.195000 0.945330 0.828038
O O5 0.324902 0.228084 0.609776
O O6 0.624854 0.287358 0.464693
O O7 0.596368 0.099706 0.578406
O O8 0.200049 0.511293 0.867773
O O9 0.307444 0.551199 0.681760
O O10 0.991326 0.621508 0.824308
O O11 0.910318 0.816371 0.925545
O O12 0.852971 0.036876 0.904909
O O13 0.000000 0.000000 0.000000
O O14 0.746822 0.888935 0.504777
O O15 0.500000 0.500000 0.500000
#
# Coordination Sequence:
#
# PCOD9249696 Si02
#       7
#     4   4   4   4   4   4   4
#     4  10  23  43  64  99 133 177 221 276 334 400
#     4  11  23  42  69  98 132 178 225 274 340 404
#     4  10  25  43  64  98 136 169 225 278 333 397
#     4  11  24  41  68  96 134 172 229 275 334 404
#     4  11  24  45  64 101 132 176 224 281 336 403
#     4  11  24  44  71  94 140 178 223 272 351 406
#     4  12  23  44  70  96 132 176 225 281 333 397
#
# _framework density 20.527289
#
# number of rings (size 3 to 8) (size 9 to 14) (size 15 to 20)
#    0.000    1.143    2.857    2.571    2.000    1.143 
#    2.571    0.000    0.000    0.000    0.000    0.000 
#    0.000    0.000    0.000    0.000    0.000    0.000 
#
# Total GULP energy -156366.776202 kJ/mol
# GULP energy per Si atom -5584.527722 kJ/mol
# Density = 2.048057 g / cm^3
# Si number density = 20.527289 Si / 1000 Ang^3
#
#
#
# Elastic Constant Matrix: (Units=GPa)
#
#
# Indices 1 2 3 4 5 6 
#
# 1 129.9862 22.2233 31.7018 0.0000 -8.3275 0.0000
# 2 22.2233 29.5449 11.6660 0.0000 -13.0014 0.0000
# 3 31.7018 11.6660 82.5072 0.0000 -11.8259 0.0000
# 4 0.0000 0.0000 0.0000 34.4327 0.0000 -1.4796
# 5 -8.3275 -13.0014 -11.8259 0.0000 33.6224 0.0000
# 6 0.0000 0.0000 0.0000 -1.4796 0.0000 26.0850
#
#
#
# Elastic Compliance Matrix: (Units=1/GPa)
#
#
# Indices 1 2 3 4 5 6 
#
# 1 0.009426 -0.006474 -0.002875 0.000000 -0.001180 0.000000
# 2 -0.006474 0.046331 -0.001817 0.000000 0.015673 0.000000
# 3 -0.002875 -0.001817 0.013984 0.000000 0.003504 0.000000
# 4 0.000000 0.000000 0.000000 0.029113 0.000000 0.001651
# 5 -0.001180 0.015673 0.003504 0.000000 0.036743 0.000000
# 6 0.000000 0.000000 0.000000 0.001651 0.000000 0.038430
#
#
# Mechanical properties :
#
#
# Convention : Reuss Voigt Hill
#
# Bulk Modulus (GPa) = 21.09342 41.46896 31.28119
# Shear Modulus (GPa) = 23.56696 30.59116 27.07906
#
# Velocity S-wave (km/s) = 3.39201 3.86459 3.63598
# Velocity P-wave (km/s) = 5.06350 6.33712 5.73577
#
# Compressibility (1/GPa) = 0.04740814
#
# Stress axis : x y z
#
# Youngs Moduli (GPa) = 106.09415 21.58391 71.50987
#
# Poissons Ratio (x) = 0.13973 0.20562
# Poissons Ratio (y) = 0.68683 0.12993
# Poissons Ratio (z) = 0.30506 0.03922
#
# Static dielectric constant tensor:
#      x y z
#    x 1.801390 0.000000 0.101340 
#    y 0.000000 1.730490 0.000000 
#    z 0.101340 0.000000 1.884510 
# 
# From -- ./inp_files/39931.got.cif
#   From: 2010.05.17/outbox.cif.g08.bks.cpg/sg14_20_cif.got.tgz:39931.got - 2010.06.03 17:49:19.
