data_PCOD9249005
_publ_section_title
;
Structure prediction by ZEFSAII (Michael W. Deem and Ramdas Pophale) SiO2 
 PCOD9249005
Probable space group: P 21/C
;
_chemical_formula_sum "Si O2"
_cell_formula_units_Z 28
_cell_length_a 11.682558
_cell_length_b 11.861513
_cell_length_c 18.200871
_cell_angle_alpha 90.000000
_cell_angle_beta 147.705829
_cell_angle_gamma 90.000000
_cell_volume 1347.497696
_symmetry_space_group_name_H-M "P 21/C"
_symmetry_group_IT_number 14
_symmetry_cell_setting 'monoclinic'
loop_
_space_group_symop_operation_xyz
x,y,z
-x,1/2+y,1/2-z
-x,-y,-z
x,1/2-y,1/2+z
loop_
_atom_site_type_symbol
_atom_site_label
_atom_site_fract_x
_atom_site_fract_y
_atom_site_fract_z
Si Si1 0.614451 0.896232 0.889688
Si Si2 0.850051 0.048610 0.200818
Si Si3 0.287157 0.751228 0.292882
Si Si4 0.700968 0.064600 0.575102
Si Si5 0.466236 0.107481 0.886156
Si Si6 0.420705 0.356328 0.802391
Si Si7 0.919299 0.457039 0.378270
O O1 0.508143 0.806004 0.886891
O O2 0.586457 0.859910 0.789872
O O3 0.496314 0.015438 0.838221
O O4 0.862334 0.919914 0.043272
O O5 0.863747 0.144825 0.271257
O O6 0.716001 0.942795 0.159649
O O7 0.691268 0.101299 0.053025
O O8 0.082637 0.006801 0.304707
O O9 0.285833 0.826220 0.365616
O O10 0.215685 0.841739 0.193148
O O11 0.637045 0.096089 0.457157
O O12 0.500000 0.000000 0.500000
O O13 0.405242 0.229522 0.823677
O O14 0.230758 0.439427 0.727485
O O15 0.000000 0.500000 0.500000
#
# Coordination Sequence:
#
# PCOD9249005 Si02
#       7
#     4   4   4   4   4   4   4
#     4  10  25  44  68  95 142 186 228 281 345 415
#     4  10  24  44  68 101 134 178 229 289 344 410
#     4  11  23  45  69  98 131 186 230 286 344 408
#     4  12  25  41  67 104 137 173 235 283 345 409
#     4  10  22  45  69  96 135 181 230 281 349 406
#     4  11  24  42  68 103 136 180 229 286 340 417
#     4  10  23  42  66 100 137 181 228 277 349 405
#
# _framework density 20.779256
#
# number of rings (size 3 to 8) (size 9 to 14) (size 15 to 20)
#    0.000    1.429    2.857    0.857    6.000    2.286 
#    5.143    1.429    0.000    0.000    0.000    0.000 
#    0.000    0.000    0.000    0.000    0.000    0.000 
#
# Total GULP energy -156197.152375 kJ/mol
# GULP energy per Si atom -5578.469728 kJ/mol
# Density = 2.073196 g / cm^3
# Si number density = 20.779256 Si / 1000 Ang^3
#
#
#
# Elastic Constant Matrix: (Units=GPa)
#
#
# Indices 1 2 3 4 5 6 
#
# 1 76.0157 58.3633 49.1579 0.0000 18.1064 0.0000
# 2 58.3633 173.4116 72.4123 0.0000 18.4733 0.0000
# 3 49.1579 72.4123 114.5729 0.0000 12.5656 0.0000
# 4 0.0000 0.0000 0.0000 27.4231 0.0000 -7.9393
# 5 18.1064 18.4733 12.5656 0.0000 48.3846 0.0000
# 6 0.0000 0.0000 0.0000 -7.9393 0.0000 30.2563
#
#
#
# Elastic Compliance Matrix: (Units=1/GPa)
#
#
# Indices 1 2 3 4 5 6 
#
# 1 0.021406 -0.004177 -0.006012 0.000000 -0.004855 0.000000
# 2 -0.004177 0.008797 -0.003675 0.000000 -0.000841 0.000000
# 3 -0.006012 -0.003675 0.013618 0.000000 0.000117 0.000000
# 4 0.000000 0.000000 0.000000 0.039464 0.000000 0.010355
# 5 -0.004855 -0.000841 0.000117 0.000000 0.022775 0.000000
# 6 0.000000 0.000000 0.000000 0.010355 0.000000 0.035768
#
#
# Mechanical properties :
#
#
# Convention : Reuss Voigt Hill
#
# Bulk Modulus (GPa) = 62.14272 80.42970 71.28621
# Shear Modulus (GPa) = 28.58437 33.48390 31.03413
#
# Velocity S-wave (km/s) = 3.71296 4.01859 3.86879
# Velocity P-wave (km/s) = 6.95359 7.76678 7.37141
#
# Compressibility (1/GPa) = 0.01609199
#
# Stress axis : x y z
#
# Youngs Moduli (GPa) = 46.71511 113.67878 73.43346
#
# Poissons Ratio (x) = 0.47481 0.44150
# Poissons Ratio (y) = 0.19512 0.26990
# Poissons Ratio (z) = 0.28086 0.41781
#
# Static dielectric constant tensor:
#      x y z
#    x 1.793470 0.000000 -0.032610 
#    y 0.000000 1.759830 0.000000 
#    z -0.032610 0.000000 1.774340 
# 
# From -- ./inp_files/67357.got.cif
#   From: 2010.05.17/outbox.cif.g08.bks.cpg/sg14_34_cif.got.tgz:67357.got - 2010.06.03 17:49:19.
