data_PCOD9249279
_publ_section_title
;
Structure prediction by ZEFSAII (Michael W. Deem and Ramdas Pophale) SiO2 
 PCOD9249279
Probable space group: P 21/C
;
_chemical_formula_sum "Si O2"
_cell_formula_units_Z 24
_cell_length_a 9.789223
_cell_length_b 15.499820
_cell_length_c 16.619949
_cell_angle_alpha 90.000000
_cell_angle_beta 150.550750
_cell_angle_gamma 90.000000
_cell_volume 1239.831788
_symmetry_space_group_name_H-M "P 21/C"
_symmetry_group_IT_number 14
_symmetry_cell_setting 'monoclinic'
loop_
_space_group_symop_operation_xyz
x,y,z
-x,1/2+y,1/2-z
-x,-y,-z
x,1/2-y,1/2+z
loop_
_atom_site_type_symbol
_atom_site_label
_atom_site_fract_x
_atom_site_fract_y
_atom_site_fract_z
Si Si1 0.776781 0.763427 0.027973
Si Si2 0.308565 0.791078 0.188931
Si Si3 0.419433 0.297938 0.812500
Si Si4 0.960265 0.065214 0.052007
Si Si5 0.271305 0.445248 0.428862
Si Si6 0.992785 0.304203 0.191730
O O1 0.639926 0.858099 0.976397
O O2 0.923341 0.744309 0.188750
O O3 0.019364 0.773803 0.086053
O O4 0.543757 0.697478 0.877904
O O5 0.439341 0.715727 0.201693
O O6 0.254613 0.865193 0.095327
O O7 0.239454 0.384123 0.717548
O O8 0.195977 0.224872 0.723816
O O9 0.674165 0.295454 0.004992
O O10 0.862673 0.010963 0.077703
O O11 0.000000 0.000000 0.000000
O O12 0.500000 0.500000 0.500000
O O13 0.063677 0.400321 0.258444
#
# Coordination Sequence:
#
# PCOD9249279 Si02
#       6
#     4   4   4   4   4   4
#     4  10  23  39  66  93 128 163 222 261 325 390
#     4  12  20  41  64  95 122 172 217 258 323 393
#     4  12  22  40  71  95 128 173 228 266 322 403
#     4  12  23  41  65  97 135 171 209 282 331 376
#     4  10  23  41  63  94 135 168 208 275 340 375
#     4  10  23  41  64  99 124 176 222 267 326 395
#
# _framework density 19.357465000000001
#
# number of rings (size 3 to 8) (size 9 to 14) (size 15 to 20)
#    1.000    0.000    5.000    2.000    0.000    0.667 
#    0.000    1.667    0.000    5.000    0.000    0.000 
#    0.000    0.000    0.000    0.000    0.000    0.000 
#
# Total GULP energy -133733.951520 kJ/mol
# GULP energy per Si atom -5572.247980 kJ/mol
# Density = 1.931341 g / cm^3
# Si number density = 19.357465 Si / 1000 Ang^3
#
#
#
# Elastic Constant Matrix: (Units=GPa)
#
#
# Indices 1 2 3 4 5 6 
#
# 1 105.1891 29.8027 23.9218 0.0000 20.0088 0.0000
# 2 29.8027 51.8330 40.2034 0.0000 11.0694 0.0000
# 3 23.9218 40.2034 141.8543 0.0000 -7.8003 0.0000
# 4 0.0000 0.0000 0.0000 32.8774 0.0000 -9.4055
# 5 20.0088 11.0694 -7.8003 0.0000 28.3532 0.0000
# 6 0.0000 0.0000 0.0000 -9.4055 0.0000 36.9568
#
#
#
# Elastic Compliance Matrix: (Units=1/GPa)
#
#
# Indices 1 2 3 4 5 6 
#
# 1 0.012499 -0.004718 -0.001172 0.000000 -0.007301 0.000000
# 2 -0.004718 0.031087 -0.008630 0.000000 -0.011181 0.000000
# 3 -0.001172 -0.008630 0.010076 0.000000 0.006968 0.000000
# 4 0.000000 0.000000 0.000000 0.032804 0.000000 0.008349
# 5 -0.007301 -0.011181 0.006968 0.000000 0.046704 0.000000
# 6 0.000000 0.000000 0.000000 0.008349 0.000000 0.029183
#
#
# Mechanical properties :
#
#
# Convention : Reuss Voigt Hill
#
# Bulk Modulus (GPa) = 40.61421 54.08133 47.34777
# Shear Modulus (GPa) = 25.05009 33.30071 29.17540
#
# Velocity S-wave (km/s) = 3.60123 4.15215 3.88647
# Velocity P-wave (km/s) = 6.19020 7.14045 6.68224
#
# Compressibility (1/GPa) = 0.02462192
#
# Stress axis : x y z
#
# Youngs Moduli (GPa) = 80.00800 32.16795 99.24555
#
# Poissons Ratio (x) = 0.15178 0.11631
# Poissons Ratio (y) = 0.37750 0.85645
# Poissons Ratio (z) = 0.09377 0.27760
#
# Static dielectric constant tensor:
#      x y z
#    x 1.716610 0.000000 -0.029210 
#    y 0.000000 1.688550 0.000000 
#    z -0.029210 0.000000 1.706140 
# 
# From -- ./inp_files/56007.got.cif
#   From: 2010.05.17/outbox.cif.g08.bks.cpg/sg14_29_cif.got.tgz:56007.got - 2010.06.03 17:49:19.
