data_PCOD9249813
_publ_section_title
;
Structure prediction by ZEFSAII (Michael W. Deem and Ramdas Pophale) SiO2 
 PCOD9249813
Probable space group: P 21/C
;
_chemical_formula_sum "Si O2"
_cell_formula_units_Z 28
_cell_length_a 7.153364
_cell_length_b 29.533880
_cell_length_c 5.553721
_cell_angle_alpha 90.000000
_cell_angle_beta 76.374948
_cell_angle_gamma 90.000000
_cell_volume 1140.296379
_symmetry_space_group_name_H-M "P 21/C"
_symmetry_group_IT_number 14
_symmetry_cell_setting 'monoclinic'
loop_
_space_group_symop_operation_xyz
x,y,z
-x,1/2+y,1/2-z
-x,-y,-z
x,1/2-y,1/2+z
loop_
_atom_site_type_symbol
_atom_site_label
_atom_site_fract_x
_atom_site_fract_y
_atom_site_fract_z
Si Si1 0.457970 0.447582 0.052209
Si Si2 0.957970 0.552418 0.052209
Si Si3 0.074382 0.865859 0.232736
Si Si4 0.482181 0.273561 0.952255
Si Si5 0.982181 0.773561 0.452257
Si Si6 0.425618 0.634141 0.267265
Si Si7 0.750000 0.602471 0.500000
O O1 0.250000 0.440429 1.000000
O O2 0.414470 0.429684 0.332707
O O3 0.500000 0.500000 0.000000
O O4 0.593278 0.413741 0.864122
O O5 0.093278 0.586259 0.864122
O O6 0.914471 0.570316 0.332708
O O7 0.000000 0.500000 0.000000
O O8 0.052450 0.825146 0.425001
O O9 0.250000 0.858611 0.000000
O O10 0.872656 0.867232 0.145714
O O11 0.544285 0.249854 0.682419
O O12 0.552450 0.325146 0.925001
O O13 0.250000 0.272890 0.999999
O O14 0.044286 0.750147 0.682422
O O15 0.627344 0.632768 0.354287
#
# Coordination Sequence:
#
# PCOD9249813 Si02
#       7
#     4   4   4   4   4   4   4
#     4  10  24  41  66  97 132 178 228 282 348 413
#     4  10  24  41  66  97 132 178 228 282 348 413
#     4  11  26  43  68 102 133 181 230 284 349 417
#     4  10  23  43  73 103 141 187 235 291 357 423
#     4  10  23  43  73 103 141 187 235 291 357 423
#     4  11  26  43  68 102 133 181 230 284 349 417
#     4  10  24  44  66  90 144 172 224 288 346 412
#
# _framework density 24.555021
#
# number of rings (size 3 to 8) (size 9 to 14) (size 15 to 20)
#    0.000    1.714    0.000    2.571   16.000    3.429 
#    0.000    0.000    0.000    0.000    0.000    0.000 
#    0.000    0.000    0.000    0.000    0.000    0.000 
#
# Total GULP energy -156769.428188 kJ/mol
# GULP energy per Si atom -5598.908150 kJ/mol
# Density = 2.449913 g / cm^3
# Si number density = 24.555021 Si / 1000 Ang^3
#
#
#
# Elastic Constant Matrix: (Units=GPa)
#
#
# Indices 1 2 3 4 5 6 
#
# 1 101.1147 9.0385 21.9629 0.0000 7.0557 0.0000
# 2 9.0385 139.9816 49.3514 0.0000 5.5548 0.0000
# 3 21.9629 49.3514 126.7684 0.0000 -8.9878 0.0000
# 4 0.0000 0.0000 0.0000 36.7382 0.0000 1.3228
# 5 7.0557 5.5548 -8.9878 0.0000 40.7606 0.0000
# 6 0.0000 0.0000 0.0000 1.3228 0.0000 12.2666
#
#
#
# Elastic Compliance Matrix: (Units=1/GPa)
#
#
# Indices 1 2 3 4 5 6 
#
# 1 0.010477 0.000128 -0.002027 0.000000 -0.002278 0.000000
# 2 0.000128 0.008424 -0.003439 0.000000 -0.001928 0.000000
# 3 -0.002027 -0.003439 0.009789 0.000000 0.002978 0.000000
# 4 0.000000 0.000000 0.000000 0.027326 0.000000 -0.002947
# 5 -0.002278 -0.001928 0.002978 0.000000 0.025847 0.000000
# 6 0.000000 0.000000 0.000000 -0.002947 0.000000 0.081840
#
#
# Mechanical properties :
#
#
# Convention : Reuss Voigt Hill
#
# Bulk Modulus (GPa) = 55.50229 58.73003 57.11616
# Shear Modulus (GPa) = 27.71871 37.12055 32.41963
#
# Velocity S-wave (km/s) = 3.36347 3.89231 3.63751
# Velocity P-wave (km/s) = 6.14298 6.64604 6.39945
#
# Compressibility (1/GPa) = 0.01801728
#
# Stress axis : x y z
#
# Youngs Moduli (GPa) = 95.44288 118.70377 102.15194
#
# Poissons Ratio (x) = -0.01524 0.20704
# Poissons Ratio (y) = -0.01226 0.35126
# Poissons Ratio (z) = 0.19344 0.40817
#
# Static dielectric constant tensor:
#      x y z
#    x 1.973550 0.000000 0.021090 
#    y 0.000000 1.978020 0.000000 
#    z 0.021090 0.000000 2.129120 
# 
# From -- ./inp_files/2198.got.cif
#   From: 2010.05.17/outbox.cif.g08.bks.cpg/sg14_2_cif.got.tgz:2198.got - 2010.06.03 17:49:19.
