data_PCOD9249442
_publ_section_title
;
Structure prediction by ZEFSAII (Michael W. Deem and Ramdas Pophale) SiO2 
 PCOD9249442
Probable space group: P 21/C
;
_chemical_formula_sum "Si O2"
_cell_formula_units_Z 28
_cell_length_a 19.678975
_cell_length_b 5.068944
_cell_length_c 12.149057
_cell_angle_alpha 90.000000
_cell_angle_beta 113.976147
_cell_angle_gamma 90.000000
_cell_volume 1107.320023
_symmetry_space_group_name_H-M "P 21/C"
_symmetry_group_IT_number 14
_symmetry_cell_setting 'monoclinic'
loop_
_space_group_symop_operation_xyz
x,y,z
-x,1/2+y,1/2-z
-x,-y,-z
x,1/2-y,1/2+z
loop_
_atom_site_type_symbol
_atom_site_label
_atom_site_fract_x
_atom_site_fract_y
_atom_site_fract_z
Si Si1 0.994638 0.793834 0.825361
Si Si2 0.348766 0.539745 0.949316
Si Si3 0.347184 0.253394 0.246907
Si Si4 0.117490 0.984551 0.077927
Si Si5 0.545179 0.163251 0.299627
Si Si6 0.243161 0.164124 0.010433
Si Si7 0.768273 0.395733 0.727192
O O1 0.998691 0.514272 0.766562
O O2 0.058454 0.841517 0.958902
O O3 0.920949 0.847103 0.850060
O O4 0.380840 0.323788 0.887030
O O5 0.303365 0.713206 0.835132
O O6 0.414133 0.679481 0.056890
O O7 0.283886 0.421291 0.985705
O O8 0.398815 0.483097 0.233907
O O9 0.314981 0.059459 0.128666
O O10 0.266041 0.368309 0.226101
O O11 0.167814 0.765499 0.171436
O O12 0.167729 0.160361 0.030103
O O13 0.476277 0.952228 0.259007
O O14 0.218851 0.995752 0.887837
#
# Coordination Sequence:
#
# PCOD9249442 Si02
#       7
#     4   4   4   4   4   4   4
#     4  11  28  51  72 109 156 198 253 295 362 453
#     4  10  24  42  68 103 138 187 242 308 359 439
#     4  10  24  43  71 102 144 185 242 310 368 435
#     4  11  25  44  77 106 144 200 240 310 368 436
#     4  11  28  45  70 101 146 196 245 296 367 445
#     4  10  23  41  67 106 140 179 239 302 366 423
#     4  11  24  43  71 106 142 183 245 305 373 427
#
# _framework density 25.286275
#
# number of rings (size 3 to 8) (size 9 to 14) (size 15 to 20)
#    0.000    1.429    1.429    0.857   14.000    5.714 
#    0.000    0.000    0.000    0.000    0.000    0.000 
#    0.000    0.000    0.000    0.000    0.000    0.000 
#
# Total GULP energy -156436.723275 kJ/mol
# GULP energy per Si atom -5587.025831 kJ/mol
# Density = 2.522872 g / cm^3
# Si number density = 25.286275 Si / 1000 Ang^3
#
#
#
# Elastic Constant Matrix: (Units=GPa)
#
#
# Indices 1 2 3 4 5 6 
#
# 1 73.1603 -19.0502 34.2890 0.0000 -17.3083 0.0000
# 2 -19.0502 60.6160 21.4020 0.0000 6.3358 0.0000
# 3 34.2890 21.4020 109.9861 0.0000 23.1823 0.0000
# 4 0.0000 0.0000 0.0000 7.8191 0.0000 7.7932
# 5 -17.3083 6.3358 23.1823 0.0000 27.2488 0.0000
# 6 0.0000 0.0000 0.0000 7.7932 0.0000 16.0115
#
#
#
# Elastic Compliance Matrix: (Units=1/GPa)
#
#
# Indices 1 2 3 4 5 6 
#
# 1 0.039128 0.016485 -0.024171 0.000000 0.041585 0.000000
# 2 0.016485 0.024706 -0.013334 0.000000 0.016070 0.000000
# 3 -0.024171 -0.013334 0.026569 0.000000 -0.034857 0.000000
# 4 0.000000 0.000000 0.000000 0.248389 0.000000 -0.120897
# 5 0.041585 0.016070 -0.034857 0.000000 0.089031 0.000000
# 6 0.000000 0.000000 0.000000 -0.120897 0.000000 0.121299
#
#
# Mechanical properties :
#
#
# Convention : Reuss Voigt Hill
#
# Bulk Modulus (GPa) = 20.67729 35.22712 27.95220
# Shear Modulus (GPa) = 8.23338 24.02400 16.12869
#
# Velocity S-wave (km/s) = 1.80642 3.08568 2.52830
# Velocity P-wave (km/s) = 3.54202 5.16302 4.42734
#
# Compressibility (1/GPa) = 0.04836224
#
# Stress axis : x y z
#
# Youngs Moduli (GPa) = 25.55733 40.47570 37.63765
#
# Poissons Ratio (x) = -0.66722 0.90974
# Poissons Ratio (y) = -0.42130 0.50186
# Poissons Ratio (z) = 0.61775 0.53970
#
# Static dielectric constant tensor:
#      x y z
#    x 2.071150 0.000000 -0.021460 
#    y 0.000000 2.462590 0.000000 
#    z -0.021460 0.000000 2.080550 
# 
# From -- ./inp_files/34777.got.cif
#   From: 2010.05.17/outbox.cif.g08.bks.cpg/sg14_18_cif.got.tgz:34777.got - 2010.06.03 17:49:19.
