data_PCOD9249194
_publ_section_title
;
Structure prediction by ZEFSAII (Michael W. Deem and Ramdas Pophale) SiO2 
 PCOD9249194
Probable space group: P 21/C
;
_chemical_formula_sum "Si O2"
_cell_formula_units_Z 24
_cell_length_a 10.775328
_cell_length_b 9.275238
_cell_length_c 13.923218
_cell_angle_alpha 90.000000
_cell_angle_beta 38.108262
_cell_angle_gamma 90.000000
_cell_volume 858.786989
_symmetry_space_group_name_H-M "P 21/C"
_symmetry_group_IT_number 14
_symmetry_cell_setting 'monoclinic'
loop_
_space_group_symop_operation_xyz
x,y,z
-x,1/2+y,1/2-z
-x,-y,-z
x,1/2-y,1/2+z
loop_
_atom_site_type_symbol
_atom_site_label
_atom_site_fract_x
_atom_site_fract_y
_atom_site_fract_z
Si Si1 0.279993 0.095751 0.294889
Si Si2 0.596923 0.129958 0.554295
Si Si3 0.692564 0.054622 0.154259
Si Si4 0.596637 0.206080 0.858532
Si Si5 0.975126 0.289946 0.371026
Si Si6 0.202593 0.160545 0.552736
O O1 0.508705 0.107555 0.196997
O O2 0.301108 0.946105 0.224387
O O3 0.162956 0.114025 0.467934
O O4 0.166063 0.208314 0.296803
O O5 0.576292 0.240983 0.480029
O O6 0.785766 0.185210 0.500825
O O7 0.405175 0.085268 0.735449
O O8 0.679188 0.973739 0.469217
O O9 0.710138 0.170207 0.229588
O O10 0.899231 0.064063 0.969013
O O11 0.365793 0.210525 0.958693
O O12 0.015494 0.309597 0.233906
#
# Coordination Sequence:
#
# PCOD9249194 Si02
#       6
#     4   4   4   4   4   4
#     4  10  25  49  81 112 159 215 265 326 407 469
#     4  10  24  46  74 109 158 208 261 323 407 468
#     4  10  23  46  74 111 159 207 255 325 402 468
#     4  10  22  48  81 105 157 208 259 330 396 480
#     4  12  27  44  82 117 155 212 271 330 392 485
#     4  10  25  48  73 122 157 202 269 331 396 472
#
# _framework density 27.946394999999999
#
# number of rings (size 3 to 8) (size 9 to 14) (size 15 to 20)
#    0.000    2.000    0.000    4.000    7.000    6.667 
#   12.000    3.333    0.000    0.000    0.000    0.000 
#    0.000    0.000    0.000    0.000    0.000    0.000 
#
# Total GULP energy -134371.596990 kJ/mol
# GULP energy per Si atom -5598.816541 kJ/mol
# Density = 2.788279 g / cm^3
# Si number density = 27.946395 Si / 1000 Ang^3
#
#
#
# Elastic Constant Matrix: (Units=GPa)
#
#
# Indices 1 2 3 4 5 6 
#
# 1 117.4130 84.1304 56.5023 0.0000 17.2324 0.0000
# 2 84.1304 111.4863 76.4821 0.0000 -13.3874 0.0000
# 3 56.5023 76.4821 208.2502 0.0000 15.2437 0.0000
# 4 0.0000 0.0000 0.0000 53.3460 0.0000 2.1579
# 5 17.2324 -13.3874 15.2437 0.0000 57.5900 0.0000
# 6 0.0000 0.0000 0.0000 2.1579 0.0000 53.1309
#
#
#
# Elastic Compliance Matrix: (Units=1/GPa)
#
#
# Indices 1 2 3 4 5 6 
#
# 1 0.025388 -0.022344 0.002299 0.000000 -0.013399 0.000000
# 2 -0.022344 0.032650 -0.007111 0.000000 0.016158 0.000000
# 3 0.002299 -0.007111 0.007099 0.000000 -0.004220 0.000000
# 4 0.000000 0.000000 0.000000 0.018776 0.000000 -0.000763
# 5 -0.013399 0.016158 -0.004220 0.000000 0.026247 0.000000
# 6 0.000000 0.000000 0.000000 -0.000763 0.000000 0.018852
#
#
# Mechanical properties :
#
#
# Convention : Reuss Voigt Hill
#
# Bulk Modulus (GPa) = 92.39640 96.81990 94.60815
# Shear Modulus (GPa) = 26.74748 47.48236 37.11492
#
# Velocity S-wave (km/s) = 3.09706 4.12643 3.64823
# Velocity P-wave (km/s) = 6.77664 7.57781 7.18840
#
# Compressibility (1/GPa) = 0.01082293
#
# Stress axis : x y z
#
# Youngs Moduli (GPa) = 39.38921 30.62774 140.86755
#
# Poissons Ratio (x) = 0.68435 -0.32383
# Poissons Ratio (y) = 0.88012 1.00177
# Poissons Ratio (z) = -0.09055 0.21781
#
# Static dielectric constant tensor:
#      x y z
#    x 2.169820 0.000000 -0.012980 
#    y 0.000000 2.288590 0.000000 
#    z -0.012980 0.000000 2.153090 
# 
# From -- ./inp_files/29711.got.cif
#   From: 2010.05.17/outbox.cif.g08.bks.cpg/sg14_15_cif.got.tgz:29711.got - 2010.06.03 17:49:19.
