data_PCOD9249693
_publ_section_title
;
Structure prediction by ZEFSAII (Michael W. Deem and Ramdas Pophale) SiO2 
 PCOD9249693
Probable space group: P 21/C
;
_chemical_formula_sum "Si O2"
_cell_formula_units_Z 26
_cell_length_a 9.933270
_cell_length_b 17.911455
_cell_length_c 7.288301
_cell_angle_alpha 90.000000
_cell_angle_beta 133.940531
_cell_angle_gamma 90.000000
_cell_volume 933.723622
_symmetry_space_group_name_H-M "P 21/C"
_symmetry_group_IT_number 14
_symmetry_cell_setting 'monoclinic'
loop_
_space_group_symop_operation_xyz
x,y,z
-x,1/2+y,1/2-z
-x,-y,-z
x,1/2-y,1/2+z
loop_
_atom_site_type_symbol
_atom_site_label
_atom_site_fract_x
_atom_site_fract_y
_atom_site_fract_z
Si Si1 0.123002 0.271105 0.200683
Si Si2 0.013155 0.603366 0.417132
Si Si3 0.180354 0.879216 0.703303
Si Si4 0.000000 0.500000 0.000000
Si Si5 0.491061 0.300038 0.313788
Si Si6 0.592512 0.142898 0.524326
Si Si7 0.756436 0.587002 0.486279
O O1 0.298578 0.288629 0.236042
O O2 0.173179 0.327311 0.415284
O O3 0.072954 0.186133 0.194682
O O4 0.930744 0.304955 0.942132
O O5 0.051281 0.576760 0.240197
O O6 0.872524 0.560347 0.417043
O O7 0.213048 0.615950 0.704762
O O8 0.381038 0.859554 0.960685
O O9 0.143894 0.941382 0.520976
O O10 0.187859 0.454013 0.275255
O O11 0.602321 0.220683 0.418389
O O12 0.477730 0.330468 0.096551
O O13 0.458623 0.089399 0.280446
#
# Coordination Sequence:
#
# PCOD9249693 Si02
#       7
#     4   4   4   2   4   4   4
#     4  11  21  37  64 100 133 167 210 276 345 397
#     4  11  22  38  65  99 133 168 219 283 340 393
#     4  10  23  43  64  95 134 181 223 269 329 399
#     4  10  26  48  66  90 138 190 234 268 318 408
#     4  11  22  37  64 100 136 165 213 273 342 401
#     4  11  23  37  62  99 136 165 211 272 342 396
#     4  11  24  41  65  94 135 177 222 268 330 398
#
# _framework density 27.845499
#
# number of rings (size 3 to 8) (size 9 to 14) (size 15 to 20)
#    0.000    1.231    3.077    2.769    2.154    3.077 
#    0.000   10.000    0.000    0.000    0.000    0.000 
#    0.000    0.000    0.000    0.000    0.000    0.000 
#
# Total GULP energy -145226.077548 kJ/mol
# GULP energy per Si atom -5585.618367 kJ/mol
# Density = 2.778212 g / cm^3
# Si number density = 27.845499 Si / 1000 Ang^3
#
#
#
# Elastic Constant Matrix: (Units=GPa)
#
#
# Indices 1 2 3 4 5 6 
#
# 1 134.1142 5.6047 44.7499 0.0000 -5.8225 0.0000
# 2 5.6047 80.9519 40.1333 0.0000 17.7398 0.0000
# 3 44.7499 40.1333 211.6462 0.0000 28.8179 0.0000
# 4 0.0000 0.0000 0.0000 58.3071 0.0000 -4.3839
# 5 -5.8225 17.7398 28.8179 0.0000 49.5436 0.0000
# 6 0.0000 0.0000 0.0000 -4.3839 0.0000 21.7712
#
#
#
# Elastic Compliance Matrix: (Units=1/GPa)
#
#
# Indices 1 2 3 4 5 6 
#
# 1 0.008228 -0.000038 -0.002026 0.000000 0.002159 0.000000
# 2 -0.000038 0.014278 -0.002175 0.000000 -0.003852 0.000000
# 3 -0.002026 -0.002175 0.005965 0.000000 -0.002929 0.000000
# 4 0.000000 0.000000 0.000000 0.017414 0.000000 0.003507
# 5 0.002159 -0.003852 -0.002929 0.000000 0.023521 0.000000
# 6 0.000000 0.000000 0.000000 0.003507 0.000000 0.046638
#
#
# Mechanical properties :
#
#
# Convention : Reuss Voigt Hill
#
# Bulk Modulus (GPa) = 50.02189 67.52090 58.77140
# Shear Modulus (GPa) = 38.11366 48.33935 43.22650
#
# Velocity S-wave (km/s) = 3.70368 4.17103 3.94429
# Velocity P-wave (km/s) = 6.02435 6.89186 6.47265
#
# Compressibility (1/GPa) = 0.01999125
#
# Stress axis : x y z
#
# Youngs Moduli (GPa) = 121.53861 70.03778 167.65780
#
# Poissons Ratio (x) = 0.00268 0.33975
# Poissons Ratio (y) = 0.00464 0.36464
# Poissons Ratio (z) = 0.24629 0.15233
#
# Static dielectric constant tensor:
#      x y z
#    x 2.362090 0.000000 -0.245550 
#    y 0.000000 2.508040 0.000000 
#    z -0.245550 0.000000 2.441350 
# 
# From -- ./inp_files/14241.got.cif
#   From: 2010.05.17/outbox.cif.g08.bks.cpg/sg14_8_cif.got.tgz:14241.got - 2010.06.03 17:49:19.
