data_PCOD9249863
_publ_section_title
;
Structure prediction by ZEFSAII (Michael W. Deem and Ramdas Pophale) SiO2 
 PCOD9249863
Probable space group: P 21/C
;
_chemical_formula_sum "Si O2"
_cell_formula_units_Z 28
_cell_length_a 14.284281
_cell_length_b 8.621172
_cell_length_c 9.831193
_cell_angle_alpha 90.000000
_cell_angle_beta 113.360370
_cell_angle_gamma 90.000000
_cell_volume 1111.443438
_symmetry_space_group_name_H-M "P 21/C"
_symmetry_group_IT_number 14
_symmetry_cell_setting 'monoclinic'
loop_
_space_group_symop_operation_xyz
x,y,z
-x,1/2+y,1/2-z
-x,-y,-z
x,1/2-y,1/2+z
loop_
_atom_site_type_symbol
_atom_site_label
_atom_site_fract_x
_atom_site_fract_y
_atom_site_fract_z
Si Si1 0.838063 0.252682 0.274091
Si Si2 0.648414 0.030050 0.622705
Si Si3 0.471211 0.244510 0.477532
Si Si4 0.934968 0.342220 0.085100
Si Si5 0.229993 0.088826 0.851916
Si Si6 0.136015 0.311389 0.031620
Si Si7 0.436865 0.490252 0.628169
O O1 0.751835 0.374846 0.180588
O O2 0.851176 0.246414 0.443397
O O3 0.821846 0.077669 0.212252
O O4 0.935635 0.305363 0.243927
O O5 0.562899 0.128152 0.496518
O O6 0.610906 0.016562 0.755162
O O7 0.632111 0.854493 0.562873
O O8 0.495257 0.330026 0.633330
O O9 0.487095 0.376648 0.375255
O O10 0.901711 0.522466 0.051384
O O11 0.038519 0.283854 0.074342
O O12 0.224257 0.167600 0.697953
O O13 0.173278 0.190283 0.937601
O O14 0.340157 0.035949 0.971875
#
# Coordination Sequence:
#
# PCOD9249863 Si02
#       7
#     4   4   4   4   4   4   4
#     4  11  23  41  69 101 137 182 231 290 348 423
#     4  11  23  43  66  98 134 182 230 286 359 420
#     4  10  24  43  65  94 135 180 229 288 355 428
#     4  10  23  44  67 101 139 186 231 288 355 428
#     4  11  24  42  66 103 135 183 233 293 347 424
#     4  10  24  43  68  99 142 183 233 287 358 426
#     4  11  23  42  65  99 136 177 235 290 347 423
#
# _framework density 25.192464000000001
#
# number of rings (size 3 to 8) (size 9 to 14) (size 15 to 20)
#    0.000    1.429    1.429    2.571    4.000    1.714 
#    0.000    0.000    0.000    0.000    0.000    0.000 
#    0.000    0.000    0.000    0.000    0.000    0.000 
#
# Total GULP energy -156273.666888 kJ/mol
# GULP energy per Si atom -5581.202389 kJ/mol
# Density = 2.513513 g / cm^3
# Si number density = 25.192464 Si / 1000 Ang^3
#
#
#
# Elastic Constant Matrix: (Units=GPa)
#
#
# Indices 1 2 3 4 5 6 
#
# 1 82.6586 31.5072 9.8729 0.0000 -19.2451 0.0000
# 2 31.5072 111.9714 29.9470 0.0000 -12.2938 0.0000
# 3 9.8729 29.9470 84.6536 0.0000 -19.6275 0.0000
# 4 0.0000 0.0000 0.0000 35.2761 0.0000 -9.2333
# 5 -19.2451 -12.2938 -19.6275 0.0000 48.8167 0.0000
# 6 0.0000 0.0000 0.0000 -9.2333 0.0000 43.3164
#
#
#
# Elastic Compliance Matrix: (Units=1/GPa)
#
#
# Indices 1 2 3 4 5 6 
#
# 1 0.014637 -0.003773 0.000822 0.000000 0.005151 0.000000
# 2 -0.003773 0.010900 -0.003446 0.000000 -0.000128 0.000000
# 3 0.000822 -0.003446 0.014127 0.000000 0.005136 0.000000
# 4 0.000000 0.000000 0.000000 0.030023 0.000000 0.006400
# 5 0.005151 -0.000128 0.005136 0.000000 0.024548 0.000000
# 6 0.000000 0.000000 0.000000 0.006400 0.000000 0.024450
#
#
# Mechanical properties :
#
#
# Convention : Reuss Voigt Hill
#
# Bulk Modulus (GPa) = 37.21546 46.88198 42.04872
# Shear Modulus (GPa) = 35.60357 39.34563 37.47460
#
# Velocity S-wave (km/s) = 3.76342 3.95625 3.86104
# Velocity P-wave (km/s) = 5.80422 6.28643 6.05013
#
# Compressibility (1/GPa) = 0.02687055
#
# Stress axis : x y z
#
# Youngs Moduli (GPa) = 68.31925 91.74304 70.78769
#
# Poissons Ratio (x) = 0.34614 -0.05818
# Poissons Ratio (y) = 0.25777 0.24390
# Poissons Ratio (z) = -0.05615 0.31611
#
# Static dielectric constant tensor:
#      x y z
#    x 2.053680 0.000000 0.046670 
#    y 0.000000 2.129190 0.000000 
#    z 0.046670 0.000000 2.004770 
# 
# From -- ./inp_files/31599.got.cif
#   From: 2010.05.17/outbox.cif.g08.bks.cpg/sg14_16_cif.got.tgz:31599.got - 2010.06.03 17:49:19.
