data_PCOD9249927
_publ_section_title
;
Structure prediction by ZEFSAII (Michael W. Deem and Ramdas Pophale) SiO2 
 PCOD9249927
Probable space group: P 21/C
;
_chemical_formula_sum "Si O2"
_cell_formula_units_Z 24
_cell_length_a 11.244259
_cell_length_b 8.646113
_cell_length_c 10.501335
_cell_angle_alpha 90.000000
_cell_angle_beta 120.210607
_cell_angle_gamma 90.000000
_cell_volume 882.269586
_symmetry_space_group_name_H-M "P 21/C"
_symmetry_group_IT_number 14
_symmetry_cell_setting 'monoclinic'
loop_
_space_group_symop_operation_xyz
x,y,z
-x,1/2+y,1/2-z
-x,-y,-z
x,1/2-y,1/2+z
loop_
_atom_site_type_symbol
_atom_site_label
_atom_site_fract_x
_atom_site_fract_y
_atom_site_fract_z
Si Si1 0.770463 0.174555 0.444489
Si Si2 0.016079 0.757211 0.121383
Si Si3 0.739991 0.490974 0.177412
Si Si4 0.848967 0.472401 0.633770
Si Si5 0.485302 0.782646 0.337803
Si Si6 0.659515 0.682424 0.676779
O O1 0.927298 0.175171 0.475312
O O2 0.746524 0.036712 0.530242
O O3 0.763748 0.340810 0.514674
O O4 0.640637 0.179838 0.281705
O O5 0.144761 0.874856 0.210122
O O6 0.026752 0.626322 0.236043
O O7 0.893394 0.879510 0.072800
O O8 0.593548 0.432869 0.151665
O O9 0.753195 0.664582 0.227341
O O10 0.760870 0.543303 0.700025
O O11 0.563002 0.704581 0.499040
O O12 0.577778 0.817654 0.264497
#
# Coordination Sequence:
#
# PCOD9249927 Si02
#       6
#     4   4   4   4   4   4
#     4  10  23  44  71 104 140 194 233 305 354 429
#     4  10  23  46  72 100 144 183 248 300 361 423
#     4  10  23  45  68 102 146 188 239 295 362 419
#     4  11  25  46  70 107 140 192 243 301 360 429
#     4  11  25  43  70 106 150 186 241 290 356 431
#     4  12  27  42  73 107 147 194 237 296 360 430
#
# _framework density 27.202570000000001
#
# number of rings (size 3 to 8) (size 9 to 14) (size 15 to 20)
#    0.000    1.333    1.667    2.000    7.000    3.333 
#    6.000    4.167    0.000    0.000    0.000    0.000 
#    0.000    0.000    0.000    0.000    0.000    0.000 
#
# Total GULP energy -134455.309921 kJ/mol
# GULP energy per Si atom -5602.304580 kJ/mol
# Density = 2.714066 g / cm^3
# Si number density = 27.202570 Si / 1000 Ang^3
#
#
#
# Elastic Constant Matrix: (Units=GPa)
#
#
# Indices 1 2 3 4 5 6 
#
# 1 165.7735 56.2996 43.2736 0.0000 -35.5109 0.0000
# 2 56.2996 126.0819 34.0834 0.0000 -7.3239 0.0000
# 3 43.2736 34.0834 106.5561 0.0000 -14.0443 0.0000
# 4 0.0000 0.0000 0.0000 30.1696 0.0000 -1.3648
# 5 -35.5109 -7.3239 -14.0443 0.0000 45.7324 0.0000
# 6 0.0000 0.0000 0.0000 -1.3648 0.0000 18.3425
#
#
#
# Elastic Compliance Matrix: (Units=1/GPa)
#
#
# Indices 1 2 3 4 5 6 
#
# 1 0.008798 -0.003101 -0.001820 0.000000 0.005776 0.000000
# 2 -0.003101 0.009789 -0.002066 0.000000 -0.001475 0.000000
# 3 -0.001820 -0.002066 0.011000 0.000000 0.001634 0.000000
# 4 0.000000 0.000000 0.000000 0.033258 0.000000 0.002475
# 5 0.005776 -0.001475 0.001634 0.000000 0.026617 0.000000
# 6 0.000000 0.000000 0.000000 0.002475 0.000000 0.054702
#
#
# Mechanical properties :
#
#
# Convention : Reuss Voigt Hill
#
# Bulk Modulus (GPa) = 64.04928 73.96942 69.00935
# Shear Modulus (GPa) = 30.61059 36.49923 33.55491
#
# Velocity S-wave (km/s) = 3.35816 3.66697 3.51596
# Velocity P-wave (km/s) = 6.21553 6.72161 6.47351
#
# Compressibility (1/GPa) = 0.01561298
#
# Stress axis : x y z
#
# Youngs Moduli (GPa) = 113.66457 102.15610 90.90921
#
# Poissons Ratio (x) = 0.31679 0.16543
# Poissons Ratio (y) = 0.35248 0.18783
# Poissons Ratio (z) = 0.20683 0.21107
#
# Static dielectric constant tensor:
#      x y z
#    x 2.141240 0.000000 -0.047330 
#    y 0.000000 2.088020 0.000000 
#    z -0.047330 0.000000 2.197260 
# 
# From -- ./inp_files/28183.got.cif
#   From: 2010.05.17/outbox.cif.g08.bks.cpg/sg14_15_cif.got.tgz:28183.got - 2010.06.03 17:49:19.
