data_PCOD9249327
_publ_section_title
;
Structure prediction by ZEFSAII (Michael W. Deem and Ramdas Pophale) SiO2 
 PCOD9249327
Probable space group: P 21/C
;
_chemical_formula_sum "Si O2"
_cell_formula_units_Z 30
_cell_length_a 9.512285
_cell_length_b 15.569672
_cell_length_c 8.060532
_cell_angle_alpha 90.000000
_cell_angle_beta 100.422876
_cell_angle_gamma 90.000000
_cell_volume 1174.091887
_symmetry_space_group_name_H-M "P 21/C"
_symmetry_group_IT_number 14
_symmetry_cell_setting 'monoclinic'
loop_
_space_group_symop_operation_xyz
x,y,z
-x,1/2+y,1/2-z
-x,-y,-z
x,1/2-y,1/2+z
loop_
_atom_site_type_symbol
_atom_site_label
_atom_site_fract_x
_atom_site_fract_y
_atom_site_fract_z
Si Si1 0.814609 0.380455 0.729441
Si Si2 0.501873 0.460082 0.683261
Si Si3 0.448381 0.640776 0.823048
Si Si4 0.974702 0.542474 0.811993
Si Si5 0.221329 0.139250 0.162129
Si Si6 0.781148 0.672747 0.951094
Si Si7 0.000000 0.000000 0.000000
Si Si8 0.733899 0.261705 0.959849
O O1 0.662648 0.424788 0.734947
O O2 0.913629 0.458531 0.691199
O O3 0.805343 0.307081 0.593101
O O4 0.850199 0.323924 0.898083
O O5 0.500000 0.500000 0.500000
O O6 0.451821 0.538944 0.788447
O O7 0.388167 0.383985 0.675276
O O8 0.371225 0.702192 0.672218
O O9 0.365741 0.670525 0.967549
O O10 0.613602 0.664103 0.877390
O O11 0.078508 0.566097 0.685776
O O12 0.862404 0.613935 0.835870
O O13 0.000000 0.500000 0.000000
O O14 0.191496 0.143452 0.353650
O O15 0.182628 0.229158 0.072282
O O16 0.131286 0.067753 0.050216
#
# Coordination Sequence:
#
# PCOD9249327 Si02
#       8
#     4   4   4   4   4   4   2   4
#     4  11  23  46  69 105 147 189 239 304 366 446
#     4  12  24  39  71 110 147 192 237 305 381 440
#     4  11  22  39  68 107 154 187 236 299 364 449
#     4  12  27  53  75 107 148 195 257 314 377 445
#     4  12  28  47  78 110 150 200 257 315 383 451
#     4  12  25  48  77 110 145 205 258 313 370 463
#     4  12  28  52  76 106 150 196 250 324 374 448
#     4  10  23  40  65 107 148 189 233 291 376 442
#
# _framework density 25.551662
#
# number of rings (size 3 to 8) (size 9 to 14) (size 15 to 20)
#    0.000    0.533    4.000    4.800    3.733    1.067 
#    4.800    0.000    0.000    0.000    0.000    0.000 
#    0.000    0.000    0.000    0.000    0.000    0.000 
#
# Total GULP energy -167607.882981 kJ/mol
# GULP energy per Si atom -5586.929433 kJ/mol
# Density = 2.549351 g / cm^3
# Si number density = 25.551662 Si / 1000 Ang^3
#
#
#
# Elastic Constant Matrix: (Units=GPa)
#
#
# Indices 1 2 3 4 5 6 
#
# 1 78.6215 37.5306 11.8970 0.0000 -10.6512 0.0000
# 2 37.5306 119.0666 9.1513 0.0000 -16.5534 0.0000
# 3 11.8970 9.1513 72.1394 0.0000 -30.5665 0.0000
# 4 0.0000 0.0000 0.0000 14.5694 0.0000 -14.8801
# 5 -10.6512 -16.5534 -30.5665 0.0000 32.5395 0.0000
# 6 0.0000 0.0000 0.0000 -14.8801 0.0000 36.2582
#
#
#
# Elastic Compliance Matrix: (Units=1/GPa)
#
#
# Indices 1 2 3 4 5 6 
#
# 1 0.015270 -0.004509 -0.001329 0.000000 0.001456 0.000000
# 2 -0.004509 0.010447 0.001736 0.000000 0.005469 0.000000
# 3 -0.001329 0.001736 0.023341 0.000000 0.022374 0.000000
# 4 0.000000 0.000000 0.000000 0.118165 0.000000 0.048494
# 5 0.001456 0.005469 0.022374 0.000000 0.055008 0.000000
# 6 0.000000 0.000000 0.000000 0.048494 0.000000 0.047481
#
#
# Mechanical properties :
#
#
# Convention : Reuss Voigt Hill
#
# Bulk Modulus (GPa) = 24.47804 42.99838 33.73821
# Shear Modulus (GPa) = 17.15064 30.75666 23.95365
#
# Velocity S-wave (km/s) = 2.59359 3.47321 3.06512
# Velocity P-wave (km/s) = 4.30924 5.74010 5.07535
#
# Compressibility (1/GPa) = 0.04085294
#
# Stress axis : x y z
#
# Youngs Moduli (GPa) = 65.48897 95.72380 42.84269
#
# Poissons Ratio (x) = 0.43157 0.05696
# Poissons Ratio (y) = 0.29526 -0.07436
# Poissons Ratio (z) = 0.08706 -0.16614
#
# Static dielectric constant tensor:
#      x y z
#    x 2.468870 0.000000 -0.373790 
#    y 0.000000 2.215200 0.000000 
#    z -0.373790 0.000000 2.700260 
# 
# From -- ./inp_files/13166.got.cif
#   From: 2010.05.17/outbox.cif.g08.bks.cpg/sg14_7_cif.got.tgz:13166.got - 2010.06.03 17:49:19.
