data_PCOD9249501
_publ_section_title
;
Structure prediction by ZEFSAII (Michael W. Deem and Ramdas Pophale) SiO2 
 PCOD9249501
Probable space group: P 21/C
;
_chemical_formula_sum "Si O2"
_cell_formula_units_Z 26
_cell_length_a 15.101049
_cell_length_b 7.845708
_cell_length_c 9.477224
_cell_angle_alpha 90.000000
_cell_angle_beta 97.516922
_cell_angle_gamma 90.000000
_cell_volume 1113.197092
_symmetry_space_group_name_H-M "P 21/C"
_symmetry_group_IT_number 14
_symmetry_cell_setting 'monoclinic'
loop_
_space_group_symop_operation_xyz
x,y,z
-x,1/2+y,1/2-z
-x,-y,-z
x,1/2-y,1/2+z
loop_
_atom_site_type_symbol
_atom_site_label
_atom_site_fract_x
_atom_site_fract_y
_atom_site_fract_z
Si Si1 0.129148 0.564615 0.292074
Si Si2 0.160311 0.558933 0.851463
Si Si3 0.219827 0.402886 0.567809
Si Si4 0.278733 0.491403 0.117405
Si Si5 0.419771 0.035263 0.090865
Si Si6 0.000000 0.000000 0.500000
Si Si7 0.528349 0.576840 0.858094
O O1 0.113468 0.754877 0.347499
O O2 0.151556 0.437785 0.425158
O O3 0.218462 0.585101 0.218199
O O4 0.054978 0.508986 0.164957
O O5 0.178558 0.488394 0.699693
O O6 0.092737 0.452001 0.934614
O O7 0.253097 0.559057 0.956972
O O8 0.247290 0.208116 0.610253
O O9 0.314913 0.486653 0.539580
O O10 0.381968 0.517721 0.173951
O O11 0.436007 0.233510 0.123022
O O12 0.446616 0.934484 0.235823
O O13 0.500000 0.000000 0.000000
O O14 0.500000 0.500000 0.000000
#
# Coordination Sequence:
#
# PCOD9249501 Si02
#       7
#     4   4   4   4   4   2   4
#     4  11  24  43  68  95 125 163 210 262 314 382
#     4  11  24  43  68  96 125 163 213 259 312 380
#     4  11  23  41  66  93 127 172 212 257 320 377
#     4  10  23  42  62  92 131 169 211 260 318 373
#     4  11  24  39  60  94 130 169 218 263 310 369
#     4  10  26  44  62  94 128 152 196 260 320 374
#     4  11  23  39  61  90 129 173 215 262 313 369
#
# _framework density 23.356152000000002
#
# number of rings (size 3 to 8) (size 9 to 14) (size 15 to 20)
#    0.000    1.231    0.000    5.538    0.000   17.846 
#    0.000    0.000    0.000    0.000    0.000    0.000 
#    0.000    0.000    0.000    0.000    0.000    0.000 
#
# Total GULP energy -144751.051770 kJ/mol
# GULP energy per Si atom -5567.348145 kJ/mol
# Density = 2.330299 g / cm^3
# Si number density = 23.356152 Si / 1000 Ang^3
#
#
#
# Elastic Constant Matrix: (Units=GPa)
#
#
# Indices 1 2 3 4 5 6 
#
# 1 84.3748 3.9126 -3.6480 0.0000 10.7248 0.0000
# 2 3.9126 60.7598 13.5072 0.0000 10.5248 0.0000
# 3 -3.6480 13.5072 105.1070 0.0000 16.4692 0.0000
# 4 0.0000 0.0000 0.0000 8.3902 0.0000 11.4599
# 5 10.7248 10.5248 16.4692 0.0000 43.1855 0.0000
# 6 0.0000 0.0000 0.0000 11.4599 0.0000 6.6449
#
#
#
# Elastic Compliance Matrix: (Units=1/GPa)
#
#
# Indices 1 2 3 4 5 6 
#
# 1 0.012341 -0.000440 0.001009 0.000000 -0.003342 0.000000
# 2 -0.000440 0.017473 -0.001713 0.000000 -0.003496 0.000000
# 3 0.001009 -0.001713 0.010362 0.000000 -0.003785 0.000000
# 4 0.000000 0.000000 0.000000 -0.087921 0.000000 0.151631
# 5 -0.003342 -0.003496 -0.003785 0.000000 0.026281 0.000000
# 6 0.000000 0.000000 0.000000 0.151631 0.000000 -0.111014
#
#
# Mechanical properties :
#
#
# Convention : Reuss Voigt Hill
#
# Bulk Modulus (GPa) = 26.39415 30.86503 28.62959
# Shear Modulus (GPa) = -42.53149 27.40876 -7.56136
#
# Velocity S-wave (km/s) = -4.27194 3.42937 -1.80123
# Velocity P-wave (km/s) = 3.60658 5.37815 2.82108
#
# Compressibility (1/GPa) = 0.03788718
#
# Stress axis : x y z
#
# Youngs Moduli (GPa) = 81.03267 57.23144 96.50381
#
# Poissons Ratio (x) = 0.02518 -0.09733
# Poissons Ratio (y) = 0.03565 0.16530
# Poissons Ratio (z) = -0.08172 0.09803
#
# Static dielectric constant tensor:
#      x y z
#    x 1.991450 0.000000 -0.071020 
#    y 0.000000 1.919110 0.000000 
#    z -0.071020 0.000000 1.920030 
# 
# From -- ./inp_files/17607.got.cif
#   From: 2010.05.17/outbox.cif.g08.bks.cpg/sg14_9_cif.got.tgz:17607.got - 2010.06.03 17:49:19.
