data_PCOD9249844
_publ_section_title
;
Structure prediction by ZEFSAII (Michael W. Deem and Ramdas Pophale) SiO2 
 PCOD9249844
Probable space group: P 21/C
;
_chemical_formula_sum "Si O2"
_cell_formula_units_Z 32
_cell_length_a 11.399183
_cell_length_b 14.996986
_cell_length_c 7.984077
_cell_angle_alpha 90.000000
_cell_angle_beta 87.902060
_cell_angle_gamma 90.000000
_cell_volume 1363.990131
_symmetry_space_group_name_H-M "P 21/C"
_symmetry_group_IT_number 14
_symmetry_cell_setting 'monoclinic'
loop_
_space_group_symop_operation_xyz
x,y,z
-x,1/2+y,1/2-z
-x,-y,-z
x,1/2-y,1/2+z
loop_
_atom_site_type_symbol
_atom_site_label
_atom_site_fract_x
_atom_site_fract_y
_atom_site_fract_z
Si Si1 0.279928 0.450947 0.109359
Si Si2 0.338935 0.333667 0.432448
Si Si3 0.426195 0.606703 0.703872
Si Si4 0.030394 0.708110 0.330682
Si Si5 0.423464 0.093111 0.261712
Si Si6 0.195317 0.678994 0.595429
Si Si7 0.357470 0.647950 0.079960
Si Si8 0.858175 0.818012 0.566457
O O1 0.367764 0.426736 0.948085
O O2 0.164804 0.404477 0.043094
O O3 0.303056 0.401249 0.284395
O O4 0.286321 0.556790 0.119163
O O5 0.480080 0.331837 0.396157
O O6 0.335853 0.368047 0.625065
O O7 0.260708 0.244193 0.412129
O O8 0.465003 0.504056 0.696998
O O9 0.293137 0.609079 0.644097
O O10 0.417203 0.637526 0.895625
O O11 0.128253 0.654959 0.429054
O O12 0.099711 0.789234 0.236044
O O13 0.944492 0.752446 0.466780
O O14 0.938467 0.656539 0.219735
O O15 0.540107 0.150513 0.286991
O O16 0.271967 0.769029 0.572781
#
# Coordination Sequence:
#
# PCOD9249844 Si02
#       8
#     4   4   4   4   4   4   4   4
#     4  11  23  43  66  97 138 175 221 275 336 398
#     4  12  24  39  70 103 132 177 219 273 344 405
#     4  11  23  43  65 102 140 172 220 271 343 419
#     4  10  23  44  65  90 132 172 232 284 325 378
#     4  11  24  41  65  98 150 175 203 280 342 409
#     4  11  24  41  70  96 128 184 224 273 335 415
#     4  11  23  44  65  98 143 183 212 275 348 405
#     4  11  23  44  70  93 130 177 231 288 328 390
#
# _framework density 23.46058
#
# number of rings (size 3 to 8) (size 9 to 14) (size 15 to 20)
#    0.000    1.000    5.000    1.875    3.500    0.000 
#    0.000    2.500    5.500    3.750    0.000    0.000 
#    0.000    0.000    0.000    0.000    0.000    0.000 
#
# Total GULP energy -178672.417228 kJ/mol
# GULP energy per Si atom -5583.513038 kJ/mol
# Density = 2.340718 g / cm^3
# Si number density = 23.460580 Si / 1000 Ang^3
#
#
#
# Elastic Constant Matrix: (Units=GPa)
#
#
# Indices 1 2 3 4 5 6 
#
# 1 101.4310 4.9454 35.9989 0.0000 30.8982 0.0000
# 2 4.9454 65.3646 8.2011 0.0000 7.9682 0.0000
# 3 35.9989 8.2011 110.6447 0.0000 28.4269 0.0000
# 4 0.0000 0.0000 0.0000 12.7969 0.0000 8.3626
# 5 30.8982 7.9682 28.4269 0.0000 54.5931 0.0000
# 6 0.0000 0.0000 0.0000 8.3626 0.0000 17.9892
#
#
#
# Elastic Compliance Matrix: (Units=1/GPa)
#
#
# Indices 1 2 3 4 5 6 
#
# 1 0.012531 0.000079 -0.002606 0.000000 -0.005746 0.000000
# 2 0.000079 0.015618 -0.000677 0.000000 -0.001972 0.000000
# 3 -0.002606 -0.000677 0.011004 0.000000 -0.004156 0.000000
# 4 0.000000 0.000000 0.000000 0.112241 0.000000 -0.052178
# 5 -0.005746 -0.001972 -0.004156 0.000000 0.024021 0.000000
# 6 0.000000 0.000000 0.000000 -0.052178 0.000000 0.079845
#
#
# Mechanical properties :
#
#
# Convention : Reuss Voigt Hill
#
# Bulk Modulus (GPa) = 30.53902 41.74791 36.14346
# Shear Modulus (GPa) = 18.34306 32.29548 25.31927
#
# Velocity S-wave (km/s) = 2.79922 3.71426 3.28872
# Velocity P-wave (km/s) = 4.84695 6.01896 5.46447
#
# Compressibility (1/GPa) = 0.03274500
#
# Stress axis : x y z
#
# Youngs Moduli (GPa) = 79.80480 64.02817 90.87740
#
# Poissons Ratio (x) = -0.00509 0.23687
# Poissons Ratio (y) = -0.00634 0.06151
# Poissons Ratio (z) = 0.20801 0.04334
#
# Static dielectric constant tensor:
#      x y z
#    x 1.978140 0.000000 0.024270 
#    y 0.000000 1.872240 0.000000 
#    z 0.024270 0.000000 1.999030 
# 
# From -- ./inp_files/13317.got.cif
#   From: 2010.05.17/outbox.cif.g08.bks.cpg/sg14_7_cif.got.tgz:13317.got - 2010.06.03 17:49:19.
