data_PCOD9249239
_publ_section_title
;
Structure prediction by ZEFSAII (Michael W. Deem and Ramdas Pophale) SiO2 
 PCOD9249239
Probable space group: P 21/C
;
_chemical_formula_sum "Si O2"
_cell_formula_units_Z 28
_cell_length_a 13.390619
_cell_length_b 9.875995
_cell_length_c 14.650370
_cell_angle_alpha 90.000000
_cell_angle_beta 47.164210
_cell_angle_gamma 90.000000
_cell_volume 1420.741071
_symmetry_space_group_name_H-M "P 21/C"
_symmetry_group_IT_number 14
_symmetry_cell_setting 'monoclinic'
loop_
_space_group_symop_operation_xyz
x,y,z
-x,1/2+y,1/2-z
-x,-y,-z
x,1/2-y,1/2+z
loop_
_atom_site_type_symbol
_atom_site_label
_atom_site_fract_x
_atom_site_fract_y
_atom_site_fract_z
Si Si1 0.896922 0.852452 0.834037
Si Si2 0.158664 0.139684 0.467403
Si Si3 0.926927 0.339589 0.955125
Si Si4 0.581833 0.548822 0.672661
Si Si5 0.443997 0.225310 0.195394
Si Si6 0.591378 0.872505 0.972683
Si Si7 0.885039 0.461020 0.498552
O O1 0.753562 0.893441 0.876204
O O2 0.000152 0.826328 0.688337
O O3 0.873612 0.728985 0.921253
O O4 0.939545 0.980833 0.868706
O O5 0.297755 0.186496 0.331656
O O6 0.039084 0.156658 0.466700
O O7 0.157209 0.979024 0.489847
O O8 0.853339 0.197480 0.016844
O O9 0.509221 0.629220 0.797774
O O10 0.534643 0.401092 0.671539
O O11 0.559108 0.646947 0.598960
O O12 0.740465 0.534852 0.600476
O O13 0.434888 0.231501 0.091774
O O14 0.500000 0.000000 0.000000
O O15 0.000000 0.500000 0.500000
#
# Coordination Sequence:
#
# PCOD9249239 Si02
#       7
#     4   4   4   4   4   4   4
#     4  11  20  39  62  88 117 164 197 246 312 350
#     4  11  22  38  61  90 121 160 201 250 300 360
#     4  11  23  37  60  90 123 158 202 248 302 361
#     4  10  23  38  64  89 115 163 195 241 305 356
#     4  11  20  41  63  85 119 157 199 248 296 350
#     4   9  19  36  61  84 116 156 198 237 296 361
#     4  11  21  40  60  87 124 154 200 246 299 365
#
# _framework density 19.708024999999999
#
# number of rings (size 3 to 8) (size 9 to 14) (size 15 to 20)
#    0.000    1.429    5.714    0.857    2.000    0.000 
#    0.000    0.714    3.143    0.000    0.000    0.000 
#    0.000    0.000    0.000    0.000    0.000    0.000 
#
# Total GULP energy -155956.421247 kJ/mol
# GULP energy per Si atom -5569.872187 kJ/mol
# Density = 1.966317 g / cm^3
# Si number density = 19.708025 Si / 1000 Ang^3
#
#
#
# Elastic Constant Matrix: (Units=GPa)
#
#
# Indices 1 2 3 4 5 6 
#
# 1 103.0050 31.1186 17.6821 0.0000 19.0076 0.0000
# 2 31.1186 110.5783 12.0747 0.0000 8.4152 0.0000
# 3 17.6821 12.0747 34.7132 0.0000 10.1710 0.0000
# 4 0.0000 0.0000 0.0000 31.7462 0.0000 5.7841
# 5 19.0076 8.4152 10.1710 0.0000 26.9485 0.0000
# 6 0.0000 0.0000 0.0000 5.7841 0.0000 21.2999
#
#
#
# Elastic Compliance Matrix: (Units=1/GPa)
#
#
# Indices 1 2 3 4 5 6 
#
# 1 0.012290 -0.002584 -0.003438 0.000000 -0.006564 0.000000
# 2 -0.002584 0.010032 -0.002012 0.000000 -0.000551 0.000000
# 3 -0.003438 -0.002012 0.034140 0.000000 -0.009832 0.000000
# 4 0.000000 0.000000 0.000000 0.033139 0.000000 -0.008999
# 5 -0.006564 -0.000551 -0.009832 0.000000 0.045621 0.000000
# 6 0.000000 0.000000 0.000000 -0.008999 0.000000 0.049392
#
#
# Mechanical properties :
#
#
# Convention : Reuss Voigt Hill
#
# Bulk Modulus (GPa) = 24.75637 41.11637 32.93637
# Shear Modulus (GPa) = 23.34842 28.49366 25.92104
#
# Velocity S-wave (km/s) = 3.44570 3.80648 3.63058
# Velocity P-wave (km/s) = 5.33098 6.34248 5.85860
#
# Compressibility (1/GPa) = 0.04039364
#
# Stress axis : x y z
#
# Youngs Moduli (GPa) = 81.36452 99.67995 29.29157
#
# Poissons Ratio (x) = 0.25754 0.10072
# Poissons Ratio (y) = 0.21022 0.05894
# Poissons Ratio (z) = 0.27976 0.20056
#
# Static dielectric constant tensor:
#      x y z
#    x 1.500640 0.000000 -0.107700 
#    y 0.000000 1.735800 0.000000 
#    z -0.107700 0.000000 1.636210 
# 
# From -- ./inp_files/43631.got.cif
#   From: 2010.05.17/outbox.cif.g08.bks.cpg/sg14_22_cif.got.tgz:43631.got - 2010.06.03 17:49:19.
