data_PCOD9249139
_publ_section_title
;
Structure prediction by ZEFSAII (Michael W. Deem and Ramdas Pophale) SiO2 
 PCOD9249139
Probable space group: P 21/C
;
_chemical_formula_sum "Si O2"
_cell_formula_units_Z 24
_cell_length_a 19.725711
_cell_length_b 5.392274
_cell_length_c 10.769044
_cell_angle_alpha 90.000000
_cell_angle_beta 57.074597
_cell_angle_gamma 90.000000
_cell_volume 961.479097
_symmetry_space_group_name_H-M "P 21/C"
_symmetry_group_IT_number 14
_symmetry_cell_setting 'monoclinic'
loop_
_space_group_symop_operation_xyz
x,y,z
-x,1/2+y,1/2-z
-x,-y,-z
x,1/2-y,1/2+z
loop_
_atom_site_type_symbol
_atom_site_label
_atom_site_fract_x
_atom_site_fract_y
_atom_site_fract_z
Si Si1 0.892639 0.220252 0.895534
Si Si2 0.601540 0.175129 0.590522
Si Si3 0.198763 0.408731 0.346934
Si Si4 0.541945 0.662407 0.566069
Si Si5 0.239006 0.081045 0.533895
Si Si6 0.944136 0.655529 0.146794
O O1 0.851679 0.464190 0.880417
O O2 0.985959 0.213189 0.842192
O O3 0.889544 0.011003 0.792346
O O4 0.832755 0.172122 0.071389
O O5 0.609425 0.459278 0.537484
O O6 0.527913 0.181584 0.760774
O O7 0.685627 0.097743 0.568327
O O8 0.575485 0.945559 0.523173
O O9 0.248883 0.377521 0.171834
O O10 0.113269 0.291942 0.392539
O O11 0.239683 0.282713 0.424912
O O12 0.500000 0.500000 0.500000
O O13 0.000000 0.500000 0.000000
#
# Coordination Sequence:
#
# PCOD9249139 Si02
#       6
#     4   4   4   4   4   4
#     4  12  25  45  69 100 139 185 246 302 369 430
#     4  10  25  43  72 109 142 188 241 291 363 436
#     4  12  26  47  67 100 144 182 248 295 372 432
#     4  10  22  46  74 105 144 187 240 288 359 437
#     4  12  28  45  71 106 144 191 234 306 367 437
#     4  12  22  43  68  94 133 189 240 297 356 438
#
# _framework density 24.961542000000001
#
# number of rings (size 3 to 8) (size 9 to 14) (size 15 to 20)
#    0.000    0.667    3.333    4.000    4.667    1.333 
#    0.000    0.000    0.000    0.000    0.000    0.000 
#    0.000    0.000    0.000    0.000    0.000    0.000 
#
# Total GULP energy -133891.808251 kJ/mol
# GULP energy per Si atom -5578.825344 kJ/mol
# Density = 2.490473 g / cm^3
# Si number density = 24.961542 Si / 1000 Ang^3
#
#
#
# Elastic Constant Matrix: (Units=GPa)
#
#
# Indices 1 2 3 4 5 6 
#
# 1 80.8582 -9.8518 25.3219 0.0000 -16.4308 0.0000
# 2 -9.8518 51.0026 28.0549 0.0000 2.9896 0.0000
# 3 25.3219 28.0549 81.9261 0.0000 21.8679 0.0000
# 4 0.0000 0.0000 0.0000 28.9012 0.0000 -0.8191
# 5 -16.4308 2.9896 21.8679 0.0000 43.0400 0.0000
# 6 0.0000 0.0000 0.0000 -0.8191 0.0000 42.2529
#
#
#
# Elastic Compliance Matrix: (Units=1/GPa)
#
#
# Indices 1 2 3 4 5 6 
#
# 1 0.021078 0.011004 -0.014146 0.000000 0.014470 0.000000
# 2 0.011004 0.030224 -0.016558 0.000000 0.010514 0.000000
# 3 -0.014146 -0.016558 0.027051 0.000000 -0.017994 0.000000
# 4 0.000000 0.000000 0.000000 0.034620 0.000000 0.000671
# 5 0.014470 0.010514 -0.017994 0.000000 0.037170 0.000000
# 6 0.000000 0.000000 0.000000 0.000671 0.000000 0.023680
#
#
# Mechanical properties :
#
#
# Convention : Reuss Voigt Hill
#
# Bulk Modulus (GPa) = 25.66997 33.42631 29.54814
# Shear Modulus (GPa) = 22.10363 34.18961 28.14662
#
# Velocity S-wave (km/s) = 2.97898 3.70495 3.36162
# Velocity P-wave (km/s) = 4.70516 5.63226 5.18946
#
# Compressibility (1/GPa) = 0.03895603
#
# Stress axis : x y z
#
# Youngs Moduli (GPa) = 47.44218 33.08615 36.96655
#
# Poissons Ratio (x) = -0.36409 0.52291
# Poissons Ratio (y) = -0.52207 0.61209
# Poissons Ratio (z) = 0.67110 0.54783
#
# Static dielectric constant tensor:
#      x y z
#    x 2.247520 0.000000 0.103860 
#    y 0.000000 1.925360 0.000000 
#    z 0.103860 0.000000 1.998550 
# 
# From -- ./inp_files/34551.got.cif
#   From: 2010.05.17/outbox.cif.g08.bks.cpg/sg14_18_cif.got.tgz:34551.got - 2010.06.03 17:49:19.
