data_PCOD9249876
_publ_section_title
;
Structure prediction by ZEFSAII (Michael W. Deem and Ramdas Pophale) SiO2 
 PCOD9249876
Probable space group: P 21/C
;
_chemical_formula_sum "Si O2"
_cell_formula_units_Z 20
_cell_length_a 10.200273
_cell_length_b 5.119941
_cell_length_c 23.198564
_cell_angle_alpha 90.000000
_cell_angle_beta 37.453399
_cell_angle_gamma 90.000000
_cell_volume 736.756976
_symmetry_space_group_name_H-M "P 21/C"
_symmetry_group_IT_number 14
_symmetry_cell_setting 'monoclinic'
loop_
_space_group_symop_operation_xyz
x,y,z
-x,1/2+y,1/2-z
-x,-y,-z
x,1/2-y,1/2+z
loop_
_atom_site_type_symbol
_atom_site_label
_atom_site_fract_x
_atom_site_fract_y
_atom_site_fract_z
Si Si1 0.813532 0.214151 0.600113
Si Si2 0.122686 0.439764 0.180513
Si Si3 0.179697 0.150907 0.044718
Si Si4 0.501897 0.705462 0.387986
Si Si5 0.204074 0.299159 0.321315
O O1 0.710765 0.211501 0.573195
O O2 0.703177 0.439239 0.679276
O O3 0.063648 0.286514 0.524092
O O4 0.795544 0.933115 0.634197
O O5 0.137372 0.371020 0.107210
O O6 0.369062 0.397542 0.115724
O O7 0.024036 0.706033 0.240334
O O8 0.027562 0.909747 0.117704
O O9 0.419515 0.047753 0.950886
O O10 0.669604 0.685202 0.277091
#
# Coordination Sequence:
#
# PCOD9249876 Si02
#       5
#     4   4   4   4   4
#     4  10  23  45  67 102 139 176 227 285 341 410
#     4  12  26  49  69  99 141 186 229 288 343 412
#     4  10  25  46  68 106 136 178 232 285 341 414
#     4  12  23  45  73 102 134 188 226 285 347 404
#     4  10  23  44  67  99 144 174 224 281 345 403
#
# _framework density 27.145994000000002
#
# number of rings (size 3 to 8) (size 9 to 14) (size 15 to 20)
#    1.200    0.000    2.000    3.600    0.000    2.400 
#    7.200    2.000    0.000    0.000    0.000    0.000 
#    0.000    0.000    0.000    0.000    0.000    0.000 
#
# Total GULP energy -111792.452856 kJ/mol
# GULP energy per Si atom -5589.622643 kJ/mol
# Density = 2.708421 g / cm^3
# Si number density = 27.145994 Si / 1000 Ang^3
#
#
#
# Elastic Constant Matrix: (Units=GPa)
#
#
# Indices 1 2 3 4 5 6 
#
# 1 133.3548 12.7960 13.9810 0.0000 17.5204 0.0000
# 2 12.7960 123.6229 29.3994 0.0000 -7.7038 0.0000
# 3 13.9810 29.3994 123.1927 0.0000 -6.7985 0.0000
# 4 0.0000 0.0000 0.0000 18.0515 0.0000 14.3609
# 5 17.5204 -7.7038 -6.7985 0.0000 35.9147 0.0000
# 6 0.0000 0.0000 0.0000 14.3609 0.0000 8.1540
#
#
#
# Elastic Compliance Matrix: (Units=1/GPa)
#
#
# Indices 1 2 3 4 5 6 
#
# 1 0.008266 -0.000900 -0.000966 0.000000 -0.004408 0.000000
# 2 -0.000900 0.008751 -0.001878 0.000000 0.001961 0.000000
# 3 -0.000966 -0.001878 0.008771 0.000000 0.001729 0.000000
# 4 0.000000 0.000000 0.000000 -0.138104 0.000000 0.243230
# 5 -0.004408 0.001961 0.001729 0.000000 0.030742 0.000000
# 6 0.000000 0.000000 0.000000 0.243230 0.000000 -0.305739
#
#
# Mechanical properties :
#
#
# Convention : Reuss Voigt Hill
#
# Bulk Modulus (GPa) = 54.65188 54.72481 54.68835
# Shear Modulus (GPa) = -13.37883 34.02365 10.32241
#
# Velocity S-wave (km/s) = -2.22242 3.54412 1.95213
# Velocity P-wave (km/s) = 3.68656 6.07873 5.02701
#
# Compressibility (1/GPa) = 0.01829763
#
# Stress axis : x y z
#
# Youngs Moduli (GPa) = 120.98188 114.27090 114.01682
#
# Poissons Ratio (x) = 0.10289 0.11019
# Poissons Ratio (y) = 0.10894 0.21413
# Poissons Ratio (z) = 0.11692 0.21460
#
# Static dielectric constant tensor:
#      x y z
#    x 2.186430 0.000000 -0.059790 
#    y 0.000000 2.167410 0.000000 
#    z -0.059790 0.000000 2.171300 
# 
# From -- ./inp_files/72592.got.cif
#   From: 2010.05.17/outbox.cif.g08.bks.cpg/sg14_37_cif.got.tgz:72592.got - 2010.06.03 17:49:19.
