data_PCOD9249699
_publ_section_title
;
Structure prediction by ZEFSAII (Michael W. Deem and Ramdas Pophale) SiO2 
 PCOD9249699
Probable space group: P 21/C
;
_chemical_formula_sum "Si O2"
_cell_formula_units_Z 28
_cell_length_a 7.640112
_cell_length_b 20.438328
_cell_length_c 10.945284
_cell_angle_alpha 90.000000
_cell_angle_beta 42.902681
_cell_angle_gamma 90.000000
_cell_volume 1163.491078
_symmetry_space_group_name_H-M "P 21/C"
_symmetry_group_IT_number 14
_symmetry_cell_setting 'monoclinic'
loop_
_space_group_symop_operation_xyz
x,y,z
-x,1/2+y,1/2-z
-x,-y,-z
x,1/2-y,1/2+z
loop_
_atom_site_type_symbol
_atom_site_label
_atom_site_fract_x
_atom_site_fract_y
_atom_site_fract_z
Si Si1 0.028576 0.666244 0.776744
Si Si2 0.337980 0.513418 0.270887
Si Si3 0.826959 0.581373 0.069611
Si Si4 0.661108 0.140035 0.100114
Si Si5 0.594287 0.633249 0.800174
Si Si6 0.897457 0.806389 0.950110
Si Si7 0.073300 0.585954 0.185347
O O1 0.043307 0.612335 0.875236
O O2 0.793914 0.645875 0.807664
O O3 0.953498 0.736081 0.867150
O O4 0.279426 0.665640 0.563971
O O5 0.272821 0.561946 0.416784
O O6 0.328175 0.437098 0.296268
O O7 0.180436 0.537784 0.234473
O O8 0.636728 0.532610 0.096891
O O9 0.630870 0.640856 0.205355
O O10 0.922505 0.554302 0.149397
O O11 0.854337 0.175559 0.093223
O O12 0.652249 0.685819 0.664943
O O13 0.313918 0.625111 0.001818
O O14 0.898479 0.860689 0.843482
#
# Coordination Sequence:
#
# PCOD9249699 Si02
#       7
#     4   4   4   4   4   4   4
#     4  11  22  41  68  96 133 189 225 278 345 402
#     4   9  21  48  70 102 139 174 231 283 350 405
#     4  10  23  43  65 104 137 174 233 278 338 413
#     4   8  21  44  64  96 137 178 223 285 337 402
#     4  11  23  46  72  99 140 183 221 296 343 398
#     4  10  24  41  65 100 129 186 236 265 347 405
#     4  11  23  43  70 100 137 184 221 286 343 404
#
# _framework density 24.065504000000001
#
# number of rings (size 3 to 8) (size 9 to 14) (size 15 to 20)
#    0.857    1.143    1.429    0.429    4.000    8.000 
#    5.143    0.714    0.000    0.000    0.000    0.000 
#    0.000    0.000    0.000    0.000    0.000    0.000 
#
# Total GULP energy -156537.998813 kJ/mol
# GULP energy per Si atom -5590.642815 kJ/mol
# Density = 2.401073 g / cm^3
# Si number density = 24.065504 Si / 1000 Ang^3
#
#
#
# Elastic Constant Matrix: (Units=GPa)
#
#
# Indices 1 2 3 4 5 6 
#
# 1 57.2664 12.0443 -16.7409 0.0000 14.2989 0.0000
# 2 12.0443 110.2981 17.4196 0.0000 21.5875 0.0000
# 3 -16.7409 17.4196 94.8706 0.0000 9.2380 0.0000
# 4 0.0000 0.0000 0.0000 37.6779 0.0000 5.4889
# 5 14.2989 21.5875 9.2380 0.0000 33.6334 0.0000
# 6 0.0000 0.0000 0.0000 5.4889 0.0000 6.0997
#
#
#
# Elastic Compliance Matrix: (Units=1/GPa)
#
#
# Indices 1 2 3 4 5 6 
#
# 1 0.021622 -0.001238 0.004994 0.000000 -0.009770 0.000000
# 2 -0.001238 0.010596 -0.001596 0.000000 -0.005836 0.000000
# 3 0.004994 -0.001596 0.012147 0.000000 -0.004435 0.000000
# 4 0.000000 0.000000 0.000000 0.030545 0.000000 -0.027486
# 5 -0.009770 -0.005836 -0.004435 0.000000 0.038850 0.000000
# 6 0.000000 0.000000 0.000000 -0.027486 0.000000 0.188678
#
#
# Mechanical properties :
#
#
# Convention : Reuss Voigt Hill
#
# Bulk Modulus (GPa) = 20.53989 31.98679 26.26334
# Shear Modulus (GPa) = 15.90611 32.12966 24.01789
#
# Velocity S-wave (km/s) = 2.57368 3.65786 3.16257
# Velocity P-wave (km/s) = 4.16957 5.58214 4.92674
#
# Compressibility (1/GPa) = 0.04868575
#
# Stress axis : x y z
#
# Youngs Moduli (GPa) = 46.24953 94.37713 82.32642
#
# Poissons Ratio (x) = 0.11681 -0.41113
# Poissons Ratio (y) = 0.05724 0.13136
# Poissons Ratio (z) = -0.23097 0.15059
#
# Static dielectric constant tensor:
#      x y z
#    x 1.918590 0.000000 -0.021620 
#    y 0.000000 1.909830 0.000000 
#    z -0.021620 0.000000 1.956500 
# 
# From -- ./inp_files/26735.got.cif
#   From: 2010.05.17/outbox.cif.g08.bks.cpg/sg14_14_cif.got.tgz:26735.got - 2010.06.03 17:49:19.
