data_PCOD9249025
_publ_section_title
;
Structure prediction by ZEFSAII (Michael W. Deem and Ramdas Pophale) SiO2 
 PCOD9249025
Probable space group: P 21/C
;
_chemical_formula_sum "Si O2"
_cell_formula_units_Z 16
_cell_length_a 9.227312
_cell_length_b 7.386590
_cell_length_c 11.983431
_cell_angle_alpha 90.000000
_cell_angle_beta 49.638829
_cell_angle_gamma 90.000000
_cell_volume 622.361109
_symmetry_space_group_name_H-M "P 21/C"
_symmetry_group_IT_number 14
_symmetry_cell_setting 'monoclinic'
loop_
_space_group_symop_operation_xyz
x,y,z
-x,1/2+y,1/2-z
-x,-y,-z
x,1/2-y,1/2+z
loop_
_atom_site_type_symbol
_atom_site_label
_atom_site_fract_x
_atom_site_fract_y
_atom_site_fract_z
Si Si1 0.847224 0.235831 0.360301
Si Si2 0.626239 0.555677 0.075471
Si Si3 0.818635 0.521478 0.203016
Si Si4 0.601508 0.977939 0.105015
O O1 0.865543 0.325389 0.230516
O O2 0.768537 0.394286 0.480329
O O3 0.046428 0.164396 0.305872
O O4 0.691870 0.074394 0.443561
O O5 0.799186 0.523939 0.079594
O O6 0.444350 0.490603 0.239046
O O7 0.619121 0.769046 0.064528
O O8 0.597099 0.553135 0.345364
#
# Coordination Sequence:
#
# PCOD9249025 Si02
#       4
#     4   4   4   4
#     4  12  24  48  70 104 146 182 234 286 350 418
#     4  10  22  45  71 101 139 184 228 286 346 407
#     4  10  26  46  66 112 138 180 238 282 354 414
#     4  10  22  45  71 101 139 184 228 286 346 407
#
# _framework density 25.708549000000001
#
# number of rings (size 3 to 8) (size 9 to 14) (size 15 to 20)
#    1.500    0.000    2.500    1.500    3.500    2.000 
#   13.500    0.000    0.000    0.000    0.000    0.000 
#    0.000    0.000    0.000    0.000    0.000    0.000 
#
# Total GULP energy -89550.289623 kJ/mol
# GULP energy per Si atom -5596.893101 kJ/mol
# Density = 2.565003 g / cm^3
# Si number density = 25.708549 Si / 1000 Ang^3
#
#
#
# Elastic Constant Matrix: (Units=GPa)
#
#
# Indices 1 2 3 4 5 6 
#
# 1 71.1822 34.9221 29.9640 0.0000 3.8747 0.0000
# 2 34.9221 203.1328 71.8652 0.0000 1.5634 0.0000
# 3 29.9640 71.8652 103.0241 0.0000 5.7433 0.0000
# 4 0.0000 0.0000 0.0000 66.5118 0.0000 -1.7437
# 5 3.8747 1.5634 5.7433 0.0000 28.8907 0.0000
# 6 0.0000 0.0000 0.0000 -1.7437 0.0000 53.2277
#
#
#
# Elastic Compliance Matrix: (Units=1/GPa)
#
#
# Indices 1 2 3 4 5 6 
#
# 1 0.016400 -0.001525 -0.003628 0.000000 -0.001396 0.000000
# 2 -0.001525 0.006687 -0.004259 0.000000 0.000689 0.000000
# 3 -0.003628 -0.004259 0.013846 0.000000 -0.002035 0.000000
# 4 0.000000 0.000000 0.000000 0.015048 0.000000 0.000493
# 5 -0.001396 0.000689 -0.002035 0.000000 0.035168 0.000000
# 6 0.000000 0.000000 0.000000 0.000493 0.000000 0.018803
#
#
# Mechanical properties :
#
#
# Convention : Reuss Voigt Hill
#
# Bulk Modulus (GPa) = 55.22471 72.31574 63.77022
# Shear Modulus (GPa) = 38.22268 45.76523 41.99396
#
# Velocity S-wave (km/s) = 3.86005 4.22377 4.04600
# Velocity P-wave (km/s) = 6.43384 7.20951 6.83269
#
# Compressibility (1/GPa) = 0.01810784
#
# Stress axis : x y z
#
# Youngs Moduli (GPa) = 60.97595 149.55298 72.22210
#
# Poissons Ratio (x) = 0.22808 0.26203
# Poissons Ratio (y) = 0.09299 0.30760
# Poissons Ratio (z) = 0.22123 0.63697
#
# Static dielectric constant tensor:
#      x y z
#    x 2.128490 0.000000 0.058300 
#    y 0.000000 1.959010 0.000000 
#    z 0.058300 0.000000 2.144480 
# 
# From -- ./inp_files/56303.got.cif
#   From: 2010.05.17/outbox.cif.g08.bks.cpg/sg14_29_cif.got.tgz:56303.got - 2010.06.03 17:49:19.
