data_PCOD9249033
_publ_section_title
;
Structure prediction by ZEFSAII (Michael W. Deem and Ramdas Pophale) SiO2 
 PCOD9249033
Probable space group: P 21/C
;
_chemical_formula_sum "Si O2"
_cell_formula_units_Z 32
_cell_length_a 13.777715
_cell_length_b 23.657190
_cell_length_c 7.738600
_cell_angle_alpha 90.000000
_cell_angle_beta 30.906959
_cell_angle_gamma 90.000000
_cell_volume 1295.585901
_symmetry_space_group_name_H-M "P 21/C"
_symmetry_group_IT_number 14
_symmetry_cell_setting 'monoclinic'
loop_
_space_group_symop_operation_xyz
x,y,z
-x,1/2+y,1/2-z
-x,-y,-z
x,1/2-y,1/2+z
loop_
_atom_site_type_symbol
_atom_site_label
_atom_site_fract_x
_atom_site_fract_y
_atom_site_fract_z
Si Si1 0.041790 0.369241 0.592133
Si Si2 0.628439 0.815124 0.238463
Si Si3 0.862823 0.547001 0.281179
Si Si4 0.435862 0.635301 0.369944
Si Si5 0.304965 0.889795 0.581611
Si Si6 0.952312 0.356614 0.197004
Si Si7 0.483244 0.003646 0.235128
Si Si8 0.743502 0.810857 0.556201
O O1 0.154931 0.333658 0.562426
O O2 0.087169 0.431128 0.603059
O O3 0.823444 0.366724 0.878232
O O4 0.144513 0.346245 0.262453
O O5 0.521936 0.826097 0.583668
O O6 0.499302 0.855052 0.315502
O O7 0.655972 0.750308 0.149479
O O8 0.656036 0.523405 0.576902
O O9 0.000000 0.500000 0.000000
O O10 0.901174 0.595699 0.082456
O O11 0.211356 0.646385 0.699601
O O12 0.498666 0.569998 0.244780
O O13 0.551454 0.652753 0.363838
O O14 0.324544 0.957361 0.525648
O O15 0.178414 0.877816 0.944836
O O16 0.093504 0.306956 0.045535
O O17 0.500000 0.000000 0.000000
#
# Coordination Sequence:
#
# PCOD9249033 Si02
#       8
#     4   4   4   4   4   4   4   4
#     4  10  23  44  69 104 142 182 245 293 368 440
#     4  10  22  45  72 100 137 193 246 309 355 431
#     4  12  23  41  69 107 149 189 228 298 369 444
#     4  10  23  44  70 107 140 187 245 296 369 445
#     4  10  23  45  74 107 143 189 244 300 367 451
#     4  10  23  43  70 102 142 188 241 291 365 443
#     4  12  24  43  74 111 155 190 236 308 381 451
#     4  10  23  45  70 100 139 189 250 307 361 425
#
# _framework density 24.699248999999998
#
# number of rings (size 3 to 8) (size 9 to 14) (size 15 to 20)
#    0.000    1.500    2.500    1.500    0.000    7.000 
#    4.500    7.500    0.000    0.000    0.000    0.000 
#    0.000    0.000    0.000    0.000    0.000    0.000 
#
# Total GULP energy -178324.956735 kJ/mol
# GULP energy per Si atom -5572.654898 kJ/mol
# Density = 2.464303 g / cm^3
# Si number density = 24.699249 Si / 1000 Ang^3
#
#
#
# Elastic Constant Matrix: (Units=GPa)
#
#
# Indices 1 2 3 4 5 6 
#
# 1 147.9835 29.1491 45.7618 0.0000 -21.2531 0.0000
# 2 29.1491 122.7826 51.4604 0.0000 -17.2369 0.0000
# 3 45.7618 51.4604 88.3756 0.0000 -22.1779 0.0000
# 4 0.0000 0.0000 0.0000 29.0366 0.0000 -3.2314
# 5 -21.2531 -17.2369 -22.1779 0.0000 61.7360 0.0000
# 6 0.0000 0.0000 0.0000 -3.2314 0.0000 37.6414
#
#
#
# Elastic Compliance Matrix: (Units=1/GPa)
#
#
# Indices 1 2 3 4 5 6 
#
# 1 0.008160 -0.000154 -0.003782 0.000000 0.001407 0.000000
# 2 -0.000154 0.010816 -0.006016 0.000000 0.000805 0.000000
# 3 -0.003782 -0.006016 0.017617 0.000000 0.003347 0.000000
# 4 0.000000 0.000000 0.000000 0.034772 0.000000 0.002985
# 5 0.001407 0.000805 0.003347 0.000000 0.018110 0.000000
# 6 0.000000 0.000000 0.000000 0.002985 0.000000 0.026823
#
#
# Mechanical properties :
#
#
# Convention : Reuss Voigt Hill
#
# Bulk Modulus (GPa) = 59.92586 67.98715 63.95650
# Shear Modulus (GPa) = 35.27030 41.20083 38.23557
#
# Velocity S-wave (km/s) = 3.78298 4.08867 3.93879
# Velocity P-wave (km/s) = 6.58757 7.06225 6.82904
#
# Compressibility (1/GPa) = 0.01668729
#
# Stress axis : x y z
#
# Youngs Moduli (GPa) = 122.55537 92.45987 56.76488
#
# Poissons Ratio (x) = 0.01428 0.21469
# Poissons Ratio (y) = 0.01893 0.34148
# Poissons Ratio (z) = 0.46351 0.55621
#
# Static dielectric constant tensor:
#      x y z
#    x 2.106290 0.000000 0.032420 
#    y 0.000000 2.278060 0.000000 
#    z 0.032420 0.000000 1.986100 
# 
# From -- ./inp_files/16999.got.cif
#   From: 2010.05.17/outbox.cif.g08.bks.cpg/sg14_9_cif.got.tgz:16999.got - 2010.06.03 17:49:19.
