data_PCOD9249472
_publ_section_title
;
Structure prediction by ZEFSAII (Michael W. Deem and Ramdas Pophale) SiO2 
 PCOD9249472
Probable space group: P 21/C
;
_chemical_formula_sum "Si O2"
_cell_formula_units_Z 28
_cell_length_a 11.342186
_cell_length_b 8.622663
_cell_length_c 13.704464
_cell_angle_alpha 90.000000
_cell_angle_beta 57.193315
_cell_angle_gamma 90.000000
_cell_volume 1126.522068
_symmetry_space_group_name_H-M "P 21/C"
_symmetry_group_IT_number 14
_symmetry_cell_setting 'monoclinic'
loop_
_space_group_symop_operation_xyz
x,y,z
-x,1/2+y,1/2-z
-x,-y,-z
x,1/2-y,1/2+z
loop_
_atom_site_type_symbol
_atom_site_label
_atom_site_fract_x
_atom_site_fract_y
_atom_site_fract_z
Si Si1 0.069587 0.458084 0.667884
Si Si2 0.299868 0.267563 0.687172
Si Si3 0.790738 0.696671 0.552422
Si Si4 0.653649 0.951804 0.512172
Si Si5 0.809714 0.291049 0.860113
Si Si6 0.610720 0.221667 0.273474
Si Si7 0.448680 0.984734 0.860370
O O1 0.176638 0.368723 0.693251
O O2 0.074319 0.377687 0.558419
O O3 0.110865 0.637746 0.640352
O O4 0.919696 0.424807 0.782878
O O5 0.247294 0.202703 0.816328
O O6 0.337112 0.126680 0.598831
O O7 0.439678 0.375017 0.636186
O O8 0.773343 0.872428 0.524743
O O9 0.669260 0.600456 0.545526
O O10 0.510924 0.885586 0.622824
O O11 0.692973 0.130654 0.481557
O O12 0.728185 0.245131 0.798658
O O13 0.647224 0.120223 0.164978
O O14 0.547437 0.384845 0.267215
#
# Coordination Sequence:
#
# PCOD9249472 Si02
#       7
#     4   4   4   4   4   4   4
#     4  11  26  45  70  97 142 190 234 276 344 409
#     4  11  21  44  70  98 143 179 230 289 337 414
#     4  10  23  43  68 101 139 182 230 285 345 407
#     4  10  23  41  70 100 138 174 233 289 353 401
#     4  12  25  46  69 102 137 191 232 283 339 419
#     4  11  24  42  71 105 140 179 228 294 352 404
#     4  11  21  39  68 104 138 172 227 283 351 407
#
# _framework density 24.855259
#
# number of rings (size 3 to 8) (size 9 to 14) (size 15 to 20)
#    0.000    1.143    4.286    3.000    2.000    2.857 
#    0.000   10.714    0.000    0.000    0.000    0.000 
#    0.000    0.000    0.000    0.000    0.000    0.000 
#
# Total GULP energy -156417.166774 kJ/mol
# GULP energy per Si atom -5586.327385 kJ/mol
# Density = 2.479869 g / cm^3
# Si number density = 24.855259 Si / 1000 Ang^3
#
#
#
# Elastic Constant Matrix: (Units=GPa)
#
#
# Indices 1 2 3 4 5 6 
#
# 1 19.3946 15.6691 26.7176 0.0000 3.4453 0.0000
# 2 15.6691 114.9465 28.5274 0.0000 4.6034 0.0000
# 3 26.7176 28.5274 96.4202 0.0000 13.0547 0.0000
# 4 0.0000 0.0000 0.0000 36.0712 0.0000 -0.7944
# 5 3.4453 4.6034 13.0547 0.0000 33.9279 0.0000
# 6 0.0000 0.0000 0.0000 -0.7944 0.0000 45.6201
#
#
#
# Elastic Compliance Matrix: (Units=1/GPa)
#
#
# Indices 1 2 3 4 5 6 
#
# 1 0.087538 -0.006386 -0.022450 0.000000 0.000616 0.000000
# 2 -0.006386 0.009856 -0.001111 0.000000 -0.000261 0.000000
# 3 -0.022450 -0.001111 0.017504 0.000000 -0.004304 0.000000
# 4 0.000000 0.000000 0.000000 0.027734 0.000000 0.000483
# 5 0.000616 -0.000261 -0.004304 0.000000 0.031104 0.000000
# 6 0.000000 0.000000 0.000000 0.000483 0.000000 0.021929
#
#
# Mechanical properties :
#
#
# Convention : Reuss Voigt Hill
#
# Bulk Modulus (GPa) = 18.18082 41.39882 29.78982
# Shear Modulus (GPa) = 18.25533 33.78031 26.01782
#
# Velocity S-wave (km/s) = 2.71304 3.69057 3.23890
# Velocity P-wave (km/s) = 4.14061 5.90360 5.09888
#
# Compressibility (1/GPa) = 0.05500301
#
# Stress axis : x y z
#
# Youngs Moduli (GPa) = 11.42366 101.45630 57.13062
#
# Poissons Ratio (x) = 0.64788 1.28260
# Poissons Ratio (y) = 0.07295 0.06349
# Poissons Ratio (z) = 0.25646 0.11275
#
# Static dielectric constant tensor:
#      x y z
#    x 1.969090 0.000000 -0.016280 
#    y 0.000000 1.962120 0.000000 
#    z -0.016280 0.000000 2.035330 
# 
# From -- ./inp_files/43615.got.cif
#   From: 2010.05.17/outbox.cif.g08.bks.cpg/sg14_22_cif.got.tgz:43615.got - 2010.06.03 17:49:19.
