data_PCOD9249044
_publ_section_title
;
Structure prediction by ZEFSAII (Michael W. Deem and Ramdas Pophale) SiO2 
 PCOD9249044
Probable space group: P 21/C
;
_chemical_formula_sum "Si O2"
_cell_formula_units_Z 28
_cell_length_a 11.208839
_cell_length_b 13.856703
_cell_length_c 11.608946
_cell_angle_alpha 90.000000
_cell_angle_beta 36.683124
_cell_angle_gamma 90.000000
_cell_volume 1077.135964
_symmetry_space_group_name_H-M "P 21/C"
_symmetry_group_IT_number 14
_symmetry_cell_setting 'monoclinic'
loop_
_space_group_symop_operation_xyz
x,y,z
-x,1/2+y,1/2-z
-x,-y,-z
x,1/2-y,1/2+z
loop_
_atom_site_type_symbol
_atom_site_label
_atom_site_fract_x
_atom_site_fract_y
_atom_site_fract_z
Si Si1 0.345060 0.357559 0.157903
Si Si2 0.493935 0.493702 0.704196
Si Si3 0.926971 0.435728 0.899530
Si Si4 0.092526 0.861226 0.336549
Si Si5 0.739348 0.065612 0.233446
Si Si6 0.905398 0.825176 0.947422
Si Si7 0.445323 0.350604 0.539881
O O1 0.225426 0.459496 0.235839
O O2 0.304245 0.339490 0.325684
O O3 0.561800 0.387145 0.944247
O O4 0.323432 0.249082 0.123519
O O5 0.655700 0.453705 0.669263
O O6 0.568387 0.575477 0.556705
O O7 0.408022 0.409996 0.686215
O O8 0.304933 0.533687 0.921588
O O9 0.017489 0.382893 0.721245
O O10 0.054257 0.531960 0.821333
O O11 0.940707 0.368567 0.001271
O O12 0.072523 0.636361 0.410021
O O13 0.317683 0.828726 0.137718
O O14 0.941039 0.786725 0.399184
#
# Coordination Sequence:
#
# PCOD9249044 Si02
#       7
#     4   4   4   4   4   4   4
#     4  11  24  45  70 101 145 183 240 295 365 436
#     4  10  23  43  75 102 143 194 241 303 366 432
#     4  10  23  46  73 106 150 191 244 308 360 440
#     4  10  23  46  73 107 147 192 248 298 364 441
#     4  11  25  46  67 105 150 184 236 305 362 435
#     4  12  25  48  75 109 144 195 240 303 375 432
#     4  10  22  45  73 105 142 194 247 295 366 439
#
# _framework density 25.994862000000001
#
# number of rings (size 3 to 8) (size 9 to 14) (size 15 to 20)
#    0.000    1.429    1.429    3.000    2.000    3.429 
#    7.714    0.000    0.000    0.000    0.000    0.000 
#    0.000    0.000    0.000    0.000    0.000    0.000 
#
# Total GULP energy -156707.287665 kJ/mol
# GULP energy per Si atom -5596.688845 kJ/mol
# Density = 2.593570 g / cm^3
# Si number density = 25.994862 Si / 1000 Ang^3
#
#
#
# Elastic Constant Matrix: (Units=GPa)
#
#
# Indices 1 2 3 4 5 6 
#
# 1 100.7432 15.4603 21.6829 0.0000 25.3365 0.0000
# 2 15.4603 134.6749 30.3944 0.0000 17.3867 0.0000
# 3 21.6829 30.3944 103.0976 0.0000 35.2504 0.0000
# 4 0.0000 0.0000 0.0000 45.5382 0.0000 -4.8059
# 5 25.3365 17.3867 35.2504 0.0000 40.1114 0.0000
# 6 0.0000 0.0000 0.0000 -4.8059 0.0000 19.9687
#
#
#
# Elastic Compliance Matrix: (Units=1/GPa)
#
#
# Indices 1 2 3 4 5 6 
#
# 1 0.011825 -0.000439 0.000188 0.000000 -0.007444 0.000000
# 2 -0.000439 0.008083 -0.001698 0.000000 -0.001735 0.000000
# 3 0.000188 -0.001698 0.014223 0.000000 -0.011882 0.000000
# 4 0.000000 0.000000 0.000000 0.022532 0.000000 0.005423
# 5 -0.007444 -0.001735 -0.011882 0.000000 0.040827 0.000000
# 6 0.000000 0.000000 0.000000 0.005423 0.000000 0.051384
#
#
# Mechanical properties :
#
#
# Convention : Reuss Voigt Hill
#
# Bulk Modulus (GPa) = 33.07552 52.62123 42.84838
# Shear Modulus (GPa) = 30.70326 39.18885 34.94605
#
# Velocity S-wave (km/s) = 3.44048 3.88694 3.67051
# Velocity P-wave (km/s) = 5.34173 6.35856 5.87220
#
# Compressibility (1/GPa) = 0.03023384
#
# Stress axis : x y z
#
# Youngs Moduli (GPa) = 84.56386 123.72098 70.30749
#
# Poissons Ratio (x) = 0.05429 -0.01319
# Poissons Ratio (y) = 0.03711 0.11935
# Poissons Ratio (z) = -0.01586 0.21002
#
# Static dielectric constant tensor:
#      x y z
#    x 2.145660 0.000000 -0.044740 
#    y 0.000000 2.041370 0.000000 
#    z -0.044740 0.000000 2.001650 
# 
# From -- ./inp_files/47472.got.cif
#   From: 2010.05.17/outbox.cif.g08.bks.cpg/sg14_24_cif.got.tgz:47472.got - 2010.06.03 17:49:19.
