data_PCOD9249830
_publ_section_title
;
Structure prediction by ZEFSAII (Michael W. Deem and Ramdas Pophale) SiO2 
 PCOD9249830
Probable space group: P 21/C
;
_chemical_formula_sum "Si O2"
_cell_formula_units_Z 32
_cell_length_a 5.543559
_cell_length_b 20.756807
_cell_length_c 13.046714
_cell_angle_alpha 90.000000
_cell_angle_beta 91.370195
_cell_angle_gamma 90.000000
_cell_volume 1500.811557
_symmetry_space_group_name_H-M "P 21/C"
_symmetry_group_IT_number 14
_symmetry_cell_setting 'monoclinic'
loop_
_space_group_symop_operation_xyz
x,y,z
-x,1/2+y,1/2-z
-x,-y,-z
x,1/2-y,1/2+z
loop_
_atom_site_type_symbol
_atom_site_label
_atom_site_fract_x
_atom_site_fract_y
_atom_site_fract_z
Si Si1 0.804602 0.456864 0.559544
Si Si2 0.116845 0.064532 0.546795
Si Si3 0.026653 0.327936 0.654132
Si Si4 0.934579 0.824288 0.604251
Si Si5 0.709052 0.274497 0.041594
Si Si6 0.453443 0.073067 0.868169
Si Si7 0.678419 0.692680 0.533159
Si Si8 0.611582 0.102562 0.648561
O O1 0.900240 0.393668 0.616421
O O2 0.684353 0.505518 0.639733
O O3 0.616270 0.434926 0.470959
O O4 0.000000 0.500000 0.500000
O O5 0.171484 0.113945 0.454240
O O6 0.379618 0.061137 0.604689
O O7 0.888646 0.089627 0.614007
O O8 0.000000 0.000000 0.500000
O O9 0.887355 0.262486 0.620657
O O10 0.066633 0.330238 0.774864
O O11 0.257868 0.324564 0.582946
O O12 0.813466 0.756796 0.570966
O O13 0.190922 0.818199 0.549843
O O14 0.557900 0.323929 0.110290
O O15 0.593843 0.215799 0.977535
O O16 0.277902 0.132567 0.893523
O O17 0.600400 0.091870 0.769674
#
# Coordination Sequence:
#
# PCOD9249830 Si02
#       8
#     4   4   4   4   4   4   4   4
#     4  11  24  46  61  99 141 173 238 284 343 421
#     4  11  25  49  69 106 142 179 238 292 341 428
#     4  11  24  40  70  96 133 188 222 289 356 418
#     4  10  25  41  68  97 136 179 227 296 352 414
#     4  10  23  44  62  99 137 169 236 284 344 418
#     4  11  26  41  70  96 134 189 225 295 344 421
#     4  11  22  43  62  99 135 169 231 286 347 413
#     4  11  26  45  76 101 137 190 232 284 362 411
#
# _framework density 21.321798000000001
#
# number of rings (size 3 to 8) (size 9 to 14) (size 15 to 20)
#    0.000    1.250    3.750    0.375    7.000    0.000 
#    0.000    0.000    0.000    0.000    0.000    0.000 
#    0.000    0.000    0.000    0.000    0.000    0.000 
#
# Total GULP energy -178331.537625 kJ/mol
# GULP energy per Si atom -5572.860551 kJ/mol
# Density = 2.127327 g / cm^3
# Si number density = 21.321798 Si / 1000 Ang^3
#
#
#
# Elastic Constant Matrix: (Units=GPa)
#
#
# Indices 1 2 3 4 5 6 
#
# 1 32.3250 -5.8084 5.9549 0.0000 -3.3217 0.0000
# 2 -5.8084 93.4066 27.0928 0.0000 -6.1345 0.0000
# 3 5.9549 27.0928 135.4628 0.0000 -18.3109 0.0000
# 4 0.0000 0.0000 0.0000 25.0129 0.0000 -3.9173
# 5 -3.3217 -6.1345 -18.3109 0.0000 21.8378 0.0000
# 6 0.0000 0.0000 0.0000 -3.9173 0.0000 30.3063
#
#
#
# Elastic Compliance Matrix: (Units=1/GPa)
#
#
# Indices 1 2 3 4 5 6 
#
# 1 0.032129 0.002683 -0.001338 0.000000 0.004519 0.000000
# 2 0.002683 0.011630 -0.002196 0.000000 0.001834 0.000000
# 3 -0.001338 -0.002196 0.008762 0.000000 0.006527 0.000000
# 4 0.000000 0.000000 0.000000 0.040805 0.000000 0.005274
# 5 0.004519 0.001834 0.006527 0.000000 0.052467 0.000000
# 6 0.000000 0.000000 0.000000 0.005274 0.000000 0.033678
#
#
# Mechanical properties :
#
#
# Convention : Reuss Voigt Hill
#
# Bulk Modulus (GPa) = 19.67792 35.07476 27.37634
# Shear Modulus (GPa) = 25.23793 31.02841 28.13317
#
# Velocity S-wave (km/s) = 3.44418 3.81890 3.63637
# Velocity P-wave (km/s) = 5.00655 5.99427 5.52254
#
# Compressibility (1/GPa) = 0.05081838
#
# Stress axis : x y z
#
# Youngs Moduli (GPa) = 31.12476 85.98356 114.12402
#
# Poissons Ratio (x) = -0.23068 0.15271
# Poissons Ratio (y) = -0.08350 0.25063
# Poissons Ratio (z) = 0.04165 0.18883
#
# Static dielectric constant tensor:
#      x y z
#    x 1.903120 0.000000 -0.011720 
#    y 0.000000 1.838520 0.000000 
#    z -0.011720 0.000000 1.715600 
# 
# From -- ./inp_files/21785.got.cif
#   From: 2010.05.17/outbox.cif.g08.bks.cpg/sg14_11_cif.got.tgz:21785.got - 2010.06.03 17:49:19.
