data_PCOD9249498
_publ_section_title
;
Structure prediction by ZEFSAII (Michael W. Deem and Ramdas Pophale) SiO2 
 PCOD9249498
Probable space group: P 21/C
;
_chemical_formula_sum "Si O2"
_cell_formula_units_Z 20
_cell_length_a 4.842689
_cell_length_b 8.748828
_cell_length_c 23.370347
_cell_angle_alpha 90.000000
_cell_angle_beta 128.247120
_cell_angle_gamma 90.000000
_cell_volume 777.613493
_symmetry_space_group_name_H-M "P 21/C"
_symmetry_group_IT_number 14
_symmetry_cell_setting 'monoclinic'
loop_
_space_group_symop_operation_xyz
x,y,z
-x,1/2+y,1/2-z
-x,-y,-z
x,1/2-y,1/2+z
loop_
_atom_site_type_symbol
_atom_site_label
_atom_site_fract_x
_atom_site_fract_y
_atom_site_fract_z
Si Si1 0.472724 0.033441 0.648019
Si Si2 0.502976 0.809439 0.122451
Si Si3 0.792442 0.790904 0.961032
Si Si4 0.942856 0.433948 0.617914
Si Si5 0.197263 0.336148 0.223615
O O1 0.257947 0.123402 0.571893
O O2 0.251931 0.049774 0.677627
O O3 0.821726 0.132204 0.703823
O O4 0.593197 0.868738 0.642918
O O5 0.519141 0.864047 0.190765
O O6 0.779237 0.908851 0.121193
O O7 0.122975 0.801042 0.044404
O O8 0.422879 0.839077 0.940869
O O9 0.853728 0.905612 0.915353
O O10 0.157927 0.334136 0.692393
#
# Coordination Sequence:
#
# PCOD9249498 Si02
#       5
#     4   4   4   4   4
#     4  10  24  43  62  93 132 169 213 271 328 387
#     4  12  23  40  70  96 121 173 223 263 323 396
#     4  10  23  43  63  93 131 166 210 270 327 385
#     4  10  23  42  62  91 131 165 208 267 325 386
#     4  10  24  42  61  91 133 169 211 271 328 384
#
# _framework density 25.719716999999999
#
# number of rings (size 3 to 8) (size 9 to 14) (size 15 to 20)
#    0.000    1.600    0.000    3.000    0.000   12.800 
#    0.000    6.000    0.000    0.000    0.000    0.000 
#    0.000    0.000    0.000    0.000    0.000    0.000 
#
# Total GULP energy -112019.361089 kJ/mol
# GULP energy per Si atom -5600.968054 kJ/mol
# Density = 2.566118 g / cm^3
# Si number density = 25.719717 Si / 1000 Ang^3
#
#
#
# Elastic Constant Matrix: (Units=GPa)
#
#
# Indices 1 2 3 4 5 6 
#
# 1 78.6578 -18.3752 -7.7012 0.0000 0.3116 0.0000
# 2 -18.3752 121.4789 16.2780 0.0000 -10.8784 0.0000
# 3 -7.7012 16.2780 128.6437 0.0000 22.6737 0.0000
# 4 0.0000 0.0000 0.0000 33.2378 0.0000 3.3835
# 5 0.3116 -10.8784 22.6737 0.0000 29.3558 0.0000
# 6 0.0000 0.0000 0.0000 3.3835 0.0000 31.5214
#
#
#
# Elastic Compliance Matrix: (Units=1/GPa)
#
#
# Indices 1 2 3 4 5 6 
#
# 1 0.013218 0.001947 0.000512 0.000000 0.000186 0.000000
# 2 0.001947 0.009218 -0.001908 0.000000 0.004869 0.000000
# 3 0.000512 -0.001908 0.009459 0.000000 -0.008018 0.000000
# 4 0.000000 0.000000 0.000000 0.030419 0.000000 -0.003265
# 5 0.000186 0.004869 -0.008018 0.000000 0.042060 0.000000
# 6 0.000000 0.000000 0.000000 -0.003265 0.000000 0.032075
#
#
# Mechanical properties :
#
#
# Convention : Reuss Voigt Hill
#
# Bulk Modulus (GPa) = 30.30545 34.35371 32.32958
# Shear Modulus (GPa) = 34.16596 41.39491 37.78044
#
# Velocity S-wave (km/s) = 3.64867 4.01616 3.83682
# Velocity P-wave (km/s) = 5.43681 5.90695 5.67675
#
# Compressibility (1/GPa) = 0.03299737
#
# Stress axis : x y z
#
# Youngs Moduli (GPa) = 75.65654 108.48181 105.72260
#
# Poissons Ratio (x) = -0.21125 -0.05414
# Poissons Ratio (y) = -0.14733 0.20172
# Poissons Ratio (z) = -0.03874 0.20698
#
# Static dielectric constant tensor:
#      x y z
#    x 1.950270 0.000000 -0.007100 
#    y 0.000000 2.109110 0.000000 
#    z -0.007100 0.000000 1.995820 
# 
# From -- ./inp_files/62888.got.cif
#   From: 2010.05.17/outbox.cif.g08.bks.cpg/sg14_32_cif.got.tgz:62888.got - 2010.06.03 17:49:19.
