data_PCOD9249721
_publ_section_title
;
Structure prediction by ZEFSAII (Michael W. Deem and Ramdas Pophale) SiO2 
 PCOD9249721
Probable space group: P 21/C
;
_chemical_formula_sum "Si O2"
_cell_formula_units_Z 20
_cell_length_a 21.013044
_cell_length_b 4.937550
_cell_length_c 13.953649
_cell_angle_alpha 90.000000
_cell_angle_beta 34.162410
_cell_angle_gamma 90.000000
_cell_volume 812.960527
_symmetry_space_group_name_H-M "P 21/C"
_symmetry_group_IT_number 14
_symmetry_cell_setting 'monoclinic'
loop_
_space_group_symop_operation_xyz
x,y,z
-x,1/2+y,1/2-z
-x,-y,-z
x,1/2-y,1/2+z
loop_
_atom_site_type_symbol
_atom_site_label
_atom_site_fract_x
_atom_site_fract_y
_atom_site_fract_z
Si Si1 0.731010 0.807681 0.202915
Si Si2 0.561295 0.437474 0.059845
Si Si3 0.919553 0.754492 0.622428
Si Si4 0.076415 0.074555 0.172422
Si Si5 0.407414 0.940073 0.263587
O O1 0.681148 0.563155 0.201047
O O2 0.635535 0.975026 0.377717
O O3 0.812264 0.781751 0.687882
O O4 0.814239 0.974228 0.029242
O O5 0.518082 0.130511 0.108274
O O6 0.622578 0.477161 0.086494
O O7 0.451107 0.633649 0.199976
O O8 0.000000 0.500000 0.500000
O O9 0.887722 0.788140 0.772918
O O10 0.000000 0.000000 0.500000
O O11 0.006378 0.798391 0.272342
#
# Coordination Sequence:
#
# PCOD9249721 Si02
#       5
#     4   4   4   4   4
#     4  12  24  42  72  94 138 174 232 262 358 374
#     4  10  23  43  66  99 133 169 221 275 333 407
#     4  12  25  45  65  96 133 179 227 277 328 395
#     4  12  25  45  65  96 133 179 227 277 328 395
#     4  10  23  43  66  99 133 169 221 275 333 407
#
# _framework density 24.601443
#
# number of rings (size 3 to 8) (size 9 to 14) (size 15 to 20)
#    0.000    0.800    4.000    2.400    0.000    6.400 
#    0.000    8.000    0.000    0.000    0.000    0.000 
#    0.000    0.000    0.000    0.000    0.000    0.000 
#
# Total GULP energy -112077.773251 kJ/mol
# GULP energy per Si atom -5603.888663 kJ/mol
# Density = 2.454545 g / cm^3
# Si number density = 24.601443 Si / 1000 Ang^3
#
#
#
# Elastic Constant Matrix: (Units=GPa)
#
#
# Indices 1 2 3 4 5 6 
#
# 1 181.3209 -0.1905 25.6179 0.0000 26.7205 0.0000
# 2 -0.1905 95.4325 6.3831 0.0000 2.2049 0.0000
# 3 25.6179 6.3831 139.9460 0.0000 30.2312 0.0000
# 4 0.0000 0.0000 0.0000 13.2258 0.0000 11.8419
# 5 26.7205 2.2049 30.2312 0.0000 43.0615 0.0000
# 6 0.0000 0.0000 0.0000 11.8419 0.0000 25.5317
#
#
#
# Elastic Compliance Matrix: (Units=1/GPa)
#
#
# Indices 1 2 3 4 5 6 
#
# 1 0.006086 0.000118 -0.000356 0.000000 -0.003532 0.000000
# 2 0.000118 0.010515 -0.000435 0.000000 -0.000306 0.000000
# 3 -0.000356 -0.000435 0.008461 0.000000 -0.005697 0.000000
# 4 0.000000 0.000000 0.000000 0.129310 0.000000 -0.059976
# 5 -0.003532 -0.000306 -0.005697 0.000000 0.029430 0.000000
# 6 0.000000 0.000000 0.000000 -0.059976 0.000000 0.066984
#
#
# Mechanical properties :
#
#
# Convention : Reuss Voigt Hill
#
# Bulk Modulus (GPa) = 42.16778 53.36892 47.76835
# Shear Modulus (GPa) = 19.22790 42.02304 30.62547
#
# Velocity S-wave (km/s) = 2.79870 4.13747 3.53209
# Velocity P-wave (km/s) = 5.25559 6.67573 6.00777
#
# Compressibility (1/GPa) = 0.02371479
#
# Stress axis : x y z
#
# Youngs Moduli (GPa) = 164.30852 95.10209 118.18478
#
# Poissons Ratio (x) = -0.01118 0.04212
# Poissons Ratio (y) = -0.01932 0.05141
# Poissons Ratio (z) = 0.05856 0.04137
#
# Static dielectric constant tensor:
#      x y z
#    x 2.036960 0.000000 0.044230 
#    y 0.000000 1.887620 0.000000 
#    z 0.044230 0.000000 1.932310 
# 
# From -- ./inp_files/5925.got.cif
#   From: 2010.05.17/outbox.cif.g08.bks.cpg/sg14_3_cif.got.tgz:5925.got - 2010.06.03 17:49:19.
