data_PCOD9249353
_publ_section_title
;
Structure prediction by ZEFSAII (Michael W. Deem and Ramdas Pophale) SiO2 
 PCOD9249353
Probable space group: P 21/C
;
_chemical_formula_sum "Si O2"
_cell_formula_units_Z 16
_cell_length_a 8.021362
_cell_length_b 5.035867
_cell_length_c 26.064653
_cell_angle_alpha 90.000000
_cell_angle_beta 34.473194
_cell_angle_gamma 90.000000
_cell_volume 595.945516
_symmetry_space_group_name_H-M "P 21/C"
_symmetry_group_IT_number 14
_symmetry_cell_setting 'monoclinic'
loop_
_space_group_symop_operation_xyz
x,y,z
-x,1/2+y,1/2-z
-x,-y,-z
x,1/2-y,1/2+z
loop_
_atom_site_type_symbol
_atom_site_label
_atom_site_fract_x
_atom_site_fract_y
_atom_site_fract_z
Si Si1 0.344430 0.566073 0.709220
Si Si2 0.322806 0.580099 0.123803
Si Si3 0.186884 0.787324 0.362469
Si Si4 0.216335 0.787202 0.037934
O O1 0.458738 0.753922 0.635470
O O2 0.552282 0.316673 0.668104
O O3 0.305121 0.714222 0.773908
O O4 0.015281 0.481751 0.777661
O O5 0.303258 0.743324 0.075394
O O6 0.505877 0.315343 0.064688
O O7 0.926305 0.571920 0.433562
O O8 0.041890 0.072494 0.408012
#
# Coordination Sequence:
#
# PCOD9249353 Si02
#       4
#     4   4   4   4
#     4  11  23  42  70 102 135 180 228 279 334 400
#     4  10  23  40  68  98 134 175 226 275 334 398
#     4  11  24  43  67  94 137 177 220 273 337 397
#     4  10  24  45  65  97 136 177 218 277 337 399
#
# _framework density 26.848092000000001
#
# number of rings (size 3 to 8) (size 9 to 14) (size 15 to 20)
#    0.000    1.500    0.000    4.500    0.000   15.000 
#    0.000    0.000    0.000    0.000    0.000    0.000 
#    0.000    0.000    0.000    0.000    0.000    0.000 
#
# Total GULP energy -89935.741291 kJ/mol
# GULP energy per Si atom -5620.983831 kJ/mol
# Density = 2.678698 g / cm^3
# Si number density = 26.848092 Si / 1000 Ang^3
#
#
#
# Elastic Constant Matrix: (Units=GPa)
#
#
# Indices 1 2 3 4 5 6 
#
# 1 122.2078 52.3189 55.7145 0.0000 6.4636 0.0000
# 2 52.3189 94.2213 37.4847 0.0000 -0.5873 0.0000
# 3 55.7145 37.4847 97.5286 0.0000 -21.3003 0.0000
# 4 0.0000 0.0000 0.0000 43.0059 0.0000 -4.8360
# 5 6.4636 -0.5873 -21.3003 0.0000 44.1315 0.0000
# 6 0.0000 0.0000 0.0000 -4.8360 0.0000 62.5829
#
#
#
# Elastic Compliance Matrix: (Units=1/GPa)
#
#
# Indices 1 2 3 4 5 6 
#
# 1 0.013877 -0.004838 -0.007295 0.000000 -0.005618 0.000000
# 2 -0.004838 0.014450 -0.002899 0.000000 -0.000498 0.000000
# 3 -0.007295 -0.002899 0.017616 0.000000 0.009533 0.000000
# 4 0.000000 0.000000 0.000000 0.023456 0.000000 0.001813
# 5 -0.005618 -0.000498 0.009533 0.000000 0.028077 0.000000
# 6 0.000000 0.000000 0.000000 0.001813 0.000000 0.016119
#
#
# Mechanical properties :
#
#
# Convention : Reuss Voigt Hill
#
# Bulk Modulus (GPa) = 62.97155 67.22155 65.09655
# Shear Modulus (GPa) = 33.56784 41.17337 37.37060
#
# Velocity S-wave (km/s) = 3.53978 3.92033 3.73490
# Velocity P-wave (km/s) = 6.34132 6.75160 6.54967
#
# Compressibility (1/GPa) = 0.01588019
#
# Stress axis : x y z
#
# Youngs Moduli (GPa) = 72.06197 69.20390 56.76502
#
# Poissons Ratio (x) = 0.33484 0.41408
# Poissons Ratio (y) = 0.34867 0.16454
# Poissons Ratio (z) = 0.52566 0.20059
#
# Static dielectric constant tensor:
#      x y z
#    x 2.055040 0.000000 -0.006630 
#    y 0.000000 2.097740 0.000000 
#    z -0.006630 0.000000 2.076760 
# 
# From -- ./inp_files/38419.got.cif
#   From: 2010.05.17/outbox.cif.g08.bks.cpg/sg14_20_cif.got.tgz:38419.got - 2010.06.03 17:49:19.
