data_PCOD9249585
_publ_section_title
;
Structure prediction by ZEFSAII (Michael W. Deem and Ramdas Pophale) SiO2 
 PCOD9249585
Probable space group: P 21/C
;
_chemical_formula_sum "Si O2"
_cell_formula_units_Z 28
_cell_length_a 5.603034
_cell_length_b 16.449836
_cell_length_c 12.344880
_cell_angle_alpha 90.000000
_cell_angle_beta 109.531592
_cell_angle_gamma 90.000000
_cell_volume 1072.342163
_symmetry_space_group_name_H-M "P 21/C"
_symmetry_group_IT_number 14
_symmetry_cell_setting 'monoclinic'
loop_
_space_group_symop_operation_xyz
x,y,z
-x,1/2+y,1/2-z
-x,-y,-z
x,1/2-y,1/2+z
loop_
_atom_site_type_symbol
_atom_site_label
_atom_site_fract_x
_atom_site_fract_y
_atom_site_fract_z
Si Si1 0.367042 0.689658 0.502971
Si Si2 0.350934 0.277774 0.120721
Si Si3 0.766531 0.892232 0.195602
Si Si4 0.093137 0.136874 0.194499
Si Si5 0.752110 0.491895 0.868301
Si Si6 0.107833 0.810083 0.610560
Si Si7 0.774388 0.468839 0.172239
O O1 0.414500 0.762356 0.423449
O O2 0.620518 0.639968 0.569839
O O3 0.148064 0.633233 0.421598
O O4 0.277105 0.735562 0.597594
O O5 0.319112 0.335856 0.217863
O O6 0.299744 0.188323 0.161794
O O7 0.126598 0.305367 0.006981
O O8 0.690645 0.981086 0.232001
O O9 0.072348 0.899479 0.239263
O O10 0.004690 0.188520 0.286240
O O11 0.190174 0.051843 0.254886
O O12 0.747570 0.395583 0.879127
O O13 0.049393 0.520351 0.907979
O O14 0.522788 0.537365 0.894601
#
# Coordination Sequence:
#
# PCOD9249585 Si02
#       7
#     4   4   4   4   4   4   4
#     4  11  24  40  68 104 134 181 224 287 339 408
#     4  11  24  40  68 104 134 181 224 287 339 408
#     4  10  24  42  66 102 140 174 234 280 342 406
#     4  10  23  42  67  96 136 182 228 277 343 407
#     4   9  22  42  69  95 133 181 222 281 336 401
#     4  10  23  42  67  96 136 182 228 277 343 407
#     4   9  22  42  69  95 133 181 222 281 336 401
#
# _framework density 26.111065
#
# number of rings (size 3 to 8) (size 9 to 14) (size 15 to 20)
#    0.857    1.143    0.000    1.714   10.000    6.857 
#    0.000    2.857    0.000    0.000    0.000    0.000 
#    0.000    0.000    0.000    0.000    0.000    0.000 
#
# Total GULP energy -156478.033211 kJ/mol
# GULP energy per Si atom -5588.501186 kJ/mol
# Density = 2.605163 g / cm^3
# Si number density = 26.111065 Si / 1000 Ang^3
#
#
#
# Elastic Constant Matrix: (Units=GPa)
#
#
# Indices 1 2 3 4 5 6 
#
# 1 135.8314 18.0830 24.1850 0.0000 7.3490 0.0000
# 2 18.0830 79.1116 27.6103 0.0000 0.4961 0.0000
# 3 24.1850 27.6103 81.3033 0.0000 0.2179 0.0000
# 4 0.0000 0.0000 0.0000 47.3158 0.0000 3.8635
# 5 7.3490 0.4961 0.2179 0.0000 48.8274 0.0000
# 6 0.0000 0.0000 0.0000 3.8635 0.0000 34.0011
#
#
#
# Elastic Compliance Matrix: (Units=1/GPa)
#
#
# Indices 1 2 3 4 5 6 
#
# 1 0.007926 -0.001115 -0.001976 0.000000 -0.001173 0.000000
# 2 -0.001115 0.014497 -0.004592 0.000000 0.000041 0.000000
# 3 -0.001976 -0.004592 0.014446 0.000000 0.000280 0.000000
# 4 0.000000 0.000000 0.000000 0.021333 0.000000 -0.002424
# 5 -0.001173 0.000041 0.000280 0.000000 0.020655 0.000000
# 6 0.000000 0.000000 0.000000 -0.002424 0.000000 0.029686
#
#
# Mechanical properties :
#
#
# Convention : Reuss Voigt Hill
#
# Bulk Modulus (GPa) = 46.50226 48.44478 47.47352
# Shear Modulus (GPa) = 38.14577 41.12006 39.63291
#
# Velocity S-wave (km/s) = 3.82632 3.97270 3.90020
# Velocity P-wave (km/s) = 6.11303 6.29577 6.20507
#
# Compressibility (1/GPa) = 0.02150433
#
# Stress axis : x y z
#
# Youngs Moduli (GPa) = 126.17128 68.97754 69.22321
#
# Poissons Ratio (x) = 0.07689 0.13678
# Poissons Ratio (y) = 0.14064 0.31786
# Poissons Ratio (z) = 0.24931 0.31673
#
# Static dielectric constant tensor:
#      x y z
#    x 2.147170 0.000000 0.054280 
#    y 0.000000 2.073430 0.000000 
#    z 0.054280 0.000000 2.055380 
# 
# From -- ./inp_files/21615.got.cif
#   From: 2010.05.17/outbox.cif.g08.bks.cpg/sg14_11_cif.got.tgz:21615.got - 2010.06.03 17:49:19.
