data_PCOD9249571
_publ_section_title
;
Structure prediction by ZEFSAII (Michael W. Deem and Ramdas Pophale) SiO2 
 PCOD9249571
Probable space group: P 21/C
;
_chemical_formula_sum "Si O2"
_cell_formula_units_Z 32
_cell_length_a 22.708834
_cell_length_b 8.146098
_cell_length_c 15.256093
_cell_angle_alpha 90.000000
_cell_angle_beta 149.710773
_cell_angle_gamma 90.000000
_cell_volume 1423.419701
_symmetry_space_group_name_H-M "P 21/C"
_symmetry_group_IT_number 14
_symmetry_cell_setting 'monoclinic'
loop_
_space_group_symop_operation_xyz
x,y,z
-x,1/2+y,1/2-z
-x,-y,-z
x,1/2-y,1/2+z
loop_
_atom_site_type_symbol
_atom_site_label
_atom_site_fract_x
_atom_site_fract_y
_atom_site_fract_z
Si Si1 0.377417 0.672012 0.166717
Si Si2 0.202692 0.321122 0.428648
Si Si3 0.956585 0.817571 0.925327
Si Si4 0.167894 0.825267 0.611374
Si Si5 0.862320 0.314915 0.608023
Si Si6 0.554516 0.710647 0.755906
Si Si7 0.880646 0.690065 0.004563
Si Si8 0.563388 0.174441 0.064674
O O1 0.407838 0.479856 0.199676
O O2 0.445735 0.765510 0.179493
O O3 0.418138 0.741471 0.313798
O O4 0.238985 0.698125 0.985842
O O5 0.116261 0.215194 0.256881
O O6 0.158030 0.505944 0.378238
O O7 0.335093 0.310641 0.566313
O O8 0.205299 0.251143 0.530954
O O9 0.873759 0.760739 0.898267
O O10 0.076062 0.710727 0.070207
O O11 0.000000 0.000000 0.000000
O O12 0.150428 0.686582 0.514053
O O13 0.305520 0.840727 0.806759
O O14 0.130967 0.995281 0.518712
O O15 0.991257 0.258910 0.797540
O O16 0.514432 0.764927 0.607257
O O17 0.500000 0.000000 0.000000
#
# Coordination Sequence:
#
# PCOD9249571 Si02
#       8
#     4   4   4   4   4   4   4   4
#     4  10  23  42  66  98 131 176 228 283 334 405
#     4  12  26  44  67 101 138 179 228 283 345 413
#     4  12  28  42  65 103 139 180 229 284 346 418
#     4  11  23  44  69 101 137 180 229 289 348 412
#     4  11  22  42  70  93 137 174 225 276 345 407
#     4  11  24  42  69  95 132 180 226 282 341 407
#     4  12  24  42  70  96 137 179 224 278 351 403
#     4   9  21  42  67  94 130 174 225 275 336 405
#
# _framework density 22.481072000000001
#
# number of rings (size 3 to 8) (size 9 to 14) (size 15 to 20)
#    0.000    1.000    2.500    4.125    5.250    3.000 
#    0.000    5.625    0.000    0.000    0.000    0.000 
#    0.000    0.000    0.000    0.000    0.000    0.000 
#
# Total GULP energy -178955.885122 kJ/mol
# GULP energy per Si atom -5592.371410 kJ/mol
# Density = 2.242990 g / cm^3
# Si number density = 22.481072 Si / 1000 Ang^3
#
#
#
# Elastic Constant Matrix: (Units=GPa)
#
#
# Indices 1 2 3 4 5 6 
#
# 1 84.8357 5.6446 19.7637 0.0000 -4.1091 0.0000
# 2 5.6446 34.7679 -2.4530 0.0000 -6.6469 0.0000
# 3 19.7637 -2.4530 93.8601 0.0000 13.6854 0.0000
# 4 0.0000 0.0000 0.0000 26.5641 0.0000 3.3786
# 5 -4.1091 -6.6469 13.6854 0.0000 33.5602 0.0000
# 6 0.0000 0.0000 0.0000 3.3786 0.0000 39.2598
#
#
#
# Elastic Compliance Matrix: (Units=1/GPa)
#
#
# Indices 1 2 3 4 5 6 
#
# 1 0.012748 -0.001817 -0.003091 0.000000 0.002461 0.000000
# 2 -0.001817 0.030154 0.000353 0.000000 0.005606 0.000000
# 3 -0.003091 0.000353 0.012077 0.000000 -0.005233 0.000000
# 4 0.000000 0.000000 0.000000 0.038061 0.000000 -0.003275
# 5 0.002461 0.005606 -0.005233 0.000000 0.033343 0.000000
# 6 0.000000 0.000000 0.000000 -0.003275 0.000000 0.025753
#
#
# Mechanical properties :
#
#
# Convention : Reuss Voigt Hill
#
# Bulk Modulus (GPa) = 21.80078 28.81938 25.31008
# Shear Modulus (GPa) = 28.32305 32.57739 30.45022
#
# Velocity S-wave (km/s) = 3.55330 3.81084 3.68432
# Velocity P-wave (km/s) = 5.15297 5.67543 5.42050
#
# Compressibility (1/GPa) = 0.04586992
#
# Stress axis : x y z
#
# Youngs Moduli (GPa) = 78.44618 33.16334 82.80058
#
# Poissons Ratio (x) = 0.06026 0.25590
# Poissons Ratio (y) = 0.14254 -0.02926
# Poissons Ratio (z) = 0.24244 -0.01172
#
# Static dielectric constant tensor:
#      x y z
#    x 1.838160 0.000000 -0.024170 
#    y 0.000000 1.813250 0.000000 
#    z -0.024170 0.000000 1.837730 
# 
# From -- ./inp_files/51267.got.cif
#   From: 2010.05.17/outbox.cif.g08.bks.cpg/sg14_26_cif.got.tgz:51267.got - 2010.06.03 17:49:19.
