data_PCOD9249337
_publ_section_title
;
Structure prediction by ZEFSAII (Michael W. Deem and Ramdas Pophale) SiO2 
 PCOD9249337
Probable space group: P 21/C
;
_chemical_formula_sum "Si O2"
_cell_formula_units_Z 28
_cell_length_a 21.374771
_cell_length_b 10.664085
_cell_length_c 18.029626
_cell_angle_alpha 90.000000
_cell_angle_beta 18.272749
_cell_angle_gamma 90.000000
_cell_volume 1288.563796
_symmetry_space_group_name_H-M "P 21/C"
_symmetry_group_IT_number 14
_symmetry_cell_setting 'monoclinic'
loop_
_space_group_symop_operation_xyz
x,y,z
-x,1/2+y,1/2-z
-x,-y,-z
x,1/2-y,1/2+z
loop_
_atom_site_type_symbol
_atom_site_label
_atom_site_fract_x
_atom_site_fract_y
_atom_site_fract_z
Si Si1 0.646928 0.614749 0.857110
Si Si2 0.223806 0.829766 0.458581
Si Si3 0.572278 0.605912 0.474256
Si Si4 0.875079 0.900718 0.749789
Si Si5 0.919093 0.938005 0.920749
Si Si6 0.336514 0.562982 0.400905
Si Si7 0.243024 0.372675 0.096174
O O1 0.838432 0.617970 0.587576
O O2 0.717920 0.596946 0.861604
O O3 0.500000 0.500000 0.000000
O O4 0.550186 0.753768 0.965505
O O5 0.429548 0.898472 0.207088
O O6 0.286836 0.690963 0.413224
O O7 0.096555 0.862927 0.526983
O O8 0.079418 0.869547 0.688443
O O9 0.500000 0.500000 0.500000
O O10 0.798056 0.591459 0.251890
O O11 0.761925 0.776115 0.907606
O O12 0.804212 0.025869 0.872111
O O13 0.034627 0.067195 0.807838
O O14 0.722052 0.958256 0.093376
O O15 0.568504 0.569987 0.158396
#
# Coordination Sequence:
#
# PCOD9249337 Si02
#       7
#     4   4   4   4   4   4   4
#     4  11  22  43  65  95 132 175 227 278 337 398
#     4  11  22  43  67  91 136 168 218 283 325 398
#     4  11  25  48  67  95 141 182 220 283 347 403
#     4  10  23  40  66  96 129 181 217 268 354 399
#     4  11  23  39  66  98 124 171 226 271 331 406
#     4  11  21  41  65  96 132 168 221 280 335 397
#     4  11  21  39  66  89 136 170 217 278 340 388
#
# _framework density 21.729620000000001
#
# number of rings (size 3 to 8) (size 9 to 14) (size 15 to 20)
#    0.000    1.143    5.714    1.286    0.000    2.857 
#    7.714    0.000    0.000    0.000    0.000    0.000 
#    0.000    0.000    0.000    0.000    0.000    0.000 
#
# Total GULP energy -156023.465784 kJ/mol
# GULP energy per Si atom -5572.266635 kJ/mol
# Density = 2.168016 g / cm^3
# Si number density = 21.729620 Si / 1000 Ang^3
#
#
#
# Elastic Constant Matrix: (Units=GPa)
#
#
# Indices 1 2 3 4 5 6 
#
# 1 68.0269 43.9249 11.3780 0.0000 -9.5762 0.0000
# 2 43.9249 70.6633 22.4431 0.0000 4.2512 0.0000
# 3 11.3780 22.4431 89.5439 0.0000 2.8505 0.0000
# 4 0.0000 0.0000 0.0000 24.4465 0.0000 -3.4476
# 5 -9.5762 4.2512 2.8505 0.0000 38.8584 0.0000
# 6 0.0000 0.0000 0.0000 -3.4476 0.0000 37.4407
#
#
#
# Elastic Compliance Matrix: (Units=1/GPa)
#
#
# Indices 1 2 3 4 5 6 
#
# 1 0.027172 -0.017626 0.000692 0.000000 0.008574 0.000000
# 2 -0.017626 0.026886 -0.004277 0.000000 -0.006971 0.000000
# 3 0.000692 -0.004277 0.012160 0.000000 -0.000253 0.000000
# 4 0.000000 0.000000 0.000000 0.041444 0.000000 0.003816
# 5 0.008574 -0.006971 -0.000253 0.000000 0.028629 0.000000
# 6 0.000000 0.000000 0.000000 0.003816 0.000000 0.027060
#
#
# Mechanical properties :
#
#
# Convention : Reuss Voigt Hill
#
# Bulk Modulus (GPa) = 42.02375 42.63625 42.33000
# Shear Modulus (GPa) = 23.39667 30.18166 26.78917
#
# Velocity S-wave (km/s) = 3.28490 3.73092 3.51499
# Velocity P-wave (km/s) = 5.81109 6.18252 5.99968
#
# Compressibility (1/GPa) = 0.02379607
#
# Stress axis : x y z
#
# Youngs Moduli (GPa) = 36.80191 37.19399 82.23815
#
# Poissons Ratio (x) = 0.65559 -0.05692
# Poissons Ratio (y) = 0.64868 0.35174
# Poissons Ratio (z) = -0.02547 0.15908
#
# Static dielectric constant tensor:
#      x y z
#    x 1.817510 0.000000 -0.017550 
#    y 0.000000 1.800800 0.000000 
#    z -0.017550 0.000000 1.812610 
# 
# From -- ./inp_files/61268.got.cif
#   From: 2010.05.17/outbox.cif.g08.bks.cpg/sg14_31_cif.got.tgz:61268.got - 2010.06.03 17:49:19.
