data_PCOD9249728
_publ_section_title
;
Structure prediction by ZEFSAII (Michael W. Deem and Ramdas Pophale) SiO2 
 PCOD9249728
Probable space group: P 21/C
;
_chemical_formula_sum "Si O2"
_cell_formula_units_Z 20
_cell_length_a 7.915169
_cell_length_b 18.146587
_cell_length_c 5.153378
_cell_angle_alpha 90.000000
_cell_angle_beta 81.339686
_cell_angle_gamma 90.000000
_cell_volume 731.757292
_symmetry_space_group_name_H-M "P 21/C"
_symmetry_group_IT_number 14
_symmetry_cell_setting 'monoclinic'
loop_
_space_group_symop_operation_xyz
x,y,z
-x,1/2+y,1/2-z
-x,-y,-z
x,1/2-y,1/2+z
loop_
_atom_site_type_symbol
_atom_site_label
_atom_site_fract_x
_atom_site_fract_y
_atom_site_fract_z
Si Si1 0.056366 0.084211 0.984392
Si Si2 0.143147 0.711705 0.231176
Si Si3 0.744501 0.562981 0.065656
Si Si4 0.442029 0.938507 0.230495
Si Si5 0.515873 0.775280 0.079867
O O1 0.206717 0.095454 0.165488
O O2 0.907790 0.135959 0.123880
O O3 0.125853 0.092351 0.678871
O O4 0.000000 0.000000 0.000000
O O5 0.079689 0.771263 0.457874
O O6 0.347307 0.723173 0.152851
O O7 0.565126 0.571560 0.953597
O O8 0.734307 0.474061 0.123741
O O9 0.447081 0.858235 0.103319
O O10 0.500000 0.000000 0.000000
O O11 0.617587 0.753611 0.312025
#
# Coordination Sequence:
#
# PCOD9249728 Si02
#       5
#     4   4   4   4   4
#     4  12  26  43  72 108 150 194 242 299 369 442
#     4  10  23  43  67 100 143 188 238 304 365 436
#     4  11  26  43  74 105 147 187 249 300 366 423
#     4  11  25  48  79 109 150 195 256 310 362 445
#     4  10  25  41  73 106 142 186 247 305 366 431
#
# _framework density 27.331465000000001
#
# number of rings (size 3 to 8) (size 9 to 14) (size 15 to 20)
#    0.000    1.200    2.000    1.800   16.800    0.000 
#    0.000    6.000    0.000    0.000    0.000    0.000 
#    0.000    0.000    0.000    0.000    0.000    0.000 
#
# Total GULP energy -111802.154740 kJ/mol
# GULP energy per Si atom -5590.107737 kJ/mol
# Density = 2.726926 g / cm^3
# Si number density = 27.331465 Si / 1000 Ang^3
#
#
#
# Elastic Constant Matrix: (Units=GPa)
#
#
# Indices 1 2 3 4 5 6 
#
# 1 68.7157 19.6196 14.1682 0.0000 7.8927 0.0000
# 2 19.6196 138.9514 23.9231 0.0000 -0.0834 0.0000
# 3 14.1682 23.9231 201.9509 0.0000 4.6939 0.0000
# 4 0.0000 0.0000 0.0000 47.2888 0.0000 -10.1340
# 5 7.8927 -0.0834 4.6939 0.0000 31.1095 0.0000
# 6 0.0000 0.0000 0.0000 -10.1340 0.0000 42.8563
#
#
#
# Elastic Compliance Matrix: (Units=1/GPa)
#
#
# Indices 1 2 3 4 5 6 
#
# 1 0.015755 -0.002095 -0.000767 0.000000 -0.003887 0.000000
# 2 -0.002095 0.007626 -0.000772 0.000000 0.000668 0.000000
# 3 -0.000767 -0.000772 0.005110 0.000000 -0.000579 0.000000
# 4 0.000000 0.000000 0.000000 0.022275 0.000000 0.005267
# 5 -0.003887 0.000668 -0.000579 0.000000 0.033220 0.000000
# 6 0.000000 0.000000 0.000000 0.005267 0.000000 0.024579
#
#
# Mechanical properties :
#
#
# Convention : Reuss Voigt Hill
#
# Bulk Modulus (GPa) = 47.11578 58.33775 52.72677
# Shear Modulus (GPa) = 40.68066 47.71138 44.19602
#
# Velocity S-wave (km/s) = 3.86219 4.18264 4.02560
# Velocity P-wave (km/s) = 6.09629 6.68706 6.39850
#
# Compressibility (1/GPa) = 0.02122431
#
# Stress axis : x y z
#
# Youngs Moduli (GPa) = 63.47011 131.13267 195.67987
#
# Poissons Ratio (x) = 0.27472 0.15005
# Poissons Ratio (y) = 0.13297 0.15105
# Poissons Ratio (z) = 0.04867 0.10122
#
# Static dielectric constant tensor:
#      x y z
#    x 2.219000 0.000000 0.057050 
#    y 0.000000 2.163130 0.000000 
#    z 0.057050 0.000000 2.385300 
# 
# From -- ./inp_files/1187.got.cif
#   From: 2010.05.17/outbox.cif.g08.bks.cpg/sg14_1_cif.got.tgz:1187.got - 2010.06.03 17:49:19.
