data_PCOD9249783
_publ_section_title
;
Structure prediction by ZEFSAII (Michael W. Deem and Ramdas Pophale) SiO2 
 PCOD9249783
Probable space group: P 21/C
;
_chemical_formula_sum "Si O2"
_cell_formula_units_Z 22
_cell_length_a 19.015581
_cell_length_b 4.969154
_cell_length_c 9.453080
_cell_angle_alpha 90.000000
_cell_angle_beta 64.483052
_cell_angle_gamma 90.000000
_cell_volume 806.106346
_symmetry_space_group_name_H-M "P 21/C"
_symmetry_group_IT_number 14
_symmetry_cell_setting 'monoclinic'
loop_
_space_group_symop_operation_xyz
x,y,z
-x,1/2+y,1/2-z
-x,-y,-z
x,1/2-y,1/2+z
loop_
_atom_site_type_symbol
_atom_site_label
_atom_site_fract_x
_atom_site_fract_y
_atom_site_fract_z
Si Si1 0.000000 0.500000 0.500000
Si Si2 0.402024 0.216510 0.899644
Si Si3 0.429899 0.716853 0.673730
Si Si4 0.289292 0.584274 0.129201
Si Si5 0.188074 0.577835 0.497072
Si Si6 0.912746 0.576501 0.881699
O O1 0.113310 0.778539 0.539622
O O2 0.038254 0.229450 0.541677
O O3 0.413407 0.449246 0.773808
O O4 0.477858 0.232959 0.935405
O O5 0.323204 0.302276 0.044331
O O6 0.408946 0.953243 0.800713
O O7 0.368385 0.755678 0.603007
O O8 0.240384 0.754836 0.060295
O O9 0.235935 0.547918 0.312078
O O10 0.159193 0.287322 0.571786
O O11 0.048830 0.447466 0.305150
#
# Coordination Sequence:
#
# PCOD9249783 Si02
#       6
#     2   4   4   4   4   4
#     4  12  28  56  96 110 174 190 282 296 422 430
#     4  10  23  43  70 104 142 200 274 326 374 443
#     4  10  23  43  70 104 142 200 274 326 374 443
#     4  12  25  48  74 106 159 211 243 325 385 467
#     4  12  29  46  78 117 170 188 266 296 412 457
#     4  12  29  54  82 131 148 216 242 336 362 507
#
# _framework density 27.291685000000001
#
# number of rings (size 3 to 8) (size 9 to 14) (size 15 to 20)
#    0.000    0.727    1.818    3.818    2.545    9.455 
#    0.000    5.455    0.000    0.000    0.000    0.000 
#    0.000    0.000    0.000    0.000    0.000    0.000 
#
# Total GULP energy -123202.372759 kJ/mol
# GULP energy per Si atom -5600.107853 kJ/mol
# Density = 2.722957 g / cm^3
# Si number density = 27.291685 Si / 1000 Ang^3
#
#
#
# Elastic Constant Matrix: (Units=GPa)
#
#
# Indices 1 2 3 4 5 6 
#
# 1 116.4437 22.1864 27.3201 0.0000 -21.8043 0.0000
# 2 22.1864 169.6010 54.2700 0.0000 -22.5349 0.0000
# 3 27.3201 54.2700 153.3461 0.0000 -49.6469 0.0000
# 4 0.0000 0.0000 0.0000 38.9092 0.0000 0.5706
# 5 -21.8043 -22.5349 -49.6469 0.0000 54.3096 0.0000
# 6 0.0000 0.0000 0.0000 0.5706 0.0000 49.0883
#
#
#
# Elastic Compliance Matrix: (Units=1/GPa)
#
#
# Indices 1 2 3 4 5 6 
#
# 1 0.009398 -0.000680 -0.000431 0.000000 0.003097 0.000000
# 2 -0.000680 0.006727 -0.002051 0.000000 0.000643 0.000000
# 3 -0.000431 -0.002051 0.009932 0.000000 0.008055 0.000000
# 4 0.000000 0.000000 0.000000 0.025705 0.000000 -0.000299
# 5 0.003097 0.000643 0.008055 0.000000 0.027286 0.000000
# 6 0.000000 0.000000 0.000000 -0.000299 0.000000 0.020375
#
#
# Mechanical properties :
#
#
# Convention : Reuss Voigt Hill
#
# Bulk Modulus (GPa) = 50.67826 71.88264 61.28045
# Shear Modulus (GPa) = 44.51315 50.83571 47.67443
#
# Velocity S-wave (km/s) = 4.04296 4.32056 4.18407
# Velocity P-wave (km/s) = 6.35638 7.16139 6.77086
#
# Compressibility (1/GPa) = 0.01973233
#
# Stress axis : x y z
#
# Youngs Moduli (GPa) = 106.40021 148.65473 100.68650
#
# Poissons Ratio (x) = 0.10109 0.04340
# Poissons Ratio (y) = 0.07235 0.20655
# Poissons Ratio (z) = 0.04587 0.30495
#
# Static dielectric constant tensor:
#      x y z
#    x 2.222800 0.000000 -0.026850 
#    y 0.000000 2.145820 0.000000 
#    z -0.026850 0.000000 1.941750 
# 
# From -- ./inp_files/31159.got.cif
#   From: 2010.05.17/outbox.cif.g08.bks.cpg/sg14_16_cif.got.tgz:31159.got - 2010.06.03 17:49:19.
