data_PCOD9249804
_publ_section_title
;
Structure prediction by ZEFSAII (Michael W. Deem and Ramdas Pophale) SiO2 
 PCOD9249804
Probable space group: P 21/C
;
_chemical_formula_sum "Si O2"
_cell_formula_units_Z 18
_cell_length_a 10.752078
_cell_length_b 4.923841
_cell_length_c 13.279215
_cell_angle_alpha 90.000000
_cell_angle_beta 82.304220
_cell_angle_gamma 90.000000
_cell_volume 696.689788
_symmetry_space_group_name_H-M "P 21/C"
_symmetry_group_IT_number 14
_symmetry_cell_setting 'monoclinic'
loop_
_space_group_symop_operation_xyz
x,y,z
-x,1/2+y,1/2-z
-x,-y,-z
x,1/2-y,1/2+z
loop_
_atom_site_type_symbol
_atom_site_label
_atom_site_fract_x
_atom_site_fract_y
_atom_site_fract_z
Si Si1 0.649728 0.159532 0.288357
Si Si2 0.365379 0.340596 0.848982
Si Si3 0.178419 0.013871 0.547200
Si Si4 0.002458 0.630356 0.315254
Si Si5 0.000000 0.000000 0.000000
O O1 0.664573 0.039992 0.742014
O O2 0.645633 0.960897 0.193372
O O3 0.756019 0.073338 0.355553
O O4 0.513954 0.126161 0.355598
O O5 0.281169 0.418498 0.952893
O O6 0.096912 0.287956 0.583119
O O7 0.916321 0.218432 0.474983
O O8 0.037507 0.913683 0.262700
O O9 0.089328 0.474459 0.382957
#
# Coordination Sequence:
#
# PCOD9249804 Si02
#       5
#     4   4   4   4   2
#     4  10  23  43  72 107 146 191 240 315 363 439
#     4  10  23  44  71 108 146 186 254 299 373 436
#     4  10  23  45  72 106 142 201 238 305 371 434
#     4  10  24  45  66  99 144 184 244 296 351 435
#     4   8  24  46  66 106 134 194 240 298 348 450
#
# _framework density 25.836465
#
# number of rings (size 3 to 8) (size 9 to 14) (size 15 to 20)
#    1.333    0.889    0.000    0.667    3.111    6.222 
#    0.000    6.667    0.000    0.000    0.000    0.000 
#    0.000    0.000    0.000    0.000    0.000    0.000 
#
# Total GULP energy -100561.574870 kJ/mol
# GULP energy per Si atom -5586.754159 kJ/mol
# Density = 2.577766 g / cm^3
# Si number density = 25.836465 Si / 1000 Ang^3
#
#
#
# Elastic Constant Matrix: (Units=GPa)
#
#
# Indices 1 2 3 4 5 6 
#
# 1 131.9776 8.8932 23.0200 0.0000 -22.0371 0.0000
# 2 8.8932 58.6796 18.9992 0.0000 -39.6213 0.0000
# 3 23.0200 18.9992 119.2317 0.0000 -17.3132 0.0000
# 4 0.0000 0.0000 0.0000 54.6489 0.0000 0.8240
# 5 -22.0371 -39.6213 -17.3132 0.0000 56.6354 0.0000
# 6 0.0000 0.0000 0.0000 0.8240 0.0000 25.6507
#
#
#
# Elastic Compliance Matrix: (Units=1/GPa)
#
#
# Indices 1 2 3 4 5 6 
#
# 1 0.008387 0.002062 -0.001323 0.000000 0.004301 0.000000
# 2 0.002062 0.033246 -0.002304 0.000000 0.023356 0.000000
# 3 -0.001323 -0.002304 0.009105 0.000000 0.000657 0.000000
# 4 0.000000 0.000000 0.000000 0.018307 0.000000 -0.000588
# 5 0.004301 0.023356 0.000657 0.000000 0.035871 0.000000
# 6 0.000000 0.000000 0.000000 -0.000588 0.000000 0.039004
#
#
# Mechanical properties :
#
#
# Convention : Reuss Voigt Hill
#
# Bulk Modulus (GPa) = 21.00576 45.74596 33.37586
# Shear Modulus (GPa) = 30.68985 44.65210 37.67097
#
# Velocity S-wave (km/s) = 3.45026 4.16174 3.82259
# Velocity P-wave (km/s) = 4.90105 6.39045 5.69466
#
# Compressibility (1/GPa) = 0.04760599
#
# Stress axis : x y z
#
# Youngs Moduli (GPa) = 119.23035 30.07919 109.82975
#
# Poissons Ratio (x) = -0.06201 0.14533
# Poissons Ratio (y) = -0.24580 0.25307
# Poissons Ratio (z) = 0.15777 0.06931
#
# Static dielectric constant tensor:
#      x y z
#    x 2.124450 0.000000 -0.004210 
#    y 0.000000 2.035740 0.000000 
#    z -0.004210 0.000000 2.145960 
# 
# From -- ./inp_files/27401.got.cif
#   From: 2010.05.17/outbox.cif.g08.bks.cpg/sg14_14_cif.got.tgz:27401.got - 2010.06.03 17:49:19.
