data_PCOD9249644
_publ_section_title
;
Structure prediction by ZEFSAII (Michael W. Deem and Ramdas Pophale) SiO2 
 PCOD9249644
Probable space group: P 21/C
;
_chemical_formula_sum "Si O2"
_cell_formula_units_Z 20
_cell_length_a 13.252286
_cell_length_b 9.633714
_cell_length_c 15.481666
_cell_angle_alpha 90.000000
_cell_angle_beta 154.280470
_cell_angle_gamma 90.000000
_cell_volume 857.744913
_symmetry_space_group_name_H-M "P 21/C"
_symmetry_group_IT_number 14
_symmetry_cell_setting 'monoclinic'
loop_
_space_group_symop_operation_xyz
x,y,z
-x,1/2+y,1/2-z
-x,-y,-z
x,1/2-y,1/2+z
loop_
_atom_site_type_symbol
_atom_site_label
_atom_site_fract_x
_atom_site_fract_y
_atom_site_fract_z
Si Si1 0.797274 0.706645 0.148588
Si Si2 0.954490 0.348228 0.498189
Si Si3 0.159913 0.576902 0.899364
Si Si4 0.510723 0.260449 0.243159
Si Si5 0.046601 0.107342 0.459192
O O1 0.781576 0.539217 0.125264
O O2 0.840633 0.719296 0.284345
O O3 0.591843 0.731094 0.431738
O O4 0.015161 0.784528 0.269686
O O5 0.736951 0.351076 0.395347
O O6 0.000000 0.500000 0.500000
O O7 0.914755 0.245482 0.387301
O O8 0.387231 0.629853 0.126125
O O9 0.995543 0.486186 0.836379
O O10 0.308740 0.337819 0.140245
O O11 0.000000 0.000000 0.500000
#
# Coordination Sequence:
#
# PCOD9249644 Si02
#       5
#     4   4   4   4   4
#     4  10  23  42  70  99 138 182 231 277 359 405
#     4  11  26  44  68 105 140 179 235 289 336 420
#     4  10  23  44  67 102 135 184 226 290 342 415
#     4  10  24  43  70  96 140 179 226 284 348 399
#     4  11  22  45  70  96 140 180 228 282 342 408
#
# _framework density 23.316956000000001
#
# number of rings (size 3 to 8) (size 9 to 14) (size 15 to 20)
#    0.000    1.600    4.000    0.000   11.200    4.000 
#    0.000    4.000    0.000    0.000    0.000    0.000 
#    0.000    0.000    0.000    0.000    0.000    0.000 
#
# Total GULP energy -111355.159085 kJ/mol
# GULP energy per Si atom -5567.757954 kJ/mol
# Density = 2.326389 g / cm^3
# Si number density = 23.316956 Si / 1000 Ang^3
#
#
#
# Elastic Constant Matrix: (Units=GPa)
#
#
# Indices 1 2 3 4 5 6 
#
# 1 89.1461 15.6796 9.2304 0.0000 16.5249 0.0000
# 2 15.6796 128.3425 28.6641 0.0000 12.2460 0.0000
# 3 9.2304 28.6641 90.3907 0.0000 -8.6610 0.0000
# 4 0.0000 0.0000 0.0000 42.5137 0.0000 -7.1194
# 5 16.5249 12.2460 -8.6610 0.0000 37.9495 0.0000
# 6 0.0000 0.0000 0.0000 -7.1194 0.0000 49.6284
#
#
#
# Elastic Compliance Matrix: (Units=1/GPa)
#
#
# Indices 1 2 3 4 5 6 
#
# 1 0.012539 -0.000634 -0.001618 0.000000 -0.005625 0.000000
# 2 -0.000634 0.008866 -0.003062 0.000000 -0.003284 0.000000
# 3 -0.001618 -0.003062 0.012638 0.000000 0.004577 0.000000
# 4 0.000000 0.000000 0.000000 0.024101 0.000000 0.003457
# 5 -0.005625 -0.003284 0.004577 0.000000 0.030904 0.000000
# 6 0.000000 0.000000 0.000000 0.003457 0.000000 0.020646
#
#
# Mechanical properties :
#
#
# Convention : Reuss Voigt Hill
#
# Bulk Modulus (GPa) = 42.70626 46.11416 44.41021
# Shear Modulus (GPa) = 39.02381 42.97199 40.99790
#
# Velocity S-wave (km/s) = 4.09543 4.29762 4.19774
# Velocity P-wave (km/s) = 6.38112 6.66679 6.52552
#
# Compressibility (1/GPa) = 0.02341577
#
# Stress axis : x y z
#
# Youngs Moduli (GPa) = 79.74931 112.78828 79.12794
#
# Poissons Ratio (x) = 0.07148 0.12807
# Poissons Ratio (y) = 0.05054 0.24225
# Poissons Ratio (z) = 0.12907 0.34530
#
# Static dielectric constant tensor:
#      x y z
#    x 1.935380 0.000000 -0.049250 
#    y 0.000000 1.903990 0.000000 
#    z -0.049250 0.000000 1.979390 
# 
# From -- ./inp_files/44691.got.cif
#   From: 2010.05.17/outbox.cif.g08.bks.cpg/sg14_23_cif.got.tgz:44691.got - 2010.06.03 17:49:19.
