data_PCOD9249026
_publ_section_title
;
Structure prediction by ZEFSAII (Michael W. Deem and Ramdas Pophale) SiO2 
 PCOD9249026
Probable space group: P 21/C
;
_chemical_formula_sum "Si O2"
_cell_formula_units_Z 28
_cell_length_a 15.376601
_cell_length_b 4.981982
_cell_length_c 24.215549
_cell_angle_alpha 90.000000
_cell_angle_beta 36.611367
_cell_angle_gamma 90.000000
_cell_volume 1106.325445
_symmetry_space_group_name_H-M "P 21/C"
_symmetry_group_IT_number 14
_symmetry_cell_setting 'monoclinic'
loop_
_space_group_symop_operation_xyz
x,y,z
-x,1/2+y,1/2-z
-x,-y,-z
x,1/2-y,1/2+z
loop_
_atom_site_type_symbol
_atom_site_label
_atom_site_fract_x
_atom_site_fract_y
_atom_site_fract_z
Si Si1 0.457097 0.064422 0.958983
Si Si2 0.148223 0.952953 0.391416
Si Si3 0.569772 0.226577 0.692874
Si Si4 0.145532 0.111284 0.729036
Si Si5 0.640336 0.781687 0.290012
Si Si6 0.987604 0.139841 0.653364
Si Si7 0.268851 0.939687 0.547664
O O1 0.320972 0.864356 0.017489
O O2 0.407949 0.366982 0.977329
O O3 0.582322 0.976545 0.853206
O O4 0.500000 0.000000 0.000000
O O5 0.240144 0.201761 0.317699
O O6 0.265156 0.808860 0.371662
O O7 0.091936 0.813724 0.364123
O O8 0.000000 0.000000 0.500000
O O9 0.522443 0.536351 0.718575
O O10 0.502945 0.118453 0.669485
O O11 0.277809 0.054794 0.704204
O O12 0.098691 0.416034 0.766193
O O13 0.193865 0.022178 0.644107
O O14 0.014129 0.918574 0.813616
O O15 0.149297 0.023120 0.563583
#
# Coordination Sequence:
#
# PCOD9249026 Si02
#       7
#     4   4   4   4   4   4   4
#     4  12  26  44  67 106 139 186 234 284 345 424
#     4  10  24  47  72 102 139 183 241 294 348 414
#     4  10  22  45  71 103 134 184 236 291 349 410
#     4  11  22  42  71 100 141 182 229 285 353 421
#     4  10  24  44  74  99 145 187 231 295 356 411
#     4  11  24  43  68 103 138 188 227 289 357 413
#     4  12  25  42  70 102 145 180 235 284 344 433
#
# _framework density 25.309010000000001
#
# number of rings (size 3 to 8) (size 9 to 14) (size 15 to 20)
#    0.000    1.143    1.429    3.857    4.000    2.286 
#    5.143    5.714    0.000    0.000    0.000    0.000 
#    0.000    0.000    0.000    0.000    0.000    0.000 
#
# Total GULP energy -156621.216386 kJ/mol
# GULP energy per Si atom -5593.614871 kJ/mol
# Density = 2.525141 g / cm^3
# Si number density = 25.309010 Si / 1000 Ang^3
#
#
#
# Elastic Constant Matrix: (Units=GPa)
#
#
# Indices 1 2 3 4 5 6 
#
# 1 143.3437 5.0965 39.3370 0.0000 -20.8106 0.0000
# 2 5.0965 57.8238 15.2981 0.0000 3.5767 0.0000
# 3 39.3370 15.2981 127.7015 0.0000 -8.8732 0.0000
# 4 0.0000 0.0000 0.0000 39.4517 0.0000 -5.4244
# 5 -20.8106 3.5767 -8.8732 0.0000 50.2004 0.0000
# 6 0.0000 0.0000 0.0000 -5.4244 0.0000 33.5404
#
#
#
# Elastic Compliance Matrix: (Units=1/GPa)
#
#
# Indices 1 2 3 4 5 6 
#
# 1 0.008028 -0.000300 -0.002232 0.000000 0.002955 0.000000
# 2 -0.000300 0.018011 -0.002190 0.000000 -0.001795 0.000000
# 3 -0.002232 -0.002190 0.008836 0.000000 0.000793 0.000000
# 4 0.000000 0.000000 0.000000 0.025924 0.000000 0.004193
# 5 0.002955 -0.001795 0.000793 0.000000 0.021413 0.000000
# 6 0.000000 0.000000 0.000000 0.004193 0.000000 0.030493
#
#
# Mechanical properties :
#
#
# Convention : Reuss Voigt Hill
#
# Bulk Modulus (GPa) = 39.32135 49.81469 44.56802
# Shear Modulus (GPa) = 38.27746 42.58098 40.42922
#
# Velocity S-wave (km/s) = 3.89318 4.10621 4.00111
# Velocity P-wave (km/s) = 5.98159 6.49666 6.24444
#
# Compressibility (1/GPa) = 0.02543148
#
# Stress axis : x y z
#
# Youngs Moduli (GPa) = 124.55816 55.52238 113.17783
#
# Poissons Ratio (x) = 0.01665 0.25259
# Poissons Ratio (y) = 0.03736 0.24785
# Poissons Ratio (z) = 0.27799 0.12159
#
# Static dielectric constant tensor:
#      x y z
#    x 2.047300 0.000000 0.001340 
#    y 0.000000 1.980790 0.000000 
#    z 0.001340 0.000000 2.040190 
# 
# From -- ./inp_files/77412.got.cif
#   From: 2010.05.17/outbox.cif.g08.bks.cpg/sg14_39_cif.got.tgz:77412.got - 2010.06.03 17:49:19.
