data_PCOD9249135
_publ_section_title
;
Structure prediction by ZEFSAII (Michael W. Deem and Ramdas Pophale) SiO2 
 PCOD9249135
Probable space group: P 21/C
;
_chemical_formula_sum "Si O2"
_cell_formula_units_Z 28
_cell_length_a 16.497829
_cell_length_b 5.196007
_cell_length_c 13.483144
_cell_angle_alpha 90.000000
_cell_angle_beta 61.308708
_cell_angle_gamma 90.000000
_cell_volume 1013.901573
_symmetry_space_group_name_H-M "P 21/C"
_symmetry_group_IT_number 14
_symmetry_cell_setting 'monoclinic'
loop_
_space_group_symop_operation_xyz
x,y,z
-x,1/2+y,1/2-z
-x,-y,-z
x,1/2-y,1/2+z
loop_
_atom_site_type_symbol
_atom_site_label
_atom_site_fract_x
_atom_site_fract_y
_atom_site_fract_z
Si Si1 0.646750 0.973020 0.403647
Si Si2 0.034524 0.353276 0.681938
Si Si3 0.077305 0.698667 0.918264
Si Si4 0.243442 0.416657 0.785792
Si Si5 0.420525 0.523882 0.462083
Si Si6 0.386352 0.829333 0.782613
Si Si7 0.802086 0.544805 0.523085
O O1 0.729123 0.816158 0.302479
O O2 0.616579 0.768802 0.505342
O O3 0.648141 0.252059 0.454611
O O4 0.588182 0.031775 0.336120
O O5 0.144469 0.375149 0.605955
O O6 0.993140 0.562528 0.778843
O O7 0.979211 0.405366 0.612357
O O8 0.163512 0.606988 0.797530
O O9 0.000000 0.500000 0.000000
O O10 0.135709 0.814212 0.973702
O O11 0.334238 0.570440 0.773094
O O12 0.191758 0.286441 0.908234
O O13 0.500000 0.500000 0.500000
O O14 0.457133 0.879402 0.832284
O O15 0.302430 0.962210 0.894811
#
# Coordination Sequence:
#
# PCOD9249135 Si02
#       7
#     4   4   4   4   4   4   4
#     4  11  25  50  73 116 149 193 260 287 384 463
#     4  12  27  42  59 100 140 179 243 314 370 422
#     4  11  22  43  69  93 138 197 249 298 368 435
#     4  10  22  46  74 101 141 202 250 309 367 453
#     4  12  28  49  81 116 153 194 242 315 382 465
#     4  10  25  49  77 105 155 195 249 312 380 456
#     4  10  23  44  68  93 137 195 245 298 380 437
#
# _framework density 27.616094
#
# number of rings (size 3 to 8) (size 9 to 14) (size 15 to 20)
#    0.000    1.143    2.857    1.714    8.000    2.286 
#    5.143    0.000    0.000    0.000    0.000    0.000 
#    0.000    0.000    0.000    0.000    0.000    0.000 
#
# Total GULP energy -156199.495145 kJ/mol
# GULP energy per Si atom -5578.553398 kJ/mol
# Density = 2.755324 g / cm^3
# Si number density = 27.616094 Si / 1000 Ang^3
#
#
#
# Elastic Constant Matrix: (Units=GPa)
#
#
# Indices 1 2 3 4 5 6 
#
# 1 75.6404 27.7618 22.9844 0.0000 4.2734 0.0000
# 2 27.7618 125.4360 38.0365 0.0000 -8.1252 0.0000
# 3 22.9844 38.0365 112.3129 0.0000 22.9808 0.0000
# 4 0.0000 0.0000 0.0000 50.5369 0.0000 -1.1295
# 5 4.2734 -8.1252 22.9808 0.0000 55.8547 0.0000
# 6 0.0000 0.0000 0.0000 -1.1295 0.0000 33.7372
#
#
#
# Elastic Compliance Matrix: (Units=1/GPa)
#
#
# Indices 1 2 3 4 5 6 
#
# 1 0.014865 -0.002741 -0.001965 0.000000 -0.000728 0.000000
# 2 -0.002741 0.009799 -0.003376 0.000000 0.003024 0.000000
# 3 -0.001965 -0.003376 0.011486 0.000000 -0.005067 0.000000
# 4 0.000000 0.000000 0.000000 0.019802 0.000000 0.000663
# 5 -0.000728 0.003024 -0.005067 0.000000 0.020484 0.000000
# 6 0.000000 0.000000 0.000000 0.000663 0.000000 0.029663
#
#
# Mechanical properties :
#
#
# Convention : Reuss Voigt Hill
#
# Bulk Modulus (GPa) = 50.03838 54.55051 52.29445
# Shear Modulus (GPa) = 38.78242 42.99954 40.89098
#
# Velocity S-wave (km/s) = 3.75152 3.95022 3.85215
# Velocity P-wave (km/s) = 6.07650 6.37195 6.22598
#
# Compressibility (1/GPa) = 0.01998466
#
# Stress axis : x y z
#
# Youngs Moduli (GPa) = 67.27358 102.05546 87.06342
#
# Poissons Ratio (x) = 0.27976 0.17106
# Poissons Ratio (y) = 0.18441 0.29395
# Poissons Ratio (z) = 0.13217 0.34457
#
# Static dielectric constant tensor:
#      x y z
#    x 2.427250 0.000000 0.128810 
#    y 0.000000 2.180930 0.000000 
#    z 0.128810 0.000000 2.331090 
# 
# From -- ./inp_files/49478.got.cif
#   From: 2010.05.17/outbox.cif.g08.bks.cpg/sg14_25_cif.got.tgz:49478.got - 2010.06.03 17:49:19.
