data_PCOD9249427
_publ_section_title
;
Structure prediction by ZEFSAII (Michael W. Deem and Ramdas Pophale) SiO2 
 PCOD9249427
Probable space group: P 21/C
;
_chemical_formula_sum "Si O2"
_cell_formula_units_Z 32
_cell_length_a 14.559178
_cell_length_b 11.105895
_cell_length_c 18.148003
_cell_angle_alpha 90.000000
_cell_angle_beta 29.836411
_cell_angle_gamma 90.000000
_cell_volume 1459.938117
_symmetry_space_group_name_H-M "P 21/C"
_symmetry_group_IT_number 14
_symmetry_cell_setting 'monoclinic'
loop_
_space_group_symop_operation_xyz
x,y,z
-x,1/2+y,1/2-z
-x,-y,-z
x,1/2-y,1/2+z
loop_
_atom_site_type_symbol
_atom_site_label
_atom_site_fract_x
_atom_site_fract_y
_atom_site_fract_z
Si Si1 0.415844 0.030842 0.346719
Si Si2 0.970832 0.635935 0.358091
Si Si3 0.775622 0.672264 0.275996
Si Si4 0.985804 0.747836 0.003833
Si Si5 0.180269 0.686140 0.072208
Si Si6 0.807387 0.087408 0.028395
Si Si7 0.267725 0.959075 0.298173
Si Si8 0.400410 0.226361 0.954635
O O1 0.629714 0.012911 0.177079
O O2 0.405068 0.147801 0.406987
O O3 0.320601 0.917384 0.451494
O O4 0.311666 0.038265 0.340283
O O5 0.967251 0.496786 0.384388
O O6 0.779460 0.656566 0.449145
O O7 0.964165 0.713532 0.435916
O O8 0.132884 0.676222 0.191050
O O9 0.725847 0.540368 0.279643
O O10 0.637360 0.729966 0.431175
O O11 0.981545 0.668117 0.169087
O O12 0.805391 0.747995 0.180596
O O13 0.120847 0.840987 0.950886
O O14 0.080926 0.617036 0.938970
O O15 0.247517 0.814667 0.995226
O O16 0.422891 0.855077 0.184950
#
# Coordination Sequence:
#
# PCOD9249427 Si02
#       8
#     4   4   4   4   4   4   4   4
#     4  12  22  43  69  93 140 181 222 281 344 402
#     4  11  25  41  71  96 131 185 217 285 343 400
#     4  10  23  41  66 100 135 172 224 288 330 401
#     4  11  23  44  65  99 134 175 232 277 338 408
#     4  10  25  43  69 101 132 176 234 276 335 413
#     4  11  23  46  65  96 139 175 226 279 339 412
#     4  12  22  43  68 100 134 179 227 285 334 414
#     4  11  24  41  65 100 132 174 223 279 345 400
#
# _framework density 21.918735999999999
#
# number of rings (size 3 to 8) (size 9 to 14) (size 15 to 20)
#    0.000    1.000    5.000    1.875    7.000    1.000 
#    2.250    0.625    0.000    0.000    0.000    0.000 
#    0.000    0.000    0.000    0.000    0.000    0.000 
#
# Total GULP energy -178840.415211 kJ/mol
# GULP energy per Si atom -5588.762975 kJ/mol
# Density = 2.186885 g / cm^3
# Si number density = 21.918736 Si / 1000 Ang^3
#
#
#
# Elastic Constant Matrix: (Units=GPa)
#
#
# Indices 1 2 3 4 5 6 
#
# 1 61.5431 16.5095 31.1595 0.0000 36.8565 0.0000
# 2 16.5095 77.0752 35.2880 0.0000 20.9316 0.0000
# 3 31.1595 35.2880 113.8599 0.0000 41.1890 0.0000
# 4 0.0000 0.0000 0.0000 19.6616 0.0000 -6.3783
# 5 36.8565 20.9316 41.1890 0.0000 39.6000 0.0000
# 6 0.0000 0.0000 0.0000 -6.3783 0.0000 37.4581
#
#
#
# Elastic Compliance Matrix: (Units=1/GPa)
#
#
# Indices 1 2 3 4 5 6 
#
# 1 0.037773 0.000956 0.003635 0.000000 -0.039442 0.000000
# 2 0.000956 0.015787 -0.002908 0.000000 -0.006210 0.000000
# 3 0.003635 -0.002908 0.015002 0.000000 -0.017449 0.000000
# 4 0.000000 0.000000 0.000000 0.053834 0.000000 0.009167
# 5 -0.039442 -0.006210 -0.017449 0.000000 0.083394 0.000000
# 6 0.000000 0.000000 0.000000 0.009167 0.000000 0.028257
#
#
# Mechanical properties :
#
#
# Convention : Reuss Voigt Hill
#
# Bulk Modulus (GPa) = 13.90288 46.48804 30.19546
# Shear Modulus (GPa) = 19.63423 30.64535 25.13979
#
# Velocity S-wave (km/s) = 2.99619 3.74322 3.39035
# Velocity P-wave (km/s) = 4.28092 6.31962 5.39740
#
# Compressibility (1/GPa) = 0.07192754
#
# Stress axis : x y z
#
# Youngs Moduli (GPa) = 26.47422 63.34143 66.65936
#
# Poissons Ratio (x) = -0.06058 -0.24228
# Poissons Ratio (y) = -0.02532 0.19385
# Poissons Ratio (z) = -0.09622 0.18420
#
# Static dielectric constant tensor:
#      x y z
#    x 1.827350 0.000000 0.008590 
#    y 0.000000 1.809470 0.000000 
#    z 0.008590 0.000000 1.806220 
# 
# From -- ./inp_files/59378.got.cif
#   From: 2010.05.17/outbox.cif.g08.bks.cpg/sg14_30_cif.got.tgz:59378.got - 2010.06.03 17:49:19.
