data_PCOD9249375
_publ_section_title
;
Structure prediction by ZEFSAII (Michael W. Deem and Ramdas Pophale) SiO2 
 PCOD9249375
Probable space group: P 21/C
;
_chemical_formula_sum "Si O2"
_cell_formula_units_Z 20
_cell_length_a 4.832991
_cell_length_b 13.702881
_cell_length_c 12.689429
_cell_angle_alpha 90.000000
_cell_angle_beta 112.387664
_cell_angle_gamma 90.000000
_cell_volume 777.028630
_symmetry_space_group_name_H-M "P 21/C"
_symmetry_group_IT_number 14
_symmetry_cell_setting 'monoclinic'
loop_
_space_group_symop_operation_xyz
x,y,z
-x,1/2+y,1/2-z
-x,-y,-z
x,1/2-y,1/2+z
loop_
_atom_site_type_symbol
_atom_site_label
_atom_site_fract_x
_atom_site_fract_y
_atom_site_fract_z
Si Si1 0.989259 0.886071 0.173185
Si Si2 0.642889 0.113929 0.326815
Si Si3 0.357112 0.113929 0.673186
Si Si4 0.989260 0.113929 0.173185
Si Si5 0.500001 0.250000 0.000000
O O1 0.914449 0.869395 0.286198
O O2 0.771750 0.818602 0.076172
O O3 0.085549 0.630604 0.213801
O O4 0.342054 0.130604 0.213801
O O5 0.657947 0.369396 0.286199
O O6 0.643886 0.000000 0.358455
O O7 0.619404 0.181399 0.423827
O O8 0.380597 0.181399 0.576173
O O9 0.073023 1.000000 0.858455
O O10 0.771752 0.181399 0.076173
#
# Coordination Sequence:
#
# PCOD9249375 Si02
#       5
#     4   4   4   4   4
#     4  10  23  41  59  85 120 153 190 238 289 342
#     4  10  23  41  59  85 120 153 190 238 289 342
#     4  10  23  41  59  85 120 153 190 238 289 342
#     4  10  23  41  59  85 120 153 190 238 289 342
#     4  12  22  38  64  90 112 154 198 238 284 342
#
# _framework density 25.739077999999999
#
# number of rings (size 3 to 8) (size 9 to 14) (size 15 to 20)
#    0.000    1.600    0.000    3.600    0.000    6.400 
#    0.000   12.000    0.000    0.000    0.000    0.000 
#    0.000    0.000    0.000    0.000    0.000    0.000 
#
# Total GULP energy -112448.693219 kJ/mol
# GULP energy per Si atom -5622.434661 kJ/mol
# Density = 2.568049 g / cm^3
# Si number density = 25.739078 Si / 1000 Ang^3
#
#
#
# Elastic Constant Matrix: (Units=GPa)
#
#
# Indices 1 2 3 4 5 6 
#
# 1 99.1451 33.9277 5.5900 0.0000 7.0520 0.0000
# 2 33.9277 141.1294 85.6370 0.0000 -7.5650 0.0000
# 3 5.5900 85.6370 90.6796 0.0000 -5.8129 0.0000
# 4 0.0000 0.0000 0.0000 31.3277 0.0000 0.6431
# 5 7.0520 -7.5650 -5.8129 0.0000 24.5593 0.0000
# 6 0.0000 0.0000 0.0000 0.6431 0.0000 35.7168
#
#
#
# Elastic Compliance Matrix: (Units=1/GPa)
#
#
# Indices 1 2 3 4 5 6 
#
# 1 0.012157 -0.005926 0.004576 0.000000 -0.004233 0.000000
# 2 -0.005926 0.019534 -0.017859 0.000000 0.003492 0.000000
# 3 0.004576 -0.017859 0.027593 0.000000 -0.000284 0.000000
# 4 0.000000 0.000000 0.000000 0.031932 0.000000 -0.000575
# 5 -0.004233 0.003492 -0.000284 0.000000 0.042942 0.000000
# 6 0.000000 0.000000 0.000000 -0.000575 0.000000 0.028008
#
#
# Mechanical properties :
#
#
# Convention : Reuss Voigt Hill
#
# Bulk Modulus (GPa) = 47.92388 64.58485 56.25437
# Shear Modulus (GPa) = 24.09169 32.04072 28.06620
#
# Velocity S-wave (km/s) = 3.06273 3.53204 3.30572
# Velocity P-wave (km/s) = 5.58270 6.46377 6.03933
#
# Compressibility (1/GPa) = 0.02086642
#
# Stress axis : x y z
#
# Youngs Moduli (GPa) = 82.25537 51.19259 36.24096
#
# Poissons Ratio (x) = 0.30337 -0.16583
# Poissons Ratio (y) = 0.48745 0.64721
# Poissons Ratio (z) = -0.37638 0.91423
#
# Static dielectric constant tensor:
#      x y z
#    x 1.941560 0.000000 -0.011140 
#    y 0.000000 1.998420 0.000000 
#    z -0.011140 0.000000 2.017680 
# 
# From -- ./inp_files/55526.got.cif
#   From: 2010.05.17/outbox.cif.g08.bks.cpg/sg14_28_cif.got.tgz:55526.got - 2010.06.03 17:49:19.
