data_PCOD9249645
_publ_section_title
;
Structure prediction by ZEFSAII (Michael W. Deem and Ramdas Pophale) SiO2 
 PCOD9249645
Probable space group: P 21/C
;
_chemical_formula_sum "Si O2"
_cell_formula_units_Z 24
_cell_length_a 24.985246
_cell_length_b 7.256676
_cell_length_c 18.465347
_cell_angle_alpha 90.000000
_cell_angle_beta 18.405796
_cell_angle_gamma 90.000000
_cell_volume 1057.098239
_symmetry_space_group_name_H-M "P 21/C"
_symmetry_group_IT_number 14
_symmetry_cell_setting 'monoclinic'
loop_
_space_group_symop_operation_xyz
x,y,z
-x,1/2+y,1/2-z
-x,-y,-z
x,1/2-y,1/2+z
loop_
_atom_site_type_symbol
_atom_site_label
_atom_site_fract_x
_atom_site_fract_y
_atom_site_fract_z
Si Si1 0.549211 0.638764 0.826113
Si Si2 0.344457 0.698627 0.949764
Si Si3 0.064740 0.082745 0.840132
Si Si4 0.806978 0.953858 0.770597
Si Si5 0.470798 0.930922 0.136460
Si Si6 0.717720 0.368012 0.708698
O O1 0.477799 0.618086 0.837105
O O2 0.586027 0.856620 0.786515
O O3 0.392211 0.578132 0.079455
O O4 0.697662 0.515431 0.669363
O O5 0.179379 0.571158 0.156972
O O6 0.275105 0.887883 0.073775
O O7 0.428606 0.682386 0.763815
O O8 0.178979 0.259790 0.708166
O O9 0.907704 0.142948 0.992538
O O10 0.000000 0.000000 0.000000
O O11 0.675909 0.934601 0.872014
O O12 0.000000 0.000000 0.500000
O O13 0.372067 0.818913 0.202502
#
# Coordination Sequence:
#
# PCOD9249645 Si02
#       6
#     4   4   4   4   4   4
#     4  10  23  42  71 100 138 184 237 292 354 439
#     4  11  25  45  68 106 136 189 239 297 370 427
#     4  12  23  44  70  99 143 187 236 293 356 432
#     4  11  24  43  75 101 138 187 243 289 354 446
#     4  11  26  44  72 105 142 186 243 301 369 423
#     4  11  24  43  70 104 141 186 243 293 353 430
#
# _framework density 22.703661
#
# number of rings (size 3 to 8) (size 9 to 14) (size 15 to 20)
#    0.000    1.000    3.333    2.500   11.667    1.333 
#    6.000    0.000    0.000    0.000    0.000    0.000 
#    0.000    0.000    0.000    0.000    0.000    0.000 
#
# Total GULP energy -134257.653220 kJ/mol
# GULP energy per Si atom -5594.068884 kJ/mol
# Density = 2.265199 g / cm^3
# Si number density = 22.703661 Si / 1000 Ang^3
#
#
#
# Elastic Constant Matrix: (Units=GPa)
#
#
# Indices 1 2 3 4 5 6 
#
# 1 140.1062 30.4743 47.9685 0.0000 -23.1979 0.0000
# 2 30.4743 115.3260 31.0550 0.0000 -32.6126 0.0000
# 3 47.9685 31.0550 97.8529 0.0000 -19.5479 0.0000
# 4 0.0000 0.0000 0.0000 35.5526 0.0000 -8.6839
# 5 -23.1979 -32.6126 -19.5479 0.0000 49.2123 0.0000
# 6 0.0000 0.0000 0.0000 -8.6839 0.0000 35.7216
#
#
#
# Elastic Compliance Matrix: (Units=1/GPa)
#
#
# Indices 1 2 3 4 5 6 
#
# 1 0.008936 -0.000726 -0.003698 0.000000 0.002262 0.000000
# 2 -0.000726 0.011161 -0.001930 0.000000 0.006287 0.000000
# 3 -0.003698 -0.001930 0.013079 0.000000 0.002173 0.000000
# 4 0.000000 0.000000 0.000000 0.029903 0.000000 0.007269
# 5 0.002262 0.006287 0.002173 0.000000 0.026416 0.000000
# 6 0.000000 0.000000 0.000000 0.007269 0.000000 0.029761
#
#
# Mechanical properties :
#
#
# Convention : Reuss Voigt Hill
#
# Bulk Modulus (GPa) = 48.85864 63.58674 56.22269
# Shear Modulus (GPa) = 36.02647 40.34979 38.18813
#
# Velocity S-wave (km/s) = 3.98780 4.22030 4.10570
# Velocity P-wave (km/s) = 6.53990 7.19833 6.87700
#
# Compressibility (1/GPa) = 0.02046721
#
# Stress axis : x y z
#
# Youngs Moduli (GPa) = 111.90597 89.60142 76.45853
#
# Poissons Ratio (x) = 0.06502 0.28277
# Poissons Ratio (y) = 0.08121 0.14758
# Poissons Ratio (z) = 0.41386 0.17295
#
# Static dielectric constant tensor:
#      x y z
#    x 1.874540 0.000000 0.025680 
#    y 0.000000 1.915380 0.000000 
#    z 0.025680 0.000000 1.860400 
# 
# From -- ./inp_files/61675.got.cif
#   From: 2010.05.17/outbox.cif.g08.bks.cpg/sg14_31_cif.got.tgz:61675.got - 2010.06.03 17:49:19.
