data_PCOD9249108
_publ_section_title
;
Structure prediction by ZEFSAII (Michael W. Deem and Ramdas Pophale) SiO2 
 PCOD9249108
Probable space group: P 21/C
;
_chemical_formula_sum "Si O2"
_cell_formula_units_Z 18
_cell_length_a 8.771745
_cell_length_b 16.704335
_cell_length_c 10.323343
_cell_angle_alpha 90.000000
_cell_angle_beta 151.928470
_cell_angle_gamma 90.000000
_cell_volume 711.808240
_symmetry_space_group_name_H-M "P 21/C"
_symmetry_group_IT_number 14
_symmetry_cell_setting 'monoclinic'
loop_
_space_group_symop_operation_xyz
x,y,z
-x,1/2+y,1/2-z
-x,-y,-z
x,1/2-y,1/2+z
loop_
_atom_site_type_symbol
_atom_site_label
_atom_site_fract_x
_atom_site_fract_y
_atom_site_fract_z
Si Si1 0.443307 0.185255 0.454249
Si Si2 0.785235 0.247079 0.967810
Si Si3 0.443723 0.997903 0.740576
Si Si4 0.198450 0.408953 0.283001
Si Si5 0.500000 0.500000 0.000000
O O1 0.616991 0.225471 0.707124
O O2 0.534955 0.236395 0.395510
O O3 0.550183 0.095260 0.505334
O O4 0.061799 0.181091 0.200279
O O5 0.010378 0.326638 0.131006
O O6 0.420688 0.069904 0.826304
O O7 0.619369 0.016778 0.740427
O O8 0.075922 0.978189 0.422934
O O9 0.596858 0.923679 0.933841
#
# Coordination Sequence:
#
# PCOD9249108 Si02
#       5
#     4   4   4   4   2
#     4  12  30  49  80 108 161 196 265 309 403 447
#     4  12  27  52  75 114 149 208 253 329 377 472
#     4  10  23  41  74 105 145 194 241 311 371 459
#     4  10  22  46  70 102 145 195 249 296 384 451
#     4  12  28  50  74 118 152 206 252 330 374 474
#
# _framework density 25.287709
#
# number of rings (size 3 to 8) (size 9 to 14) (size 15 to 20)
#    0.000    0.889    2.222    2.667    9.333    3.556 
#    0.000    0.000    0.000    0.000    0.000    0.000 
#    0.000    0.000    0.000    0.000    0.000    0.000 
#
# Total GULP energy -100327.568384 kJ/mol
# GULP energy per Si atom -5573.753799 kJ/mol
# Density = 2.523015 g / cm^3
# Si number density = 25.287709 Si / 1000 Ang^3
#
#
#
# Elastic Constant Matrix: (Units=GPa)
#
#
# Indices 1 2 3 4 5 6 
#
# 1 102.6873 36.7491 24.0016 0.0000 -11.9313 0.0000
# 2 36.7491 76.9895 4.8662 0.0000 -5.8278 0.0000
# 3 24.0016 4.8662 87.8278 0.0000 -14.5639 0.0000
# 4 0.0000 0.0000 0.0000 20.3404 0.0000 1.5787
# 5 -11.9313 -5.8278 -14.5639 0.0000 46.0769 0.0000
# 6 0.0000 0.0000 0.0000 1.5787 0.0000 20.8416
#
#
#
# Elastic Compliance Matrix: (Units=1/GPa)
#
#
# Indices 1 2 3 4 5 6 
#
# 1 0.012651 -0.005733 -0.002867 0.000000 0.001645 0.000000
# 2 -0.005733 0.015731 0.000822 0.000000 0.000765 0.000000
# 3 -0.002867 0.000822 0.012683 0.000000 0.003370 0.000000
# 4 0.000000 0.000000 0.000000 0.049454 0.000000 -0.003746
# 5 0.001645 0.000765 0.003370 0.000000 0.023291 0.000000
# 6 0.000000 0.000000 0.000000 -0.003746 0.000000 0.048265
#
#
# Mechanical properties :
#
#
# Convention : Reuss Voigt Hill
#
# Bulk Modulus (GPa) = 39.20164 44.30426 41.75295
# Shear Modulus (GPa) = 26.86240 30.91096 28.88668
#
# Velocity S-wave (km/s) = 3.26279 3.50003 3.38349
# Velocity P-wave (km/s) = 5.45255 5.82166 5.64013
#
# Compressibility (1/GPa) = 0.02550914
#
# Stress axis : x y z
#
# Youngs Moduli (GPa) = 79.04384 63.56761 78.84736
#
# Poissons Ratio (x) = 0.36444 0.22605
# Poissons Ratio (y) = 0.45316 -0.06481
# Poissons Ratio (z) = 0.22661 -0.05225
#
# Static dielectric constant tensor:
#      x y z
#    x 2.091800 0.000000 0.059670 
#    y 0.000000 1.961530 0.000000 
#    z 0.059670 0.000000 1.944210 
# 
# From -- ./inp_files/9598.got.cif
#   From: 2010.05.17/outbox.cif.g08.bks.cpg/sg14_5_cif.got.tgz:9598.got - 2010.06.03 17:49:19.
