data_PCOD9249190
_publ_section_title
;
Structure prediction by ZEFSAII (Michael W. Deem and Ramdas Pophale) SiO2 
 PCOD9249190
Probable space group: P 21/C
;
_chemical_formula_sum "Si O2"
_cell_formula_units_Z 28
_cell_length_a 11.189263
_cell_length_b 6.907761
_cell_length_c 18.297466
_cell_angle_alpha 90.000000
_cell_angle_beta 53.475824
_cell_angle_gamma 90.000000
_cell_volume 1136.508788
_symmetry_space_group_name_H-M "P 21/C"
_symmetry_group_IT_number 14
_symmetry_cell_setting 'monoclinic'
loop_
_space_group_symop_operation_xyz
x,y,z
-x,1/2+y,1/2-z
-x,-y,-z
x,1/2-y,1/2+z
loop_
_atom_site_type_symbol
_atom_site_label
_atom_site_fract_x
_atom_site_fract_y
_atom_site_fract_z
Si Si1 0.628476 0.392926 0.120834
Si Si2 0.165756 0.078174 0.127428
Si Si3 0.332983 0.434025 0.045763
Si Si4 0.205140 0.323769 0.857534
Si Si5 0.889839 0.362193 0.200904
Si Si6 0.831393 0.024595 0.030793
Si Si7 0.285338 0.005522 0.720129
O O1 0.655987 0.533695 0.179866
O O2 0.712764 0.187528 0.098905
O O3 0.452689 0.414428 0.170053
O O4 0.704037 0.482592 0.019774
O O5 0.315138 0.203469 0.060925
O O6 0.034335 0.233343 0.162646
O O7 0.151835 0.979443 0.210593
O O8 0.156985 0.943529 0.060031
O O9 0.246027 0.508609 0.148778
O O10 0.500000 0.500000 0.000000
O O11 0.087917 0.489986 0.875362
O O12 0.219960 0.185878 0.922682
O O13 0.196155 0.169233 0.795736
O O14 0.759647 0.204646 0.234945
O O15 0.000000 0.000000 0.000000
#
# Coordination Sequence:
#
# PCOD9249190 Si02
#       7
#     4   4   4   4   4   4   4
#     4  11  26  46  75 102 152 200 242 310 376 433
#     4  12  25  49  77 108 148 196 250 308 383 444
#     4  10  22  48  72 105 143 193 247 309 367 444
#     4  12  26  45  71 110 149 195 247 306 371 446
#     4  12  28  46  77 109 148 198 251 319 369 447
#     4  12  28  46  73 111 149 195 249 304 374 451
#     4  11  25  48  72 106 148 195 257 305 370 448
#
# _framework density 24.636852999999999
#
# number of rings (size 3 to 8) (size 9 to 14) (size 15 to 20)
#    0.000    0.571    2.857    4.286    8.000    1.143 
#    0.000    2.857    0.000    0.000    0.000    0.000 
#    0.000    0.000    0.000    0.000    0.000    0.000 
#
# Total GULP energy -156085.337278 kJ/mol
# GULP energy per Si atom -5574.476331 kJ/mol
# Density = 2.458078 g / cm^3
# Si number density = 24.636853 Si / 1000 Ang^3
#
#
#
# Elastic Constant Matrix: (Units=GPa)
#
#
# Indices 1 2 3 4 5 6 
#
# 1 67.5249 62.7209 30.9050 0.0000 -5.4761 0.0000
# 2 62.7209 154.0300 36.5723 0.0000 -2.4971 0.0000
# 3 30.9050 36.5723 62.4432 0.0000 13.0731 0.0000
# 4 0.0000 0.0000 0.0000 50.1776 0.0000 10.2928
# 5 -5.4761 -2.4971 13.0731 0.0000 44.1667 0.0000
# 6 0.0000 0.0000 0.0000 10.2928 0.0000 40.7619
#
#
#
# Elastic Compliance Matrix: (Units=1/GPa)
#
#
# Indices 1 2 3 4 5 6 
#
# 1 0.028228 -0.009045 -0.009914 0.000000 0.005923 0.000000
# 2 -0.009045 0.010583 -0.001719 0.000000 -0.000014 0.000000
# 3 -0.009914 -0.001719 0.023673 0.000000 -0.008333 0.000000
# 4 0.000000 0.000000 0.000000 0.021018 0.000000 -0.005307
# 5 0.005923 -0.000014 -0.008333 0.000000 0.025842 0.000000
# 6 0.000000 0.000000 0.000000 -0.005307 0.000000 0.025873
#
#
# Mechanical properties :
#
#
# Convention : Reuss Voigt Hill
#
# Bulk Modulus (GPa) = 47.32755 60.48827 53.90791
# Shear Modulus (GPa) = 27.23110 37.27457 32.25283
#
# Velocity S-wave (km/s) = 3.32821 3.89390 3.62211
# Velocity P-wave (km/s) = 5.83276 6.69491 6.27865
#
# Compressibility (1/GPa) = 0.02112934
#
# Stress axis : x y z
#
# Youngs Moduli (GPa) = 35.42570 94.49025 42.24306
#
# Poissons Ratio (x) = 0.85462 0.41878
# Poissons Ratio (y) = 0.32041 0.07262
# Poissons Ratio (z) = 0.35120 0.16243
#
# Static dielectric constant tensor:
#      x y z
#    x 2.034950 0.000000 -0.011550 
#    y 0.000000 2.044360 0.000000 
#    z -0.011550 0.000000 2.098900 
# 
# From -- ./inp_files/66415.got.cif
#   From: 2010.05.17/outbox.cif.g08.bks.cpg/sg14_34_cif.got.tgz:66415.got - 2010.06.03 17:49:19.
