data_PCOD9249549
_publ_section_title
;
Structure prediction by ZEFSAII (Michael W. Deem and Ramdas Pophale) SiO2 
 PCOD9249549
Probable space group: P 21/C
;
_chemical_formula_sum "Si O2"
_cell_formula_units_Z 24
_cell_length_a 19.041444
_cell_length_b 7.569612
_cell_length_c 16.448725
_cell_angle_alpha 90.000000
_cell_angle_beta 157.884125
_cell_angle_gamma 90.000000
_cell_volume 892.583305
_symmetry_space_group_name_H-M "P 21/C"
_symmetry_group_IT_number 14
_symmetry_cell_setting 'monoclinic'
loop_
_space_group_symop_operation_xyz
x,y,z
-x,1/2+y,1/2-z
-x,-y,-z
x,1/2-y,1/2+z
loop_
_atom_site_type_symbol
_atom_site_label
_atom_site_fract_x
_atom_site_fract_y
_atom_site_fract_z
Si Si1 0.621622 0.238084 0.121090
Si Si2 0.254178 0.602218 0.405108
Si Si3 0.101596 0.239837 0.919811
Si Si4 0.563730 0.742662 0.321032
Si Si5 0.071580 0.669215 0.438145
Si Si6 0.299378 0.120710 0.368266
O O1 0.748475 0.229591 0.336890
O O2 0.689282 0.423139 0.153026
O O3 0.672222 0.098281 0.107353
O O4 0.409058 0.264461 0.919389
O O5 0.034281 0.638052 0.172360
O O6 0.340526 0.436706 0.545106
O O7 0.355540 0.759926 0.564076
O O8 0.002799 0.249980 0.725220
O O9 0.106531 0.040022 0.959068
O O10 0.308935 0.302322 0.119044
O O11 0.587993 0.864590 0.426115
O O12 0.908301 0.677790 0.330710
#
# Coordination Sequence:
#
# PCOD9249549 Si02
#       6
#     4   4   4   4   4   4
#     4  11  24  41  66  95 135 174 216 268 329 391
#     4  12  25  42  69  98 134 176 219 276 328 388
#     4  11  24  42  69  97 129 174 224 273 326 390
#     4  11  26  44  68 100 133 175 226 269 325 394
#     4  11  23  43  66  96 129 171 223 268 327 393
#     4  10  23  42  65  97 131 174 218 264 328 392
#
# _framework density 26.888245000000001
#
# number of rings (size 3 to 8) (size 9 to 14) (size 15 to 20)
#    0.000    1.000    3.333    2.500    7.000    0.667 
#    0.000    5.000    0.000    0.000    0.000    0.000 
#    0.000    0.000    0.000    0.000    0.000    0.000 
#
# Total GULP energy -134541.523277 kJ/mol
# GULP energy per Si atom -5605.896803 kJ/mol
# Density = 2.682705 g / cm^3
# Si number density = 26.888245 Si / 1000 Ang^3
#
#
#
# Elastic Constant Matrix: (Units=GPa)
#
#
# Indices 1 2 3 4 5 6 
#
# 1 104.9380 16.6281 33.9554 0.0000 22.7208 0.0000
# 2 16.6281 73.2311 2.8931 0.0000 -5.9402 0.0000
# 3 33.9554 2.8931 50.9943 0.0000 14.4818 0.0000
# 4 0.0000 0.0000 0.0000 19.7404 0.0000 -15.0005
# 5 22.7208 -5.9402 14.4818 0.0000 49.3571 0.0000
# 6 0.0000 0.0000 0.0000 -15.0005 0.0000 39.2273
#
#
#
# Elastic Compliance Matrix: (Units=1/GPa)
#
#
# Indices 1 2 3 4 5 6 
#
# 1 0.013387 -0.003095 -0.007508 0.000000 -0.004332 0.000000
# 2 -0.003095 0.014593 0.000359 0.000000 0.003075 0.000000
# 3 -0.007508 0.000359 0.025740 0.000000 -0.004053 0.000000
# 4 0.000000 0.000000 0.000000 0.071407 0.000000 0.027306
# 5 -0.004332 0.003075 -0.004053 0.000000 0.023814 0.000000
# 6 0.000000 0.000000 0.000000 0.027306 0.000000 0.035934
#
#
# Mechanical properties :
#
#
# Convention : Reuss Voigt Hill
#
# Bulk Modulus (GPa) = 30.09015 37.34630 33.71823
# Shear Modulus (GPa) = 23.10102 33.37742 28.23922
#
# Velocity S-wave (km/s) = 2.93431 3.52709 3.24426
# Velocity P-wave (km/s) = 4.76396 5.52329 5.15762
#
# Compressibility (1/GPa) = 0.03323346
#
# Stress axis : x y z
#
# Youngs Moduli (GPa) = 74.69796 68.52444 38.84987
#
# Poissons Ratio (x) = 0.21205 0.29170
# Poissons Ratio (y) = 0.23116 -0.01396
# Poissons Ratio (z) = 0.56085 -0.02461
#
# Static dielectric constant tensor:
#      x y z
#    x 2.110180 0.000000 0.009960 
#    y 0.000000 2.194110 0.000000 
#    z 0.009960 0.000000 2.044280 
# 
# From -- ./inp_files/48647.got.cif
#   From: 2010.05.17/outbox.cif.g08.bks.cpg/sg14_25_cif.got.tgz:48647.got - 2010.06.03 17:49:19.
