data_PCOD9249729
_publ_section_title
;
Structure prediction by ZEFSAII (Michael W. Deem and Ramdas Pophale) SiO2 
 PCOD9249729
Probable space group: P 21/C
;
_chemical_formula_sum "Si O2"
_cell_formula_units_Z 28
_cell_length_a 11.873407
_cell_length_b 5.120609
_cell_length_c 23.520326
_cell_angle_alpha 90.000000
_cell_angle_beta 65.306271
_cell_angle_gamma 90.000000
_cell_volume 1299.244861
_symmetry_space_group_name_H-M "P 21/C"
_symmetry_group_IT_number 14
_symmetry_cell_setting 'monoclinic'
loop_
_space_group_symop_operation_xyz
x,y,z
-x,1/2+y,1/2-z
-x,-y,-z
x,1/2-y,1/2+z
loop_
_atom_site_type_symbol
_atom_site_label
_atom_site_fract_x
_atom_site_fract_y
_atom_site_fract_z
Si Si1 0.082632 0.400690 0.668389
Si Si2 0.381350 0.822573 0.914720
Si Si3 0.681578 0.547730 0.455133
Si Si4 0.308252 0.946014 0.325160
Si Si5 0.083728 0.395346 0.797167
Si Si6 0.457650 0.779533 0.185719
Si Si7 0.425471 0.948223 0.581932
O O1 0.025169 0.111927 0.673434
O O2 0.183019 0.482816 0.600648
O O3 0.135347 0.426413 0.721709
O O4 0.971703 0.607240 0.688093
O O5 0.289323 0.735758 0.884155
O O6 0.438854 0.568176 0.933811
O O7 0.496542 0.960960 0.857248
O O8 0.325316 0.003048 0.975864
O O9 0.641916 0.827420 0.438777
O O10 0.592803 0.323621 0.446866
O O11 0.185716 0.062532 0.323731
O O12 0.376626 0.804131 0.258567
O O13 0.411908 0.151756 0.323710
O O14 0.382505 0.611302 0.155147
#
# Coordination Sequence:
#
# PCOD9249729 Si02
#       7
#     4   4   4   4   4   4   4
#     4  10  23  44  65  95 117 163 223 272 316 373
#     4  11  25  41  62 100 136 170 214 253 322 405
#     4  12  24  42  68  94 134 171 211 270 321 372
#     4  11  24  40  66  94 136 173 208 265 323 383
#     4  10  23  43  67  90 125 161 218 272 320 364
#     4  11  23  41  63 101 130 171 216 255 320 400
#     4  11  24  40  66  96 132 169 209 262 320 383
#
# _framework density 21.550981
#
# number of rings (size 3 to 8) (size 9 to 14) (size 15 to 20)
#    0.000    1.143    2.857    2.571    6.000    2.286 
#    0.000    1.429    0.000    0.000    0.000    0.000 
#    0.000    0.000    0.000    0.000    0.000    0.000 
#
# Total GULP energy -156436.951542 kJ/mol
# GULP energy per Si atom -5587.033984 kJ/mol
# Density = 2.150193 g / cm^3
# Si number density = 21.550981 Si / 1000 Ang^3
#
#
#
# Elastic Constant Matrix: (Units=GPa)
#
#
# Indices 1 2 3 4 5 6 
#
# 1 49.0535 1.6927 36.5956 0.0000 23.6370 0.0000
# 2 1.6927 89.1623 22.4069 0.0000 17.0177 0.0000
# 3 36.5956 22.4069 125.0981 0.0000 19.6734 0.0000
# 4 0.0000 0.0000 0.0000 27.8979 0.0000 2.6594
# 5 23.6370 17.0177 19.6734 0.0000 35.1138 0.0000
# 6 0.0000 0.0000 0.0000 2.6594 0.0000 22.7218
#
#
#
# Elastic Compliance Matrix: (Units=1/GPa)
#
#
# Indices 1 2 3 4 5 6 
#
# 1 0.037840 0.005904 -0.008412 0.000000 -0.023620 0.000000
# 2 0.005904 0.013506 -0.002733 0.000000 -0.008989 0.000000
# 3 -0.008412 -0.002733 0.010797 0.000000 0.000938 0.000000
# 4 0.000000 0.000000 0.000000 0.036249 0.000000 -0.004243
# 5 -0.023620 -0.008989 0.000938 0.000000 0.048209 0.000000
# 6 0.000000 0.000000 0.000000 -0.004243 0.000000 0.044507
#
#
# Mechanical properties :
#
#
# Convention : Reuss Voigt Hill
#
# Bulk Modulus (GPa) = 19.35744 42.74492 31.05118
# Shear Modulus (GPa) = 22.85090 30.65460 26.75275
#
# Velocity S-wave (km/s) = 3.25979 3.77559 3.52713
# Velocity P-wave (km/s) = 4.81352 6.23572 5.57019
#
# Compressibility (1/GPa) = 0.05165972
#
# Stress axis : x y z
#
# Youngs Moduli (GPa) = 26.42739 74.04270 92.62224
#
# Poissons Ratio (x) = -0.43714 0.77917
# Poissons Ratio (y) = -0.15602 0.25310
# Poissons Ratio (z) = 0.22232 0.20233
#
# Static dielectric constant tensor:
#      x y z
#    x 1.771230 0.000000 -0.007470 
#    y 0.000000 1.856370 0.000000 
#    z -0.007470 0.000000 1.820890 
# 
# From -- ./inp_files/66464.got.cif
#   From: 2010.05.17/outbox.cif.g08.bks.cpg/sg14_34_cif.got.tgz:66464.got - 2010.06.03 17:49:19.
