data_PCOD9249075
_publ_section_title
;
Structure prediction by ZEFSAII (Michael W. Deem and Ramdas Pophale) SiO2 
 PCOD9249075
Probable space group: P 21/C
;
_chemical_formula_sum "Si O2"
_cell_formula_units_Z 16
_cell_length_a 9.197171
_cell_length_b 10.389840
_cell_length_c 8.758989
_cell_angle_alpha 90.000000
_cell_angle_beta 133.485768
_cell_angle_gamma 90.000000
_cell_volume 607.269759
_symmetry_space_group_name_H-M "P 21/C"
_symmetry_group_IT_number 14
_symmetry_cell_setting 'monoclinic'
loop_
_space_group_symop_operation_xyz
x,y,z
-x,1/2+y,1/2-z
-x,-y,-z
x,1/2-y,1/2+z
loop_
_atom_site_type_symbol
_atom_site_label
_atom_site_fract_x
_atom_site_fract_y
_atom_site_fract_z
Si Si1 0.061221 0.353549 0.553012
Si Si2 0.179328 0.904982 0.680038
Si Si3 0.335440 0.252973 0.486546
Si Si4 0.523251 0.419516 0.348208
O O1 0.902469 0.237986 0.410509
O O2 0.738886 0.420984 0.586738
O O3 0.000000 0.500000 0.500000
O O4 0.160967 0.333266 0.789285
O O5 0.768935 0.831795 0.953978
O O6 0.378839 0.954375 0.731263
O O7 0.000000 0.000000 0.500000
O O8 0.405170 0.336787 0.393287
O O9 0.501767 0.159169 0.677858
#
# Coordination Sequence:
#
# PCOD9249075 Si02
#       4
#     4   4   4   4
#     4  11  26  42  71 107 139 184 240 291 357 428
#     4  11  22  48  72  99 139 194 231 290 352 430
#     4  10  22  46  66 106 140 180 234 292 356 424
#     4  10  24  44  72 102 141 187 237 292 364 420
#
# _framework density 26.347435999999998
#
# number of rings (size 3 to 8) (size 9 to 14) (size 15 to 20)
#    0.000    1.500    5.000    0.000    7.000    2.000 
#    9.000    2.500    0.000    0.000    0.000    0.000 
#    0.000    0.000    0.000    0.000    0.000    0.000 
#
# Total GULP energy -89496.646376 kJ/mol
# GULP energy per Si atom -5593.540399 kJ/mol
# Density = 2.628747 g / cm^3
# Si number density = 26.347436 Si / 1000 Ang^3
#
#
#
# Elastic Constant Matrix: (Units=GPa)
#
#
# Indices 1 2 3 4 5 6 
#
# 1 92.9765 28.6081 36.1496 0.0000 24.0924 0.0000
# 2 28.6081 186.7008 84.2430 0.0000 21.9609 0.0000
# 3 36.1496 84.2430 210.9453 0.0000 31.6838 0.0000
# 4 0.0000 0.0000 0.0000 49.4571 0.0000 1.5313
# 5 24.0924 21.9609 31.6838 0.0000 49.4447 0.0000
# 6 0.0000 0.0000 0.0000 1.5313 0.0000 24.0725
#
#
#
# Elastic Compliance Matrix: (Units=1/GPa)
#
#
# Indices 1 2 3 4 5 6 
#
# 1 0.012773 -0.000869 -0.001068 0.000000 -0.005154 0.000000
# 2 -0.000869 0.006676 -0.002363 0.000000 -0.001028 0.000000
# 3 -0.001068 -0.002363 0.006231 0.000000 -0.002423 0.000000
# 4 0.000000 0.000000 0.000000 0.020259 0.000000 -0.001289
# 5 -0.005154 -0.001028 -0.002423 0.000000 0.024745 0.000000
# 6 0.000000 0.000000 0.000000 -0.001289 0.000000 0.041623
#
#
# Mechanical properties :
#
#
# Convention : Reuss Voigt Hill
#
# Bulk Modulus (GPa) = 58.54438 87.62488 73.08463
# Shear Modulus (GPa) = 39.49376 47.36967 43.43171
#
# Velocity S-wave (km/s) = 3.87584 4.24475 4.06448
# Velocity P-wave (km/s) = 6.50368 7.57321 7.05873
#
# Compressibility (1/GPa) = 0.01708106
#
# Stress axis : x y z
#
# Youngs Moduli (GPa) = 78.28735 149.77988 160.48335
#
# Poissons Ratio (x) = 0.13020 0.17136
# Poissons Ratio (y) = 0.06805 0.37922
# Poissons Ratio (z) = 0.08359 0.35393
#
# Static dielectric constant tensor:
#      x y z
#    x 2.167560 0.000000 0.076220 
#    y 0.000000 2.180950 0.000000 
#    z 0.076220 0.000000 2.060860 
# 
# From -- ./inp_files/8046.got.cif
#   From: 2010.05.17/outbox.cif.g08.bks.cpg/sg14_5_cif.got.tgz:8046.got - 2010.06.03 17:49:19.
