data_PCOD9249746
_publ_section_title
;
Structure prediction by ZEFSAII (Michael W. Deem and Ramdas Pophale) SiO2 
 PCOD9249746
Probable space group: P 21/C
;
_chemical_formula_sum "Si O2"
_cell_formula_units_Z 20
_cell_length_a 18.795630
_cell_length_b 5.353007
_cell_length_c 20.314891
_cell_angle_alpha 90.000000
_cell_angle_beta 157.378048
_cell_angle_gamma 90.000000
_cell_volume 786.201398
_symmetry_space_group_name_H-M "P 21/C"
_symmetry_group_IT_number 14
_symmetry_cell_setting 'monoclinic'
loop_
_space_group_symop_operation_xyz
x,y,z
-x,1/2+y,1/2-z
-x,-y,-z
x,1/2-y,1/2+z
loop_
_atom_site_type_symbol
_atom_site_label
_atom_site_fract_x
_atom_site_fract_y
_atom_site_fract_z
Si Si1 0.919070 0.795992 0.214021
Si Si2 0.886964 0.253128 0.393635
Si Si3 0.585812 0.246352 0.541434
Si Si4 0.569839 0.408129 0.383923
Si Si5 0.231768 0.819921 0.572543
O O1 0.026647 0.026253 0.269160
O O2 0.016419 0.812100 0.368827
O O3 0.702117 0.859179 0.020839
O O4 0.795842 0.252772 0.244890
O O5 0.742780 0.267509 0.330975
O O6 0.000000 0.500000 0.500000
O O7 0.000000 0.000000 0.500000
O O8 0.500000 0.500000 0.500000
O O9 0.573661 0.243459 0.452769
O O10 0.500000 0.000000 0.500000
O O11 0.668586 0.322871 0.401595
O O12 0.354152 0.430607 0.180343
#
# Coordination Sequence:
#
# PCOD9249746 Si02
#       5
#     4   4   4   4   4
#     4  10  23  43  68 108 149 186 239 310 379 443
#     4  12  28  50  76 110 156 206 256 312 385 468
#     4  12  27  49  73 109 156 200 250 314 387 461
#     4  11  25  45  78 111 151 194 257 319 382 450
#     4  11  25  44  79 112 148 197 260 312 384 450
#
# _framework density 25.438776000000001
#
# number of rings (size 3 to 8) (size 9 to 14) (size 15 to 20)
#    0.000    0.800    2.000    3.600    2.800   12.800 
#    0.000    0.000    0.000    0.000    0.000    0.000 
#    0.000    0.000    0.000    0.000    0.000    0.000 
#
# Total GULP energy -111787.780540 kJ/mol
# GULP energy per Si atom -5589.389027 kJ/mol
# Density = 2.538088 g / cm^3
# Si number density = 25.438776 Si / 1000 Ang^3
#
#
#
# Elastic Constant Matrix: (Units=GPa)
#
#
# Indices 1 2 3 4 5 6 
#
# 1 111.9960 21.2147 -19.1817 0.0000 -14.7336 0.0000
# 2 21.2147 135.0074 10.7808 0.0000 12.5530 0.0000
# 3 -19.1817 10.7808 100.3377 0.0000 -21.0504 0.0000
# 4 0.0000 0.0000 0.0000 40.6201 0.0000 12.3914
# 5 -14.7336 12.5530 -21.0504 0.0000 32.1973 0.0000
# 6 0.0000 0.0000 0.0000 12.3914 0.0000 43.8436
#
#
#
# Elastic Compliance Matrix: (Units=1/GPa)
#
#
# Indices 1 2 3 4 5 6 
#
# 1 0.011511 -0.003042 0.004498 0.000000 0.009394 0.000000
# 2 -0.003042 0.008743 -0.002930 0.000000 -0.006716 0.000000
# 3 0.004498 -0.002930 0.013690 0.000000 0.012151 0.000000
# 4 0.000000 0.000000 0.000000 0.026941 0.000000 -0.007614
# 5 0.009394 -0.006716 0.012151 0.000000 0.045920 0.000000
# 6 0.000000 0.000000 0.000000 -0.007614 0.000000 0.024960
#
#
# Mechanical properties :
#
#
# Convention : Reuss Voigt Hill
#
# Bulk Modulus (GPa) = 32.25920 41.44096 36.85008
# Shear Modulus (GPa) = 34.47174 45.63402 40.05288
#
# Velocity S-wave (km/s) = 3.68514 4.24001 3.97228
# Velocity P-wave (km/s) = 5.55119 6.34792 5.96288
#
# Compressibility (1/GPa) = 0.03099890
#
# Stress axis : x y z
#
# Youngs Moduli (GPa) = 86.87072 114.37222 73.04371
#
# Poissons Ratio (x) = 0.34787 -0.32858
# Poissons Ratio (y) = 0.26422 0.21401
# Poissons Ratio (z) = -0.39078 0.33510
#
# Static dielectric constant tensor:
#      x y z
#    x 1.023540 0.000000 0.050880 
#    y 0.000000 0.783480 0.000000 
#    z 0.050880 0.000000 2.098480 
# 
# From -- ./inp_files/60000.got.cif
#   From: 2010.05.17/outbox.cif.g08.bks.cpg/sg14_30_cif.got.tgz:60000.got - 2010.06.03 17:49:19.
