data_PCOD9249522
_publ_section_title
;
Structure prediction by ZEFSAII (Michael W. Deem and Ramdas Pophale) SiO2 
 PCOD9249522
Probable space group: P 21/C
;
_chemical_formula_sum "Si O2"
_cell_formula_units_Z 32
_cell_length_a 8.991205
_cell_length_b 24.111883
_cell_length_c 15.723159
_cell_angle_alpha 90.000000
_cell_angle_beta 150.969779
_cell_angle_gamma 90.000000
_cell_volume 1654.143037
_symmetry_space_group_name_H-M "P 21/C"
_symmetry_group_IT_number 14
_symmetry_cell_setting 'monoclinic'
loop_
_space_group_symop_operation_xyz
x,y,z
-x,1/2+y,1/2-z
-x,-y,-z
x,1/2-y,1/2+z
loop_
_atom_site_type_symbol
_atom_site_label
_atom_site_fract_x
_atom_site_fract_y
_atom_site_fract_z
Si Si1 0.134103 0.877535 0.910909
Si Si2 0.133015 0.189198 0.067198
Si Si3 0.868056 0.392247 0.780693
Si Si4 0.133015 0.810802 0.565817
Si Si5 0.134236 0.993807 0.472278
Si Si6 0.868056 0.607753 0.587363
Si Si7 0.134236 0.006193 0.161958
Si Si8 0.865897 0.622466 0.776806
O O1 0.065788 0.865712 0.777948
O O2 0.986391 0.835498 0.903772
O O3 0.007589 0.938675 0.868517
O O4 0.500000 0.877223 0.105254
O O5 0.500000 0.191564 0.252130
O O6 0.041937 0.147193 0.945842
O O7 0.999999 0.250000 0.985993
O O8 0.958064 0.352807 0.903905
O O9 0.500000 0.401732 0.601763
O O10 0.034596 0.451085 0.872622
O O11 0.013607 0.835498 0.417380
O O12 0.500000 0.988847 0.658687
O O13 0.992411 0.938674 0.360928
O O14 0.000000 0.000000 0.500000
O O15 0.934212 0.634288 0.712160
O O16 0.034598 0.548915 0.661975
O O17 0.000000 0.000000 0.000000
#
# Coordination Sequence:
#
# PCOD9249522 Si02
#       8
#     4   4   4   4   4   4   4   4
#     4  11  23  41  65  94 127 164 204 255 311 367
#     4  11  24  43  65  89 122 164 210 260 309 364
#     4  10  23  42  64  92 127 164 204 254 310 368
#     4  11  24  43  65  89 122 164 210 260 309 364
#     4  12  23  37  62  94 128 166 205 251 308 371
#     4  10  23  42  64  92 127 164 204 254 310 368
#     4  12  23  37  62  94 128 166 205 251 308 371
#     4  11  23  41  65  94 127 164 204 255 311 367
#
# _framework density 19.345364
#
# number of rings (size 3 to 8) (size 9 to 14) (size 15 to 20)
#    0.000    1.000    2.500    4.500    0.000    7.000 
#    0.000    2.500    0.000    0.000    0.000    0.000 
#    0.000    0.000    0.000    0.000    0.000    0.000 
#
# Total GULP energy -179027.580108 kJ/mol
# GULP energy per Si atom -5594.611878 kJ/mol
# Density = 1.930133 g / cm^3
# Si number density = 19.345364 Si / 1000 Ang^3
#
#
#
# Elastic Constant Matrix: (Units=GPa)
#
#
# Indices 1 2 3 4 5 6 
#
# 1 70.7432 -8.5374 12.6747 0.0000 -2.7730 0.0000
# 2 -8.5374 59.7256 2.4119 0.0000 11.1710 0.0000
# 3 12.6747 2.4119 61.0878 0.0000 -7.0765 0.0000
# 4 0.0000 0.0000 0.0000 25.8809 0.0000 12.9957
# 5 -2.7730 11.1710 -7.0765 0.0000 23.2841 0.0000
# 6 0.0000 0.0000 0.0000 12.9957 0.0000 13.1426
#
#
#
# Elastic Compliance Matrix: (Units=1/GPa)
#
#
# Indices 1 2 3 4 5 6 
#
# 1 0.014985 0.002332 -0.003238 0.000000 -0.000318 0.000000
# 2 0.002332 0.018952 -0.002336 0.000000 -0.009525 0.000000
# 3 -0.003238 -0.002336 0.017847 0.000000 0.006159 0.000000
# 4 0.000000 0.000000 0.000000 0.076744 0.000000 -0.075886
# 5 -0.000318 -0.009525 0.006159 0.000000 0.049351 0.000000
# 6 0.000000 0.000000 0.000000 -0.075886 0.000000 0.151127
#
#
# Mechanical properties :
#
#
# Convention : Reuss Voigt Hill
#
# Bulk Modulus (GPa) = 22.07411 22.73946 22.40678
# Shear Modulus (GPa) = 14.26166 24.79533 19.52849
#
# Velocity S-wave (km/s) = 2.71811 3.58399 3.18066
# Velocity P-wave (km/s) = 4.61369 5.37649 5.00963
#
# Compressibility (1/GPa) = 0.04530195
#
# Stress axis : x y z
#
# Youngs Moduli (GPa) = 66.73444 52.76351 56.03049
#
# Poissons Ratio (x) = -0.12306 0.18143
# Poissons Ratio (y) = -0.15564 0.13086
# Poissons Ratio (z) = 0.21609 0.12323
#
# Static dielectric constant tensor:
#      x y z
#    x 1.678770 0.000000 -0.018440 
#    y 0.000000 1.635080 0.000000 
#    z -0.018440 0.000000 1.660700 
# 
# From -- ./inp_files/42250.got.cif
#   From: 2010.05.17/outbox.cif.g08.bks.cpg/sg14_22_cif.got.tgz:42250.got - 2010.06.03 17:49:19.
