data_PCOD9249281
_publ_section_title
;
Structure prediction by ZEFSAII (Michael W. Deem and Ramdas Pophale) SiO2 
 PCOD9249281
Probable space group: P 21/C
;
_chemical_formula_sum "Si O2"
_cell_formula_units_Z 16
_cell_length_a 11.392808
_cell_length_b 7.533708
_cell_length_c 21.505870
_cell_angle_alpha 90.000000
_cell_angle_beta 152.973842
_cell_angle_gamma 90.000000
_cell_volume 838.749469
_symmetry_space_group_name_H-M "P 21/C"
_symmetry_group_IT_number 14
_symmetry_cell_setting 'monoclinic'
loop_
_space_group_symop_operation_xyz
x,y,z
-x,1/2+y,1/2-z
-x,-y,-z
x,1/2-y,1/2+z
loop_
_atom_site_type_symbol
_atom_site_label
_atom_site_fract_x
_atom_site_fract_y
_atom_site_fract_z
Si Si1 0.308001 0.983058 0.717259
Si Si2 0.091095 0.199626 0.181714
Si Si3 0.480779 0.593424 0.556668
Si Si4 0.778897 0.085541 0.852835
O O1 0.108491 0.140838 0.638988
O O2 0.464742 0.969284 0.856974
O O3 0.507770 0.049331 0.759397
O O4 0.191941 0.794785 0.644279
O O5 0.291383 0.262228 0.328722
O O6 0.198465 0.022827 0.200292
O O7 0.801795 0.174266 0.067571
O O8 0.500000 0.500000 0.500000
O O9 0.000000 0.000000 0.000000
#
# Coordination Sequence:
#
# PCOD9249281 Si02
#       4
#     4   4   4   4
#     4  10  23  39  66  98 131 171 217 270 329 389
#     4  10  23  43  68  97 131 172 224 266 329 391
#     4  10  23  47  65  93 133 174 223 269 321 383
#     4  12  21  40  67  99 134 170 213 272 336 389
#
# _framework density 19.076017
#
# number of rings (size 3 to 8) (size 9 to 14) (size 15 to 20)
#    1.500    0.000    5.000    0.000    0.000    5.000 
#    0.000    2.500    0.000    0.000    0.000    0.000 
#    0.000    0.000    0.000    0.000    0.000    0.000 
#
# Total GULP energy -89212.590794 kJ/mol
# GULP energy per Si atom -5575.786925 kJ/mol
# Density = 1.903260 g / cm^3
# Si number density = 19.076017 Si / 1000 Ang^3
#
#
#
# Elastic Constant Matrix: (Units=GPa)
#
#
# Indices 1 2 3 4 5 6 
#
# 1 42.7472 55.5763 83.8369 0.0000 6.7828 0.0000
# 2 55.5763 93.8234 14.7619 0.0000 39.9418 0.0000
# 3 83.8369 14.7619 89.4132 0.0000 29.7520 0.0000
# 4 0.0000 0.0000 0.0000 33.6457 0.0000 0.2578
# 5 6.7828 39.9418 29.7520 0.0000 20.5973 0.0000
# 6 0.0000 0.0000 0.0000 0.2578 0.0000 37.4633
#
#
#
# Elastic Compliance Matrix: (Units=1/GPa)
#
#
# Indices 1 2 3 4 5 6 
#
# 1 0.002224 0.010575 0.006230 0.000000 -0.030238 0.000000
# 2 0.010575 0.007395 -0.010024 0.000000 -0.003344 0.000000
# 3 0.006230 -0.010024 0.002334 0.000000 0.014014 0.000000
# 4 0.000000 0.000000 0.000000 0.029723 0.000000 -0.000205
# 5 -0.030238 -0.003344 0.014014 0.000000 0.044749 0.000000
# 6 0.000000 0.000000 0.000000 -0.000205 0.000000 0.026694
#
#
# Mechanical properties :
#
#
# Convention : Reuss Voigt Hill
#
# Bulk Modulus (GPa) = 39.19097 59.37045 49.28071
# Shear Modulus (GPa) = 46.26947 23.12852 34.69899
#
# Velocity S-wave (km/s) = 4.93031 3.48579 4.26958
# Velocity P-wave (km/s) = 7.28010 6.88416 7.08489
#
# Compressibility (1/GPa) = 0.02551608
#
# Stress axis : x y z
#
# Youngs Moduli (GPa) = 449.55655 135.22853 428.38873
#
# Poissons Ratio (x) = -1.43001 -2.66886
# Poissons Ratio (y) = -4.75396 4.29398
# Poissons Ratio (z) = -2.80073 1.35547
#
# Static dielectric constant tensor:
#      x y z
#    x 1.648040 0.000000 -0.030040 
#    y 0.000000 1.671350 0.000000 
#    z -0.030040 0.000000 1.684190 
# 
# From -- ./inp_files/34850.got.cif
#   From: 2010.05.17/outbox.cif.g08.bks.cpg/sg14_18_cif.got.tgz:34850.got - 2010.06.03 17:49:19.
