data_PCOD9249308
_publ_section_title
;
Structure prediction by ZEFSAII (Michael W. Deem and Ramdas Pophale) SiO2 
 PCOD9249308
Probable space group: P 21/C
;
_chemical_formula_sum "Si O2"
_cell_formula_units_Z 32
_cell_length_a 14.358266
_cell_length_b 14.604090
_cell_length_c 11.536953
_cell_angle_alpha 90.000000
_cell_angle_beta 144.422017
_cell_angle_gamma 90.000000
_cell_volume 1407.502442
_symmetry_space_group_name_H-M "P 21/C"
_symmetry_group_IT_number 14
_symmetry_cell_setting 'monoclinic'
loop_
_space_group_symop_operation_xyz
x,y,z
-x,1/2+y,1/2-z
-x,-y,-z
x,1/2-y,1/2+z
loop_
_atom_site_type_symbol
_atom_site_label
_atom_site_fract_x
_atom_site_fract_y
_atom_site_fract_z
Si Si1 0.489170 0.522943 0.266972
Si Si2 0.592212 0.732741 0.637816
Si Si3 0.397972 0.917871 0.446053
Si Si4 0.928449 0.262417 0.106685
Si Si5 0.301870 0.896138 0.768617
Si Si6 0.722623 0.799890 0.010572
Si Si7 0.932086 0.078431 0.010769
Si Si8 0.219140 0.905042 0.925512
O O1 0.363356 0.548519 0.040508
O O2 0.387400 0.525848 0.280645
O O3 0.616783 0.607270 0.394095
O O4 0.600228 0.435126 0.358601
O O5 0.507619 0.830409 0.552625
O O6 0.446526 0.661658 0.472767
O O7 0.687992 0.727092 0.611394
O O8 0.672899 0.733514 0.849671
O O9 0.241206 0.900132 0.216004
O O10 0.500000 0.000000 0.500000
O O11 0.806742 0.329225 0.918614
O O12 0.000710 0.180123 0.097865
O O13 0.826095 0.201430 0.095739
O O14 0.086706 0.312023 0.312204
O O15 0.199931 0.931346 0.773330
O O16 0.901606 0.043844 0.110364
O O17 0.000000 0.000000 0.000000
#
# Coordination Sequence:
#
# PCOD9249308 Si02
#       8
#     4   4   4   4   4   4   4   4
#     4  10  23  44  66  98 131 181 224 286 331 418
#     4  10  23  40  65  97 132 172 231 278 332 406
#     4  11  20  37  65  94 127 169 221 276 332 391
#     4  10  24  42  68  99 136 177 222 283 344 409
#     4  11  23  43  71  95 132 179 232 276 343 401
#     4  10  24  40  67  96 134 175 225 280 345 403
#     4  10  23  40  62  98 134 172 216 275 340 400
#     4  10  23  43  66  94 138 170 226 274 344 396
#
# _framework density 22.735306000000001
#
# number of rings (size 3 to 8) (size 9 to 14) (size 15 to 20)
#    0.750    1.000    2.500    0.375   10.500    0.000 
#    2.250    0.625    0.000    0.000    0.000    0.000 
#    0.000    0.000    0.000    0.000    0.000    0.000 
#
# Total GULP energy -178257.832601 kJ/mol
# GULP energy per Si atom -5570.557269 kJ/mol
# Density = 2.268356 g / cm^3
# Si number density = 22.735306 Si / 1000 Ang^3
#
#
#
# Elastic Constant Matrix: (Units=GPa)
#
#
# Indices 1 2 3 4 5 6 
#
# 1 139.3026 18.6537 34.6252 0.0000 -16.7206 0.0000
# 2 18.6537 20.4409 -0.5492 0.0000 4.5999 0.0000
# 3 34.6252 -0.5492 67.0420 0.0000 -1.4230 0.0000
# 4 0.0000 0.0000 0.0000 24.7633 0.0000 -1.4350
# 5 -16.7206 4.5999 -1.4230 0.0000 26.8027 0.0000
# 6 0.0000 0.0000 0.0000 -1.4350 0.0000 32.0385
#
#
#
# Elastic Compliance Matrix: (Units=1/GPa)
#
#
# Indices 1 2 3 4 5 6 
#
# 1 0.011369 -0.012541 -0.005785 0.000000 0.008937 0.000000
# 2 -0.012541 0.064725 0.006613 0.000000 -0.018581 0.000000
# 3 -0.005785 0.006613 0.017877 0.000000 -0.003794 0.000000
# 4 0.000000 0.000000 0.000000 0.040487 0.000000 0.001813
# 5 0.008937 -0.018581 -0.003794 0.000000 0.045873 0.000000
# 6 0.000000 0.000000 0.000000 0.001813 0.000000 0.031294
#
#
# Mechanical properties :
#
#
# Convention : Reuss Voigt Hill
#
# Bulk Modulus (GPa) = 14.17524 36.91611 25.54568
# Shear Modulus (GPa) = 19.33745 28.32461 23.83103
#
# Velocity S-wave (km/s) = 2.91958 3.53348 3.24110
# Velocity P-wave (km/s) = 4.19687 5.73759 5.02661
#
# Compressibility (1/GPa) = 0.07054552
#
# Stress axis : x y z
#
# Youngs Moduli (GPa) = 87.96189 15.44989 55.93715
#
# Poissons Ratio (x) = 0.19376 0.32357
# Poissons Ratio (y) = 1.10315 -0.36991
# Poissons Ratio (z) = 0.50882 -0.10217
#
# Static dielectric constant tensor:
#      x y z
#    x 1.975140 0.000000 -0.080420 
#    y 0.000000 1.855030 0.000000 
#    z -0.080420 0.000000 1.851520 
# 
# From -- ./inp_files/33051.got.cif
#   From: 2010.05.17/outbox.cif.g08.bks.cpg/sg14_17_cif.got.tgz:33051.got - 2010.06.03 17:49:19.
