data_PCOD9249238
_publ_section_title
;
Structure prediction by ZEFSAII (Michael W. Deem and Ramdas Pophale) SiO2 
 PCOD9249238
Probable space group: P 21/C
;
_chemical_formula_sum "Si O2"
_cell_formula_units_Z 26
_cell_length_a 17.073981
_cell_length_b 4.911100
_cell_length_c 14.000647
_cell_angle_alpha 90.000000
_cell_angle_beta 58.872724
_cell_angle_gamma 90.000000
_cell_volume 1004.953902
_symmetry_space_group_name_H-M "P 21/C"
_symmetry_group_IT_number 14
_symmetry_cell_setting 'monoclinic'
loop_
_space_group_symop_operation_xyz
x,y,z
-x,1/2+y,1/2-z
-x,-y,-z
x,1/2-y,1/2+z
loop_
_atom_site_type_symbol
_atom_site_label
_atom_site_fract_x
_atom_site_fract_y
_atom_site_fract_z
Si Si1 0.545840 0.280734 0.673196
Si Si2 0.090950 0.680703 0.402672
Si Si3 0.970551 0.369504 0.872608
Si Si4 0.500000 0.000000 0.500000
Si Si5 0.327324 0.331353 0.644380
Si Si6 0.861036 0.823199 0.310368
Si Si7 0.297368 0.688315 0.290723
O O1 0.506056 0.576350 0.721575
O O2 0.650402 0.279752 0.643129
O O3 0.524488 0.175611 0.582101
O O4 0.053075 0.636059 0.533960
O O5 0.117960 0.458401 0.306203
O O6 0.193741 0.793019 0.357796
O O7 0.023806 0.900287 0.399129
O O8 0.875321 0.459801 0.884622
O O9 0.045604 0.347522 0.740092
O O10 0.588142 0.795532 0.463548
O O11 0.234947 0.324591 0.638739
O O12 0.344716 0.627886 0.677922
O O13 0.308162 0.119593 0.744601
#
# Coordination Sequence:
#
# PCOD9249238 Si02
#       7
#     4   4   4   2   4   4   4
#     4  12  25  45  70  99 137 177 228 289 348 409
#     4  10  23  38  64  88 128 169 222 260 333 396
#     4  11  21  39  63  92 126 172 215 269 331 394
#     4  12  26  46  74 104 134 188 230 290 346 432
#     4  11  25  42  72  96 139 175 232 275 345 400
#     4  11  22  41  62  95 131 175 214 284 325 402
#     4  11  22  47  64  99 136 178 217 293 333 404
#
# _framework density 25.871835999999998
#
# number of rings (size 3 to 8) (size 9 to 14) (size 15 to 20)
#    0.000    0.923    6.154    0.462    2.154    2.462 
#    0.000    0.000    6.769    0.000    0.000    0.000 
#    0.000    0.000    0.000    0.000    0.000    0.000 
#
# Total GULP energy -144801.929255 kJ/mol
# GULP energy per Si atom -5569.304971 kJ/mol
# Density = 2.581295 g / cm^3
# Si number density = 25.871836 Si / 1000 Ang^3
#
#
#
# Elastic Constant Matrix: (Units=GPa)
#
#
# Indices 1 2 3 4 5 6 
#
# 1 158.0013 -0.7651 7.2079 0.0000 13.1332 0.0000
# 2 -0.7651 52.7664 -3.6191 0.0000 4.9270 0.0000
# 3 7.2079 -3.6191 74.8705 0.0000 11.7664 0.0000
# 4 0.0000 0.0000 0.0000 21.8314 0.0000 -3.3283
# 5 13.1332 4.9270 11.7664 0.0000 31.1527 0.0000
# 6 0.0000 0.0000 0.0000 -3.3283 0.0000 14.2038
#
#
#
# Elastic Compliance Matrix: (Units=1/GPa)
#
#
# Indices 1 2 3 4 5 6 
#
# 1 0.006568 0.000340 -0.000183 0.000000 -0.002753 0.000000
# 2 0.000340 0.019412 0.001500 0.000000 -0.003780 0.000000
# 3 -0.000183 0.001500 0.014322 0.000000 -0.005569 0.000000
# 4 0.000000 0.000000 0.000000 0.047503 0.000000 0.011131
# 5 -0.002753 -0.003780 -0.005569 0.000000 0.035962 0.000000
# 6 0.000000 0.000000 0.000000 0.011131 0.000000 0.073012
#
#
# Mechanical properties :
#
#
# Convention : Reuss Voigt Hill
#
# Bulk Modulus (GPa) = 22.92821 32.36505 27.64663
# Shear Modulus (GPa) = 24.03795 32.29186 28.16490
#
# Velocity S-wave (km/s) = 3.05145 3.53675 3.30302
# Velocity P-wave (km/s) = 4.61482 5.40509 5.02551
#
# Compressibility (1/GPa) = 0.04361440
#
# Stress axis : x y z
#
# Youngs Moduli (GPa) = 152.25491 51.51408 69.82374
#
# Poissons Ratio (x) = -0.01750 0.01279
# Poissons Ratio (y) = -0.05173 -0.10471
# Poissons Ratio (z) = 0.02789 -0.07725
#
# Static dielectric constant tensor:
#      x y z
#    x 2.110190 0.000000 -0.089820 
#    y 0.000000 2.178120 0.000000 
#    z -0.089820 0.000000 2.039370 
# 
# From -- ./inp_files/47913.got.cif
#   From: 2010.05.17/outbox.cif.g08.bks.cpg/sg14_24_cif.got.tgz:47913.got - 2010.06.03 17:49:19.
