data_PCOD9249246
_publ_section_title
;
Structure prediction by ZEFSAII (Michael W. Deem and Ramdas Pophale) SiO2 
 PCOD9249246
Probable space group: P 21/C
;
_chemical_formula_sum "Si O2"
_cell_formula_units_Z 24
_cell_length_a 12.241402
_cell_length_b 9.676944
_cell_length_c 20.967750
_cell_angle_alpha 90.000000
_cell_angle_beta 156.608691
_cell_angle_gamma 90.000000
_cell_volume 986.100580
_symmetry_space_group_name_H-M "P 21/C"
_symmetry_group_IT_number 14
_symmetry_cell_setting 'monoclinic'
loop_
_space_group_symop_operation_xyz
x,y,z
-x,1/2+y,1/2-z
-x,-y,-z
x,1/2-y,1/2+z
loop_
_atom_site_type_symbol
_atom_site_label
_atom_site_fract_x
_atom_site_fract_y
_atom_site_fract_z
Si Si1 0.556841 0.025283 0.741331
Si Si2 0.289479 0.646939 0.444040
Si Si3 0.106081 0.174929 0.435191
Si Si4 0.854839 0.850665 0.171505
Si Si5 0.973256 0.710283 0.467757
Si Si6 0.688282 0.965724 0.259187
O O1 0.367281 0.074179 0.582178
O O2 0.380891 0.975106 0.707974
O O3 0.780992 0.914368 0.840947
O O4 0.720642 0.154369 0.859912
O O5 0.556410 0.674239 0.542939
O O6 0.423226 0.594488 0.581517
O O7 0.877600 0.774486 0.115684
O O8 0.168670 0.582434 0.206897
O O9 0.907918 0.278587 0.159650
O O10 0.113703 0.257188 0.506001
O O11 0.876821 0.014917 0.172754
O O12 0.901050 0.841804 0.386668
#
# Coordination Sequence:
#
# PCOD9249246 Si02
#       6
#     4   4   4   4   4   4
#     4  10  23  40  65 104 141 184 229 286 352 424
#     4  11  27  48  75 105 143 189 245 303 360 431
#     4  11  24  40  72  98 145 185 234 292 359 422
#     4  11  26  49  75 106 143 189 247 300 363 424
#     4  10  23  38  66 103 140 183 231 282 355 425
#     4  11  25  42  71  99 142 184 234 291 356 423
#
# _framework density 24.338287999999999
#
# number of rings (size 3 to 8) (size 9 to 14) (size 15 to 20)
#    0.000    1.333    0.000    5.000   16.333    2.000 
#    0.000    0.000    0.000    0.000    0.000    0.000 
#    0.000    0.000    0.000    0.000    0.000    0.000 
#
# Total GULP energy -134473.602829 kJ/mol
# GULP energy per Si atom -5603.066785 kJ/mol
# Density = 2.428289 g / cm^3
# Si number density = 24.338288 Si / 1000 Ang^3
#
#
#
# Elastic Constant Matrix: (Units=GPa)
#
#
# Indices 1 2 3 4 5 6 
#
# 1 50.7668 11.4560 -19.1101 0.0000 1.6681 0.0000
# 2 11.4560 89.8933 31.8416 0.0000 13.0020 0.0000
# 3 -19.1101 31.8416 95.5681 0.0000 10.1394 0.0000
# 4 0.0000 0.0000 0.0000 51.3934 0.0000 9.1747
# 5 1.6681 13.0020 10.1394 0.0000 24.5686 0.0000
# 6 0.0000 0.0000 0.0000 9.1747 0.0000 33.0004
#
#
#
# Elastic Compliance Matrix: (Units=1/GPa)
#
#
# Indices 1 2 3 4 5 6 
#
# 1 0.023346 -0.005054 0.006522 0.000000 -0.001602 0.000000
# 2 -0.005054 0.014367 -0.005257 0.000000 -0.005090 0.000000
# 3 0.006522 -0.005257 0.013879 0.000000 -0.003388 0.000000
# 4 0.000000 0.000000 0.000000 0.020474 0.000000 -0.005692
# 5 -0.001602 -0.005090 -0.003388 0.000000 0.044903 0.000000
# 6 0.000000 0.000000 0.000000 -0.005692 0.000000 0.031885
#
#
# Mechanical properties :
#
#
# Convention : Reuss Voigt Hill
#
# Bulk Modulus (GPa) = 22.71988 31.62259 27.17124
# Shear Modulus (GPa) = 29.22208 35.92852 32.57530
#
# Velocity S-wave (km/s) = 3.46882 3.84632 3.66244
# Velocity P-wave (km/s) = 5.03973 5.72248 5.39192
#
# Compressibility (1/GPa) = 0.04401431
#
# Stress axis : x y z
#
# Youngs Moduli (GPa) = 42.83372 69.60484 72.05093
#
# Poissons Ratio (x) = 0.35176 -0.46993
# Poissons Ratio (y) = 0.21647 0.37879
# Poissons Ratio (z) = -0.27937 0.36593
#
# Static dielectric constant tensor:
#      x y z
#    x 1.929200 0.000000 0.013440 
#    y 0.000000 1.951910 0.000000 
#    z 0.013440 0.000000 1.948820 
# 
# From -- ./inp_files/73924.got.cif
#   From: 2010.05.17/outbox.cif.g08.bks.cpg/sg14_37_cif.got.tgz:73924.got - 2010.06.03 17:49:19.
