data_PCOD9249089
_publ_section_title
;
Structure prediction by ZEFSAII (Michael W. Deem and Ramdas Pophale) SiO2 
 PCOD9249089
Probable space group: P 21/C
;
_chemical_formula_sum "Si O2"
_cell_formula_units_Z 26
_cell_length_a 21.260125
_cell_length_b 11.833579
_cell_length_c 8.078163
_cell_angle_alpha 90.000000
_cell_angle_beta 33.534451
_cell_angle_gamma 90.000000
_cell_volume 1122.737711
_symmetry_space_group_name_H-M "P 21/C"
_symmetry_group_IT_number 14
_symmetry_cell_setting 'monoclinic'
loop_
_space_group_symop_operation_xyz
x,y,z
-x,1/2+y,1/2-z
-x,-y,-z
x,1/2-y,1/2+z
loop_
_atom_site_type_symbol
_atom_site_label
_atom_site_fract_x
_atom_site_fract_y
_atom_site_fract_z
Si Si1 0.620672 0.798639 0.025835
Si Si2 0.260361 0.970812 0.845436
Si Si3 0.500000 0.500000 0.000000
Si Si4 0.903515 0.301322 0.449428
Si Si5 0.895124 0.073674 0.302115
Si Si6 0.839485 0.884663 0.656030
Si Si7 0.402772 0.085863 0.268663
O O1 0.558409 0.677608 0.178452
O O2 0.564896 0.896541 0.257550
O O3 0.750330 0.787126 0.805973
O O4 0.622108 0.838968 0.835474
O O5 0.376385 0.956690 0.693586
O O6 0.300703 0.019498 0.579170
O O7 0.186351 0.859907 0.976586
O O8 0.187195 0.061773 0.107960
O O9 0.914699 0.167218 0.401682
O O10 0.864578 0.347749 0.713492
O O11 0.030463 0.347579 0.137701
O O12 0.817699 0.980739 0.562531
O O13 0.000000 0.000000 0.000000
O O14 0.500000 0.000000 0.000000
#
# Coordination Sequence:
#
# PCOD9249089 Si02
#       7
#     4   4   2   4   4   4   4
#     4  11  24  45  72 100 144 187 240 304 371 435
#     4  11  23  44  69 104 140 188 245 301 371 428
#     4  10  22  46  68 102 136 190 242 300 364 438
#     4  11  23  42  69 106 146 194 238 306 367 444
#     4  10  23  43  68 106 149 195 243 298 367 444
#     4  10  23  43  72 102 146 185 244 297 371 451
#     4  12  26  48  73 108 141 193 252 307 372 440
#
# _framework density 23.157679000000002
#
# number of rings (size 3 to 8) (size 9 to 14) (size 15 to 20)
#    0.000    1.231    1.538    4.154    0.000    8.615 
#   11.077    0.000    0.000    0.000    0.000    0.000 
#    0.000    0.000    0.000    0.000    0.000    0.000 
#
# Total GULP energy -144763.359676 kJ/mol
# GULP energy per Si atom -5567.821526 kJ/mol
# Density = 2.310497 g / cm^3
# Si number density = 23.157679 Si / 1000 Ang^3
#
#
#
# Elastic Constant Matrix: (Units=GPa)
#
#
# Indices 1 2 3 4 5 6 
#
# 1 56.5404 22.7293 32.2505 0.0000 -0.3637 0.0000
# 2 22.7293 92.1203 45.9408 0.0000 10.8637 0.0000
# 3 32.2505 45.9408 112.5005 0.0000 13.2689 0.0000
# 4 0.0000 0.0000 0.0000 49.5985 0.0000 9.2128
# 5 -0.3637 10.8637 13.2689 0.0000 40.9426 0.0000
# 6 0.0000 0.0000 0.0000 9.2128 0.0000 22.8863
#
#
#
# Elastic Compliance Matrix: (Units=1/GPa)
#
#
# Indices 1 2 3 4 5 6 
#
# 1 0.022007 -0.003072 -0.005379 0.000000 0.002754 0.000000
# 2 -0.003072 0.014202 -0.004649 0.000000 -0.002289 0.000000
# 3 -0.005379 -0.004649 0.012674 0.000000 -0.002922 0.000000
# 4 0.000000 0.000000 0.000000 0.021791 0.000000 -0.008772
# 5 0.002754 -0.002289 -0.002922 0.000000 0.026003 0.000000
# 6 0.000000 0.000000 0.000000 -0.008772 0.000000 0.047226
#
#
# Mechanical properties :
#
#
# Convention : Reuss Voigt Hill
#
# Bulk Modulus (GPa) = 44.08614 51.44472 47.76543
# Shear Modulus (GPa) = 28.14302 33.36819 30.75561
#
# Velocity S-wave (km/s) = 3.48987 3.80005 3.64826
# Velocity P-wave (km/s) = 5.94286 6.44337 6.19817
#
# Compressibility (1/GPa) = 0.02268287
#
# Stress axis : x y z
#
# Youngs Moduli (GPa) = 45.43917 70.41431 78.90272
#
# Poissons Ratio (x) = 0.21633 0.42443
# Poissons Ratio (y) = 0.13960 0.36680
# Poissons Ratio (z) = 0.24442 0.32734
#
# Static dielectric constant tensor:
#      x y z
#    x 1.955080 0.000000 0.061620 
#    y 0.000000 1.922620 0.000000 
#    z 0.061620 0.000000 1.860120 
# 
# From -- ./inp_files/19464.got.cif
#   From: 2010.05.17/outbox.cif.g08.bks.cpg/sg14_10_cif.got.tgz:19464.got - 2010.06.03 17:49:19.
