data_PCOD9249140
_publ_section_title
;
Structure prediction by ZEFSAII (Michael W. Deem and Ramdas Pophale) SiO2 
 PCOD9249140
Probable space group: P 21/C
;
_chemical_formula_sum "Si O2"
_cell_formula_units_Z 30
_cell_length_a 7.976291
_cell_length_b 13.283937
_cell_length_c 12.293358
_cell_angle_alpha 90.000000
_cell_angle_beta 69.731397
_cell_angle_gamma 90.000000
_cell_volume 1221.905719
_symmetry_space_group_name_H-M "P 21/C"
_symmetry_group_IT_number 14
_symmetry_cell_setting 'monoclinic'
loop_
_space_group_symop_operation_xyz
x,y,z
-x,1/2+y,1/2-z
-x,-y,-z
x,1/2-y,1/2+z
loop_
_atom_site_type_symbol
_atom_site_label
_atom_site_fract_x
_atom_site_fract_y
_atom_site_fract_z
Si Si1 0.888193 0.112506 0.210404
Si Si2 0.747623 0.952821 0.761162
Si Si3 0.722534 0.315186 0.315955
Si Si4 0.500000 0.000000 0.000000
Si Si5 0.959272 0.183689 0.966374
Si Si6 0.359809 0.045595 0.616858
Si Si7 0.888596 0.603224 0.014163
Si Si8 0.635448 0.636830 0.663833
O O1 0.840932 0.227534 0.243784
O O2 0.063231 0.081664 0.235452
O O3 0.733822 0.043481 0.293773
O O4 0.926230 0.110478 0.074672
O O5 0.740606 0.905070 0.643839
O O6 0.747828 0.074944 0.757444
O O7 0.605611 0.928704 0.886359
O O8 0.514365 0.287248 0.350588
O O9 0.792979 0.331253 0.422684
O O10 0.611826 0.949627 0.078039
O O11 0.985513 0.300609 0.994357
O O12 0.155260 0.160468 0.873271
O O13 0.211126 0.103129 0.578453
O O14 0.430838 0.114410 0.698513
O O15 0.500000 0.000000 0.500000
O O16 0.000000 0.500000 0.000000
#
# Coordination Sequence:
#
# PCOD9249140 Si02
#       8
#     4   4   4   2   4   4   4   4
#     4  12  26  47  78 117 159 210 264 331 404 482
#     4  11  22  46  78 110 156 207 266 319 408 466
#     4  11  26  49  74 115 158 204 263 330 395 480
#     4  10  22  46  74 106 150 194 260 328 388 468
#     4  12  27  47  82 115 155 205 270 328 402 478
#     4  12  28  49  77 114 160 209 267 327 405 481
#     4  12  25  49  78 109 156 213 260 324 401 479
#     4  11  27  48  76 116 153 204 264 329 395 473
#
# _framework density 24.551811000000001
#
# number of rings (size 3 to 8) (size 9 to 14) (size 15 to 20)
#    0.000    0.533    4.000    3.200    7.467    2.133 
#    0.000    0.000    0.000    0.000    0.000    0.000 
#    0.000    0.000    0.000    0.000    0.000    0.000 
#
# Total GULP energy -167310.349937 kJ/mol
# GULP energy per Si atom -5577.011665 kJ/mol
# Density = 2.449593 g / cm^3
# Si number density = 24.551811 Si / 1000 Ang^3
#
#
#
# Elastic Constant Matrix: (Units=GPa)
#
#
# Indices 1 2 3 4 5 6 
#
# 1 114.1708 13.7171 53.2712 0.0000 19.7639 0.0000
# 2 13.7171 57.6830 13.0506 0.0000 -0.6230 0.0000
# 3 53.2712 13.0506 154.8015 0.0000 9.8963 0.0000
# 4 0.0000 0.0000 0.0000 32.7344 0.0000 0.0537
# 5 19.7639 -0.6230 9.8963 0.0000 52.6039 0.0000
# 6 0.0000 0.0000 0.0000 0.0537 0.0000 26.1873
#
#
#
# Elastic Compliance Matrix: (Units=1/GPa)
#
#
# Indices 1 2 3 4 5 6 
#
# 1 0.011232 -0.001924 -0.003474 0.000000 -0.003589 0.000000
# 2 -0.001924 0.018016 -0.000928 0.000000 0.001111 0.000000
# 3 -0.003474 -0.000928 0.007744 0.000000 -0.000163 0.000000
# 4 0.000000 0.000000 0.000000 0.030549 0.000000 -0.000063
# 5 -0.003589 0.001111 -0.000163 0.000000 0.020402 0.000000
# 6 0.000000 0.000000 0.000000 -0.000063 0.000000 0.038187
#
#
# Mechanical properties :
#
#
# Convention : Reuss Voigt Hill
#
# Bulk Modulus (GPa) = 41.08295 54.08146 47.58221
# Shear Modulus (GPa) = 34.03830 38.74622 36.39226
#
# Velocity S-wave (km/s) = 3.72746 3.97689 3.85419
# Velocity P-wave (km/s) = 5.94094 6.56984 6.26329
#
# Compressibility (1/GPa) = 0.02434100
#
# Stress axis : x y z
#
# Youngs Moduli (GPa) = 89.03108 55.50763 129.13470
#
# Poissons Ratio (x) = 0.10679 0.44856
# Poissons Ratio (y) = 0.17128 0.11981
# Poissons Ratio (z) = 0.30926 0.05150
#
# Static dielectric constant tensor:
#      x y z
#    x 1.922260 0.000000 -0.085900 
#    y 0.000000 2.004250 0.000000 
#    z -0.085900 0.000000 1.979930 
# 
# From -- ./inp_files/25232.got.cif
#   From: 2010.05.17/outbox.cif.g08.bks.cpg/sg14_13_cif.got.tgz:25232.got - 2010.06.03 17:49:19.
