data_PCOD9249321
_publ_section_title
;
Structure prediction by ZEFSAII (Michael W. Deem and Ramdas Pophale) SiO2 
 PCOD9249321
Probable space group: P 21/C
;
_chemical_formula_sum "Si O2"
_cell_formula_units_Z 28
_cell_length_a 15.147985
_cell_length_b 9.495522
_cell_length_c 14.006330
_cell_angle_alpha 90.000000
_cell_angle_beta 144.777099
_cell_angle_gamma 90.000000
_cell_volume 1161.963152
_symmetry_space_group_name_H-M "P 21/C"
_symmetry_group_IT_number 14
_symmetry_cell_setting 'monoclinic'
loop_
_space_group_symop_operation_xyz
x,y,z
-x,1/2+y,1/2-z
-x,-y,-z
x,1/2-y,1/2+z
loop_
_atom_site_type_symbol
_atom_site_label
_atom_site_fract_x
_atom_site_fract_y
_atom_site_fract_z
Si Si1 0.957681 0.357639 0.173582
Si Si2 0.402260 0.837480 0.870888
Si Si3 0.843620 0.344633 0.421083
Si Si4 0.096987 0.173356 0.001555
Si Si5 0.650295 0.481800 0.882171
Si Si6 0.288746 0.433002 0.408180
Si Si7 0.401793 0.212099 0.195687
O O1 0.868015 0.230048 0.043763
O O2 0.015975 0.312134 0.328125
O O3 0.108318 0.403788 0.247342
O O4 0.829085 0.479044 0.066930
O O5 0.314820 0.695037 0.769255
O O6 0.363645 0.932980 0.741641
O O7 0.333741 0.916925 0.902318
O O8 0.585975 0.833805 0.034935
O O9 0.870290 0.508703 0.452364
O O10 0.977561 0.278520 0.474411
O O11 0.264393 0.240021 0.147109
O O12 0.576103 0.634617 0.830302
O O13 0.557523 0.364680 0.860931
O O14 0.332646 0.398540 0.556937
#
# Coordination Sequence:
#
# PCOD9249321 Si02
#       7
#     4   4   4   4   4   4   4
#     4  10  23  40  69  91 129 170 226 266 329 391
#     4   9  20  40  64  90 126 167 214 265 325 388
#     4  10  23  42  64  95 134 169 219 272 332 388
#     4  10  24  41  63  97 133 175 213 279 330 385
#     4  10  23  40  64  96 123 175 214 270 329 395
#     4   9  20  38  60  93 119 165 211 270 307 390
#     4  10  23  40  64  91 133 169 220 263 332 392
#
# _framework density 24.097149000000002
#
# number of rings (size 3 to 8) (size 9 to 14) (size 15 to 20)
#    0.000    2.286    0.000    0.000   14.000    2.286 
#    5.143    0.000    0.000    4.286    0.000    0.000 
#    0.000    0.000    0.000    0.000    0.000    0.000 
#
# Total GULP energy -156356.330684 kJ/mol
# GULP energy per Si atom -5584.154667 kJ/mol
# Density = 2.404230 g / cm^3
# Si number density = 24.097149 Si / 1000 Ang^3
#
#
#
# Elastic Constant Matrix: (Units=GPa)
#
#
# Indices 1 2 3 4 5 6 
#
# 1 60.8877 1.9052 34.9122 0.0000 10.3679 0.0000
# 2 1.9052 52.1128 29.9021 0.0000 8.1047 0.0000
# 3 34.9122 29.9021 123.2077 0.0000 23.9258 0.0000
# 4 0.0000 0.0000 0.0000 22.7565 0.0000 4.4737
# 5 10.3679 8.1047 23.9258 0.0000 51.3916 0.0000
# 6 0.0000 0.0000 0.0000 4.4737 0.0000 22.2469
#
#
#
# Elastic Compliance Matrix: (Units=1/GPa)
#
#
# Indices 1 2 3 4 5 6 
#
# 1 0.020120 0.003033 -0.006108 0.000000 -0.001694 0.000000
# 2 0.003033 0.022807 -0.006132 0.000000 -0.001354 0.000000
# 3 -0.006108 -0.006132 0.011992 0.000000 -0.003384 0.000000
# 4 0.000000 0.000000 0.000000 0.045752 0.000000 -0.009201
# 5 -0.001694 -0.001354 -0.003384 0.000000 0.021589 0.000000
# 6 0.000000 0.000000 0.000000 -0.009201 0.000000 0.046800
#
#
# Mechanical properties :
#
#
# Convention : Reuss Voigt Hill
#
# Bulk Modulus (GPa) = 27.39367 41.07191 34.23279
# Shear Modulus (GPa) = 25.04467 30.57826 27.81147
#
# Velocity S-wave (km/s) = 3.22735 3.56611 3.40095
# Velocity P-wave (km/s) = 5.02796 5.83416 5.44600
#
# Compressibility (1/GPa) = 0.03650479
#
# Stress axis : x y z
#
# Youngs Moduli (GPa) = 49.70296 43.84592 83.38578
#
# Poissons Ratio (x) = -0.13297 0.50934
# Poissons Ratio (y) = -0.15073 0.51129
# Poissons Ratio (z) = 0.30360 0.26885
#
# Static dielectric constant tensor:
#      x y z
#    x 1.992910 0.000000 0.030190 
#    y 0.000000 1.913520 0.000000 
#    z 0.030190 0.000000 1.961600 
# 
# From -- ./inp_files/60352.got.cif
#   From: 2010.05.17/outbox.cif.g08.bks.cpg/sg14_31_cif.got.tgz:60352.got - 2010.06.03 17:49:19.
