data_PCOD9249494
_publ_section_title
;
Structure prediction by ZEFSAII (Michael W. Deem and Ramdas Pophale) SiO2 
 PCOD9249494
Probable space group: P 21/C
;
_chemical_formula_sum "Si O2"
_cell_formula_units_Z 24
_cell_length_a 18.039877
_cell_length_b 11.721371
_cell_length_c 16.815737
_cell_angle_alpha 90.000000
_cell_angle_beta 16.145987
_cell_angle_gamma 90.000000
_cell_volume 988.795682
_symmetry_space_group_name_H-M "P 21/C"
_symmetry_group_IT_number 14
_symmetry_cell_setting 'monoclinic'
loop_
_space_group_symop_operation_xyz
x,y,z
-x,1/2+y,1/2-z
-x,-y,-z
x,1/2-y,1/2+z
loop_
_atom_site_type_symbol
_atom_site_label
_atom_site_fract_x
_atom_site_fract_y
_atom_site_fract_z
Si Si1 0.093743 0.052509 0.028155
Si Si2 0.395818 0.987043 0.868927
Si Si3 0.874772 0.488264 0.988196
Si Si4 0.703874 0.285507 0.266843
Si Si5 0.825152 0.208044 0.813697
Si Si6 0.772185 0.865200 0.281763
O O1 0.226583 0.070226 0.804642
O O2 0.314949 0.020407 0.864204
O O3 0.948917 0.169669 0.200884
O O4 0.872581 0.954280 0.243975
O O5 0.169954 0.050708 0.156348
O O6 0.327606 0.853495 0.956746
O O7 0.681483 0.011216 0.611385
O O8 0.739387 0.409890 0.193252
O O9 0.939986 0.616917 0.947968
O O10 0.640386 0.288348 0.426026
O O11 0.497917 0.205229 0.432763
O O12 0.989845 0.225568 0.968243
#
# Coordination Sequence:
#
# PCOD9249494 Si02
#       6
#     4   4   4   4   4   4
#     4  10  23  48  64  95 139 167 235 269 328 412
#     4  10  24  40  63  97 127 182 211 273 335 389
#     4  10  23  42  62 101 130 175 218 269 342 386
#     4  11  22  42  69  99 137 163 232 268 329 410
#     4   9  24  40  67  95 129 181 211 279 335 378
#     4  10  25  41  70 100 123 187 211 284 332 375
#
# _framework density 24.271951999999999
#
# number of rings (size 3 to 8) (size 9 to 14) (size 15 to 20)
#    1.000    1.000    0.000    1.500    4.667   13.333 
#    3.000    0.000    0.000    0.000    0.000    0.000 
#    0.000    0.000    0.000    0.000    0.000    0.000 
#
# Total GULP energy -134264.665086 kJ/mol
# GULP energy per Si atom -5594.361045 kJ/mol
# Density = 2.421671 g / cm^3
# Si number density = 24.271952 Si / 1000 Ang^3
#
#
#
# Elastic Constant Matrix: (Units=GPa)
#
#
# Indices 1 2 3 4 5 6 
#
# 1 74.2057 43.4979 12.5833 0.0000 -27.4333 0.0000
# 2 43.4979 107.7338 14.5573 0.0000 -16.6443 0.0000
# 3 12.5833 14.5573 78.2096 0.0000 -22.3436 0.0000
# 4 0.0000 0.0000 0.0000 25.1783 0.0000 -4.9571
# 5 -27.4333 -16.6443 -22.3436 0.0000 28.1548 0.0000
# 6 0.0000 0.0000 0.0000 -4.9571 0.0000 26.6348
#
#
#
# Elastic Compliance Matrix: (Units=1/GPa)
#
#
# Indices 1 2 3 4 5 6 
#
# 1 0.026068 -0.007321 0.004124 0.000000 0.024345 0.000000
# 2 -0.007321 0.012274 -0.001386 0.000000 -0.000977 0.000000
# 3 0.004124 -0.001386 0.017192 0.000000 0.016842 0.000000
# 4 0.000000 0.000000 0.000000 0.041227 0.000000 0.007673
# 5 0.024345 -0.000977 0.016842 0.000000 0.072027 0.000000
# 6 0.000000 0.000000 0.000000 0.007673 0.000000 0.038973
#
#
# Mechanical properties :
#
#
# Convention : Reuss Voigt Hill
#
# Bulk Modulus (GPa) = 21.56670 44.60292 33.08481
# Shear Modulus (GPa) = 21.51593 28.62761 25.07177
#
# Velocity S-wave (km/s) = 2.98057 3.43804 3.21744
# Velocity P-wave (km/s) = 4.55519 5.84606 5.24052
#
# Compressibility (1/GPa) = 0.04636779
#
# Stress axis : x y z
#
# Youngs Moduli (GPa) = 38.36055 81.47024 58.16546
#
# Poissons Ratio (x) = 0.59647 -0.23985
# Poissons Ratio (y) = 0.28085 0.08061
# Poissons Ratio (z) = -0.15818 0.11291
#
# Static dielectric constant tensor:
#      x y z
#    x 1.941400 0.000000 0.092220 
#    y 0.000000 1.910410 0.000000 
#    z 0.092220 0.000000 1.971920 
# 
# From -- ./inp_files/60501.got.cif
#   From: 2010.05.17/outbox.cif.g08.bks.cpg/sg14_31_cif.got.tgz:60501.got - 2010.06.03 17:49:19.
