data_PCOD9249651
_publ_section_title
;
Structure prediction by ZEFSAII (Michael W. Deem and Ramdas Pophale) SiO2 
 PCOD9249651
Probable space group: P 21/C
;
_chemical_formula_sum "Si O2"
_cell_formula_units_Z 26
_cell_length_a 13.269496
_cell_length_b 8.251923
_cell_length_c 15.543538
_cell_angle_alpha 90.000000
_cell_angle_beta 142.322824
_cell_angle_gamma 90.000000
_cell_volume 1040.282296
_symmetry_space_group_name_H-M "P 21/C"
_symmetry_group_IT_number 14
_symmetry_cell_setting 'monoclinic'
loop_
_space_group_symop_operation_xyz
x,y,z
-x,1/2+y,1/2-z
-x,-y,-z
x,1/2-y,1/2+z
loop_
_atom_site_type_symbol
_atom_site_label
_atom_site_fract_x
_atom_site_fract_y
_atom_site_fract_z
Si Si1 0.994138 0.671138 0.545629
Si Si2 0.239293 0.718666 0.075888
Si Si3 0.500000 0.500000 0.000000
Si Si4 0.175334 0.793365 0.338271
Si Si5 0.453426 0.498272 0.670937
Si Si6 0.321381 0.054699 0.916076
Si Si7 0.676884 0.766098 0.736594
O O1 0.123620 0.787050 0.581703
O O2 0.038139 0.657444 0.675664
O O3 0.000000 0.500000 0.500000
O O4 0.813140 0.734115 0.401637
O O5 0.394721 0.597744 0.186999
O O6 0.314325 0.901221 0.126061
O O7 0.150594 0.686589 0.924201
O O8 0.340390 0.611199 0.922142
O O9 0.396911 0.433976 0.845722
O O10 0.208811 0.602110 0.346930
O O11 0.366181 0.382866 0.541346
O O12 0.536714 0.647053 0.675858
O O13 0.256124 0.188738 0.807214
O O14 0.500000 0.000000 0.000000
#
# Coordination Sequence:
#
# PCOD9249651 Si02
#       7
#     4   4   2   4   4   4   4
#     4  12  27  46  72 106 154 192 235 310 379 438
#     4  11  26  46  70 110 145 193 249 307 369 437
#     4  12  20  40  74  98 136 188 244 284 362 428
#     4  11  24  44  71 101 146 184 244 300 357 439
#     4  10  23  42  71 105 142 187 256 300 352 446
#     4   9  17  38  64  97 128 176 237 295 341 416
#     4  11  23  42  70 106 134 195 238 297 373 429
#
# _framework density 24.993216
#
# number of rings (size 3 to 8) (size 9 to 14) (size 15 to 20)
#    0.000    1.231    6.154    1.846    4.308    2.462 
#    8.308    0.000    0.000    0.000    0.000    0.000 
#    0.000    0.000    0.000    0.000    0.000    0.000 
#
# Total GULP energy -144855.062036 kJ/mol
# GULP energy per Si atom -5571.348540 kJ/mol
# Density = 2.493633 g / cm^3
# Si number density = 24.993216 Si / 1000 Ang^3
#
#
#
# Elastic Constant Matrix: (Units=GPa)
#
#
# Indices 1 2 3 4 5 6 
#
# 1 73.0077 18.4523 37.2397 0.0000 -11.5276 0.0000
# 2 18.4523 30.5799 31.7289 0.0000 -19.4839 0.0000
# 3 37.2397 31.7289 199.4620 0.0000 -23.0113 0.0000
# 4 0.0000 0.0000 0.0000 42.5454 0.0000 -13.1418
# 5 -11.5276 -19.4839 -23.0113 0.0000 36.0430 0.0000
# 6 0.0000 0.0000 0.0000 -13.1418 0.0000 23.4213
#
#
#
# Elastic Compliance Matrix: (Units=1/GPa)
#
#
# Indices 1 2 3 4 5 6 
#
# 1 0.016696 -0.008426 -0.001820 0.000000 -0.000377 0.000000
# 2 -0.008426 0.059704 -0.004870 0.000000 0.026470 0.000000
# 3 -0.001820 -0.004870 0.006215 0.000000 0.000753 0.000000
# 4 0.000000 0.000000 0.000000 0.028432 0.000000 0.015953
# 5 -0.000377 0.026470 0.000753 0.000000 0.042414 0.000000
# 6 0.000000 0.000000 0.000000 0.015953 0.000000 0.051648
#
#
# Mechanical properties :
#
#
# Convention : Reuss Voigt Hill
#
# Bulk Modulus (GPa) = 19.09067 53.09902 36.09485
# Shear Modulus (GPa) = 19.77826 34.77720 27.27773
#
# Velocity S-wave (km/s) = 2.81614 3.73428 3.30723
# Velocity P-wave (km/s) = 4.26955 6.31543 5.39044
#
# Compressibility (1/GPa) = 0.05238161
#
# Stress axis : x y z
#
# Youngs Moduli (GPa) = 59.89545 16.74916 160.90276
#
# Poissons Ratio (x) = 0.14113 0.29289
# Poissons Ratio (y) = 0.50469 0.78366
# Poissons Ratio (z) = 0.10903 0.08157
#
# Static dielectric constant tensor:
#      x y z
#    x 2.270100 0.000000 0.131010 
#    y 0.000000 2.091900 0.000000 
#    z 0.131010 0.000000 2.114520 
# 
# From -- ./inp_files/46762.got.cif
#   From: 2010.05.17/outbox.cif.g08.bks.cpg/sg14_24_cif.got.tgz:46762.got - 2010.06.03 17:49:19.
