data_PCOD9249125
_publ_section_title
;
Structure prediction by ZEFSAII (Michael W. Deem and Ramdas Pophale) SiO2 
 PCOD9249125
Probable space group: P 21/C
;
_chemical_formula_sum "Si O2"
_cell_formula_units_Z 18
_cell_length_a 20.195718
_cell_length_b 4.928234
_cell_length_c 10.110115
_cell_angle_alpha 90.000000
_cell_angle_beta 38.954444
_cell_angle_gamma 90.000000
_cell_volume 632.632866
_symmetry_space_group_name_H-M "P 21/C"
_symmetry_group_IT_number 14
_symmetry_cell_setting 'monoclinic'
loop_
_space_group_symop_operation_xyz
x,y,z
-x,1/2+y,1/2-z
-x,-y,-z
x,1/2-y,1/2+z
loop_
_atom_site_type_symbol
_atom_site_label
_atom_site_fract_x
_atom_site_fract_y
_atom_site_fract_z
Si Si1 0.781578 0.861059 0.814765
Si Si2 0.500000 0.500000 0.000000
Si Si3 0.249624 0.527506 0.364639
Si Si4 0.930847 0.384925 0.892669
Si Si5 0.540332 0.493777 0.668554
O O1 0.777470 0.590198 0.735851
O O2 0.885238 0.014277 0.603607
O O3 0.781767 0.825539 0.969416
O O4 0.667947 0.009140 0.959348
O O5 0.627441 0.451663 0.816215
O O6 0.501223 0.264817 0.853879
O O7 0.177777 0.784540 0.504815
O O8 0.995098 0.622395 0.722884
O O9 0.484315 0.238263 0.667746
#
# Coordination Sequence:
#
# PCOD9249125 Si02
#       5
#     4   2   4   4   4
#     4  11  26  48  80 118 160 208 271 328 403 480
#     4  10  22  46  72 116 154 206 246 318 388 482
#     4  11  25  51  80 122 160 214 264 334 406 483
#     4  12  27  53  80 117 159 211 276 339 400 472
#     4  11  23  42  69 105 153 196 248 302 383 461
#
# _framework density 28.452521000000001
#
# number of rings (size 3 to 8) (size 9 to 14) (size 15 to 20)
#    0.000    0.889    4.444    1.333    0.000    4.444 
#   12.000    0.000    0.000    0.000    0.000    0.000 
#    0.000    0.000    0.000    0.000    0.000    0.000 
#
# Total GULP energy -100625.135429 kJ/mol
# GULP energy per Si atom -5590.285302 kJ/mol
# Density = 2.838776 g / cm^3
# Si number density = 28.452521 Si / 1000 Ang^3
#
#
#
# Elastic Constant Matrix: (Units=GPa)
#
#
# Indices 1 2 3 4 5 6 
#
# 1 85.1945 51.5580 53.0814 0.0000 -6.9757 0.0000
# 2 51.5580 259.1946 88.2415 0.0000 -36.0319 0.0000
# 3 53.0814 88.2415 254.4344 0.0000 -41.9287 0.0000
# 4 0.0000 0.0000 0.0000 35.7582 0.0000 -9.2905
# 5 -6.9757 -36.0319 -41.9287 0.0000 66.1926 0.0000
# 6 0.0000 0.0000 0.0000 -9.2905 0.0000 48.3067
#
#
#
# Elastic Compliance Matrix: (Units=1/GPa)
#
#
# Indices 1 2 3 4 5 6 
#
# 1 0.014515 -0.002221 -0.002462 0.000000 -0.001239 0.000000
# 2 -0.002221 0.004869 -0.000923 0.000000 0.001831 0.000000
# 3 -0.002462 -0.000923 0.005179 0.000000 0.002519 0.000000
# 4 0.000000 0.000000 0.000000 0.029437 0.000000 0.005661
# 5 -0.001239 0.001831 0.002519 0.000000 0.017569 0.000000
# 6 0.000000 0.000000 0.000000 0.005661 0.000000 0.021790
#
#
# Mechanical properties :
#
#
# Convention : Reuss Voigt Hill
#
# Bulk Modulus (GPa) = 74.90908 109.39837 92.15373
# Shear Modulus (GPa) = 45.86263 57.11433 51.48848
#
# Velocity S-wave (km/s) = 4.01920 4.48521 4.25859
# Velocity P-wave (km/s) = 6.92268 8.08429 7.52593
#
# Compressibility (1/GPa) = 0.01334952
#
# Stress axis : x y z
#
# Youngs Moduli (GPa) = 68.89620 205.38483 193.08031
#
# Poissons Ratio (x) = 0.45622 0.47535
# Poissons Ratio (y) = 0.15304 0.17829
# Poissons Ratio (z) = 0.16962 0.18965
#
# Static dielectric constant tensor:
#      x y z
#    x 2.357380 0.000000 0.294190 
#    y 0.000000 2.382630 0.000000 
#    z 0.294190 0.000000 2.255350 
# 
# From -- ./inp_files/27378.got.cif
#   From: 2010.05.17/outbox.cif.g08.bks.cpg/sg14_14_cif.got.tgz:27378.got - 2010.06.03 17:49:19.
