data_PCOD9249978
_publ_section_title
;
Structure prediction by ZEFSAII (Michael W. Deem and Ramdas Pophale) SiO2 
 PCOD9249978
Probable space group: P 21/C
;
_chemical_formula_sum "Si O2"
_cell_formula_units_Z 20
_cell_length_a 8.687540
_cell_length_b 6.909642
_cell_length_c 27.810032
_cell_angle_alpha 90.000000
_cell_angle_beta 31.143158
_cell_angle_gamma 90.000000
_cell_volume 863.364193
_symmetry_space_group_name_H-M "P 21/C"
_symmetry_group_IT_number 14
_symmetry_cell_setting 'monoclinic'
loop_
_space_group_symop_operation_xyz
x,y,z
-x,1/2+y,1/2-z
-x,-y,-z
x,1/2-y,1/2+z
loop_
_atom_site_type_symbol
_atom_site_label
_atom_site_fract_x
_atom_site_fract_y
_atom_site_fract_z
Si Si1 0.203651 0.842710 0.231853
Si Si2 0.575646 0.155075 0.185275
Si Si3 0.195503 0.491476 0.636568
Si Si4 0.865070 0.380061 0.453823
Si Si5 0.685958 0.903864 0.638996
O O1 0.495594 0.705762 0.149570
O O2 0.968916 0.714329 0.324021
O O3 0.640839 0.368637 0.149073
O O4 0.071683 0.898050 0.215819
O O5 0.469523 0.165057 0.269112
O O6 0.320230 0.035172 0.226514
O O7 0.878402 0.031955 0.100728
O O8 0.539821 0.448133 0.555824
O O9 0.152445 0.613221 0.599667
O O10 0.980989 0.178253 0.444820
#
# Coordination Sequence:
#
# PCOD9249978 Si02
#       5
#     4   4   4   4   4
#     4  11  25  40  67  93 133 167 221 263 328 380
#     4  11  20  41  68  92 128 176 216 259 318 399
#     4  11  24  45  65 100 134 166 209 283 319 378
#     4  10  23  45  67  94 133 169 219 263 323 383
#     4  11  20  40  68  94 123 180 214 256 325 392
#
# _framework density 23.165195000000001
#
# number of rings (size 3 to 8) (size 9 to 14) (size 15 to 20)
#    0.000    1.200    6.000    0.000    5.600    3.200 
#    3.600    5.000    0.000    0.000    0.000    0.000 
#    0.000    0.000    0.000    0.000    0.000    0.000 
#
# Total GULP energy -111917.563992 kJ/mol
# GULP energy per Si atom -5595.878200 kJ/mol
# Density = 2.311247 g / cm^3
# Si number density = 23.165195 Si / 1000 Ang^3
#
#
#
# Elastic Constant Matrix: (Units=GPa)
#
#
# Indices 1 2 3 4 5 6 
#
# 1 58.1856 34.0689 12.8498 0.0000 -9.7474 0.0000
# 2 34.0689 103.2399 -0.7450 0.0000 -9.6330 0.0000
# 3 12.8498 -0.7450 51.2436 0.0000 -21.1119 0.0000
# 4 0.0000 0.0000 0.0000 14.7422 0.0000 -6.2743
# 5 -9.7474 -9.6330 -21.1119 0.0000 36.8809 0.0000
# 6 0.0000 0.0000 0.0000 -6.2743 0.0000 32.8997
#
#
#
# Elastic Compliance Matrix: (Units=1/GPa)
#
#
# Indices 1 2 3 4 5 6 
#
# 1 0.022964 -0.007527 -0.005466 0.000000 0.000974 0.000000
# 2 -0.007527 0.012495 0.003395 0.000000 0.003217 0.000000
# 3 -0.005466 0.003395 0.027095 0.000000 0.014952 0.000000
# 4 0.000000 0.000000 0.000000 0.073825 0.000000 0.014079
# 5 0.000974 0.003217 0.014952 0.000000 0.036771 0.000000
# 6 0.000000 0.000000 0.000000 0.014079 0.000000 0.033080
#
#
# Mechanical properties :
#
#
# Convention : Reuss Voigt Hill
#
# Bulk Modulus (GPa) = 23.06468 33.89071 28.47769
# Shear Modulus (GPa) = 20.84390 28.00426 24.42408
#
# Velocity S-wave (km/s) = 3.00291 3.48069 3.25059
# Velocity P-wave (km/s) = 4.69058 5.55116 5.13891
#
# Compressibility (1/GPa) = 0.04335633
#
# Stress axis : x y z
#
# Youngs Moduli (GPa) = 43.54689 80.03445 36.90745
#
# Poissons Ratio (x) = 0.60238 0.20175
# Poissons Ratio (y) = 0.32776 -0.12528
# Poissons Ratio (z) = 0.23805 -0.27168
#
# Static dielectric constant tensor:
#      x y z
#    x 1.886360 0.000000 0.006990 
#    y 0.000000 1.862330 0.000000 
#    z 0.006990 0.000000 1.888320 
# 
# From -- ./inp_files/33694.got.cif
#   From: 2010.05.17/outbox.cif.g08.bks.cpg/sg14_17_cif.got.tgz:33694.got - 2010.06.03 17:49:19.
