data_PCOD9249789
_publ_section_title
;
Structure prediction by ZEFSAII (Michael W. Deem and Ramdas Pophale) SiO2 
 PCOD9249789
Probable space group: P 21/C
;
_chemical_formula_sum "Si O2"
_cell_formula_units_Z 32
_cell_length_a 13.261664
_cell_length_b 11.807938
_cell_length_c 17.244799
_cell_angle_alpha 90.000000
_cell_angle_beta 151.790440
_cell_angle_gamma 90.000000
_cell_volume 1276.479394
_symmetry_space_group_name_H-M "P 21/C"
_symmetry_group_IT_number 14
_symmetry_cell_setting 'monoclinic'
loop_
_space_group_symop_operation_xyz
x,y,z
-x,1/2+y,1/2-z
-x,-y,-z
x,1/2-y,1/2+z
loop_
_atom_site_type_symbol
_atom_site_label
_atom_site_fract_x
_atom_site_fract_y
_atom_site_fract_z
Si Si1 0.928573 0.362433 0.503813
Si Si2 0.407284 0.300772 0.785259
Si Si3 0.323462 0.626656 0.443440
Si Si4 0.791351 0.118671 0.464628
Si Si5 0.382046 0.583669 0.308961
Si Si6 0.120876 0.469833 0.844548
Si Si7 0.293534 0.262171 0.044448
Si Si8 0.065800 0.589897 0.661062
O O1 0.839886 0.251939 0.486507
O O2 0.836476 0.368392 0.353689
O O3 0.184585 0.342311 0.668734
O O4 0.908920 0.487061 0.526621
O O5 0.558153 0.393110 0.846412
O O6 0.349627 0.219871 0.672985
O O7 0.557199 0.238764 0.948118
O O8 0.292895 0.624581 0.330391
O O9 0.481360 0.527000 0.578318
O O10 0.092591 0.599453 0.321262
O O11 0.783825 0.067141 0.373667
O O12 0.940211 0.058234 0.628291
O O13 0.539005 0.679369 0.382128
O O14 0.198344 0.535079 0.820660
O O15 0.274157 0.377414 0.985134
O O16 0.073956 0.190812 0.898252
#
# Coordination Sequence:
#
# PCOD9249789 Si02
#       8
#     4   4   4   4   4   4   4   4
#     4  10  24  46  72 100 141 188 231 286 345 423
#     4  10  24  44  69  99 140 181 233 282 349 411
#     4  11  24  39  67  99 136 180 231 290 343 412
#     4  11  26  45  70 102 137 186 228 286 356 413
#     4  10  24  42  61  97 141 180 227 286 351 411
#     4  12  26  41  75 101 140 180 237 289 352 417
#     4  10  23  46  65  99 140 185 226 295 346 413
#     4  10  23  43  70  99 132 182 229 280 343 413
#
# _framework density 25.068953
#
# number of rings (size 3 to 8) (size 9 to 14) (size 15 to 20)
#    0.000    1.500    1.250    1.500   12.250    0.500 
#   11.250    0.625    0.000    0.000    0.000    0.000 
#    0.000    0.000    0.000    0.000    0.000    0.000 
#
# Total GULP energy -179089.203430 kJ/mol
# GULP energy per Si atom -5596.537607 kJ/mol
# Density = 2.501189 g / cm^3
# Si number density = 25.068953 Si / 1000 Ang^3
#
#
#
# Elastic Constant Matrix: (Units=GPa)
#
#
# Indices 1 2 3 4 5 6 
#
# 1 67.6946 28.9228 15.8073 0.0000 -14.5792 0.0000
# 2 28.9228 116.4101 33.7158 0.0000 -15.1729 0.0000
# 3 15.8073 33.7158 67.8826 0.0000 -18.3376 0.0000
# 4 0.0000 0.0000 0.0000 55.7034 0.0000 -11.9579
# 5 -14.5792 -15.1729 -18.3376 0.0000 52.8412 0.0000
# 6 0.0000 0.0000 0.0000 -11.9579 0.0000 29.6783
#
#
#
# Elastic Compliance Matrix: (Units=1/GPa)
#
#
# Indices 1 2 3 4 5 6 
#
# 1 0.017288 -0.003455 -0.001422 0.000000 0.003284 0.000000
# 2 -0.003455 0.010802 -0.004392 0.000000 0.000624 0.000000
# 3 -0.001422 -0.004392 0.018535 0.000000 0.004779 0.000000
# 4 0.000000 0.000000 0.000000 0.019652 0.000000 0.007918
# 5 0.003284 0.000624 0.004779 0.000000 0.021668 0.000000
# 6 0.000000 0.000000 0.000000 0.007918 0.000000 0.036885
#
#
# Mechanical properties :
#
#
# Convention : Reuss Voigt Hill
#
# Bulk Modulus (GPa) = 35.60534 45.43101 40.51818
# Shear Modulus (GPa) = 32.73718 39.21401 35.97560
#
# Velocity S-wave (km/s) = 3.61762 3.95935 3.79234
# Velocity P-wave (km/s) = 5.62880 6.25009 5.94757
#
# Compressibility (1/GPa) = 0.02808568
#
# Stress axis : x y z
#
# Youngs Moduli (GPa) = 57.84384 92.57349 53.95250
#
# Poissons Ratio (x) = 0.31987 0.07674
# Poissons Ratio (y) = 0.19987 0.23696
# Poissons Ratio (z) = 0.08228 0.40658
#
# Static dielectric constant tensor:
#      x y z
#    x 1.972880 0.000000 -0.037450 
#    y 0.000000 1.967110 0.000000 
#    z -0.037450 0.000000 2.016820 
# 
# From -- ./inp_files/59493.got.cif
#   From: 2010.05.17/outbox.cif.g08.bks.cpg/sg14_30_cif.got.tgz:59493.got - 2010.06.03 17:49:19.
