data_PCOD9249300
_publ_section_title
;
Structure prediction by ZEFSAII (Michael W. Deem and Ramdas Pophale) SiO2 
 PCOD9249300
Probable space group: P 21/C
;
_chemical_formula_sum "Si O2"
_cell_formula_units_Z 20
_cell_length_a 7.037976
_cell_length_b 7.288689
_cell_length_c 15.912398
_cell_angle_alpha 90.000000
_cell_angle_beta 102.452397
_cell_angle_gamma 90.000000
_cell_volume 797.065814
_symmetry_space_group_name_H-M "P 21/C"
_symmetry_group_IT_number 14
_symmetry_cell_setting 'monoclinic'
loop_
_space_group_symop_operation_xyz
x,y,z
-x,1/2+y,1/2-z
-x,-y,-z
x,1/2-y,1/2+z
loop_
_atom_site_type_symbol
_atom_site_label
_atom_site_fract_x
_atom_site_fract_y
_atom_site_fract_z
Si Si1 0.056431 0.946822 0.099737
Si Si2 0.803585 0.386254 0.977887
Si Si3 0.784650 0.734291 0.262370
Si Si4 0.205187 0.817614 0.842576
Si Si5 0.512687 0.952407 0.335394
O O1 0.166421 0.758114 0.095637
O O2 0.195585 0.099869 0.153072
O O3 0.856036 0.976268 0.134451
O O4 0.000000 0.000000 0.000000
O O5 0.627543 0.513156 0.932187
O O6 0.785868 0.288410 0.066067
O O7 0.000000 0.500000 0.000000
O O8 0.679440 0.920421 0.280834
O O9 0.647901 0.612206 0.189968
O O10 0.017775 0.751441 0.271149
O O11 0.397135 0.739546 0.819814
#
# Coordination Sequence:
#
# PCOD9249300 Si02
#       5
#     4   4   4   4   4
#     4   8  17  40  61  85 128 163 202 269 322 372
#     4  11  19  40  68  92 131 168 217 275 324 394
#     4  10  23  40  61  91 133 162 217 276 321 392
#     4   9  22  41  61  93 126 165 219 265 320 403
#     4  12  22  40  66  94 127 178 219 265 347 385
#
# _framework density 25.092030999999999
#
# number of rings (size 3 to 8) (size 9 to 14) (size 15 to 20)
#    1.200    0.800    2.000    1.800    0.000    1.600 
#    3.600   11.000    0.000    0.000    0.000    0.000 
#    0.000    0.000    0.000    0.000    0.000    0.000 
#
# Total GULP energy -111553.038807 kJ/mol
# GULP energy per Si atom -5577.651940 kJ/mol
# Density = 2.503492 g / cm^3
# Si number density = 25.092031 Si / 1000 Ang^3
#
#
#
# Elastic Constant Matrix: (Units=GPa)
#
#
# Indices 1 2 3 4 5 6 
#
# 1 91.3825 -5.7173 13.1555 0.0000 23.6116 0.0000
# 2 -5.7173 75.7314 7.8414 0.0000 21.7268 0.0000
# 3 13.1555 7.8414 114.8756 0.0000 37.3456 0.0000
# 4 0.0000 0.0000 0.0000 47.9965 0.0000 16.7958
# 5 23.6116 21.7268 37.3456 0.0000 50.3320 0.0000
# 6 0.0000 0.0000 0.0000 16.7958 0.0000 36.6434
#
#
#
# Elastic Compliance Matrix: (Units=1/GPa)
#
#
# Indices 1 2 3 4 5 6 
#
# 1 0.013154 0.003275 0.000970 0.000000 -0.008304 0.000000
# 2 0.003275 0.016067 0.001690 0.000000 -0.009726 0.000000
# 3 0.000970 0.001690 0.011681 0.000000 -0.009852 0.000000
# 4 0.000000 0.000000 0.000000 0.024815 0.000000 -0.011374
# 5 -0.008304 -0.009726 -0.009852 0.000000 0.035272 0.000000
# 6 0.000000 0.000000 0.000000 -0.011374 0.000000 0.032504
#
#
# Mechanical properties :
#
#
# Convention : Reuss Voigt Hill
#
# Bulk Modulus (GPa) = 18.94945 34.72763 26.83854
# Shear Modulus (GPa) = 35.91581 44.77503 40.34542
#
# Velocity S-wave (km/s) = 3.78744 4.22884 4.01421
# Velocity P-wave (km/s) = 5.16669 6.14119 5.67490
#
# Compressibility (1/GPa) = 0.05277197
#
# Stress axis : x y z
#
# Youngs Moduli (GPa) = 76.02310 62.23882 85.60552
#
# Poissons Ratio (x) = -0.20383 -0.08301
# Poissons Ratio (y) = -0.24897 -0.14468
# Poissons Ratio (z) = -0.07371 -0.10519
#
# Static dielectric constant tensor:
#      x y z
#    x 2.103620 0.000000 -0.124320 
#    y 0.000000 2.022400 0.000000 
#    z -0.124320 0.000000 2.050410 
# 
# From -- ./inp_files/63162.got.cif
#   From: 2010.05.17/outbox.cif.g08.bks.cpg/sg14_32_cif.got.tgz:63162.got - 2010.06.03 17:49:19.
