data_PCOD9249415
_publ_section_title
;
Structure prediction by ZEFSAII (Michael W. Deem and Ramdas Pophale) SiO2 
 PCOD9249415
Probable space group: P 21/C
;
_chemical_formula_sum "Si O2"
_cell_formula_units_Z 20
_cell_length_a 8.013986
_cell_length_b 18.986058
_cell_length_c 8.992733
_cell_angle_alpha 90.000000
_cell_angle_beta 144.019282
_cell_angle_gamma 90.000000
_cell_volume 803.882419
_symmetry_space_group_name_H-M "P 21/C"
_symmetry_group_IT_number 14
_symmetry_cell_setting 'monoclinic'
loop_
_space_group_symop_operation_xyz
x,y,z
-x,1/2+y,1/2-z
-x,-y,-z
x,1/2-y,1/2+z
loop_
_atom_site_type_symbol
_atom_site_label
_atom_site_fract_x
_atom_site_fract_y
_atom_site_fract_z
Si Si1 0.653036 0.603446 0.575810
Si Si2 0.772867 0.188609 0.845179
Si Si3 0.833323 0.040357 0.749430
Si Si4 0.689059 0.495166 0.842068
Si Si5 0.161501 0.254493 0.870924
O O1 0.554389 0.560799 0.652133
O O2 0.414583 0.582325 0.283449
O O3 0.740024 0.684262 0.648975
O O4 0.919336 0.567094 0.686262
O O5 0.725796 0.112381 0.741824
O O6 0.459956 0.218417 0.650689
O O7 0.940273 0.232292 0.838638
O O8 0.988879 0.192445 0.139921
O O9 0.652708 0.999232 0.492040
O O10 0.000000 0.000000 0.000000
O O11 0.000000 0.500000 0.000000
#
# Coordination Sequence:
#
# PCOD9249415 Si02
#       5
#     4   4   4   4   4
#     4   9  21  40  68  91 129 179 226 284 339 407
#     4  11  26  46  71 102 139 188 229 288 348 413
#     4  10  23  41  65  94 138 171 223 290 350 402
#     4   9  19  39  64  95 124 171 223 271 345 406
#     4  11  25  46  70 101 140 183 235 286 345 418
#
# _framework density 24.879259000000001
#
# number of rings (size 3 to 8) (size 9 to 14) (size 15 to 20)
#    0.000    2.000    0.000    1.200   14.000    2.400 
#   18.000    0.000    0.000    0.000    0.000    0.000 
#    0.000    0.000    0.000    0.000    0.000    0.000 
#
# Total GULP energy -111681.444653 kJ/mol
# GULP energy per Si atom -5584.072233 kJ/mol
# Density = 2.482263 g / cm^3
# Si number density = 24.879259 Si / 1000 Ang^3
#
#
#
# Elastic Constant Matrix: (Units=GPa)
#
#
# Indices 1 2 3 4 5 6 
#
# 1 94.1423 14.7497 13.0192 0.0000 -24.5815 0.0000
# 2 14.7497 56.3647 15.7763 0.0000 0.9699 0.0000
# 3 13.0192 15.7763 97.4995 0.0000 -15.7466 0.0000
# 4 0.0000 0.0000 0.0000 37.6152 0.0000 5.3652
# 5 -24.5815 0.9699 -15.7466 0.0000 38.8305 0.0000
# 6 0.0000 0.0000 0.0000 5.3652 0.0000 26.1062
#
#
#
# Elastic Compliance Matrix: (Units=1/GPa)
#
#
# Indices 1 2 3 4 5 6 
#
# 1 0.013446 -0.003727 0.000211 0.000000 0.008691 0.000000
# 2 -0.003727 0.019735 -0.003377 0.000000 -0.004222 0.000000
# 3 0.000211 -0.003377 0.011568 0.000000 0.004909 0.000000
# 4 0.000000 0.000000 0.000000 0.027388 0.000000 -0.005629
# 5 0.008691 -0.004222 0.004909 0.000000 0.033351 0.000000
# 6 0.000000 0.000000 0.000000 -0.005629 0.000000 0.039462
#
#
# Mechanical properties :
#
#
# Convention : Reuss Voigt Hill
#
# Bulk Modulus (GPa) = 32.29800 37.23299 34.76549
# Shear Modulus (GPa) = 29.57580 34.14111 31.85846
#
# Velocity S-wave (km/s) = 3.45160 3.70844 3.58232
# Velocity P-wave (km/s) = 5.37539 5.77362 5.57806
#
# Compressibility (1/GPa) = 0.03096167
#
# Stress axis : x y z
#
# Youngs Moduli (GPa) = 74.37012 50.67147 86.44841
#
# Poissons Ratio (x) = 0.18887 -0.01826
# Poissons Ratio (y) = 0.27720 0.29198
# Poissons Ratio (z) = -0.01571 0.17114
#
# Static dielectric constant tensor:
#      x y z
#    x 1.990940 0.000000 0.114720 
#    y 0.000000 2.054150 0.000000 
#    z 0.114720 0.000000 2.450200 
# 
# From -- ./inp_files/5746.got.cif
#   From: 2010.05.17/outbox.cif.g08.bks.cpg/sg14_3_cif.got.tgz:5746.got - 2010.06.03 17:49:19.
