data_PCOD9249943
_publ_section_title
;
Structure prediction by ZEFSAII (Michael W. Deem and Ramdas Pophale) SiO2 
 PCOD9249943
Probable space group: P 21/C
;
_chemical_formula_sum "Si O2"
_cell_formula_units_Z 32
_cell_length_a 6.924049
_cell_length_b 17.416093
_cell_length_c 10.784565
_cell_angle_alpha 90.000000
_cell_angle_beta 102.952869
_cell_angle_gamma 90.000000
_cell_volume 1267.417663
_symmetry_space_group_name_H-M "P 21/C"
_symmetry_group_IT_number 14
_symmetry_cell_setting 'monoclinic'
loop_
_space_group_symop_operation_xyz
x,y,z
-x,1/2+y,1/2-z
-x,-y,-z
x,1/2-y,1/2+z
loop_
_atom_site_type_symbol
_atom_site_label
_atom_site_fract_x
_atom_site_fract_y
_atom_site_fract_z
Si Si1 0.333342 0.400009 0.897811
Si Si2 0.473154 0.651646 0.687265
Si Si3 0.644447 0.179384 0.298463
Si Si4 0.007208 0.160820 0.170808
Si Si5 0.865976 0.674699 0.894474
Si Si6 0.828199 0.062423 0.677383
Si Si7 0.170308 0.991343 0.900645
Si Si8 0.539039 0.910062 0.925847
O O1 0.556710 0.378594 0.889155
O O2 0.277522 0.489323 0.901834
O O3 0.202074 0.372684 0.762283
O O4 0.251750 0.350237 0.999696
O O5 0.381462 0.735564 0.656451
O O6 0.140757 0.827706 0.732803
O O7 0.338156 0.606678 0.766929
O O8 0.485310 0.611852 0.557433
O O9 0.301093 0.337044 0.234741
O O10 0.499543 0.165776 0.158609
O O11 0.908870 0.093253 0.076428
O O12 0.052096 0.238652 0.104314
O O13 0.051203 0.618482 0.896400
O O14 0.002526 0.031342 0.794821
O O15 0.259754 0.042588 0.024330
O O16 0.368492 0.967898 0.850689
#
# Coordination Sequence:
#
# PCOD9249943 Si02
#       8
#     4   4   4   4   4   4   4   4
#     4  11  27  45  75 101 148 193 252 304 367 444
#     4  12  26  42  73 106 143 195 249 303 373 444
#     4  11  25  45  69 109 145 193 243 309 376 439
#     4  10  23  46  70 105 145 189 249 303 372 436
#     4  12  25  48  70 106 150 198 245 307 369 451
#     4  11  25  47  71 111 146 197 250 302 376 447
#     4   9  21  45  73 107 143 188 240 309 369 438
#     4  10  23  44  74 106 150 186 247 316 370 435
#
# _framework density 25.248190999999998
#
# number of rings (size 3 to 8) (size 9 to 14) (size 15 to 20)
#    0.000    1.250    3.750    0.375    7.000    4.000 
#    4.500    0.000    0.000    0.000    0.000    0.000 
#    0.000    0.000    0.000    0.000    0.000    0.000 
#
# Total GULP energy -179005.749057 kJ/mol
# GULP energy per Si atom -5593.929658 kJ/mol
# Density = 2.519073 g / cm^3
# Si number density = 25.248191 Si / 1000 Ang^3
#
#
#
# Elastic Constant Matrix: (Units=GPa)
#
#
# Indices 1 2 3 4 5 6 
#
# 1 135.5604 21.0924 8.1668 0.0000 0.8379 0.0000
# 2 21.0924 97.7546 -12.3097 0.0000 11.3019 0.0000
# 3 8.1668 -12.3097 38.9516 0.0000 -0.8434 0.0000
# 4 0.0000 0.0000 0.0000 18.9486 0.0000 2.1744
# 5 0.8379 11.3019 -0.8434 0.0000 49.7157 0.0000
# 6 0.0000 0.0000 0.0000 2.1744 0.0000 37.6299
#
#
#
# Elastic Compliance Matrix: (Units=1/GPa)
#
#
# Indices 1 2 3 4 5 6 
#
# 1 0.007824 -0.002007 -0.002268 0.000000 0.000286 0.000000
# 2 -0.002007 0.011454 0.003986 0.000000 -0.002502 0.000000
# 3 -0.002268 0.003986 0.027400 0.000000 -0.000403 0.000000
# 4 0.000000 0.000000 0.000000 0.053127 0.000000 -0.003070
# 5 0.000286 -0.002502 -0.000403 0.000000 0.020672 0.000000
# 6 0.000000 0.000000 0.000000 -0.003070 0.000000 0.026752
#
#
# Mechanical properties :
#
#
# Convention : Reuss Voigt Hill
#
# Bulk Modulus (GPa) = 21.69219 34.01842 27.85531
# Shear Modulus (GPa) = 30.64249 38.27997 34.46123
#
# Velocity S-wave (km/s) = 3.48753 3.89800 3.69846
# Velocity P-wave (km/s) = 4.98271 5.81051 5.41246
#
# Compressibility (1/GPa) = 0.04609953
#
# Stress axis : x y z
#
# Youngs Moduli (GPa) = 127.81287 87.30567 36.49697
#
# Poissons Ratio (x) = 0.17521 0.08279
# Poissons Ratio (y) = 0.25650 -0.14549
# Poissons Ratio (z) = 0.28994 -0.34803
#
# Static dielectric constant tensor:
#      x y z
#    x 2.070040 0.000000 -0.018940 
#    y 0.000000 2.020100 0.000000 
#    z -0.018940 0.000000 2.013310 
# 
# From -- ./inp_files/25257.got.cif
#   From: 2010.05.17/outbox.cif.g08.bks.cpg/sg14_13_cif.got.tgz:25257.got - 2010.06.03 17:49:19.
