data_PCOD9249346
_publ_section_title
;
Structure prediction by ZEFSAII (Michael W. Deem and Ramdas Pophale) SiO2 
 PCOD9249346
Probable space group: P 21/C
;
_chemical_formula_sum "Si O2"
_cell_formula_units_Z 24
_cell_length_a 10.295405
_cell_length_b 9.391341
_cell_length_c 11.392059
_cell_angle_alpha 90.000000
_cell_angle_beta 117.680240
_cell_angle_gamma 90.000000
_cell_volume 975.412383
_symmetry_space_group_name_H-M "P 21/C"
_symmetry_group_IT_number 14
_symmetry_cell_setting 'monoclinic'
loop_
_space_group_symop_operation_xyz
x,y,z
-x,1/2+y,1/2-z
-x,-y,-z
x,1/2-y,1/2+z
loop_
_atom_site_type_symbol
_atom_site_label
_atom_site_fract_x
_atom_site_fract_y
_atom_site_fract_z
Si Si1 0.071580 0.589167 0.258642
Si Si2 0.083220 0.181774 0.656364
Si Si3 0.600427 0.326824 0.663245
Si Si4 0.594453 0.002070 0.738871
Si Si5 0.629570 0.740561 0.598793
Si Si6 0.160509 0.378491 0.501327
O O1 0.015365 0.473934 0.140852
O O2 0.228884 0.644867 0.283500
O O3 0.092589 0.487328 0.381173
O O4 0.975593 0.718433 0.263280
O O5 0.259603 0.176088 0.756559
O O6 0.057835 0.268961 0.527417
O O7 0.526404 0.434798 0.724324
O O8 0.522481 0.333745 0.501716
O O9 0.576169 0.166535 0.700845
O O10 0.599108 0.900182 0.626794
O O11 0.750306 0.972500 0.867171
O O12 0.720063 0.716651 0.517373
#
# Coordination Sequence:
#
# PCOD9249346 Si02
#       6
#     4   4   4   4   4   4
#     4  11  25  43  69  98 134 178 223 271 338 392
#     4  10  23  44  66  95 134 176 223 272 327 395
#     4  11  25  40  70 100 129 178 221 276 334 397
#     4  10  23  40  67  98 136 164 225 277 330 389
#     4   9  21  42  66  92 130 172 215 279 322 383
#     4   9  21  41  70  90 133 179 218 267 336 390
#
# _framework density 24.604979
#
# number of rings (size 3 to 8) (size 9 to 14) (size 15 to 20)
#    0.000    2.000    0.000    1.000   16.333    3.333 
#    0.000    3.333    0.000    0.000    0.000    0.000 
#    0.000    0.000    0.000    0.000    0.000    0.000 
#
# Total GULP energy -134239.059978 kJ/mol
# GULP energy per Si atom -5593.294166 kJ/mol
# Density = 2.454898 g / cm^3
# Si number density = 24.604979 Si / 1000 Ang^3
#
#
#
# Elastic Constant Matrix: (Units=GPa)
#
#
# Indices 1 2 3 4 5 6 
#
# 1 65.2895 48.6347 3.4868 0.0000 -1.0299 0.0000
# 2 48.6347 186.7332 35.4914 0.0000 -8.3086 0.0000
# 3 3.4868 35.4914 72.5744 0.0000 -8.6402 0.0000
# 4 0.0000 0.0000 0.0000 37.3242 0.0000 -5.5757
# 5 -1.0299 -8.3086 -8.6402 0.0000 18.9044 0.0000
# 6 0.0000 0.0000 0.0000 -5.5757 0.0000 46.5529
#
#
#
# Elastic Compliance Matrix: (Units=1/GPa)
#
#
# Indices 1 2 3 4 5 6 
#
# 1 0.019192 -0.005331 0.001619 0.000000 -0.000558 0.000000
# 2 -0.005331 0.007418 -0.003191 0.000000 0.001511 0.000000
# 3 0.001619 -0.003191 0.015975 0.000000 0.005987 0.000000
# 4 0.000000 0.000000 0.000000 0.027280 0.000000 0.003267
# 5 -0.000558 0.001511 0.005987 0.000000 0.056268 0.000000
# 6 0.000000 0.000000 0.000000 0.003267 0.000000 0.021872
#
#
# Mechanical properties :
#
#
# Convention : Reuss Voigt Hill
#
# Bulk Modulus (GPa) = 34.75032 55.53589 45.14310
# Shear Modulus (GPa) = 29.17071 36.35523 32.76297
#
# Velocity S-wave (km/s) = 3.44693 3.84807 3.65301
# Velocity P-wave (km/s) = 5.47684 6.50873 6.01495
#
# Compressibility (1/GPa) = 0.02877672
#
# Stress axis : x y z
#
# Youngs Moduli (GPa) = 52.10411 134.81574 62.59917
#
# Poissons Ratio (x) = 0.71872 -0.10132
# Poissons Ratio (y) = 0.27777 0.19978
# Poissons Ratio (z) = -0.08434 0.43025
#
# Static dielectric constant tensor:
#      x y z
#    x 1.952240 0.000000 0.005500 
#    y 0.000000 1.949910 0.000000 
#    z 0.005500 0.000000 2.010920 
# 
# From -- ./inp_files/28190.got.cif
#   From: 2010.05.17/outbox.cif.g08.bks.cpg/sg14_15_cif.got.tgz:28190.got - 2010.06.03 17:49:19.
