data_PCOD9249081
_publ_section_title
;
Structure prediction by ZEFSAII (Michael W. Deem and Ramdas Pophale) SiO2 
 PCOD9249081
Probable space group: P 21/C
;
_chemical_formula_sum "Si O2"
_cell_formula_units_Z 30
_cell_length_a 11.347394
_cell_length_b 9.222835
_cell_length_c 13.954565
_cell_angle_alpha 90.000000
_cell_angle_beta 108.027046
_cell_angle_gamma 90.000000
_cell_volume 1388.725910
_symmetry_space_group_name_H-M "P 21/C"
_symmetry_group_IT_number 14
_symmetry_cell_setting 'monoclinic'
loop_
_space_group_symop_operation_xyz
x,y,z
-x,1/2+y,1/2-z
-x,-y,-z
x,1/2-y,1/2+z
loop_
_atom_site_type_symbol
_atom_site_label
_atom_site_fract_x
_atom_site_fract_y
_atom_site_fract_z
Si Si1 0.420858 0.300943 0.888702
Si Si2 0.894159 0.102925 0.928594
Si Si3 0.500000 0.500000 0.500000
Si Si4 0.950257 0.335230 0.783042
Si Si5 0.817321 0.657243 0.294305
Si Si6 0.886951 0.938737 0.408754
Si Si7 0.740445 0.300658 0.574654
Si Si8 0.352240 0.984054 0.533607
O O1 0.312239 0.296695 0.783913
O O2 0.527560 0.415669 0.885156
O O3 0.471647 0.142206 0.924572
O O4 0.375170 0.370246 0.978827
O O5 0.948972 0.225354 0.872261
O O6 0.810378 0.998704 0.841675
O O7 0.812238 0.167540 0.993178
O O8 0.000000 0.000000 0.000000
O O9 0.635978 0.422731 0.563534
O O10 0.912481 0.492747 0.811987
O O11 0.844897 0.293486 0.681581
O O12 0.081617 0.344719 0.764669
O O13 0.869183 0.769063 0.386829
O O14 0.760692 0.994764 0.423424
O O15 0.000000 0.000000 0.500000
O O16 0.681319 0.141613 0.550757
#
# Coordination Sequence:
#
# PCOD9249081 Si02
#       8
#     4   4   2   4   4   4   4   4
#     4  10  23  45  68  98 135 182 230 282 348 417
#     4  12  25  44  68 106 143 182 235 298 353 416
#     4  10  24  42  74 100 140 184 230 298 338 422
#     4  12  24  44  71  96 140 179 229 293 353 422
#     4  12  25  41  68 105 133 181 236 286 343 422
#     4  12  24  42  66 101 134 176 225 282 351 414
#     4  11  23  47  69 101 137 183 233 284 363 411
#     4  10  22  46  67  93 137 182 221 281 352 412
#
# _framework density 21.602537000000002
#
# number of rings (size 3 to 8) (size 9 to 14) (size 15 to 20)
#    0.000    0.800    2.667    4.800    3.733    0.000 
#    7.200    0.000    0.000    0.000    0.000    0.000 
#    0.000    0.000    0.000    0.000    0.000    0.000 
#
# Total GULP energy -167290.543958 kJ/mol
# GULP energy per Si atom -5576.351465 kJ/mol
# Density = 2.155337 g / cm^3
# Si number density = 21.602537 Si / 1000 Ang^3
#
#
#
# Elastic Constant Matrix: (Units=GPa)
#
#
# Indices 1 2 3 4 5 6 
#
# 1 97.9837 -1.6833 30.5279 0.0000 8.9473 0.0000
# 2 -1.6833 64.1545 17.1212 0.0000 -6.4525 0.0000
# 3 30.5279 17.1212 84.0830 0.0000 13.6978 0.0000
# 4 0.0000 0.0000 0.0000 29.7863 0.0000 4.4722
# 5 8.9473 -6.4525 13.6978 0.0000 30.4812 0.0000
# 6 0.0000 0.0000 0.0000 4.4722 0.0000 16.2162
#
#
#
# Elastic Compliance Matrix: (Units=1/GPa)
#
#
# Indices 1 2 3 4 5 6 
#
# 1 0.011684 0.001338 -0.004318 0.000000 -0.001206 0.000000
# 2 0.001338 0.017501 -0.004951 0.000000 0.005537 0.000000
# 3 -0.004318 -0.004951 0.015573 0.000000 -0.006779 0.000000
# 4 0.000000 0.000000 0.000000 0.035023 0.000000 -0.009659
# 5 -0.001206 0.005537 -0.006779 0.000000 0.037380 0.000000
# 6 0.000000 0.000000 0.000000 -0.009659 0.000000 0.064330
#
#
# Mechanical properties :
#
#
# Convention : Reuss Voigt Hill
#
# Bulk Modulus (GPa) = 34.60809 37.57252 36.09030
# Shear Modulus (GPa) = 24.15621 28.64709 26.40165
#
# Velocity S-wave (km/s) = 3.34760 3.64551 3.49973
# Velocity P-wave (km/s) = 5.56750 5.92875 5.75096
#
# Compressibility (1/GPa) = 0.02889498
#
# Stress axis : x y z
#
# Youngs Moduli (GPa) = 85.58542 57.14042 64.21237
#
# Poissons Ratio (x) = -0.07643 0.27727
# Poissons Ratio (y) = -0.11448 0.31793
# Poissons Ratio (z) = 0.36956 0.28292
#
# Static dielectric constant tensor:
#      x y z
#    x 1.768540 0.000000 0.024730 
#    y 0.000000 1.812790 0.000000 
#    z 0.024730 0.000000 1.785460 
# 
# From -- ./inp_files/43511.got.cif
#   From: 2010.05.17/outbox.cif.g08.bks.cpg/sg14_22_cif.got.tgz:43511.got - 2010.06.03 17:49:19.
