data_PCOD9249138
_publ_section_title
;
Structure prediction by ZEFSAII (Michael W. Deem and Ramdas Pophale) SiO2 
 PCOD9249138
Probable space group: P 21/C
;
_chemical_formula_sum "Si O2"
_cell_formula_units_Z 20
_cell_length_a 20.782494
_cell_length_b 5.764237
_cell_length_c 10.038047
_cell_angle_alpha 90.000000
_cell_angle_beta 140.634385
_cell_angle_gamma 90.000000
_cell_volume 762.712034
_symmetry_space_group_name_H-M "P 21/C"
_symmetry_group_IT_number 14
_symmetry_cell_setting 'monoclinic'
loop_
_space_group_symop_operation_xyz
x,y,z
-x,1/2+y,1/2-z
-x,-y,-z
x,1/2-y,1/2+z
loop_
_atom_site_type_symbol
_atom_site_label
_atom_site_fract_x
_atom_site_fract_y
_atom_site_fract_z
Si Si1 0.443352 0.923928 0.177535
Si Si2 0.787652 0.952234 0.630382
Si Si3 0.861999 0.653250 0.507324
Si Si4 0.938488 0.309937 0.816775
Si Si5 0.393883 0.859191 0.824733
O O1 0.514284 0.687974 0.270163
O O2 0.407206 0.888208 0.272357
O O3 0.363128 0.870037 0.930216
O O4 0.844799 0.828520 0.600435
O O5 0.783164 0.815245 0.761285
O O6 0.865116 0.159108 0.790277
O O7 0.681712 0.017159 0.397697
O O8 0.861262 0.412724 0.584657
O O9 0.973116 0.681962 0.621927
O O10 0.000000 0.500000 0.000000
O O11 0.500000 0.000000 0.000000
#
# Coordination Sequence:
#
# PCOD9249138 Si02
#       5
#     4   4   4   4   4
#     4  10  22  46  74 103 143 196 250 314 378 444
#     4  12  28  44  73 110 143 196 245 301 380 448
#     4  12  25  46  73 104 147 185 241 307 369 453
#     4  12  24  45  71 106 144 187 238 303 376 449
#     4  10  25  47  71 107 144 195 250 308 374 446
#
# _framework density 26.222214000000001
#
# number of rings (size 3 to 8) (size 9 to 14) (size 15 to 20)
#    0.000    0.800    4.000    2.400    2.800    6.400 
#    7.200    0.000    0.000    0.000    0.000    0.000 
#    0.000    0.000    0.000    0.000    0.000    0.000 
#
# Total GULP energy -111745.236738 kJ/mol
# GULP energy per Si atom -5587.261837 kJ/mol
# Density = 2.616253 g / cm^3
# Si number density = 26.222214 Si / 1000 Ang^3
#
#
#
# Elastic Constant Matrix: (Units=GPa)
#
#
# Indices 1 2 3 4 5 6 
#
# 1 55.3993 27.6172 38.6545 0.0000 -24.4935 0.0000
# 2 27.6172 81.9364 37.4282 0.0000 -1.7675 0.0000
# 3 38.6545 37.4282 181.8956 0.0000 -33.5713 0.0000
# 4 0.0000 0.0000 0.0000 38.3061 0.0000 -3.8551
# 5 -24.4935 -1.7675 -33.5713 0.0000 47.7408 0.0000
# 6 0.0000 0.0000 0.0000 -3.8551 0.0000 32.8911
#
#
#
# Elastic Compliance Matrix: (Units=1/GPa)
#
#
# Indices 1 2 3 4 5 6 
#
# 1 0.029880 -0.008855 -0.002021 0.000000 0.013581 0.000000
# 2 -0.008855 0.016211 -0.002507 0.000000 -0.005706 0.000000
# 3 -0.002021 -0.002507 0.007164 0.000000 0.003908 0.000000
# 4 0.000000 0.000000 0.000000 0.026417 0.000000 0.003096
# 5 0.013581 -0.005706 0.003908 0.000000 0.030451 0.000000
# 6 0.000000 0.000000 0.000000 0.003096 0.000000 0.030766
#
#
# Mechanical properties :
#
#
# Convention : Reuss Voigt Hill
#
# Bulk Modulus (GPa) = 37.75149 58.51458 48.13304
# Shear Modulus (GPa) = 28.33087 38.15635 33.24361
#
# Velocity S-wave (km/s) = 3.29053 3.81874 3.56443
# Velocity P-wave (km/s) = 5.37260 6.46583 5.94440
#
# Compressibility (1/GPa) = 0.02648902
#
# Stress axis : x y z
#
# Youngs Moduli (GPa) = 33.46755 61.68517 139.57968
#
# Poissons Ratio (x) = 0.54622 0.28211
# Poissons Ratio (y) = 0.29635 0.34994
# Poissons Ratio (z) = 0.06764 0.15465
#
# Static dielectric constant tensor:
#      x y z
#    x 2.229590 0.000000 -0.044370 
#    y 0.000000 2.189150 0.000000 
#    z -0.044370 0.000000 2.072780 
# 
# From -- ./inp_files/36015.got.cif
#   From: 2010.05.17/outbox.cif.g08.bks.cpg/sg14_19_cif.got.tgz:36015.got - 2010.06.03 17:49:19.
