data_PCOD9249779
_publ_section_title
;
Structure prediction by ZEFSAII (Michael W. Deem and Ramdas Pophale) SiO2 
 PCOD9249779
Probable space group: P 21/C
;
_chemical_formula_sum "Si O2"
_cell_formula_units_Z 28
_cell_length_a 5.429945
_cell_length_b 14.009848
_cell_length_c 16.892675
_cell_angle_alpha 90.000000
_cell_angle_beta 60.802283
_cell_angle_gamma 90.000000
_cell_volume 1121.792234
_symmetry_space_group_name_H-M "P 21/C"
_symmetry_group_IT_number 14
_symmetry_cell_setting 'monoclinic'
loop_
_space_group_symop_operation_xyz
x,y,z
-x,1/2+y,1/2-z
-x,-y,-z
x,1/2-y,1/2+z
loop_
_atom_site_type_symbol
_atom_site_label
_atom_site_fract_x
_atom_site_fract_y
_atom_site_fract_z
Si Si1 0.970431 0.177062 0.115646
Si Si2 0.851399 0.832871 0.297982
Si Si3 0.316676 0.615083 0.970047
Si Si4 0.688089 0.891257 0.555579
Si Si5 0.400947 0.208379 0.279305
Si Si6 0.131750 0.519310 0.652801
Si Si7 0.709398 0.616571 0.592054
O O1 0.633800 0.178668 0.178461
O O2 0.049521 0.278477 0.140516
O O3 0.089706 0.093089 0.153706
O O4 0.107013 0.153676 0.010229
O O5 0.528378 0.860200 0.366141
O O6 0.860932 0.753305 0.227375
O O7 0.012637 0.928729 0.250024
O O8 0.291020 0.500723 0.974344
O O9 0.458616 0.649703 0.030017
O O10 0.002821 0.651597 0.007142
O O11 0.610934 0.880337 0.659469
O O12 0.442589 0.297394 0.334829
O O13 0.457803 0.550421 0.598316
O O14 0.927506 0.562209 0.615931
#
# Coordination Sequence:
#
# PCOD9249779 Si02
#       7
#     4   4   4   4   4   4   4
#     4  12  26  45  76 101 141 196 235 289 362 417
#     4  11  26  43  69 106 143 184 239 290 353 418
#     4  10  23  43  70 100 137 182 229 290 350 413
#     4  10  23  44  69 100 138 182 230 287 351 415
#     4  11  26  43  67 106 139 186 232 292 345 424
#     4  11  26  49  69 106 145 184 237 298 343 422
#     4  11  26  47  72 102 146 181 241 288 350 417
#
# _framework density 24.960061
#
# number of rings (size 3 to 8) (size 9 to 14) (size 15 to 20)
#    0.000    1.143    1.429    2.571   10.000    1.143 
#    2.571    0.000    0.000    0.000    0.000    0.000 
#    0.000    0.000    0.000    0.000    0.000    0.000 
#
# Total GULP energy -156511.353456 kJ/mol
# GULP energy per Si atom -5589.691195 kJ/mol
# Density = 2.490325 g / cm^3
# Si number density = 24.960061 Si / 1000 Ang^3
#
#
#
# Elastic Constant Matrix: (Units=GPa)
#
#
# Indices 1 2 3 4 5 6 
#
# 1 129.9920 33.4076 32.3672 0.0000 3.1323 0.0000
# 2 33.4076 40.0616 20.8053 0.0000 -5.6689 0.0000
# 3 32.3672 20.8053 105.1668 0.0000 -12.3240 0.0000
# 4 0.0000 0.0000 0.0000 37.9271 0.0000 4.0920
# 5 3.1323 -5.6689 -12.3240 0.0000 28.3258 0.0000
# 6 0.0000 0.0000 0.0000 4.0920 0.0000 -10.0019
#
#
#
# Elastic Compliance Matrix: (Units=1/GPa)
#
#
# Indices 1 2 3 4 5 6 
#
# 1 0.010368 -0.008117 -0.002012 0.000000 -0.003646 0.000000
# 2 -0.008117 0.034478 -0.003592 0.000000 0.006235 0.000000
# 3 -0.002012 -0.003592 0.011360 0.000000 0.004446 0.000000
# 4 0.000000 0.000000 0.000000 0.025252 0.000000 0.010331
# 5 -0.003646 0.006235 0.004446 0.000000 0.038889 0.000000
# 6 0.000000 0.000000 0.000000 0.010331 0.000000 -0.095754
#
#
# Mechanical properties :
#
#
# Convention : Reuss Voigt Hill
#
# Bulk Modulus (GPa) = 34.76699 49.82008 42.29354
# Shear Modulus (GPa) = 81.14058 23.82622 52.48340
#
# Velocity S-wave (km/s) = 5.70778 3.09297 4.59049
# Velocity P-wave (km/s) = 7.57612 5.72351 6.71402
#
# Compressibility (1/GPa) = 0.02876291
#
# Stress axis : x y z
#
# Youngs Moduli (GPa) = 96.45375 29.00419 88.03023
#
# Poissons Ratio (x) = 0.23541 0.17716
# Poissons Ratio (y) = 0.78287 0.31622
# Poissons Ratio (z) = 0.19411 0.10419
#
# Static dielectric constant tensor:
#      x y z
#    x 2.002080 0.000000 -0.019200 
#    y 0.000000 1.987990 0.000000 
#    z -0.019200 0.000000 2.026830 
# 
# From -- ./inp_files/53271.got.cif
#   From: 2010.05.17/outbox.cif.g08.bks.cpg/sg14_27_cif.got.tgz:53271.got - 2010.06.03 17:49:19.
