data_PCOD9249920
_publ_section_title
;
Structure prediction by ZEFSAII (Michael W. Deem and Ramdas Pophale) SiO2 
 PCOD9249920
Probable space group: P 21/C
;
_chemical_formula_sum "Si O2"
_cell_formula_units_Z 22
_cell_length_a 9.690034
_cell_length_b 7.045398
_cell_length_c 17.561897
_cell_angle_alpha 90.000000
_cell_angle_beta 44.064796
_cell_angle_gamma 90.000000
_cell_volume 833.837749
_symmetry_space_group_name_H-M "P 21/C"
_symmetry_group_IT_number 14
_symmetry_cell_setting 'monoclinic'
loop_
_space_group_symop_operation_xyz
x,y,z
-x,1/2+y,1/2-z
-x,-y,-z
x,1/2-y,1/2+z
loop_
_atom_site_type_symbol
_atom_site_label
_atom_site_fract_x
_atom_site_fract_y
_atom_site_fract_z
Si Si1 0.011088 0.298441 0.635399
Si Si2 0.385573 0.740758 0.617510
Si Si3 0.374952 0.472890 0.854983
Si Si4 0.000000 0.500000 0.000000
Si Si5 0.628077 0.693817 0.392060
Si Si6 0.228011 0.363070 0.322991
O O1 0.836016 0.276607 0.767039
O O2 0.946486 0.486180 0.613302
O O3 0.208288 0.320663 0.606425
O O4 0.017572 0.118312 0.578088
O O5 0.526308 0.856860 0.617676
O O6 0.439854 0.785608 0.508966
O O7 0.422584 0.517764 0.612705
O O8 0.561530 0.545761 0.732868
O O9 0.207992 0.333206 0.878903
O O10 0.212028 0.627272 0.937049
O O11 0.715450 0.800837 0.285150
#
# Coordination Sequence:
#
# PCOD9249920 Si02
#       6
#     4   4   4   2   4   4
#     4  11  24  43  69 105 135 183 231 285 356 418
#     4  10  23  44  70  96 145 178 232 291 347 426
#     4  11  23  44  64 101 132 183 231 275 359 410
#     4  12  24  44  66 100 140 178 232 286 336 430
#     4  11  22  45  69 106 135 181 233 291 355 417
#     4  11  24  43  74  97 141 183 228 296 347 427
#
# _framework density 26.384032000000001
#
# number of rings (size 3 to 8) (size 9 to 14) (size 15 to 20)
#    0.000    1.091    1.818    5.455    0.000    3.636 
#   13.091    0.000    0.000    0.000    0.000    0.000 
#    0.000    0.000    0.000    0.000    0.000    0.000 
#
# Total GULP energy -122822.337322 kJ/mol
# GULP energy per Si atom -5582.833515 kJ/mol
# Density = 2.632398 g / cm^3
# Si number density = 26.384032 Si / 1000 Ang^3
#
#
#
# Elastic Constant Matrix: (Units=GPa)
#
#
# Indices 1 2 3 4 5 6 
#
# 1 127.7559 25.2924 39.7341 0.0000 -9.2185 0.0000
# 2 25.2924 103.5404 14.3630 0.0000 9.9282 0.0000
# 3 39.7341 14.3630 116.4553 0.0000 -3.2572 0.0000
# 4 0.0000 0.0000 0.0000 37.3739 0.0000 10.4041
# 5 -9.2185 9.9282 -3.2572 0.0000 36.3482 0.0000
# 6 0.0000 0.0000 0.0000 10.4041 0.0000 40.3798
#
#
#
# Elastic Compliance Matrix: (Units=1/GPa)
#
#
# Indices 1 2 3 4 5 6 
#
# 1 0.009331 -0.002143 -0.002844 0.000000 0.002697 0.000000
# 2 -0.002143 0.010611 -0.000675 0.000000 -0.003502 0.000000
# 3 -0.002844 -0.000675 0.009650 0.000000 0.000328 0.000000
# 4 0.000000 0.000000 0.000000 0.028824 0.000000 -0.007427
# 5 0.002697 -0.003502 0.000328 0.000000 0.029182 0.000000
# 6 0.000000 0.000000 0.000000 -0.007427 0.000000 0.026678
#
#
# Mechanical properties :
#
#
# Convention : Reuss Voigt Hill
#
# Bulk Modulus (GPa) = 54.74497 56.28119 55.51308
# Shear Modulus (GPa) = 37.96789 40.71118 39.33954
#
# Velocity S-wave (km/s) = 3.79759 3.93240 3.86558
# Velocity P-wave (km/s) = 6.32640 6.48044 6.40388
#
# Compressibility (1/GPa) = 0.01826652
#
# Stress axis : x y z
#
# Youngs Moduli (GPa) = 107.17114 94.24017 103.62944
#
# Poissons Ratio (x) = 0.20200 0.29471
# Poissons Ratio (y) = 0.22971 0.06999
# Poissons Ratio (z) = 0.30478 0.06365
#
# Static dielectric constant tensor:
#      x y z
#    x 2.112290 0.000000 -0.111440 
#    y 0.000000 2.230560 0.000000 
#    z -0.111440 0.000000 2.328870 
# 
# From -- ./inp_files/54757.got.cif
#   From: 2010.05.17/outbox.cif.g08.bks.cpg/sg14_28_cif.got.tgz:54757.got - 2010.06.03 17:49:19.
