data_PCOD9249575
_publ_section_title
;
Structure prediction by ZEFSAII (Michael W. Deem and Ramdas Pophale) SiO2 
 PCOD9249575
Probable space group: P 21/C
;
_chemical_formula_sum "Si O2"
_cell_formula_units_Z 28
_cell_length_a 9.394877
_cell_length_b 22.874341
_cell_length_c 11.427092
_cell_angle_alpha 90.000000
_cell_angle_beta 25.828864
_cell_angle_gamma 90.000000
_cell_volume 1069.910925
_symmetry_space_group_name_H-M "P 21/C"
_symmetry_group_IT_number 14
_symmetry_cell_setting 'monoclinic'
loop_
_space_group_symop_operation_xyz
x,y,z
-x,1/2+y,1/2-z
-x,-y,-z
x,1/2-y,1/2+z
loop_
_atom_site_type_symbol
_atom_site_label
_atom_site_fract_x
_atom_site_fract_y
_atom_site_fract_z
Si Si1 0.352918 0.717114 0.749657
Si Si2 0.497071 0.601292 0.967034
Si Si3 0.543082 0.160695 0.063484
Si Si4 0.896956 0.114254 0.452506
Si Si5 0.222137 0.215437 0.872778
Si Si6 0.795853 0.425458 0.563276
Si Si7 0.384572 0.513980 0.715400
O O1 0.289698 0.680372 0.679939
O O2 0.179846 0.683004 0.983531
O O3 0.716201 0.712469 0.532304
O O4 0.161909 0.776606 0.869676
O O5 0.185269 0.589242 0.113660
O O6 0.637456 0.663581 0.812397
O O7 0.818526 0.561204 0.710188
O O8 0.373001 0.594006 0.190725
O O9 0.392471 0.222009 0.219445
O O10 0.765427 0.127174 0.990638
O O11 0.254972 0.115388 0.242206
O O12 0.631795 0.081018 0.729422
O O13 0.593557 0.477641 0.653638
O O14 0.500000 0.500000 0.500000
O O15 0.000000 0.500000 0.000000
#
# Coordination Sequence:
#
# PCOD9249575 Si02
#       7
#     4   4   4   4   4   4   4
#     4  10  23  42  67 101 136 188 241 293 357 426
#     4  11  28  46  70 106 149 186 234 308 367 425
#     4  11  24  42  72  98 139 189 246 287 350 440
#     4  10  25  46  69 105 143 190 239 295 362 435
#     4  10  24  41  66  97 139 187 232 293 359 423
#     4  12  27  46  73 109 142 187 247 303 359 431
#     4  12  25  46  79 108 142 194 243 302 362 429
#
# _framework density 26.170404000000001
#
# number of rings (size 3 to 8) (size 9 to 14) (size 15 to 20)
#    0.000    1.143    1.429    2.571   12.000    3.429 
#    0.000    0.000    0.000    0.000    0.000    0.000 
#    0.000    0.000    0.000    0.000    0.000    0.000 
#
# Total GULP energy -156490.845472 kJ/mol
# GULP energy per Si atom -5588.958767 kJ/mol
# Density = 2.611084 g / cm^3
# Si number density = 26.170404 Si / 1000 Ang^3
#
#
#
# Elastic Constant Matrix: (Units=GPa)
#
#
# Indices 1 2 3 4 5 6 
#
# 1 168.5881 4.8297 46.1615 0.0000 7.7434 0.0000
# 2 4.8297 58.5448 -5.2396 0.0000 10.5102 0.0000
# 3 46.1615 -5.2396 98.0974 0.0000 20.8044 0.0000
# 4 0.0000 0.0000 0.0000 31.7184 0.0000 -5.0548
# 5 7.7434 10.5102 20.8044 0.0000 55.1963 0.0000
# 6 0.0000 0.0000 0.0000 -5.0548 0.0000 33.9941
#
#
#
# Elastic Compliance Matrix: (Units=1/GPa)
#
#
# Indices 1 2 3 4 5 6 
#
# 1 0.006863 -0.000958 -0.003386 0.000000 0.000496 0.000000
# 2 -0.000958 0.018118 0.002306 0.000000 -0.004185 0.000000
# 3 -0.003386 0.002306 0.012937 0.000000 -0.004840 0.000000
# 4 0.000000 0.000000 0.000000 0.032293 0.000000 0.004802
# 5 0.000496 -0.004185 -0.004840 0.000000 0.020669 0.000000
# 6 0.000000 0.000000 0.000000 0.004802 0.000000 0.030131
#
#
# Mechanical properties :
#
#
# Convention : Reuss Voigt Hill
#
# Bulk Modulus (GPa) = 29.54939 46.30371 37.92655
# Shear Modulus (GPa) = 36.66564 42.81367 39.73965
#
# Velocity S-wave (km/s) = 3.74710 4.04908 3.90102
# Velocity P-wave (km/s) = 5.48057 6.29219 5.90035
#
# Compressibility (1/GPa) = 0.03384164
#
# Stress axis : x y z
#
# Youngs Moduli (GPa) = 145.69958 55.19490 77.29756
#
# Poissons Ratio (x) = 0.05289 0.26173
# Poissons Ratio (y) = 0.13962 -0.17826
# Poissons Ratio (z) = 0.49335 -0.12729
#
# Static dielectric constant tensor:
#      x y z
#    x 2.181690 0.000000 -0.087620 
#    y 0.000000 2.115220 0.000000 
#    z -0.087620 0.000000 2.075390 
# 
# From -- ./inp_files/27110.got.cif
#   From: 2010.05.17/outbox.cif.g08.bks.cpg/sg14_14_cif.got.tgz:27110.got - 2010.06.03 17:49:19.
