data_PCOD9249283
_publ_section_title
;
Structure prediction by ZEFSAII (Michael W. Deem and Ramdas Pophale) SiO2 
 PCOD9249283
Probable space group: P 21/C
;
_chemical_formula_sum "Si O2"
_cell_formula_units_Z 30
_cell_length_a 11.607316
_cell_length_b 12.218419
_cell_length_c 19.933038
_cell_angle_alpha 90.000000
_cell_angle_beta 153.139953
_cell_angle_gamma 90.000000
_cell_volume 1277.258461
_symmetry_space_group_name_H-M "P 21/C"
_symmetry_group_IT_number 14
_symmetry_cell_setting 'monoclinic'
loop_
_space_group_symop_operation_xyz
x,y,z
-x,1/2+y,1/2-z
-x,-y,-z
x,1/2-y,1/2+z
loop_
_atom_site_type_symbol
_atom_site_label
_atom_site_fract_x
_atom_site_fract_y
_atom_site_fract_z
Si Si1 0.080991 0.898157 0.963968
Si Si2 0.500000 0.000000 0.500000
Si Si3 0.152638 0.133866 0.018332
Si Si4 0.900039 0.212480 0.290774
Si Si5 0.381475 0.254244 0.444786
Si Si6 0.582605 0.668853 0.794694
Si Si7 0.106974 0.189821 0.679494
Si Si8 0.240881 0.487043 0.004507
O O1 0.313853 0.837429 0.120202
O O2 0.165627 0.018907 0.986476
O O3 0.879777 0.903377 0.920914
O O4 0.981286 0.815509 0.856711
O O5 0.546961 0.868735 0.540126
O O6 0.439825 0.025551 0.548009
O O7 0.373562 0.224905 0.135752
O O8 0.922876 0.201814 0.864364
O O9 0.121282 0.252963 0.353848
O O10 0.626248 0.206721 0.114178
O O11 0.001809 0.094777 0.367516
O O12 0.314681 0.328112 0.345299
O O13 0.780111 0.678006 0.836084
O O14 0.637285 0.558496 0.864334
O O15 0.872140 0.107533 0.558652
#
# Coordination Sequence:
#
# PCOD9249283 Si02
#       8
#     4   2   4   4   4   4   4   4
#     4  10  23  39  67  96 131 176 226 286 340 408
#     4  10  24  40  72  96 134 184 226 282 338 424
#     4   9  22  42  62  98 128 174 232 278 339 417
#     4  10  24  43  68  99 134 185 229 286 346 416
#     4  11  25  43  68 101 136 183 231 285 347 407
#     4  10  23  41  69  96 133 181 219 288 349 408
#     4  11  25  42  63 100 138 174 230 287 343 413
#     4  10  23  45  67 103 135 182 228 285 354 416
#
# _framework density 23.487805999999999
#
# number of rings (size 3 to 8) (size 9 to 14) (size 15 to 20)
#    0.000    1.867    0.000    1.200   13.067    2.667 
#    0.000    0.000    0.000    0.000    0.000    0.000 
#    0.000    0.000    0.000    0.000    0.000    0.000 
#
# Total GULP energy -167103.464097 kJ/mol
# GULP energy per Si atom -5570.115470 kJ/mol
# Density = 2.343435 g / cm^3
# Si number density = 23.487806 Si / 1000 Ang^3
#
#
#
# Elastic Constant Matrix: (Units=GPa)
#
#
# Indices 1 2 3 4 5 6 
#
# 1 68.4408 2.1949 7.8911 0.0000 -4.0399 0.0000
# 2 2.1949 69.8662 -4.5382 0.0000 -2.3257 0.0000
# 3 7.8911 -4.5382 95.7326 0.0000 -5.6831 0.0000
# 4 0.0000 0.0000 0.0000 18.7437 0.0000 -10.2207
# 5 -4.0399 -2.3257 -5.6831 0.0000 25.6633 0.0000
# 6 0.0000 0.0000 0.0000 -10.2207 0.0000 22.0644
#
#
#
# Elastic Compliance Matrix: (Units=1/GPa)
#
#
# Indices 1 2 3 4 5 6 
#
# 1 0.014877 -0.000472 -0.001127 0.000000 0.002050 0.000000
# 2 -0.000472 0.014427 0.000807 0.000000 0.001412 0.000000
# 3 -0.001127 0.000807 0.010712 0.000000 0.002268 0.000000
# 4 0.000000 0.000000 0.000000 0.071381 0.000000 0.033065
# 5 0.002050 0.001412 0.002268 0.000000 0.039919 0.000000
# 6 0.000000 0.000000 0.000000 0.033065 0.000000 0.060638
#
#
# Mechanical properties :
#
#
# Convention : Reuss Voigt Hill
#
# Bulk Modulus (GPa) = 26.02091 27.23724 26.62907
# Shear Modulus (GPa) = 22.08964 28.52706 25.30835
#
# Velocity S-wave (km/s) = 3.07004 3.48882 3.28611
# Velocity P-wave (km/s) = 4.86512 5.27737 5.07543
#
# Compressibility (1/GPa) = 0.03843063
#
# Stress axis : x y z
#
# Youngs Moduli (GPa) = 67.21675 69.31299 93.35737
#
# Poissons Ratio (x) = 0.03274 0.10522
# Poissons Ratio (y) = 0.03175 -0.07531
# Poissons Ratio (z) = 0.07576 -0.05591
#
# Static dielectric constant tensor:
#      x y z
#    x 1.923110 0.000000 0.020130 
#    y 0.000000 1.900720 0.000000 
#    z 0.020130 0.000000 1.877160 
# 
# From -- ./inp_files/67427.got.cif
#   From: 2010.05.17/outbox.cif.g08.bks.cpg/sg14_34_cif.got.tgz:67427.got - 2010.06.03 17:49:19.
