data_PCOD9249436
_publ_section_title
;
Structure prediction by ZEFSAII (Michael W. Deem and Ramdas Pophale) SiO2 
 PCOD9249436
Probable space group: P 21/C
;
_chemical_formula_sum "Si O2"
_cell_formula_units_Z 28
_cell_length_a 17.790976
_cell_length_b 5.182130
_cell_length_c 14.101796
_cell_angle_alpha 90.000000
_cell_angle_beta 54.819601
_cell_angle_gamma 90.000000
_cell_volume 1062.640460
_symmetry_space_group_name_H-M "P 21/C"
_symmetry_group_IT_number 14
_symmetry_cell_setting 'monoclinic'
loop_
_space_group_symop_operation_xyz
x,y,z
-x,1/2+y,1/2-z
-x,-y,-z
x,1/2-y,1/2+z
loop_
_atom_site_type_symbol
_atom_site_label
_atom_site_fract_x
_atom_site_fract_y
_atom_site_fract_z
Si Si1 0.369455 0.413471 0.549944
Si Si2 0.301077 0.054842 0.452814
Si Si3 0.936918 0.745896 0.030658
Si Si4 0.996595 0.151043 0.199959
Si Si5 0.453875 0.694725 0.327099
Si Si6 0.208332 0.716110 0.180896
Si Si7 0.268502 0.321837 0.284521
O O1 0.371634 0.168782 0.479596
O O2 0.441293 0.607978 0.447728
O O3 0.268107 0.538652 0.609040
O O4 0.353424 0.318247 0.668461
O O5 0.283021 0.257437 0.383599
O O6 0.353266 0.806577 0.372029
O O7 0.219413 0.964534 0.580147
O O8 0.838190 0.725644 0.152514
O O9 0.000000 0.500000 0.000000
O O10 0.921655 0.775048 0.929273
O O11 0.000000 0.000000 0.000000
O O12 0.899204 0.239528 0.227203
O O13 0.005433 0.345205 0.281854
O O14 0.482368 0.438271 0.248126
O O15 0.257893 0.595001 0.237797
#
# Coordination Sequence:
#
# PCOD9249436 Si02
#       7
#     4   4   4   4   4   4   4
#     4  10  23  44  72  99 145 183 231 281 362 416
#     4  10  23  43  72 105 134 190 235 284 355 429
#     4  12  25  44  64  95 138 189 237 302 360 400
#     4  12  26  42  66  95 133 186 246 298 360 412
#     4  11  22  46  78 105 141 184 223 286 357 429
#     4  10  23  41  66  94 141 186 233 302 352 415
#     4  11  24  43  68 103 142 185 247 294 349 431
#
# _framework density 26.349457999999998
#
# number of rings (size 3 to 8) (size 9 to 14) (size 15 to 20)
#    0.000    1.143    2.857    2.571    6.000    2.286 
#    0.000    1.429    0.000    0.000    0.000    0.000 
#    0.000    0.000    0.000    0.000    0.000    0.000 
#
# Total GULP energy -156188.895158 kJ/mol
# GULP energy per Si atom -5578.174827 kJ/mol
# Density = 2.628949 g / cm^3
# Si number density = 26.349458 Si / 1000 Ang^3
#
#
#
# Elastic Constant Matrix: (Units=GPa)
#
#
# Indices 1 2 3 4 5 6 
#
# 1 35.6740 9.6750 25.4987 0.0000 -13.4744 0.0000
# 2 9.6750 125.4169 39.6151 0.0000 -13.3504 0.0000
# 3 25.4987 39.6151 185.9671 0.0000 -11.4845 0.0000
# 4 0.0000 0.0000 0.0000 45.3767 0.0000 -4.6067
# 5 -13.4744 -13.3504 -11.4845 0.0000 48.2587 0.0000
# 6 0.0000 0.0000 0.0000 -4.6067 0.0000 16.5037
#
#
#
# Elastic Compliance Matrix: (Units=1/GPa)
#
#
# Indices 1 2 3 4 5 6 
#
# 1 0.034270 -0.000453 -0.004079 0.000000 0.008473 0.000000
# 2 -0.000453 0.008741 -0.001683 0.000000 0.001891 0.000000
# 3 -0.004079 -0.001683 0.006288 0.000000 -0.000108 0.000000
# 4 0.000000 0.000000 0.000000 0.022680 0.000000 0.006331
# 5 0.008473 0.001891 -0.000108 0.000000 0.023585 0.000000
# 6 0.000000 0.000000 0.000000 0.006331 0.000000 0.062360
#
#
# Mechanical properties :
#
#
# Convention : Reuss Voigt Hill
#
# Bulk Modulus (GPa) = 27.12316 55.18174 41.15245
# Shear Modulus (GPa) = 27.37539 40.17911 33.77725
#
# Velocity S-wave (km/s) = 3.22675 3.90918 3.58424
# Velocity P-wave (km/s) = 4.91920 6.43143 5.72546
#
# Compressibility (1/GPa) = 0.03686886
#
# Stress axis : x y z
#
# Youngs Moduli (GPa) = 29.17975 114.39895 159.02092
#
# Poissons Ratio (x) = 0.05186 0.64867
# Poissons Ratio (y) = 0.01323 0.26766
# Poissons Ratio (z) = 0.11903 0.19255
#
# Static dielectric constant tensor:
#      x y z
#    x 2.153660 0.000000 0.094560 
#    y 0.000000 1.906960 0.000000 
#    z 0.094560 0.000000 2.149810 
# 
# From -- ./inp_files/49649.got.cif
#   From: 2010.05.17/outbox.cif.g08.bks.cpg/sg14_25_cif.got.tgz:49649.got - 2010.06.03 17:49:19.
