data_PCOD9249142
_publ_section_title
;
Structure prediction by ZEFSAII (Michael W. Deem and Ramdas Pophale) SiO2 
 PCOD9249142
Probable space group: P 21/C
;
_chemical_formula_sum "Si O2"
_cell_formula_units_Z 30
_cell_length_a 7.229573
_cell_length_b 12.759499
_cell_length_c 11.331837
_cell_angle_alpha 90.000000
_cell_angle_beta 92.576246
_cell_angle_gamma 90.000000
_cell_volume 1044.257062
_symmetry_space_group_name_H-M "P 21/C"
_symmetry_group_IT_number 14
_symmetry_cell_setting 'monoclinic'
loop_
_space_group_symop_operation_xyz
x,y,z
-x,1/2+y,1/2-z
-x,-y,-z
x,1/2-y,1/2+z
loop_
_atom_site_type_symbol
_atom_site_label
_atom_site_fract_x
_atom_site_fract_y
_atom_site_fract_z
Si Si1 0.500000 0.500000 0.000000
Si Si2 0.080500 0.454461 0.684043
Si Si3 0.251761 0.832389 0.767631
Si Si4 0.499918 0.002003 0.791846
Si Si5 0.405703 0.269493 0.330423
Si Si6 0.968355 0.664759 0.565335
Si Si7 0.149529 0.655643 0.946640
Si Si8 0.725581 0.874658 0.400706
O O1 0.596381 0.528456 0.839789
O O2 0.611224 0.616707 0.015903
O O3 0.939608 0.393401 0.765518
O O4 0.016427 0.573613 0.658562
O O5 0.295634 0.460092 0.719408
O O6 0.059318 0.392544 0.560287
O O7 0.420737 0.804606 0.687665
O O8 0.358561 0.922272 0.849147
O O9 0.208722 0.727399 0.837474
O O10 0.498047 0.114050 0.854391
O O11 0.057994 0.112777 0.581554
O O12 0.220574 0.280822 0.401885
O O13 0.319602 0.283488 0.192487
O O14 0.117488 0.755615 0.546983
O O15 0.295726 0.564736 0.967883
#
# Coordination Sequence:
#
# PCOD9249142 Si02
#       8
#     2   4   4   4   4   4   4   4
#     4  12  24  50  76 108 154 208 256 314 388 468
#     4  10  22  46  75 106 157 196 257 334 402 460
#     4  11  23  44  75 109 149 208 249 322 393 458
#     4  10  24  46  74 107 147 205 250 326 389 463
#     4  10  23  46  70 115 152 196 266 319 391 469
#     4  10  23  45  73 116 149 201 258 330 394 475
#     4  11  25  48  79 107 158 206 264 318 392 470
#     4  10  25  48  74 108 154 205 256 325 376 465
#
# _framework density 28.728559000000001
#
# number of rings (size 3 to 8) (size 9 to 14) (size 15 to 20)
#    0.800    0.800    2.667    0.400    3.733    5.867 
#    7.200    1.333    2.933    0.000    0.000    0.000 
#    0.000    0.000    0.000    0.000    0.000    0.000 
#
# Total GULP energy -167665.832051 kJ/mol
# GULP energy per Si atom -5588.861068 kJ/mol
# Density = 2.866317 g / cm^3
# Si number density = 28.728559 Si / 1000 Ang^3
#
#
#
# Elastic Constant Matrix: (Units=GPa)
#
#
# Indices 1 2 3 4 5 6 
#
# 1 244.2919 46.0047 38.7040 0.0000 -43.9629 0.0000
# 2 46.0047 52.6833 16.2358 0.0000 -12.5782 0.0000
# 3 38.7040 16.2358 108.6850 0.0000 -44.5982 0.0000
# 4 0.0000 0.0000 0.0000 32.2294 0.0000 -27.9903
# 5 -43.9629 -12.5782 -44.5982 0.0000 55.4745 0.0000
# 6 0.0000 0.0000 0.0000 -27.9903 0.0000 84.9622
#
#
#
# Elastic Compliance Matrix: (Units=1/GPa)
#
#
# Indices 1 2 3 4 5 6 
#
# 1 0.005453 -0.003954 0.000081 0.000000 0.003490 0.000000
# 2 -0.003954 0.023144 -0.001764 0.000000 0.000697 0.000000
# 3 0.000081 -0.001764 0.013875 0.000000 0.010819 0.000000
# 4 0.000000 0.000000 0.000000 0.043463 0.000000 0.014319
# 5 0.003490 0.000697 0.010819 0.000000 0.029648 0.000000
# 6 0.000000 0.000000 0.000000 0.014319 0.000000 0.016487
#
#
# Mechanical properties :
#
#
# Convention : Reuss Voigt Hill
#
# Bulk Modulus (GPa) = 32.05209 67.50547 49.77878
# Shear Modulus (GPa) = 32.52197 54.84761 43.68479
#
# Velocity S-wave (km/s) = 3.36824 4.37414 3.90372
# Velocity P-wave (km/s) = 5.12911 7.00425 6.13870
#
# Compressibility (1/GPa) = 0.03119921
#
# Stress axis : x y z
#
# Youngs Moduli (GPa) = 183.37528 43.20858 72.07193
#
# Poissons Ratio (x) = 0.17083 -0.00582
# Poissons Ratio (y) = 0.72499 0.12710
# Poissons Ratio (z) = -0.01482 0.07620
#
# Static dielectric constant tensor:
#      x y z
#    x 2.153500 0.000000 0.103100 
#    y 0.000000 2.687760 0.000000 
#    z 0.103100 0.000000 3.702290 
# 
# From -- ./inp_files/57431.got.cif
#   From: 2010.05.17/outbox.cif.g08.bks.cpg/sg14_29_cif.got.tgz:57431.got - 2010.06.03 17:49:19.
