data_PCOD9249637
_publ_section_title
;
Structure prediction by ZEFSAII (Michael W. Deem and Ramdas Pophale) SiO2 
 PCOD9249637
Probable space group: P 21/C
;
_chemical_formula_sum "Si O2"
_cell_formula_units_Z 24
_cell_length_a 23.107292
_cell_length_b 7.676962
_cell_length_c 17.903510
_cell_angle_alpha 90.000000
_cell_angle_beta 18.494266
_cell_angle_gamma 90.000000
_cell_volume 1007.449193
_symmetry_space_group_name_H-M "P 21/C"
_symmetry_group_IT_number 14
_symmetry_cell_setting 'monoclinic'
loop_
_space_group_symop_operation_xyz
x,y,z
-x,1/2+y,1/2-z
-x,-y,-z
x,1/2-y,1/2+z
loop_
_atom_site_type_symbol
_atom_site_label
_atom_site_fract_x
_atom_site_fract_y
_atom_site_fract_z
Si Si1 0.108629 0.766957 0.562064
Si Si2 0.494422 0.166440 0.949764
Si Si3 0.464705 0.417455 0.308407
Si Si4 0.115746 0.326342 0.385012
Si Si5 0.101998 0.618024 0.728682
Si Si6 0.218823 0.369224 0.103391
O O1 0.308606 0.742459 0.283328
O O2 0.105981 0.746989 0.653689
O O3 0.970251 0.615646 0.705790
O O4 0.022183 0.950218 0.641760
O O5 0.499129 0.108624 0.855489
O O6 0.318272 0.295104 0.175107
O O7 0.500000 0.000000 0.000000
O O8 0.309122 0.561300 0.487723
O O9 0.367323 0.257068 0.384223
O O10 0.654918 0.466857 0.036242
O O11 0.165202 0.260813 0.242277
O O12 0.000000 0.500000 0.500000
O O13 0.984371 0.207965 0.593899
#
# Coordination Sequence:
#
# PCOD9249637 Si02
#       6
#     4   4   4   4   4   4
#     4  11  24  43  72 101 137 181 244 292 373 431
#     4  11  23  44  70  98 142 190 240 297 366 441
#     4  10  23  42  70  96 138 185 233 282 373 438
#     4  11  26  42  70 102 144 185 240 302 366 433
#     4  11  24  43  71 102 139 185 232 304 361 449
#     4  10  24  43  71 101 136 185 234 297 360 444
#
# _framework density 23.82254
#
# number of rings (size 3 to 8) (size 9 to 14) (size 15 to 20)
#    0.000    1.333    1.667    3.000    9.333    2.000 
#    0.000    0.833    0.000    0.000    0.000    0.000 
#    0.000    0.000    0.000    0.000    0.000    0.000 
#
# Total GULP energy -133700.148371 kJ/mol
# GULP energy per Si atom -5570.839515 kJ/mol
# Density = 2.376832 g / cm^3
# Si number density = 23.822540 Si / 1000 Ang^3
#
#
#
# Elastic Constant Matrix: (Units=GPa)
#
#
# Indices 1 2 3 4 5 6 
#
# 1 56.4877 5.0530 29.1485 0.0000 -24.6439 0.0000
# 2 5.0530 83.7274 42.1897 0.0000 -26.6275 0.0000
# 3 29.1485 42.1897 156.5504 0.0000 -49.4717 0.0000
# 4 0.0000 0.0000 0.0000 30.5079 0.0000 -18.0630
# 5 -24.6439 -26.6275 -49.4717 0.0000 48.6305 0.0000
# 6 0.0000 0.0000 0.0000 -18.0630 0.0000 40.8205
#
#
#
# Elastic Compliance Matrix: (Units=1/GPa)
#
#
# Indices 1 2 3 4 5 6 
#
# 1 0.023459 0.003158 -0.001350 0.000000 0.012244 0.000000
# 2 0.003158 0.015350 -0.002304 0.000000 0.007662 0.000000
# 3 -0.001350 -0.002304 0.009793 0.000000 0.008018 0.000000
# 4 0.000000 0.000000 0.000000 0.044415 0.000000 0.019654
# 5 0.012244 0.007662 0.008018 0.000000 0.039120 0.000000
# 6 0.000000 0.000000 0.000000 0.019654 0.000000 0.033194
#
#
# Mechanical properties :
#
#
# Convention : Reuss Voigt Hill
#
# Bulk Modulus (GPa) = 21.00281 49.94975 35.47628
# Shear Modulus (GPa) = 27.44356 38.68340 33.06348
#
# Velocity S-wave (km/s) = 3.39779 4.03403 3.72950
# Velocity P-wave (km/s) = 4.92228 6.53535 5.78531
#
# Compressibility (1/GPa) = 0.04761268
#
# Stress axis : x y z
#
# Youngs Moduli (GPa) = 42.62813 65.14462 102.10875
#
# Poissons Ratio (x) = -0.20575 0.13782
# Poissons Ratio (y) = -0.13463 0.23522
# Poissons Ratio (z) = 0.05753 0.15007
#
# Static dielectric constant tensor:
#      x y z
#    x 1.970820 0.000000 -0.039710 
#    y 0.000000 2.129400 0.000000 
#    z -0.039710 0.000000 1.977030 
# 
# From -- ./inp_files/61760.got.cif
#   From: 2010.05.17/outbox.cif.g08.bks.cpg/sg14_31_cif.got.tgz:61760.got - 2010.06.03 17:49:19.
