data_PCOD9249969
_publ_section_title
;
Structure prediction by ZEFSAII (Michael W. Deem and Ramdas Pophale) SiO2 
 PCOD9249969
Probable space group: P 21/C
;
_chemical_formula_sum "Si O2"
_cell_formula_units_Z 28
_cell_length_a 11.921742
_cell_length_b 7.948013
_cell_length_c 21.143632
_cell_angle_alpha 90.000000
_cell_angle_beta 34.341845
_cell_angle_gamma 90.000000
_cell_volume 1130.203060
_symmetry_space_group_name_H-M "P 21/C"
_symmetry_group_IT_number 14
_symmetry_cell_setting 'monoclinic'
loop_
_space_group_symop_operation_xyz
x,y,z
-x,1/2+y,1/2-z
-x,-y,-z
x,1/2-y,1/2+z
loop_
_atom_site_type_symbol
_atom_site_label
_atom_site_fract_x
_atom_site_fract_y
_atom_site_fract_z
Si Si1 0.681026 0.445273 0.282527
Si Si2 0.282120 0.984935 0.018545
Si Si3 0.779137 0.931686 0.610709
Si Si4 0.262870 0.472975 0.179650
Si Si5 0.095411 0.103131 0.225787
Si Si6 0.591136 0.652930 0.067714
Si Si7 0.933726 0.594042 0.595846
O O1 0.506422 0.556733 0.395529
O O2 0.668489 0.455977 0.213577
O O3 0.886624 0.512415 0.214443
O O4 0.612070 0.262000 0.333463
O O5 0.260951 0.189824 0.015956
O O6 0.224586 0.983491 0.118353
O O7 0.139391 0.881134 0.039005
O O8 0.667250 0.920358 0.597381
O O9 0.809175 0.750970 0.628902
O O10 0.000000 0.000000 0.500000
O O11 0.190369 0.287680 0.189031
O O12 0.500766 0.504998 0.067135
O O13 0.194201 0.479205 0.285969
O O14 0.122517 0.593935 0.202520
O O15 0.000000 0.500000 0.500000
#
# Coordination Sequence:
#
# PCOD9249969 Si02
#       7
#     4   4   4   4   4   4   4
#     4  10  23  45  65  97 138 174 231 274 347 396
#     4   9  23  41  71  95 135 176 224 283 334 405
#     4  12  27  42  69 103 135 178 229 288 343 414
#     4  11  25  41  72  98 140 184 227 286 342 405
#     4  11  22  44  68 100 136 183 231 273 345 410
#     4  10  25  43  64 100 133 179 222 288 334 400
#     4  11  22  44  67  97 134 183 227 275 354 401
#
# _framework density 24.77431
#
# number of rings (size 3 to 8) (size 9 to 14) (size 15 to 20)
#    0.857    0.571    2.857    1.286    6.000    2.857 
#    0.000    0.000    0.000    0.000    0.000    0.000 
#    0.000    0.000    0.000    0.000    0.000    0.000 
#
# Total GULP energy -156141.294704 kJ/mol
# GULP energy per Si atom -5576.474811 kJ/mol
# Density = 2.471792 g / cm^3
# Si number density = 24.774310 Si / 1000 Ang^3
#
#
#
# Elastic Constant Matrix: (Units=GPa)
#
#
# Indices 1 2 3 4 5 6 
#
# 1 182.5428 18.1569 17.5603 0.0000 -2.0314 0.0000
# 2 18.1569 34.0612 -10.3532 0.0000 -5.1181 0.0000
# 3 17.5603 -10.3532 46.8187 0.0000 9.1769 0.0000
# 4 0.0000 0.0000 0.0000 11.1377 0.0000 -8.1887
# 5 -2.0314 -5.1181 9.1769 0.0000 43.1989 0.0000
# 6 0.0000 0.0000 0.0000 -8.1887 0.0000 37.3424
#
#
#
# Elastic Compliance Matrix: (Units=1/GPa)
#
#
# Indices 1 2 3 4 5 6 
#
# 1 0.006235 -0.004276 -0.003383 0.000000 0.000505 0.000000
# 2 -0.004276 0.034637 0.008867 0.000000 0.002019 0.000000
# 3 -0.003383 0.008867 0.025475 0.000000 -0.004520 0.000000
# 4 0.000000 0.000000 0.000000 0.107044 0.000000 0.023473
# 5 0.000505 0.002019 -0.004520 0.000000 0.024372 0.000000
# 6 0.000000 0.000000 0.000000 0.023473 0.000000 0.031927
#
#
# Mechanical properties :
#
#
# Convention : Reuss Voigt Hill
#
# Bulk Modulus (GPa) = 14.54263 34.90565 24.72414
# Shear Modulus (GPa) = 19.98466 34.20637 27.09552
#
# Velocity S-wave (km/s) = 2.84327 3.71983 3.31069
# Velocity P-wave (km/s) = 4.08188 5.70698 4.96142
#
# Compressibility (1/GPa) = 0.06876337
#
# Stress axis : x y z
#
# Youngs Moduli (GPa) = 160.39725 28.87099 39.25466
#
# Poissons Ratio (x) = 0.12345 0.13280
# Poissons Ratio (y) = 0.68582 -0.34809
# Poissons Ratio (z) = 0.54261 -0.25601
#
# Static dielectric constant tensor:
#      x y z
#    x 1.837720 0.000000 0.098050 
#    y 0.000000 2.126830 0.000000 
#    z 0.098050 0.000000 1.943370 
# 
# From -- ./inp_files/66977.got.cif
#   From: 2010.05.17/outbox.cif.g08.bks.cpg/sg14_34_cif.got.tgz:66977.got - 2010.06.03 17:49:19.
