data_PCOD9249382
_publ_section_title
;
Structure prediction by ZEFSAII (Michael W. Deem and Ramdas Pophale) SiO2 
 PCOD9249382
Probable space group: P 21/C
;
_chemical_formula_sum "Si O2"
_cell_formula_units_Z 28
_cell_length_a 21.037820
_cell_length_b 4.719318
_cell_length_c 10.401991
_cell_angle_alpha 90.000000
_cell_angle_beta 112.615547
_cell_angle_gamma 90.000000
_cell_volume 953.340362
_symmetry_space_group_name_H-M "P 21/C"
_symmetry_group_IT_number 14
_symmetry_cell_setting 'monoclinic'
loop_
_space_group_symop_operation_xyz
x,y,z
-x,1/2+y,1/2-z
-x,-y,-z
x,1/2-y,1/2+z
loop_
_atom_site_type_symbol
_atom_site_label
_atom_site_fract_x
_atom_site_fract_y
_atom_site_fract_z
Si Si1 0.649905 0.044425 0.221597
Si Si2 0.000000 0.500000 0.000000
Si Si3 0.539379 0.961028 0.333882
Si Si4 0.089801 0.657412 0.365672
Si Si5 0.261857 0.118560 0.370609
Si Si6 0.500000 0.000000 0.000000
Si Si7 0.895471 0.640338 0.301614
Si Si8 0.753246 0.372205 0.465543
O O1 0.613433 0.959156 0.329001
O O2 0.580431 0.136415 0.094461
O O3 0.706861 0.271294 0.311718
O O4 0.684620 0.787394 0.174028
O O5 0.931733 0.708689 0.947243
O O6 0.034942 0.719022 0.920020
O O7 0.494423 0.777029 0.189234
O O8 0.534270 0.774571 0.453719
O O9 0.078869 0.830913 0.221678
O O10 0.166419 0.709779 0.479054
O O11 0.090262 0.343187 0.309232
O O12 0.186643 0.127567 0.245298
O O13 0.274238 0.804870 0.432449
O O14 0.252362 0.305382 0.494307
#
# Coordination Sequence:
#
# PCOD9249382 Si02
#       8
#     4   2   4   4   4   2   4   4
#     4  11  23  41  67  94 122 164 211 254 310 374
#     4  12  22  38  66  92 124 168 204 252 312 362
#     4  10  24  43  63  91 126 162 202 250 310 376
#     4  10  23  41  60  90 126 163 208 256 301 368
#     4  10  23  43  65  91 124 164 206 258 305 362
#     4  10  24  42  64  92 130 160 200 260 316 366
#     4  10  23  41  61  92 128 160 206 255 308 365
#     4  10  23  42  63  89 125 163 207 255 310 366
#
# _framework density 29.370415000000001
#
# number of rings (size 3 to 8) (size 9 to 14) (size 15 to 20)
#    0.000    1.714    0.000    2.571    0.000   14.857 
#    0.000    8.571    0.000    0.000    0.000    0.000 
#    0.000    0.000    0.000    0.000    0.000    0.000 
#
# Total GULP energy -156424.723753 kJ/mol
# GULP energy per Si atom -5586.597277 kJ/mol
# Density = 2.930357 g / cm^3
# Si number density = 29.370415 Si / 1000 Ang^3
#
#
#
# Elastic Constant Matrix: (Units=GPa)
#
#
# Indices 1 2 3 4 5 6 
#
# 1 138.1476 -3.0478 18.9092 0.0000 -1.2720 0.0000
# 2 -3.0478 127.5103 4.9471 0.0000 -12.5380 0.0000
# 3 18.9092 4.9471 125.6743 0.0000 20.7901 0.0000
# 4 0.0000 0.0000 0.0000 44.8368 0.0000 -11.0716
# 5 -1.2720 -12.5380 20.7901 0.0000 48.6209 0.0000
# 6 0.0000 0.0000 0.0000 -11.0716 0.0000 24.7288
#
#
#
# Elastic Compliance Matrix: (Units=1/GPa)
#
#
# Indices 1 2 3 4 5 6 
#
# 1 0.007426 0.000307 -0.001264 0.000000 0.000814 0.000000
# 2 0.000307 0.008119 -0.000768 0.000000 0.002430 0.000000
# 3 -0.001264 -0.000768 0.008841 0.000000 -0.004011 0.000000
# 4 0.000000 0.000000 0.000000 0.025075 0.000000 0.011227
# 5 0.000814 0.002430 -0.004011 0.000000 0.022930 0.000000
# 6 0.000000 0.000000 0.000000 0.011227 0.000000 0.045465
#
#
# Mechanical properties :
#
#
# Convention : Reuss Voigt Hill
#
# Bulk Modulus (GPa) = 47.76625 48.10547 47.93586
# Shear Modulus (GPa) = 38.97564 48.33887 43.65725
#
# Velocity S-wave (km/s) = 3.64680 4.06129 3.85962
# Velocity P-wave (km/s) = 5.83360 6.19730 6.01820
#
# Compressibility (1/GPa) = 0.02093528
#
# Stress axis : x y z
#
# Youngs Moduli (GPa) = 134.66370 123.17486 113.10830
#
# Poissons Ratio (x) = -0.03776 0.14297
# Poissons Ratio (y) = -0.04128 0.08683
# Poissons Ratio (z) = 0.17022 0.09456
#
# Static dielectric constant tensor:
#      x y z
#    x 2.204550 0.000000 -0.025570 
#    y 0.000000 2.165820 0.000000 
#    z -0.025570 0.000000 2.318980 
# 
# From -- ./inp_files/34748.got.cif
#   From: 2010.05.17/outbox.cif.g08.bks.cpg/sg14_18_cif.got.tgz:34748.got - 2010.06.03 17:49:19.
