data_PCOD9249908
_publ_section_title
;
Structure prediction by ZEFSAII (Michael W. Deem and Ramdas Pophale) SiO2 
 PCOD9249908
Probable space group: P 21/C
;
_chemical_formula_sum "Si O2"
_cell_formula_units_Z 28
_cell_length_a 7.059405
_cell_length_b 11.377090
_cell_length_c 19.055345
_cell_angle_alpha 90.000000
_cell_angle_beta 55.785363
_cell_angle_gamma 90.000000
_cell_volume 1265.576811
_symmetry_space_group_name_H-M "P 21/C"
_symmetry_group_IT_number 14
_symmetry_cell_setting 'monoclinic'
loop_
_space_group_symop_operation_xyz
x,y,z
-x,1/2+y,1/2-z
-x,-y,-z
x,1/2-y,1/2+z
loop_
_atom_site_type_symbol
_atom_site_label
_atom_site_fract_x
_atom_site_fract_y
_atom_site_fract_z
Si Si1 0.843870 0.084879 0.118901
Si Si2 0.705237 0.261569 0.033134
Si Si3 0.432331 0.644240 0.184166
Si Si4 0.789732 0.040901 0.630262
Si Si5 0.737749 0.052413 0.419874
Si Si6 0.471176 0.909169 0.174853
Si Si7 0.337534 0.077238 0.084005
O O1 0.833148 0.159354 0.049517
O O2 0.681495 0.137867 0.214840
O O3 0.094429 0.084743 0.098239
O O4 0.728174 0.959459 0.126743
O O5 0.738411 0.373090 0.076954
O O6 0.454528 0.203272 0.074650
O O7 0.776319 0.317085 0.944380
O O8 0.682385 0.585843 0.135403
O O9 0.287599 0.568104 0.158335
O O10 0.454951 0.776685 0.152652
O O11 0.641939 0.087974 0.725558
O O12 0.051783 0.027506 0.598617
O O13 0.500000 0.000000 0.500000
O O14 0.334517 0.002566 0.156065
O O15 0.500000 0.000000 0.000000
#
# Coordination Sequence:
#
# PCOD9249908 Si02
#       7
#     4   4   4   4   4   4   4
#     4  10  24  45  69  96 134 182 221 279 333 400
#     4  11  24  42  69  96 133 176 214 279 333 394
#     4  11  23  43  69  98 135 179 223 277 337 403
#     4  11  24  45  66  98 139 175 224 276 338 404
#     4  12  26  40  64 105 137 173 222 276 338 396
#     4  10  23  44  69  99 128 179 230 270 336 399
#     4  11  25  45  67  99 134 174 230 276 335 396
#
# _framework density 22.124298
#
# number of rings (size 3 to 8) (size 9 to 14) (size 15 to 20)
#    0.000    1.143    2.857    2.143    2.000    5.714 
#    5.143    0.000    0.000    0.000    0.000    0.000 
#    0.000    0.000    0.000    0.000    0.000    0.000 
#
# Total GULP energy -156513.178483 kJ/mol
# GULP energy per Si atom -5589.756374 kJ/mol
# Density = 2.207394 g / cm^3
# Si number density = 22.124298 Si / 1000 Ang^3
#
#
#
# Elastic Constant Matrix: (Units=GPa)
#
#
# Indices 1 2 3 4 5 6 
#
# 1 160.8595 27.7877 9.9766 0.0000 -21.3881 0.0000
# 2 27.7877 81.0118 1.1515 0.0000 -16.6424 0.0000
# 3 9.9766 1.1515 26.9737 0.0000 8.5204 0.0000
# 4 0.0000 0.0000 0.0000 17.9982 0.0000 13.8857
# 5 -21.3881 -16.6424 8.5204 0.0000 42.5072 0.0000
# 6 0.0000 0.0000 0.0000 13.8857 0.0000 26.6999
#
#
#
# Elastic Compliance Matrix: (Units=1/GPa)
#
#
# Indices 1 2 3 4 5 6 
#
# 1 0.007237 -0.001658 -0.003791 0.000000 0.003752 0.000000
# 2 -0.001658 0.013948 -0.001542 0.000000 0.004936 0.000000
# 3 -0.003791 -0.001542 0.041993 0.000000 -0.010929 0.000000
# 4 0.000000 0.000000 0.000000 0.092792 0.000000 -0.048258
# 5 0.003752 0.004936 -0.010929 0.000000 0.029537 0.000000
# 6 0.000000 0.000000 0.000000 -0.048258 0.000000 0.062550
#
#
# Mechanical properties :
#
#
# Convention : Reuss Voigt Hill
#
# Bulk Modulus (GPa) = 20.32609 38.51964 29.42286
# Shear Modulus (GPa) = 17.95732 32.76967 25.36350
#
# Velocity S-wave (km/s) = 2.85205 3.85276 3.38954
# Velocity P-wave (km/s) = 4.47803 6.10246 5.35223
#
# Compressibility (1/GPa) = 0.04919786
#
# Stress axis : x y z
#
# Youngs Moduli (GPa) = 138.17865 71.69291 23.81330
#
# Poissons Ratio (x) = 0.11884 0.09028
# Poissons Ratio (y) = 0.22905 0.03671
# Poissons Ratio (z) = 0.52387 0.11052
#
# Static dielectric constant tensor:
#      x y z
#    x 1.808810 0.000000 0.042990 
#    y 0.000000 1.744930 0.000000 
#    z 0.042990 0.000000 1.847780 
# 
# From -- ./inp_files/63433.got.cif
#   From: 2010.05.17/outbox.cif.g08.bks.cpg/sg14_32_cif.got.tgz:63433.got - 2010.06.03 17:49:19.
