data_PCOD9249134
_publ_section_title
;
Structure prediction by ZEFSAII (Michael W. Deem and Ramdas Pophale) SiO2 
 PCOD9249134
Probable space group: P 21/C
;
_chemical_formula_sum "Si O2"
_cell_formula_units_Z 26
_cell_length_a 9.203405
_cell_length_b 10.835681
_cell_length_c 12.114446
_cell_angle_alpha 90.000000
_cell_angle_beta 88.678017
_cell_angle_gamma 90.000000
_cell_volume 1207.793511
_symmetry_space_group_name_H-M "P 21/C"
_symmetry_group_IT_number 14
_symmetry_cell_setting 'monoclinic'
loop_
_space_group_symop_operation_xyz
x,y,z
-x,1/2+y,1/2-z
-x,-y,-z
x,1/2-y,1/2+z
loop_
_atom_site_type_symbol
_atom_site_label
_atom_site_fract_x
_atom_site_fract_y
_atom_site_fract_z
Si Si1 0.594475 0.396253 0.434139
Si Si2 0.952654 0.460579 0.120690
Si Si3 0.565233 0.800768 0.249800
Si Si4 0.788676 0.588030 0.309556
Si Si5 0.000000 0.500000 0.500000
Si Si6 0.804292 0.509855 0.716112
Si Si7 0.270592 0.739939 0.368779
O O1 0.500000 0.500000 0.500000
O O2 0.499700 0.292312 0.373752
O O3 0.688041 0.470170 0.342209
O O4 0.705161 0.334107 0.517720
O O5 0.868783 0.564286 0.192638
O O6 0.848366 0.343652 0.116809
O O7 0.094361 0.436584 0.190908
O O8 0.000000 0.500000 0.000000
O O9 0.681376 0.702255 0.292287
O O10 0.426754 0.791946 0.331364
O O11 0.647321 0.930538 0.236980
O O12 0.908231 0.582239 0.405491
O O13 0.882305 0.541209 0.598709
O O14 0.781945 0.362611 0.717795
#
# Coordination Sequence:
#
# PCOD9249134 Si02
#       7
#     4   4   4   4   2   4   4
#     4  12  22  46  73 106 146 198 251 303 392 464
#     4  11  29  48  68 106 156 199 247 312 390 449
#     4  12  25  42  75 112 144 187 253 320 371 463
#     4  11  23  45  71 107 145 193 257 309 379 449
#     4  10  22  46  74 100 140 196 258 310 360 466
#     4  11  26  46  75 107 143 196 263 304 380 463
#     4  12  26  47  76 105 155 199 250 322 379 456
#
# _framework density 21.526858000000001
#
# number of rings (size 3 to 8) (size 9 to 14) (size 15 to 20)
#    0.000    0.615    6.154    0.000    6.462    2.462 
#    0.000    1.538    0.000    0.000    0.000    0.000 
#    0.000    0.000    0.000    0.000    0.000    0.000 
#
# Total GULP energy -144743.788692 kJ/mol
# GULP energy per Si atom -5567.068796 kJ/mol
# Density = 2.147786 g / cm^3
# Si number density = 21.526858 Si / 1000 Ang^3
#
#
#
# Elastic Constant Matrix: (Units=GPa)
#
#
# Indices 1 2 3 4 5 6 
#
# 1 108.6529 45.8568 58.4617 0.0000 7.9677 0.0000
# 2 45.8568 77.2381 49.0149 0.0000 12.3122 0.0000
# 3 58.4617 49.0149 151.5133 0.0000 -8.6524 0.0000
# 4 0.0000 0.0000 0.0000 23.6497 0.0000 2.2766
# 5 7.9677 12.3122 -8.6524 0.0000 46.0380 0.0000
# 6 0.0000 0.0000 0.0000 2.2766 0.0000 50.1308
#
#
#
# Elastic Compliance Matrix: (Units=1/GPa)
#
#
# Indices 1 2 3 4 5 6 
#
# 1 0.013560 -0.005579 -0.003514 0.000000 -0.001515 0.000000
# 2 -0.005579 0.020036 -0.004630 0.000000 -0.005263 0.000000
# 3 -0.003514 -0.004630 0.009663 0.000000 0.003662 0.000000
# 4 0.000000 0.000000 0.000000 0.042470 0.000000 -0.001929
# 5 -0.001515 -0.005263 0.003662 0.000000 0.024079 0.000000
# 6 0.000000 0.000000 0.000000 -0.001929 0.000000 0.020035
#
#
# Mechanical properties :
#
#
# Convention : Reuss Voigt Hill
#
# Bulk Modulus (GPa) = 63.23622 71.56346 67.39984
# Shear Modulus (GPa) = 30.75790 36.23509 33.49649
#
# Velocity S-wave (km/s) = 3.78407 4.10719 3.94894
# Velocity P-wave (km/s) = 6.96646 7.47048 7.22286
#
# Compressibility (1/GPa) = 0.01581372
#
# Stress axis : x y z
#
# Youngs Moduli (GPa) = 73.74563 49.90939 103.49104
#
# Poissons Ratio (x) = 0.27846 0.36364
# Poissons Ratio (y) = 0.41146 0.47911
# Poissons Ratio (z) = 0.25913 0.23106
#
# Static dielectric constant tensor:
#      x y z
#    x 1.782320 0.000000 0.026570 
#    y 0.000000 1.808910 0.000000 
#    z 0.026570 0.000000 1.779120 
# 
# From -- ./inp_files/24196.got.cif
#   From: 2010.05.17/outbox.cif.g08.bks.cpg/sg14_13_cif.got.tgz:24196.got - 2010.06.03 17:49:19.
