data_PCOD9249232
_publ_section_title
;
Structure prediction by ZEFSAII (Michael W. Deem and Ramdas Pophale) SiO2 
 PCOD9249232
Probable space group: P 21/C
;
_chemical_formula_sum "Si O2"
_cell_formula_units_Z 28
_cell_length_a 7.920219
_cell_length_b 26.774145
_cell_length_c 7.367861
_cell_angle_alpha 90.000000
_cell_angle_beta 54.335844
_cell_angle_gamma 90.000000
_cell_volume 1269.375257
_symmetry_space_group_name_H-M "P 21/C"
_symmetry_group_IT_number 14
_symmetry_cell_setting 'monoclinic'
loop_
_space_group_symop_operation_xyz
x,y,z
-x,1/2+y,1/2-z
-x,-y,-z
x,1/2-y,1/2+z
loop_
_atom_site_type_symbol
_atom_site_label
_atom_site_fract_x
_atom_site_fract_y
_atom_site_fract_z
Si Si1 0.394194 0.930686 0.081523
Si Si2 0.995197 0.514501 0.792418
Si Si3 0.795796 0.803403 0.447706
Si Si4 0.720145 0.184250 0.862750
Si Si5 0.333422 0.407214 0.891608
Si Si6 0.367318 0.549206 0.031900
Si Si7 0.530683 0.725790 0.796439
O O1 0.323402 0.874008 0.082355
O O2 0.397809 0.938387 0.297861
O O3 0.225603 0.968319 0.100284
O O4 0.605944 0.934810 0.833919
O O5 0.870475 0.468418 0.782295
O O6 0.847239 0.563568 0.887003
O O7 0.000000 0.500000 0.000000
O O8 0.744744 0.851668 0.601116
O O9 0.641089 0.808324 0.374929
O O10 0.038737 0.804570 0.258217
O O11 0.724627 0.749988 0.567952
O O12 0.636645 0.195756 0.713371
O O13 0.588302 0.224774 0.058301
O O14 0.536538 0.409946 0.893696
O O15 0.500000 0.500000 0.000000
#
# Coordination Sequence:
#
# PCOD9249232 Si02
#       7
#     4   4   4   4   4   4   4
#     4  11  21  38  63  86 119 160 198 248 306 361
#     4   9  20  38  59  84 115 153 195 246 302 357
#     4  11  21  39  62  88 123 160 201 250 303 360
#     4  11  21  39  62  88 123 159 201 251 302 361
#     4  11  21  38  62  87 119 157 198 249 302 362
#     4   9  21  38  59  86 117 153 198 251 300 355
#     4  10  23  38  61  90 120 161 203 246 305 359
#
# _framework density 22.058094000000001
#
# number of rings (size 3 to 8) (size 9 to 14) (size 15 to 20)
#    0.000    1.714    2.857    1.714    0.000    5.714 
#    0.000    4.286    0.000    0.000    0.000    0.000 
#    0.000    0.000    0.000    0.000    0.000    0.000 
#
# Total GULP energy -156148.216352 kJ/mol
# GULP energy per Si atom -5576.722013 kJ/mol
# Density = 2.200789 g / cm^3
# Si number density = 22.058094 Si / 1000 Ang^3
#
#
#
# Elastic Constant Matrix: (Units=GPa)
#
#
# Indices 1 2 3 4 5 6 
#
# 1 65.4974 23.2375 7.2782 0.0000 1.5267 0.0000
# 2 23.2375 69.8377 16.2312 0.0000 -15.3938 0.0000
# 3 7.2782 16.2312 44.1634 0.0000 -3.8123 0.0000
# 4 0.0000 0.0000 0.0000 4.1546 0.0000 8.0619
# 5 1.5267 -15.3938 -3.8123 0.0000 29.5230 0.0000
# 6 0.0000 0.0000 0.0000 8.0619 0.0000 26.3722
#
#
#
# Elastic Compliance Matrix: (Units=1/GPa)
#
#
# Indices 1 2 3 4 5 6 
#
# 1 0.017863 -0.006748 -0.000857 0.000000 -0.004553 0.000000
# 2 -0.006748 0.020042 -0.005382 0.000000 0.010104 0.000000
# 3 -0.000857 -0.005382 0.024800 0.000000 0.000441 0.000000
# 4 0.000000 0.000000 0.000000 0.591686 0.000000 -0.180876
# 5 -0.004553 0.010104 0.000441 0.000000 0.039433 0.000000
# 6 0.000000 0.000000 0.000000 -0.180876 0.000000 0.093212
#
#
# Mechanical properties :
#
#
# Convention : Reuss Voigt Hill
#
# Bulk Modulus (GPa) = 27.22387 30.33250 28.77819
# Shear Modulus (GPa) = 6.05874 20.86005 13.45940
#
# Velocity S-wave (km/s) = 1.65912 3.07854 2.47286
# Velocity P-wave (km/s) = 4.00486 5.13980 4.60741
#
# Compressibility (1/GPa) = 0.03673246
#
# Stress axis : x y z
#
# Youngs Moduli (GPa) = 55.98073 49.89446 40.32205
#
# Poissons Ratio (x) = 0.33670 0.03455
# Poissons Ratio (y) = 0.37777 0.21700
# Poissons Ratio (z) = 0.04796 0.26852
#
# Static dielectric constant tensor:
#      x y z
#    x 1.844700 0.000000 0.017250 
#    y 0.000000 1.812170 0.000000 
#    z 0.017250 0.000000 1.876920 
# 
# From -- ./inp_files/6853.got.cif
#   From: 2010.05.17/outbox.cif.g08.bks.cpg/sg14_4_cif.got.tgz:6853.got - 2010.06.03 17:49:19.
