data_PCOD9249335
_publ_section_title
;
Structure prediction by ZEFSAII (Michael W. Deem and Ramdas Pophale) SiO2 
 PCOD9249335
Probable space group: P 21/C
;
_chemical_formula_sum "Si O2"
_cell_formula_units_Z 32
_cell_length_a 30.106863
_cell_length_b 11.077365
_cell_length_c 9.138911
_cell_angle_alpha 90.000000
_cell_angle_beta 29.365452
_cell_angle_gamma 90.000000
_cell_volume 1494.609375
_symmetry_space_group_name_H-M "P 21/C"
_symmetry_group_IT_number 14
_symmetry_cell_setting 'monoclinic'
loop_
_space_group_symop_operation_xyz
x,y,z
-x,1/2+y,1/2-z
-x,-y,-z
x,1/2-y,1/2+z
loop_
_atom_site_type_symbol
_atom_site_label
_atom_site_fract_x
_atom_site_fract_y
_atom_site_fract_z
Si Si1 0.708280 0.193343 0.621677
Si Si2 0.540797 0.605114 0.485719
Si Si3 0.850406 0.727226 0.669128
Si Si4 0.498550 0.745500 0.347103
Si Si5 0.741850 0.416486 0.339555
Si Si6 0.324781 0.395349 0.274438
Si Si7 0.262043 0.468099 0.148198
Si Si8 0.913379 0.917118 0.275770
O O1 0.747580 0.320048 0.453951
O O2 0.718314 0.157041 0.761194
O O3 0.754106 0.092296 0.387932
O O4 0.600970 0.194803 0.896787
O O5 0.500000 0.500000 0.500000
O O6 0.515099 0.727269 0.471333
O O7 0.502667 0.624572 0.756955
O O8 0.647480 0.586135 0.187271
O O9 0.819493 0.623778 0.643797
O O10 0.917322 0.821539 0.398291
O O11 0.887545 0.660576 0.705936
O O12 0.757561 0.800472 0.969660
O O13 0.583377 0.670608 0.036641
O O14 0.671502 0.519691 0.594307
O O15 0.832046 0.491492 0.047752
O O16 0.292038 0.475164 0.229779
O O17 0.000000 0.000000 0.000000
#
# Coordination Sequence:
#
# PCOD9249335 Si02
#       8
#     4   4   4   4   4   4   4   4
#     4  12  24  39  61  94 140 183 221 276 336 391
#     4  11  23  39  55  87 126 175 227 283 317 376
#     4  11  21  46  73 100 134 173 218 275 336 408
#     4  11  24  37  58  89 133 175 234 275 321 384
#     4  11  26  42  66  94 135 179 224 276 348 402
#     4  10  23  40  66  94 129 181 231 276 323 396
#     4  11  21  39  64  90 130 179 221 268 330 392
#     4  11  26  48  75 106 131 168 225 282 345 418
#
# _framework density 21.410277000000001
#
# number of rings (size 3 to 8) (size 9 to 14) (size 15 to 20)
#    0.000    1.000    5.000    1.500    3.500    2.500 
#    0.000    0.625    0.000    0.000    0.000    0.000 
#    0.000    0.000    0.000    0.000    0.000    0.000 
#
# Total GULP energy -178736.598934 kJ/mol
# GULP energy per Si atom -5585.518717 kJ/mol
# Density = 2.136155 g / cm^3
# Si number density = 21.410277 Si / 1000 Ang^3
#
#
#
# Elastic Constant Matrix: (Units=GPa)
#
#
# Indices 1 2 3 4 5 6 
#
# 1 75.1083 46.3249 20.1200 0.0000 21.2153 0.0000
# 2 46.3249 100.2593 49.5912 0.0000 8.3746 0.0000
# 3 20.1200 49.5912 98.2529 0.0000 0.4957 0.0000
# 4 0.0000 0.0000 0.0000 46.6695 0.0000 19.7504
# 5 21.2153 8.3746 0.4957 0.0000 17.1652 0.0000
# 6 0.0000 0.0000 0.0000 19.7504 0.0000 44.5959
#
#
#
# Elastic Compliance Matrix: (Units=1/GPa)
#
#
# Indices 1 2 3 4 5 6 
#
# 1 0.028236 -0.010354 -0.000406 0.000000 -0.029835 0.000000
# 2 -0.010354 0.017805 -0.006888 0.000000 0.004309 0.000000
# 3 -0.000406 -0.006888 0.013720 0.000000 0.003466 0.000000
# 4 0.000000 0.000000 0.000000 0.026370 0.000000 -0.011678
# 5 -0.029835 0.004309 0.003466 0.000000 0.092930 0.000000
# 6 0.000000 0.000000 0.000000 -0.011678 0.000000 0.027596
#
#
# Mechanical properties :
#
#
# Convention : Reuss Voigt Hill
#
# Bulk Modulus (GPa) = 40.87325 56.18808 48.53067
# Shear Modulus (GPa) = 19.99134 32.19172 26.09153
#
# Velocity S-wave (km/s) = 3.05901 3.88179 3.49470
# Velocity P-wave (km/s) = 5.62216 6.81113 6.24500
#
# Compressibility (1/GPa) = 0.02446588
#
# Stress axis : x y z
#
# Youngs Moduli (GPa) = 35.41576 56.16271 72.88497
#
# Poissons Ratio (x) = 0.58149 0.02957
# Poissons Ratio (y) = 0.36668 0.50207
# Poissons Ratio (z) = 0.01437 0.38688
#
# Static dielectric constant tensor:
#      x y z
#    x 1.776160 0.000000 0.042140 
#    y 0.000000 1.857320 0.000000 
#    z 0.042140 0.000000 1.768490 
# 
# From -- ./inp_files/19994.got.cif
#   From: 2010.05.17/outbox.cif.g08.bks.cpg/sg14_10_cif.got.tgz:19994.got - 2010.06.03 17:49:19.
