data_PCOD9249826
_publ_section_title
;
Structure prediction by ZEFSAII (Michael W. Deem and Ramdas Pophale) SiO2 
 PCOD9249826
Probable space group: P 21/C
;
_chemical_formula_sum "Si O2"
_cell_formula_units_Z 32
_cell_length_a 13.576589
_cell_length_b 10.253077
_cell_length_c 17.819195
_cell_angle_alpha 90.000000
_cell_angle_beta 30.891886
_cell_angle_gamma 90.000000
_cell_volume 1273.519283
_symmetry_space_group_name_H-M "P 21/C"
_symmetry_group_IT_number 14
_symmetry_cell_setting 'monoclinic'
loop_
_space_group_symop_operation_xyz
x,y,z
-x,1/2+y,1/2-z
-x,-y,-z
x,1/2-y,1/2+z
loop_
_atom_site_type_symbol
_atom_site_label
_atom_site_fract_x
_atom_site_fract_y
_atom_site_fract_z
Si Si1 0.264121 0.930247 0.288081
Si Si2 0.624203 0.498334 0.123043
Si Si3 0.882987 0.130058 0.768072
Si Si4 0.890355 0.826575 0.140945
Si Si5 0.627889 0.772215 0.042686
Si Si6 0.434908 0.320307 0.589012
Si Si7 0.812107 0.946354 0.041558
Si Si8 0.936613 0.149092 0.349402
O O1 0.114054 0.873037 0.325266
O O2 0.409229 0.810808 0.206710
O O3 0.254361 0.991008 0.378057
O O4 0.359027 0.049508 0.179292
O O5 0.664193 0.628913 0.050024
O O6 0.396214 0.496772 0.291190
O O7 0.713981 0.381915 0.014413
O O8 0.970613 0.243749 0.762670
O O9 0.969816 0.989739 0.731303
O O10 0.660083 0.153805 0.934989
O O11 0.665553 0.804793 0.306405
O O12 0.893118 0.846506 0.050438
O O13 0.981904 0.705520 0.125143
O O14 0.022818 0.947237 0.080542
O O15 0.753991 0.873488 0.005468
O O16 0.364804 0.298848 0.549901
#
# Coordination Sequence:
#
# PCOD9249826 Si02
#       8
#     4   4   4   4   4   4   4   4
#     4  10  23  45  78 107 151 206 261 317 396 469
#     4  11  26  49  77 110 157 208 267 324 397 471
#     4  11  26  50  77 114 160 212 263 328 396 463
#     4  11  25  45  76 110 153 199 262 322 397 459
#     4  10  23  43  77 109 147 206 261 317 399 464
#     4  11  23  48  75 108 155 206 258 321 392 474
#     4  10  25  48  73 110 157 207 255 333 398 464
#     4  12  29  46  77 117 156 206 272 327 386 479
#
# _framework density 25.127220000000001
#
# number of rings (size 3 to 8) (size 9 to 14) (size 15 to 20)
#    0.000    1.250    1.250    3.000   10.500    0.500 
#    4.500    3.125    0.000    0.000    0.000    0.000 
#    0.000    0.000    0.000    0.000    0.000    0.000 
#
# Total GULP energy -178745.938683 kJ/mol
# GULP energy per Si atom -5585.810584 kJ/mol
# Density = 2.507003 g / cm^3
# Si number density = 25.127220 Si / 1000 Ang^3
#
#
#
# Elastic Constant Matrix: (Units=GPa)
#
#
# Indices 1 2 3 4 5 6 
#
# 1 125.2533 94.0216 33.0504 0.0000 -7.3483 0.0000
# 2 94.0216 142.3001 77.0675 0.0000 10.8961 0.0000
# 3 33.0504 77.0675 119.7847 0.0000 -9.5967 0.0000
# 4 0.0000 0.0000 0.0000 44.0605 0.0000 30.6412
# 5 -7.3483 10.8961 -9.5967 0.0000 38.3509 0.0000
# 6 0.0000 0.0000 0.0000 30.6412 0.0000 14.5263
#
#
#
# Elastic Compliance Matrix: (Units=1/GPa)
#
#
# Indices 1 2 3 4 5 6 
#
# 1 0.020190 -0.017797 0.006729 0.000000 0.010609 0.000000
# 2 -0.017797 0.027457 -0.013933 0.000000 -0.014698 0.000000
# 3 0.006729 -0.013933 0.016201 0.000000 0.009302 0.000000
# 4 0.000000 0.000000 0.000000 -0.048608 0.000000 0.102531
# 5 0.010609 -0.014698 0.009302 0.000000 0.034611 0.000000
# 6 0.000000 0.000000 0.000000 0.102531 0.000000 -0.147435
#
#
# Mechanical properties :
#
#
# Convention : Reuss Voigt Hill
#
# Bulk Modulus (GPa) = 72.21346 88.40190 80.30768
# Shear Modulus (GPa) = -116.36890 31.60077 -42.38406
#
# Velocity S-wave (km/s) = -6.81267 3.55016 -4.11150
# Velocity P-wave (km/s) = 5.75167 7.21546 3.08068
#
# Compressibility (1/GPa) = 0.01384783
#
# Stress axis : x y z
#
# Youngs Moduli (GPa) = 49.53012 36.42001 61.72498
#
# Poissons Ratio (x) = 0.64816 -0.41538
# Poissons Ratio (y) = 0.88148 0.86000
# Poissons Ratio (z) = -0.33331 0.50743
#
# Static dielectric constant tensor:
#      x y z
#    x 1.962780 0.000000 -0.054520 
#    y 0.000000 1.936110 0.000000 
#    z -0.054520 0.000000 2.132710 
# 
# From -- ./inp_files/74395.got.cif
#   From: 2010.05.17/outbox.cif.g08.bks.cpg/sg14_38_cif.got.tgz:74395.got - 2010.06.03 17:49:19.
