data_PCOD9249227
_publ_section_title
;
Structure prediction by ZEFSAII (Michael W. Deem and Ramdas Pophale) SiO2 
 PCOD9249227
Probable space group: P 21/C
;
_chemical_formula_sum "Si O2"
_cell_formula_units_Z 28
_cell_length_a 18.555308
_cell_length_b 13.472509
_cell_length_c 8.904634
_cell_angle_alpha 90.000000
_cell_angle_beta 30.324623
_cell_angle_gamma 90.000000
_cell_volume 1123.923910
_symmetry_space_group_name_H-M "P 21/C"
_symmetry_group_IT_number 14
_symmetry_cell_setting 'monoclinic'
loop_
_space_group_symop_operation_xyz
x,y,z
-x,1/2+y,1/2-z
-x,-y,-z
x,1/2-y,1/2+z
loop_
_atom_site_type_symbol
_atom_site_label
_atom_site_fract_x
_atom_site_fract_y
_atom_site_fract_z
Si Si1 0.374769 0.234822 0.632812
Si Si2 0.606940 0.603005 0.188052
Si Si3 0.699258 0.208586 0.096272
Si Si4 0.816582 0.428765 0.843086
Si Si5 0.164741 0.099468 0.180169
Si Si6 0.707055 0.049987 0.839735
Si Si7 0.933888 0.413146 0.332843
O O1 0.375766 0.193746 0.461550
O O2 0.370182 0.349946 0.688287
O O3 0.528781 0.199797 0.421668
O O4 0.239533 0.184985 0.954108
O O5 0.447890 0.561665 0.453996
O O6 0.715600 0.514752 0.956654
O O7 0.740739 0.322514 0.001316
O O8 0.736556 0.150898 0.876417
O O9 0.791681 0.152792 0.055315
O O10 0.943107 0.414323 0.496814
O O11 0.827192 0.462361 0.997149
O O12 0.056297 0.133022 0.506173
O O13 0.283706 0.035150 0.053356
O O14 0.092868 0.020885 0.195324
#
# Coordination Sequence:
#
# PCOD9249227 Si02
#       7
#     4   4   4   4   4   4   4
#     4  11  24  43  66 100 131 174 221 279 333 393
#     4  11  25  39  67 100 135 172 219 284 336 389
#     4  10  23  40  68  95 132 176 221 270 336 395
#     4  12  22  41  64 100 132 175 223 279 327 397
#     4  10  23  46  66  93 135 176 225 261 342 396
#     4  10  23  37  65 101 129 170 217 282 325 396
#     4  10  23  44  68  92 131 183 217 274 326 406
#
# _framework density 24.912717000000001
#
# number of rings (size 3 to 8) (size 9 to 14) (size 15 to 20)
#    0.000    1.429    2.857    1.286    6.000    2.286 
#    2.571    1.429    0.000    0.000    0.000    0.000 
#    0.000    0.000    0.000    0.000    0.000    0.000 
#
# Total GULP energy -156659.401923 kJ/mol
# GULP energy per Si atom -5594.978640 kJ/mol
# Density = 2.485601 g / cm^3
# Si number density = 24.912717 Si / 1000 Ang^3
#
#
#
# Elastic Constant Matrix: (Units=GPa)
#
#
# Indices 1 2 3 4 5 6 
#
# 1 56.4797 24.8054 10.1609 0.0000 11.5581 0.0000
# 2 24.8054 69.6047 0.7778 0.0000 -1.8863 0.0000
# 3 10.1609 0.7778 125.7192 0.0000 20.4318 0.0000
# 4 0.0000 0.0000 0.0000 41.1332 0.0000 12.1075
# 5 11.5581 -1.8863 20.4318 0.0000 34.1593 0.0000
# 6 0.0000 0.0000 0.0000 12.1075 0.0000 24.6294
#
#
#
# Elastic Compliance Matrix: (Units=1/GPa)
#
#
# Indices 1 2 3 4 5 6 
#
# 1 0.023150 -0.008461 -0.000520 0.000000 -0.007989 0.000000
# 2 -0.008461 0.017487 -0.000052 0.000000 0.003859 0.000000
# 3 -0.000520 -0.000052 0.008826 0.000000 -0.005106 0.000000
# 4 0.000000 0.000000 0.000000 0.028424 0.000000 -0.013973
# 5 -0.007989 0.003859 -0.005106 0.000000 0.035245 0.000000
# 6 0.000000 0.000000 0.000000 -0.013973 0.000000 0.047471
#
#
# Mechanical properties :
#
#
# Convention : Reuss Voigt Hill
#
# Bulk Modulus (GPa) = 31.84889 35.92129 33.88509
# Shear Modulus (GPa) = 26.43618 34.38834 30.41226
#
# Velocity S-wave (km/s) = 3.26107 3.71934 3.49772
# Velocity P-wave (km/s) = 5.19532 5.73540 5.47203
#
# Compressibility (1/GPa) = 0.03139827
#
# Stress axis : x y z
#
# Youngs Moduli (GPa) = 43.19688 57.18470 113.29566
#
# Poissons Ratio (x) = 0.48382 0.05895
# Poissons Ratio (y) = 0.36548 0.00584
# Poissons Ratio (z) = 0.02248 0.00295
#
# Static dielectric constant tensor:
#      x y z
#    x 2.001470 0.000000 0.002860 
#    y 0.000000 1.945580 0.000000 
#    z 0.002860 0.000000 1.952730 
# 
# From -- ./inp_files/19050.got.cif
#   From: 2010.05.17/outbox.cif.g08.bks.cpg/sg14_10_cif.got.tgz:19050.got - 2010.06.03 17:49:19.
