data_PCOD9249555
_publ_section_title
;
Structure prediction by ZEFSAII (Michael W. Deem and Ramdas Pophale) SiO2 
 PCOD9249555
Probable space group: P 21/C
;
_chemical_formula_sum "Si O2"
_cell_formula_units_Z 28
_cell_length_a 5.017561
_cell_length_b 27.871306
_cell_length_c 9.294638
_cell_angle_alpha 90.000000
_cell_angle_beta 54.103029
_cell_angle_gamma 90.000000
_cell_volume 1052.946787
_symmetry_space_group_name_H-M "P 21/C"
_symmetry_group_IT_number 14
_symmetry_cell_setting 'monoclinic'
loop_
_space_group_symop_operation_xyz
x,y,z
-x,1/2+y,1/2-z
-x,-y,-z
x,1/2-y,1/2+z
loop_
_atom_site_type_symbol
_atom_site_label
_atom_site_fract_x
_atom_site_fract_y
_atom_site_fract_z
Si Si1 0.826577 0.884005 0.029687
Si Si2 0.256499 0.055579 0.204617
Si Si3 0.819069 0.601969 0.974109
Si Si4 0.758051 0.201661 0.060123
Si Si5 0.832441 0.743465 0.823990
Si Si6 0.051262 0.961609 0.152267
Si Si7 0.617527 0.157578 0.592189
O O1 0.163214 0.854124 0.939461
O O2 0.577410 0.849906 0.195092
O O3 0.808558 0.934894 0.118923
O O4 0.791593 0.897189 0.876288
O O5 0.242862 0.066618 0.375689
O O6 0.004472 0.013981 0.233607
O O7 0.616714 0.037820 0.044933
O O8 0.054565 0.575530 0.784127
O O9 0.011888 0.647773 0.978096
O O10 0.502336 0.617162 0.982576
O O11 0.905226 0.216076 0.858053
O O12 0.971955 0.233337 0.105465
O O13 0.374751 0.214259 0.186673
O O14 0.528314 0.705376 0.934041
#
# Coordination Sequence:
#
# PCOD9249555 Si02
#       7
#     4   4   4   4   4   4   4
#     4  10  23  42  66  90 131 178 213 270 329 397
#     4  11  23  40  68  95 127 176 222 269 326 392
#     4  11  23  42  68  99 130 178 216 270 321 400
#     4  11  25  42  70  93 137 169 227 263 341 387
#     4  11  24  44  65 100 129 180 209 283 324 398
#     4  10  23  44  62  95 136 169 217 278 328 384
#     4  10  23  44  66  90 139 170 214 268 336 377
#
# _framework density 26.592037000000001
#
# number of rings (size 3 to 8) (size 9 to 14) (size 15 to 20)
#    0.000    1.429    1.429    2.571    4.000    5.714 
#    0.000    2.143    0.000    0.000    0.000    0.000 
#    0.000    0.000    0.000    0.000    0.000    0.000 
#
# Total GULP energy -156746.664649 kJ/mol
# GULP energy per Si atom -5598.095166 kJ/mol
# Density = 2.653151 g / cm^3
# Si number density = 26.592037 Si / 1000 Ang^3
#
#
#
# Elastic Constant Matrix: (Units=GPa)
#
#
# Indices 1 2 3 4 5 6 
#
# 1 107.7538 15.0751 24.8338 0.0000 25.8100 0.0000
# 2 15.0751 91.1528 14.0804 0.0000 21.7716 0.0000
# 3 24.8338 14.0804 75.5938 0.0000 29.2322 0.0000
# 4 0.0000 0.0000 0.0000 25.8750 0.0000 4.9980
# 5 25.8100 21.7716 29.2322 0.0000 33.6088 0.0000
# 6 0.0000 0.0000 0.0000 4.9980 0.0000 44.9356
#
#
#
# Elastic Compliance Matrix: (Units=1/GPa)
#
#
# Indices 1 2 3 4 5 6 
#
# 1 0.011390 0.000210 -0.000521 0.000000 -0.008430 0.000000
# 2 0.000210 0.013062 0.001254 0.000000 -0.009714 0.000000
# 3 -0.000521 0.001254 0.020079 0.000000 -0.017877 0.000000
# 4 0.000000 0.000000 0.000000 0.039496 0.000000 -0.004393
# 5 -0.008430 -0.009714 -0.017877 0.000000 0.058070 0.000000
# 6 0.000000 0.000000 0.000000 -0.004393 0.000000 0.022743
#
#
# Mechanical properties :
#
#
# Convention : Reuss Voigt Hill
#
# Bulk Modulus (GPa) = 21.54296 42.49767 32.02031
# Shear Modulus (GPa) = 28.02281 35.58462 31.80372
#
# Velocity S-wave (km/s) = 3.24976 3.66207 3.46206
# Velocity P-wave (km/s) = 4.71170 5.82211 5.29609
#
# Compressibility (1/GPa) = 0.04641888
#
# Stress axis : x y z
#
# Youngs Moduli (GPa) = 87.79344 76.55643 49.80293
#
# Poissons Ratio (x) = -0.01610 0.02595
# Poissons Ratio (y) = -0.01846 -0.06247
# Poissons Ratio (z) = 0.04575 -0.09603
#
# Static dielectric constant tensor:
#      x y z
#    x 2.099010 0.000000 -0.029260 
#    y 0.000000 2.155790 0.000000 
#    z -0.029260 0.000000 2.013480 
# 
# From -- ./inp_files/6721.got.cif
#   From: 2010.05.17/outbox.cif.g08.bks.cpg/sg14_4_cif.got.tgz:6721.got - 2010.06.03 17:49:19.
