data_PCOD9249107
_publ_section_title
;
Structure prediction by ZEFSAII (Michael W. Deem and Ramdas Pophale) SiO2 
 PCOD9249107
Probable space group: P 21/C
;
_chemical_formula_sum "Si O2"
_cell_formula_units_Z 28
_cell_length_a 12.910027
_cell_length_b 7.870078
_cell_length_c 16.121757
_cell_angle_alpha 90.000000
_cell_angle_beta 44.327962
_cell_angle_gamma 90.000000
_cell_volume 1144.588503
_symmetry_space_group_name_H-M "P 21/C"
_symmetry_group_IT_number 14
_symmetry_cell_setting 'monoclinic'
loop_
_space_group_symop_operation_xyz
x,y,z
-x,1/2+y,1/2-z
-x,-y,-z
x,1/2-y,1/2+z
loop_
_atom_site_type_symbol
_atom_site_label
_atom_site_fract_x
_atom_site_fract_y
_atom_site_fract_z
Si Si1 0.139240 0.936951 0.361183
Si Si2 0.785261 0.748170 0.414388
Si Si3 0.314526 0.590136 0.298365
Si Si4 0.956870 0.435303 0.272911
Si Si5 0.658634 0.585752 0.138025
Si Si6 0.569142 0.840564 0.407312
Si Si7 0.282221 0.775429 0.983721
O O1 0.210542 0.745453 0.325985
O O2 0.086765 0.953963 0.297848
O O3 0.274672 0.062908 0.309159
O O4 0.000000 0.000000 0.500000
O O5 0.907146 0.605792 0.344404
O O6 0.743206 0.785806 0.531406
O O7 0.650966 0.724359 0.428579
O O8 0.869829 0.904943 0.323294
O O9 0.488426 0.630574 0.219088
O O10 0.335150 0.434409 0.221406
O O11 0.263176 0.580730 0.423835
O O12 0.856151 0.294981 0.376488
O O13 0.702683 0.403288 0.072976
O O14 0.435599 0.729146 0.445965
O O15 0.500000 0.000000 0.500000
#
# Coordination Sequence:
#
# PCOD9249107 Si02
#       7
#     4   4   4   4   4   4   4
#     4  11  24  44  72 101 140 192 235 291 355 423
#     4  12  26  43  69 102 139 188 233 290 355 416
#     4  10  23  42  75 102 142 185 229 292 357 423
#     4  12  28  44  71 101 144 184 241 286 355 428
#     4  10  22  46  70 100 143 185 231 290 359 411
#     4  11  22  44  74 102 141 185 235 292 358 417
#     4  10  23  45  69 103 142 179 233 291 343 427
#
# _framework density 24.462938999999999
#
# number of rings (size 3 to 8) (size 9 to 14) (size 15 to 20)
#    0.000    1.143    4.286    1.714    6.000    4.000 
#    0.000    0.714    0.000    0.000    0.000    0.000 
#    0.000    0.000    0.000    0.000    0.000    0.000 
#
# Total GULP energy -156229.371155 kJ/mol
# GULP energy per Si atom -5579.620398 kJ/mol
# Density = 2.440726 g / cm^3
# Si number density = 24.462939 Si / 1000 Ang^3
#
#
#
# Elastic Constant Matrix: (Units=GPa)
#
#
# Indices 1 2 3 4 5 6 
#
# 1 79.0610 -17.1651 -5.0150 0.0000 12.1239 0.0000
# 2 -17.1651 66.3566 20.3713 0.0000 2.4523 0.0000
# 3 -5.0150 20.3713 104.7512 0.0000 17.2864 0.0000
# 4 0.0000 0.0000 0.0000 42.7625 0.0000 -7.7120
# 5 12.1239 2.4523 17.2864 0.0000 33.8152 0.0000
# 6 0.0000 0.0000 0.0000 -7.7120 0.0000 5.7394
#
#
#
# Elastic Compliance Matrix: (Units=1/GPa)
#
#
# Indices 1 2 3 4 5 6 
#
# 1 0.014410 0.003653 0.000957 0.000000 -0.005920 0.000000
# 2 0.003653 0.016960 -0.002953 0.000000 -0.001030 0.000000
# 3 0.000957 -0.002953 0.011126 0.000000 -0.005817 0.000000
# 4 0.000000 0.000000 0.000000 0.030864 0.000000 0.041473
# 5 -0.005920 -0.001030 -0.005817 0.000000 0.034743 0.000000
# 6 0.000000 0.000000 0.000000 0.041473 0.000000 0.229962
#
#
# Mechanical properties :
#
#
# Convention : Reuss Voigt Hill
#
# Bulk Modulus (GPa) = 21.83024 27.39457 24.61241
# Shear Modulus (GPa) = 14.28474 33.26193 23.77334
#
# Velocity S-wave (km/s) = 2.41909 3.69139 3.12077
# Velocity P-wave (km/s) = 4.09217 5.42137 4.80297
#
# Compressibility (1/GPa) = 0.04580801
#
# Stress axis : x y z
#
# Youngs Moduli (GPa) = 69.39590 58.96318 89.87583
#
# Poissons Ratio (x) = -0.21538 -0.08597
# Poissons Ratio (y) = -0.25349 0.26544
# Poissons Ratio (z) = -0.06638 0.17414
#
# Static dielectric constant tensor:
#      x y z
#    x 1.940150 0.000000 0.019450 
#    y 0.000000 2.133560 0.000000 
#    z 0.019450 0.000000 1.990680 
# 
# From -- ./inp_files/59031.got.cif
#   From: 2010.05.17/outbox.cif.g08.bks.cpg/sg14_30_cif.got.tgz:59031.got - 2010.06.03 17:49:19.
