data_PCOD9249384
_publ_section_title
;
Structure prediction by ZEFSAII (Michael W. Deem and Ramdas Pophale) SiO2 
 PCOD9249384
Probable space group: P 21/C
;
_chemical_formula_sum "Si O2"
_cell_formula_units_Z 30
_cell_length_a 9.229521
_cell_length_b 11.718253
_cell_length_c 14.984351
_cell_angle_alpha 90.000000
_cell_angle_beta 114.052220
_cell_angle_gamma 90.000000
_cell_volume 1479.904483
_symmetry_space_group_name_H-M "P 21/C"
_symmetry_group_IT_number 14
_symmetry_cell_setting 'monoclinic'
loop_
_space_group_symop_operation_xyz
x,y,z
-x,1/2+y,1/2-z
-x,-y,-z
x,1/2-y,1/2+z
loop_
_atom_site_type_symbol
_atom_site_label
_atom_site_fract_x
_atom_site_fract_y
_atom_site_fract_z
Si Si1 0.758613 0.203768 0.971666
Si Si2 0.187639 0.351263 0.693935
Si Si3 0.346339 0.738042 0.859982
Si Si4 0.953327 0.862005 0.411578
Si Si5 0.437119 0.650292 0.206915
Si Si6 0.642821 0.568635 0.934668
Si Si7 0.000000 0.500000 0.500000
Si Si8 0.174974 0.513079 0.855048
O O1 0.621477 0.246852 0.871432
O O2 0.844720 0.088082 0.966134
O O3 0.691110 0.202055 0.055394
O O4 0.893136 0.303679 0.004845
O O5 0.114356 0.225867 0.677940
O O6 0.375649 0.345412 0.728825
O O7 0.099072 0.414167 0.591102
O O8 0.154405 0.419538 0.775437
O O9 0.349695 0.825713 0.778814
O O10 0.512903 0.668646 0.903564
O O11 0.218666 0.634701 0.821063
O O12 0.810417 0.883330 0.442161
O O13 0.020226 0.970855 0.376914
O O14 0.403868 0.532692 0.145445
O O15 0.680772 0.518732 0.042216
#
# Coordination Sequence:
#
# PCOD9249384 Si02
#       8
#     4   4   4   4   4   4   2   4
#     4  10  23  44  66  95 136 183 232 287 345 425
#     4  11  23  44  65  95 139 180 225 283 355 421
#     4  11  22  40  67 100 132 178 234 277 351 423
#     4  10  23  41  60  99 132 166 225 285 348 409
#     4  12  23  40  72  99 137 181 229 294 347 414
#     4  12  22  41  69 101 138 171 233 298 345 408
#     4  10  24  46  66  92 152 184 212 296 372 416
#     4  11  22  41  68  96 127 181 229 284 342 423
#
# _framework density 20.271578999999999
#
# number of rings (size 3 to 8) (size 9 to 14) (size 15 to 20)
#    0.000    1.067    5.333    2.400    0.000    3.200 
#    4.800    0.667    0.000    0.000    0.000    0.000 
#    0.000    0.000    0.000    0.000    0.000    0.000 
#
# Total GULP energy -167090.105742 kJ/mol
# GULP energy per Si atom -5569.670191 kJ/mol
# Density = 2.022544 g / cm^3
# Si number density = 20.271579 Si / 1000 Ang^3
#
#
#
# Elastic Constant Matrix: (Units=GPa)
#
#
# Indices 1 2 3 4 5 6 
#
# 1 58.3490 17.0164 10.4218 0.0000 3.5201 0.0000
# 2 17.0164 61.7045 19.7707 0.0000 -6.3112 0.0000
# 3 10.4218 19.7707 76.7050 0.0000 13.3007 0.0000
# 4 0.0000 0.0000 0.0000 18.4183 0.0000 -4.9419
# 5 3.5201 -6.3112 13.3007 0.0000 28.9170 0.0000
# 6 0.0000 0.0000 0.0000 -4.9419 0.0000 47.9031
#
#
#
# Elastic Compliance Matrix: (Units=1/GPa)
#
#
# Indices 1 2 3 4 5 6 
#
# 1 0.019010 -0.005360 -0.000649 0.000000 -0.003185 0.000000
# 2 -0.005360 0.020364 -0.005873 0.000000 0.007798 0.000000
# 3 -0.000649 -0.005873 0.016134 0.000000 -0.008624 0.000000
# 4 0.000000 0.000000 0.000000 0.055840 0.000000 0.005761
# 5 -0.003185 0.007798 -0.008624 0.000000 0.040638 0.000000
# 6 0.000000 0.000000 0.000000 0.005761 0.000000 0.021470
#
#
# Mechanical properties :
#
#
# Convention : Reuss Voigt Hill
#
# Bulk Modulus (GPa) = 31.50203 32.35292 31.92747
# Shear Modulus (GPa) = 24.06166 29.01765 26.53966
#
# Velocity S-wave (km/s) = 3.44897 3.78755 3.62222
# Velocity P-wave (km/s) = 5.60663 5.92636 5.76871
#
# Compressibility (1/GPa) = 0.03174399
#
# Stress axis : x y z
#
# Youngs Moduli (GPa) = 52.60525 49.10698 61.98030
#
# Poissons Ratio (x) = 0.26322 0.04022
# Poissons Ratio (y) = 0.28197 0.36399
# Poissons Ratio (z) = 0.03413 0.28839
#
# Static dielectric constant tensor:
#      x y z
#    x 1.748270 0.000000 -0.008870 
#    y 0.000000 1.712730 0.000000 
#    z -0.008870 0.000000 1.728880 
# 
# From -- ./inp_files/40441.got.cif
#   From: 2010.05.17/outbox.cif.g08.bks.cpg/sg14_21_cif.got.tgz:40441.got - 2010.06.03 17:49:19.
