data_PCOD9249916
_publ_section_title
;
Structure prediction by ZEFSAII (Michael W. Deem and Ramdas Pophale) SiO2 
 PCOD9249916
Probable space group: P 21/C
;
_chemical_formula_sum "Si O2"
_cell_formula_units_Z 32
_cell_length_a 18.957485
_cell_length_b 15.713034
_cell_length_c 13.538015
_cell_angle_alpha 90.000000
_cell_angle_beta 22.252359
_cell_angle_gamma 90.000000
_cell_volume 1527.129412
_symmetry_space_group_name_H-M "P 21/C"
_symmetry_group_IT_number 14
_symmetry_cell_setting 'monoclinic'
loop_
_space_group_symop_operation_xyz
x,y,z
-x,1/2+y,1/2-z
-x,-y,-z
x,1/2-y,1/2+z
loop_
_atom_site_type_symbol
_atom_site_label
_atom_site_fract_x
_atom_site_fract_y
_atom_site_fract_z
Si Si1 0.327898 0.404893 0.301952
Si Si2 0.151811 0.071383 0.822612
Si Si3 0.436077 0.517354 0.839773
Si Si4 0.296463 0.697094 0.929960
Si Si5 0.013984 0.238015 0.536020
Si Si6 0.407385 0.222711 0.115140
Si Si7 0.029938 0.867184 0.605451
Si Si8 0.613477 0.058918 0.926973
O O1 0.249425 0.442397 0.302086
O O2 0.477371 0.457910 0.167886
O O3 0.409414 0.312401 0.168489
O O4 0.156746 0.395197 0.599439
O O5 0.291969 0.057786 0.550299
O O6 0.065229 0.164532 0.943751
O O7 0.000000 0.000000 0.000000
O O8 0.344702 0.603899 0.913465
O O9 0.585597 0.480626 0.570104
O O10 0.482188 0.729038 0.633077
O O11 0.187031 0.756818 0.149224
O O12 0.145415 0.683748 0.038943
O O13 0.007263 0.186831 0.443772
O O14 0.188973 0.204816 0.374967
O O15 0.516698 0.151131 0.035892
O O16 0.173884 0.939026 0.383333
O O17 0.500000 0.000000 0.000000
#
# Coordination Sequence:
#
# PCOD9249916 Si02
#       8
#     4   4   4   4   4   4   4   4
#     4  11  25  45  68 101 137 178 226 285 335 410
#     4  11  23  43  70  97 135 180 218 279 347 398
#     4  12  24  43  69  99 140 174 229 284 339 408
#     4  11  22  43  67  97 137 175 217 282 335 398
#     4  11  24  43  68 102 130 179 230 276 341 406
#     4  10  23  44  70  93 137 178 226 278 342 404
#     4  11  23  43  68  96 134 176 226 278 335 407
#     4  11  25  44  67  99 133 185 222 279 349 397
#
# _framework density 20.954348
#
# number of rings (size 3 to 8) (size 9 to 14) (size 15 to 20)
#    0.000    1.000    6.250    1.125    5.250    2.500 
#    0.000    1.250    0.000    0.000    0.000    0.000 
#    0.000    0.000    0.000    0.000    0.000    0.000 
#
# Total GULP energy -178749.170552 kJ/mol
# GULP energy per Si atom -5585.911580 kJ/mol
# Density = 2.090666 g / cm^3
# Si number density = 20.954348 Si / 1000 Ang^3
#
#
#
# Elastic Constant Matrix: (Units=GPa)
#
#
# Indices 1 2 3 4 5 6 
#
# 1 45.5917 24.5025 5.4465 0.0000 13.2709 0.0000
# 2 24.5025 47.3923 35.9166 0.0000 1.8617 0.0000
# 3 5.4465 35.9166 122.2618 0.0000 32.3700 0.0000
# 4 0.0000 0.0000 0.0000 29.8881 0.0000 12.5649
# 5 13.2709 1.8617 32.3700 0.0000 35.6610 0.0000
# 6 0.0000 0.0000 0.0000 12.5649 0.0000 41.6959
#
#
#
# Elastic Compliance Matrix: (Units=1/GPa)
#
#
# Indices 1 2 3 4 5 6 
#
# 1 0.049192 -0.037220 0.017211 0.000000 -0.031986 0.000000
# 2 -0.037220 0.056995 -0.023648 0.000000 0.032341 0.000000
# 3 0.017211 -0.023648 0.020704 0.000000 -0.023964 0.000000
# 4 0.000000 0.000000 0.000000 0.038312 0.000000 -0.011545
# 5 -0.031986 0.032341 -0.023964 0.000000 0.060009 0.000000
# 6 0.000000 0.000000 0.000000 -0.011545 0.000000 0.027462
#
#
# Mechanical properties :
#
#
# Convention : Reuss Voigt Hill
#
# Bulk Modulus (GPa) = 25.26683 38.55299 31.90991
# Shear Modulus (GPa) = 14.15709 31.40767 22.78238
#
# Velocity S-wave (km/s) = 2.60208 3.87571 3.30091
# Velocity P-wave (km/s) = 4.59478 6.20215 5.45796
#
# Compressibility (1/GPa) = 0.03957758
#
# Stress axis : x y z
#
# Youngs Moduli (GPa) = 20.32866 17.54538 48.29955
#
# Poissons Ratio (x) = 0.65304 -0.83130
# Poissons Ratio (y) = 0.75663 1.14218
# Poissons Ratio (z) = -0.34988 0.41491
#
# Static dielectric constant tensor:
#      x y z
#    x 1.741430 0.000000 -0.001910 
#    y 0.000000 1.769610 0.000000 
#    z -0.001910 0.000000 1.807210 
# 
# From -- ./inp_files/50662.got.cif
#   From: 2010.05.17/outbox.cif.g08.bks.cpg/sg14_26_cif.got.tgz:50662.got - 2010.06.03 17:49:19.
