data_PCOD9249687
_publ_section_title
;
Structure prediction by ZEFSAII (Michael W. Deem and Ramdas Pophale) SiO2 
 PCOD9249687
Probable space group: P 21/C
;
_chemical_formula_sum "Si O2"
_cell_formula_units_Z 32
_cell_length_a 7.406394
_cell_length_b 31.420550
_cell_length_c 7.915309
_cell_angle_alpha 90.000000
_cell_angle_beta 116.978843
_cell_angle_gamma 90.000000
_cell_volume 1641.538323
_symmetry_space_group_name_H-M "P 21/C"
_symmetry_group_IT_number 14
_symmetry_cell_setting 'monoclinic'
loop_
_space_group_symop_operation_xyz
x,y,z
-x,1/2+y,1/2-z
-x,-y,-z
x,1/2-y,1/2+z
loop_
_atom_site_type_symbol
_atom_site_label
_atom_site_fract_x
_atom_site_fract_y
_atom_site_fract_z
Si Si1 0.409835 0.153910 0.600089
Si Si2 0.776843 0.323626 0.077182
Si Si3 0.276177 0.061555 0.507790
Si Si4 0.159473 0.921135 0.497462
Si Si5 0.620686 0.708126 0.228051
Si Si6 0.646940 0.010638 0.215125
Si Si7 0.925720 0.004282 0.780069
Si Si8 0.770359 0.700117 0.671093
O O1 0.639163 0.170984 0.686408
O O2 0.398597 0.104674 0.548120
O O3 0.303917 0.179125 0.398532
O O4 0.315193 0.163694 0.740713
O O5 0.622890 0.298925 0.886473
O O6 0.809325 0.371546 0.023404
O O7 0.987802 0.301451 0.204289
O O8 0.061419 0.073850 0.506649
O O9 0.390723 0.026193 0.665605
O O10 0.222072 0.035328 0.317740
O O11 0.331668 0.943130 0.688948
O O12 0.156049 0.950917 0.327421
O O13 0.704768 0.696105 0.447846
O O14 0.681821 0.756016 0.208311
O O15 0.875640 0.003158 0.249022
O O16 0.500000 0.000000 0.000000
O O17 0.000000 0.000000 0.000000
#
# Coordination Sequence:
#
# PCOD9249687 Si02
#       8
#     4   4   4   4   4   4   4   4
#     4  10  23  43  63  99 129 166 223 267 322 401
#     4  10  24  42  66 100 127 172 223 263 335 400
#     4   9  18  38  58  80 131 168 203 272 313 366
#     4   9  18  38  58  82 130 172 205 266 323 366
#     4  10  25  43  67 101 122 168 225 259 335 414
#     4   9  19  33  56  86 120 172 211 253 317 374
#     4   9  19  33  56  86 122 169 213 254 315 379
#     4  12  22  48  68  92 139 165 207 290 330 380
#
# _framework density 19.493911000000001
#
# number of rings (size 3 to 8) (size 9 to 14) (size 15 to 20)
#    0.750    1.500    2.500    1.500    0.000    6.000 
#    2.250    5.000    0.000    0.000    0.000    0.000 
#    0.000    0.000    0.000    0.000    0.000    0.000 
#
# Total GULP energy -178248.995825 kJ/mol
# GULP energy per Si atom -5570.281120 kJ/mol
# Density = 1.944954 g / cm^3
# Si number density = 19.493911 Si / 1000 Ang^3
#
#
#
# Elastic Constant Matrix: (Units=GPa)
#
#
# Indices 1 2 3 4 5 6 
#
# 1 65.6243 13.1263 23.2290 0.0000 17.0160 0.0000
# 2 13.1263 87.7473 17.7562 0.0000 10.4474 0.0000
# 3 23.2290 17.7562 104.4659 0.0000 5.5227 0.0000
# 4 0.0000 0.0000 0.0000 12.4116 0.0000 7.0179
# 5 17.0160 10.4474 5.5227 0.0000 33.5650 0.0000
# 6 0.0000 0.0000 0.0000 7.0179 0.0000 30.6961
#
#
#
# Elastic Compliance Matrix: (Units=1/GPa)
#
#
# Indices 1 2 3 4 5 6 
#
# 1 0.018975 -0.001080 -0.003576 0.000000 -0.008695 0.000000
# 2 -0.001080 0.012255 -0.001685 0.000000 -0.002990 0.000000
# 3 -0.003576 -0.001685 0.010623 0.000000 0.000589 0.000000
# 4 0.000000 0.000000 0.000000 0.092531 0.000000 -0.021155
# 5 -0.008695 -0.002990 0.000589 0.000000 0.035035 0.000000
# 6 0.000000 0.000000 0.000000 -0.021155 0.000000 0.037414
#
#
# Mechanical properties :
#
#
# Convention : Reuss Voigt Hill
#
# Bulk Modulus (GPa) = 34.28026 40.67339 37.47682
# Shear Modulus (GPa) = 21.81155 28.91626 25.36390
#
# Velocity S-wave (km/s) = 3.34861 3.85560 3.61102
# Velocity P-wave (km/s) = 5.70738 6.38207 6.05413
#
# Compressibility (1/GPa) = 0.02917131
#
# Stress axis : x y z
#
# Youngs Moduli (GPa) = 52.70223 81.60076 94.13644
#
# Poissons Ratio (x) = 0.08809 0.33663
# Poissons Ratio (y) = 0.05690 0.15860
# Poissons Ratio (z) = 0.18846 0.13748
#
# Static dielectric constant tensor:
#      x y z
#    x 1.651120 0.000000 0.210320 
#    y 0.000000 1.670950 0.000000 
#    z 0.210320 0.000000 1.254560 
# 
# From -- ./inp_files/11281.got.cif
#   From: 2010.05.17/outbox.cif.g08.bks.cpg/sg14_6_cif.got.tgz:11281.got - 2010.06.03 17:49:19.
