data_PCOD9249664
_publ_section_title
;
Structure prediction by ZEFSAII (Michael W. Deem and Ramdas Pophale) SiO2 
 PCOD9249664
Probable space group: P 21/C
;
_chemical_formula_sum "Si O2"
_cell_formula_units_Z 20
_cell_length_a 8.903962
_cell_length_b 7.057129
_cell_length_c 15.893367
_cell_angle_alpha 90.000000
_cell_angle_beta 116.218581
_cell_angle_gamma 90.000000
_cell_volume 895.932835
_symmetry_space_group_name_H-M "P 21/C"
_symmetry_group_IT_number 14
_symmetry_cell_setting 'monoclinic'
loop_
_space_group_symop_operation_xyz
x,y,z
-x,1/2+y,1/2-z
-x,-y,-z
x,1/2-y,1/2+z
loop_
_atom_site_type_symbol
_atom_site_label
_atom_site_fract_x
_atom_site_fract_y
_atom_site_fract_z
Si Si1 0.240003 0.976349 0.635614
Si Si2 0.043614 0.279456 0.507875
Si Si3 0.186503 0.151923 0.867122
Si Si4 0.834217 0.271627 0.708391
Si Si5 0.567476 0.950216 0.609236
O O1 0.151933 0.182486 0.607931
O O2 0.423876 0.978507 0.642483
O O3 0.228186 0.884505 0.724276
O O4 0.124257 0.841717 0.547971
O O5 0.154409 0.258407 0.450568
O O6 0.000000 0.500000 0.500000
O O7 0.355650 0.239595 0.872691
O O8 0.024177 0.210194 0.772570
O O9 0.185185 0.924889 0.870181
O O10 0.721573 0.089822 0.665774
O O11 0.500000 0.000000 0.500000
#
# Coordination Sequence:
#
# PCOD9249664 Si02
#       5
#     4   4   4   4   4
#     4  10  25  44  64 104 135 178 230 290 341 414
#     4  10  23  42  73  97 138 179 224 284 360 414
#     4  11  24  44  71  98 132 188 230 280 347 418
#     4  11  26  43  71  96 138 186 232 284 343 414
#     4  12  26  46  68 102 144 175 234 294 344 411
#
# _framework density 22.323101999999999
#
# number of rings (size 3 to 8) (size 9 to 14) (size 15 to 20)
#    0.000    1.200    4.000    0.000    8.400    2.400 
#    0.000    0.000    0.000    0.000    0.000    0.000 
#    0.000    0.000    0.000    0.000    0.000    0.000 
#
# Total GULP energy -111940.837917 kJ/mol
# GULP energy per Si atom -5597.041896 kJ/mol
# Density = 2.227229 g / cm^3
# Si number density = 22.323102 Si / 1000 Ang^3
#
#
#
# Elastic Constant Matrix: (Units=GPa)
#
#
# Indices 1 2 3 4 5 6 
#
# 1 76.8226 0.7685 8.9522 0.0000 4.9419 0.0000
# 2 0.7685 88.1981 -15.1082 0.0000 9.7879 0.0000
# 3 8.9522 -15.1082 47.5922 0.0000 -4.7747 0.0000
# 4 0.0000 0.0000 0.0000 31.2532 0.0000 -1.4898
# 5 4.9419 9.7879 -4.7747 0.0000 26.8733 0.0000
# 6 0.0000 0.0000 0.0000 -1.4898 0.0000 33.9448
#
#
#
# Elastic Compliance Matrix: (Units=1/GPa)
#
#
# Indices 1 2 3 4 5 6 
#
# 1 0.013549 -0.000298 -0.002935 0.000000 -0.002904 0.000000
# 2 -0.000298 0.012381 0.003604 0.000000 -0.003814 0.000000
# 3 -0.002935 0.003604 0.023041 0.000000 0.003321 0.000000
# 4 0.000000 0.000000 0.000000 0.032064 0.000000 0.001407
# 5 -0.002904 -0.003814 0.003321 0.000000 0.039725 0.000000
# 6 0.000000 0.000000 0.000000 0.001407 0.000000 0.029521
#
#
# Mechanical properties :
#
#
# Convention : Reuss Voigt Hill
#
# Bulk Modulus (GPa) = 20.11549 22.42641 21.27095
# Shear Modulus (GPa) = 30.10039 32.94763 31.52401
#
# Velocity S-wave (km/s) = 3.67604 3.84597 3.76196
# Velocity P-wave (km/s) = 5.20080 5.45803 5.33096
#
# Compressibility (1/GPa) = 0.04971293
#
# Stress axis : x y z
#
# Youngs Moduli (GPa) = 73.80725 80.76649 43.40065
#
# Poissons Ratio (x) = 0.02411 0.12737
# Poissons Ratio (y) = 0.02203 -0.15641
# Poissons Ratio (z) = 0.21660 -0.29108
#
# Static dielectric constant tensor:
#      x y z
#    x 1.790420 0.000000 -0.034530 
#    y 0.000000 1.826570 0.000000 
#    z -0.034530 0.000000 1.811790 
# 
# From -- ./inp_files/64227.got.cif
#   From: 2010.05.17/outbox.cif.g08.bks.cpg/sg14_33_cif.got.tgz:64227.got - 2010.06.03 17:49:19.
