data_PCOD9249817
_publ_section_title
;
Structure prediction by ZEFSAII (Michael W. Deem and Ramdas Pophale) SiO2 
 PCOD9249817
Probable space group: P 21/C
;
_chemical_formula_sum "Si O2"
_cell_formula_units_Z 20
_cell_length_a 12.118265
_cell_length_b 7.977045
_cell_length_c 18.279686
_cell_angle_alpha 90.000000
_cell_angle_beta 148.951527
_cell_angle_gamma 90.000000
_cell_volume 911.384120
_symmetry_space_group_name_H-M "P 21/C"
_symmetry_group_IT_number 14
_symmetry_cell_setting 'monoclinic'
loop_
_space_group_symop_operation_xyz
x,y,z
-x,1/2+y,1/2-z
-x,-y,-z
x,1/2-y,1/2+z
loop_
_atom_site_type_symbol
_atom_site_label
_atom_site_fract_x
_atom_site_fract_y
_atom_site_fract_z
Si Si1 0.236060 0.458125 0.158831
Si Si2 0.451856 0.841582 0.420234
Si Si3 0.374348 0.305746 0.624592
Si Si4 0.210743 0.152103 0.806170
Si Si5 0.003092 0.518367 0.672173
O O1 0.408512 0.596925 0.235665
O O2 0.298535 0.287623 0.153603
O O3 0.241003 0.443161 0.248484
O O4 0.000000 0.500000 0.000000
O O5 0.574156 0.826514 0.412072
O O6 0.558468 0.693102 0.527282
O O7 0.199243 0.856233 0.264695
O O8 0.500000 0.000000 0.500000
O O9 0.195280 0.434022 0.492400
O O10 0.072106 0.056309 0.787893
O O11 0.090207 0.328542 0.719152
#
# Coordination Sequence:
#
# PCOD9249817 Si02
#       5
#     4   4   4   4   4
#     4  12  30  46  70 102 149 184 238 282 353 418
#     4   9  21  42  71  99 132 172 232 284 347 406
#     4  11  27  45  69 102 140 187 233 290 347 424
#     4  10  25  41  72 102 133 182 225 293 344 420
#     4  10  23  43  73  98 139 176 240 284 354 404
#
# _framework density 21.944644
#
# number of rings (size 3 to 8) (size 9 to 14) (size 15 to 20)
#    0.000    1.600    0.000    1.200   22.400    2.400 
#    0.000    0.000    0.000    0.000    0.000    0.000 
#    0.000    0.000    0.000    0.000    0.000    0.000 
#
# Total GULP energy -111882.630251 kJ/mol
# GULP energy per Si atom -5594.131513 kJ/mol
# Density = 2.189470 g / cm^3
# Si number density = 21.944644 Si / 1000 Ang^3
#
#
#
# Elastic Constant Matrix: (Units=GPa)
#
#
# Indices 1 2 3 4 5 6 
#
# 1 36.2287 2.5884 8.7463 0.0000 6.8611 0.0000
# 2 2.5884 67.8495 11.0033 0.0000 15.6801 0.0000
# 3 8.7463 11.0033 113.0329 0.0000 30.0260 0.0000
# 4 0.0000 0.0000 0.0000 26.5115 0.0000 7.6206
# 5 6.8611 15.6801 30.0260 0.0000 36.0237 0.0000
# 6 0.0000 0.0000 0.0000 7.6206 0.0000 50.4923
#
#
#
# Elastic Compliance Matrix: (Units=1/GPa)
#
#
# Indices 1 2 3 4 5 6 
#
# 1 0.028722 0.000154 -0.000984 0.000000 -0.004717 0.000000
# 2 0.000154 0.016401 0.000380 0.000000 -0.007485 0.000000
# 3 -0.000984 0.000380 0.011406 0.000000 -0.009484 0.000000
# 4 0.000000 0.000000 0.000000 0.039430 0.000000 -0.005951
# 5 -0.004717 -0.007485 -0.009484 0.000000 0.039821 0.000000
# 6 0.000000 0.000000 0.000000 -0.005951 0.000000 0.020703
#
#
# Mechanical properties :
#
#
# Convention : Reuss Voigt Hill
#
# Bulk Modulus (GPa) = 17.97677 29.08747 23.53212
# Shear Modulus (GPa) = 28.42085 35.59036 32.00560
#
# Velocity S-wave (km/s) = 3.60268 4.03156 3.82314
# Velocity P-wave (km/s) = 5.05127 5.91227 5.49865
#
# Compressibility (1/GPa) = 0.05562736
#
# Stress axis : x y z
#
# Youngs Moduli (GPa) = 34.81599 60.97280 87.67598
#
# Poissons Ratio (x) = -0.00939 0.08632
# Poissons Ratio (y) = -0.00536 -0.03329
# Poissons Ratio (z) = 0.03428 -0.02315
#
# Static dielectric constant tensor:
#      x y z
#    x 1.762100 0.000000 0.006910 
#    y 0.000000 1.820210 0.000000 
#    z 0.006910 0.000000 1.818670 
# 
# From -- ./inp_files/28231.got.cif
#   From: 2010.05.17/outbox.cif.g08.bks.cpg/sg14_15_cif.got.tgz:28231.got - 2010.06.03 17:49:19.
