data_PCOD9249191
_publ_section_title
;
Structure prediction by ZEFSAII (Michael W. Deem and Ramdas Pophale) SiO2 
 PCOD9249191
Probable space group: P 21/C
;
_chemical_formula_sum "Si O2"
_cell_formula_units_Z 20
_cell_length_a 19.570644
_cell_length_b 4.872799
_cell_length_c 13.205368
_cell_angle_alpha 90.000000
_cell_angle_beta 148.626387
_cell_angle_gamma 90.000000
_cell_volume 655.619762
_symmetry_space_group_name_H-M "P 21/C"
_symmetry_group_IT_number 14
_symmetry_cell_setting 'monoclinic'
loop_
_space_group_symop_operation_xyz
x,y,z
-x,1/2+y,1/2-z
-x,-y,-z
x,1/2-y,1/2+z
loop_
_atom_site_type_symbol
_atom_site_label
_atom_site_fract_x
_atom_site_fract_y
_atom_site_fract_z
Si Si1 0.000000 0.500000 0.000000
Si Si2 0.077515 0.987059 0.818419
Si Si3 0.634464 0.997759 0.794819
Si Si4 0.736324 0.757369 0.259123
Si Si5 0.639565 0.232710 0.500662
Si Si6 0.500000 0.500000 0.500000
O O1 0.923546 0.588767 0.798574
O O2 0.871248 0.586951 0.906208
O O3 0.038541 0.669760 0.777519
O O4 0.203390 0.060227 0.049470
O O5 0.700401 0.172452 0.972690
O O6 0.575467 0.231379 0.648203
O O7 0.505006 0.889467 0.697203
O O8 0.722475 0.499635 0.164152
O O9 0.618385 0.782414 0.198356
O O10 0.631522 0.002303 0.065723
#
# Coordination Sequence:
#
# PCOD9249191 Si02
#       6
#     2   4   4   4   4   2
#     4  12  28  54  84 116 170 226 288 364 436 520
#     4  12  30  54  82 121 170 228 289 354 441 536
#     4  11  26  49  76 122 162 219 280 359 426 530
#     4  11  26  53  81 120 163 222 287 355 440 520
#     4  11  27  44  83 118 169 213 283 353 439 516
#     4  10  22  48  76 120 158 216 268 346 414 522
#
# _framework density 30.505488
#
# number of rings (size 3 to 8) (size 9 to 14) (size 15 to 20)
#    0.000    0.800    2.000    3.600   11.200    5.600 
#    0.000    0.000    0.000    0.000    0.000    0.000 
#    0.000    0.000    0.000    0.000    0.000    0.000 
#
# Total GULP energy -111490.514656 kJ/mol
# GULP energy per Si atom -5574.525733 kJ/mol
# Density = 3.043606 g / cm^3
# Si number density = 30.505488 Si / 1000 Ang^3
#
#
#
# Elastic Constant Matrix: (Units=GPa)
#
#
# Indices 1 2 3 4 5 6 
#
# 1 199.7957 45.4946 55.7609 0.0000 5.8714 0.0000
# 2 45.4946 215.3220 52.4849 0.0000 14.4635 0.0000
# 3 55.7609 52.4849 240.8858 0.0000 47.2070 0.0000
# 4 0.0000 0.0000 0.0000 50.6002 0.0000 -12.8327
# 5 5.8714 14.4635 47.2070 0.0000 66.0023 0.0000
# 6 0.0000 0.0000 0.0000 -12.8327 0.0000 60.5737
#
#
#
# Elastic Compliance Matrix: (Units=1/GPa)
#
#
# Indices 1 2 3 4 5 6 
#
# 1 0.005529 -0.000916 -0.001190 0.000000 0.000560 0.000000
# 2 -0.000916 0.005064 -0.000802 0.000000 -0.000454 0.000000
# 3 -0.001190 -0.000802 0.005288 0.000000 -0.003500 0.000000
# 4 0.000000 0.000000 0.000000 0.020885 0.000000 0.004425
# 5 0.000560 -0.000454 -0.003500 0.000000 0.017704 0.000000
# 6 0.000000 0.000000 0.000000 0.004425 0.000000 0.017446
#
#
# Mechanical properties :
#
#
# Convention : Reuss Voigt Hill
#
# Bulk Modulus (GPa) = 99.36169 107.05383 103.20776
# Shear Modulus (GPa) = 61.66208 68.91947 65.29077
#
# Velocity S-wave (km/s) = 4.50081 4.75831 4.63135
# Velocity P-wave (km/s) = 7.72348 8.08444 7.90602
#
# Compressibility (1/GPa) = 0.01006424
#
# Stress axis : x y z
#
# Youngs Moduli (GPa) = 180.85307 197.48105 189.12214
#
# Poissons Ratio (x) = 0.18085 0.22509
# Poissons Ratio (y) = 0.16562 0.15173
# Poissons Ratio (z) = 0.21525 0.15843
#
# Static dielectric constant tensor:
#      x y z
#    x 2.463160 0.000000 0.067230 
#    y 0.000000 2.325430 0.000000 
#    z 0.067230 0.000000 2.682550 
# 
# From -- ./inp_files/49780.got.cif
#   From: 2010.05.17/outbox.cif.g08.bks.cpg/sg14_25_cif.got.tgz:49780.got - 2010.06.03 17:49:19.
