data_PCOD9249520
_publ_section_title
;
Structure prediction by ZEFSAII (Michael W. Deem and Ramdas Pophale) SiO2 
 PCOD9249520
Probable space group: P 21/C
;
_chemical_formula_sum "Si O2"
_cell_formula_units_Z 16
_cell_length_a 11.237177
_cell_length_b 9.021677
_cell_length_c 9.610834
_cell_angle_alpha 90.000000
_cell_angle_beta 140.920175
_cell_angle_gamma 90.000000
_cell_volume 614.219363
_symmetry_space_group_name_H-M "P 21/C"
_symmetry_group_IT_number 14
_symmetry_cell_setting 'monoclinic'
loop_
_space_group_symop_operation_xyz
x,y,z
-x,1/2+y,1/2-z
-x,-y,-z
x,1/2-y,1/2+z
loop_
_atom_site_type_symbol
_atom_site_label
_atom_site_fract_x
_atom_site_fract_y
_atom_site_fract_z
Si Si1 0.075949 0.569766 0.851275
Si Si2 0.487099 0.431668 0.835881
Si Si3 0.035401 0.725052 0.088667
Si Si4 0.566630 0.125871 0.956674
O O1 0.994456 0.620388 0.627980
O O2 0.036094 0.411424 0.881940
O O3 0.302993 0.575808 0.041582
O O4 0.995948 0.687634 0.892874
O O5 0.424420 0.260152 0.791751
O O6 0.376761 0.541018 0.632758
O O7 0.500000 0.500000 0.000000
O O8 0.260939 0.704546 0.309702
O O9 0.500000 0.000000 0.000000
#
# Coordination Sequence:
#
# PCOD9249520 Si02
#       4
#     4   4   4   4
#     4  10  23  43  62  91 124 163 206 254 308 364
#     4  11  24  40  65  94 125 164 207 255 313 367
#     4  10  23  42  64  89 126 162 205 256 305 366
#     4  11  22  42  63  93 127 161 207 259 305 372
#
# _framework density 26.049325
#
# number of rings (size 3 to 8) (size 9 to 14) (size 15 to 20)
#    0.000    1.500    2.500    1.500   10.500    5.000 
#    0.000    0.000    0.000    0.000    0.000    0.000 
#    0.000    0.000    0.000    0.000    0.000    0.000 
#
# Total GULP energy -89502.432974 kJ/mol
# GULP energy per Si atom -5593.902061 kJ/mol
# Density = 2.599004 g / cm^3
# Si number density = 26.049325 Si / 1000 Ang^3
#
#
#
# Elastic Constant Matrix: (Units=GPa)
#
#
# Indices 1 2 3 4 5 6 
#
# 1 97.1782 39.4233 20.1449 0.0000 -33.2783 0.0000
# 2 39.4233 124.2712 31.4634 0.0000 -30.2843 0.0000
# 3 20.1449 31.4634 58.4700 0.0000 -41.9452 0.0000
# 4 0.0000 0.0000 0.0000 30.2474 0.0000 3.3673
# 5 -33.2783 -30.2843 -41.9452 0.0000 52.2546 0.0000
# 6 0.0000 0.0000 0.0000 3.3673 0.0000 32.4218
#
#
#
# Elastic Compliance Matrix: (Units=1/GPa)
#
#
# Indices 1 2 3 4 5 6 
#
# 1 0.014366 -0.003024 0.004677 0.000000 0.011151 0.000000
# 2 -0.003024 0.010192 -0.003741 0.000000 0.000978 0.000000
# 3 0.004677 -0.003741 0.042640 0.000000 0.035038 0.000000
# 4 0.000000 0.000000 0.000000 0.033447 0.000000 -0.003474
# 5 0.011151 0.000978 0.035038 0.000000 0.054930 0.000000
# 6 0.000000 0.000000 0.000000 -0.003474 0.000000 0.031204
#
#
# Mechanical properties :
#
#
# Convention : Reuss Voigt Hill
#
# Bulk Modulus (GPa) = 15.86754 51.33140 33.59947
# Shear Modulus (GPa) = 23.58897 35.57729 29.58313
#
# Velocity S-wave (km/s) = 3.01250 3.69964 3.37361
# Velocity P-wave (km/s) = 4.26671 6.16425 5.30107
#
# Compressibility (1/GPa) = 0.06302176
#
# Stress axis : x y z
#
# Youngs Moduli (GPa) = 69.60767 98.11872 23.45215
#
# Poissons Ratio (x) = 0.29674 -0.10969
# Poissons Ratio (y) = 0.21051 0.08773
# Poissons Ratio (z) = -0.32556 0.36705
#
# Static dielectric constant tensor:
#      x y z
#    x 2.071950 0.000000 0.080000 
#    y 0.000000 2.119230 0.000000 
#    z 0.080000 0.000000 2.091580 
# 
# From -- ./inp_files/7203.got.cif
#   From: 2010.05.17/outbox.cif.g08.bks.cpg/sg14_4_cif.got.tgz:7203.got - 2010.06.03 17:49:19.
