data_PCOD9249316
_publ_section_title
;
Structure prediction by ZEFSAII (Michael W. Deem and Ramdas Pophale) SiO2 
 PCOD9249316
Probable space group: P 21/C
;
_chemical_formula_sum "Si O2"
_cell_formula_units_Z 32
_cell_length_a 18.108557
_cell_length_b 5.682417
_cell_length_c 13.960235
_cell_angle_alpha 90.000000
_cell_angle_beta 69.596444
_cell_angle_gamma 90.000000
_cell_volume 1346.387036
_symmetry_space_group_name_H-M "P 21/C"
_symmetry_group_IT_number 14
_symmetry_cell_setting 'monoclinic'
loop_
_space_group_symop_operation_xyz
x,y,z
-x,1/2+y,1/2-z
-x,-y,-z
x,1/2-y,1/2+z
loop_
_atom_site_type_symbol
_atom_site_label
_atom_site_fract_x
_atom_site_fract_y
_atom_site_fract_z
Si Si1 0.799611 0.695149 0.390429
Si Si2 0.124749 0.806467 0.230164
Si Si3 0.507708 0.037192 0.111628
Si Si4 0.036067 0.747366 0.449595
Si Si5 0.172167 0.911811 0.509311
Si Si6 0.724931 0.055299 0.274739
Si Si7 0.547986 0.038347 0.380043
Si Si8 0.689985 0.397124 0.572084
O O1 0.871478 0.574882 0.303161
O O2 0.732232 0.531910 0.465841
O O3 0.833551 0.812358 0.472446
O O4 0.759153 0.853511 0.327857
O O5 0.052240 0.743546 0.329093
O O6 0.133406 0.671260 0.126752
O O7 0.209661 0.757473 0.242047
O O8 0.485859 0.772150 0.157457
O O9 0.457047 0.271826 0.160710
O O10 0.597156 0.098389 0.099309
O O11 0.500000 0.000000 0.000000
O O12 0.123314 0.774432 0.454065
O O13 0.000000 0.500000 0.500000
O O14 0.000000 0.000000 0.500000
O O15 0.264395 0.852425 0.456283
O O16 0.711008 0.006003 0.168552
O O17 0.638586 0.107397 0.354876
O O18 0.500000 0.000000 0.500000
#
# Coordination Sequence:
#
# PCOD9249316 Si02
#       8
#     4   4   4   4   4   4   4   4
#     4  10  24  42  76 104 146 200 254 314 372 454
#     4  10  25  46  75 110 149 198 256 298 386 457
#     4  10  23  40  63  96 145 190 247 305 389 438
#     4  12  30  50  82 116 160 194 244 322 380 460
#     4  10  25  46  75 110 149 198 256 298 386 457
#     4  11  24  42  72 104 147 195 259 319 375 462
#     4  10  23  40  63  96 145 190 247 305 389 438
#     4  11  24  42  72 104 147 195 259 319 375 462
#
# _framework density 23.767310999999999
#
# number of rings (size 3 to 8) (size 9 to 14) (size 15 to 20)
#    0.000    1.500    1.250    1.500   22.750    2.000 
#    0.000    0.000    0.000    0.000    0.000    0.000 
#    0.000    0.000    0.000    0.000    0.000    0.000 
#
# Total GULP energy -178374.198859 kJ/mol
# GULP energy per Si atom -5574.193714 kJ/mol
# Density = 2.371322 g / cm^3
# Si number density = 23.767311 Si / 1000 Ang^3
#
#
#
# Elastic Constant Matrix: (Units=GPa)
#
#
# Indices 1 2 3 4 5 6 
#
# 1 58.2054 25.2958 3.9749 0.0000 -3.4984 0.0000
# 2 25.2958 122.5636 10.3678 0.0000 -17.8312 0.0000
# 3 3.9749 10.3678 107.1079 0.0000 -6.9491 0.0000
# 4 0.0000 0.0000 0.0000 14.5348 0.0000 -1.5281
# 5 -3.4984 -17.8312 -6.9491 0.0000 43.2073 0.0000
# 6 0.0000 0.0000 0.0000 -1.5281 0.0000 24.0468
#
#
#
# Elastic Compliance Matrix: (Units=1/GPa)
#
#
# Indices 1 2 3 4 5 6 
#
# 1 0.018885 -0.003888 -0.000333 0.000000 -0.000129 0.000000
# 2 -0.003888 0.009521 -0.000549 0.000000 0.003526 0.000000
# 3 -0.000333 -0.000549 0.009484 0.000000 0.001272 0.000000
# 4 0.000000 0.000000 0.000000 0.069263 0.000000 0.004401
# 5 -0.000129 0.003526 0.001272 0.000000 0.024794 0.000000
# 6 0.000000 0.000000 0.000000 0.004401 0.000000 0.041865
#
#
# Mechanical properties :
#
#
# Convention : Reuss Voigt Hill
#
# Bulk Modulus (GPa) = 35.27187 40.79487 38.03337
# Shear Modulus (GPa) = 25.93327 32.90701 29.42014
#
# Velocity S-wave (km/s) = 3.30681 3.72499 3.52211
# Velocity P-wave (km/s) = 5.42704 5.97514 5.70767
#
# Compressibility (1/GPa) = 0.02835121
#
# Stress axis : x y z
#
# Youngs Moduli (GPa) = 52.95101 105.03160 105.43678
#
# Poissons Ratio (x) = 0.40840 0.03509
# Poissons Ratio (y) = 0.20589 0.05783
# Poissons Ratio (z) = 0.01762 0.05761
#
# Static dielectric constant tensor:
#      x y z
#    x 1.958670 0.000000 0.060770 
#    y 0.000000 1.848830 0.000000 
#    z 0.060770 0.000000 1.925730 
# 
# From -- ./inp_files/48154.got.cif
#   From: 2010.05.17/outbox.cif.g08.bks.cpg/sg14_25_cif.got.tgz:48154.got - 2010.06.03 17:49:19.
