data_PCOD9249505
_publ_section_title
;
Structure prediction by ZEFSAII (Michael W. Deem and Ramdas Pophale) SiO2 
 PCOD9249505
Probable space group: P 21/C
;
_chemical_formula_sum "Si O2"
_cell_formula_units_Z 20
_cell_length_a 9.755605
_cell_length_b 5.223074
_cell_length_c 15.286245
_cell_angle_alpha 90.000000
_cell_angle_beta 61.698945
_cell_angle_gamma 90.000000
_cell_volume 685.796219
_symmetry_space_group_name_H-M "P 21/C"
_symmetry_group_IT_number 14
_symmetry_cell_setting 'monoclinic'
loop_
_space_group_symop_operation_xyz
x,y,z
-x,1/2+y,1/2-z
-x,-y,-z
x,1/2-y,1/2+z
loop_
_atom_site_type_symbol
_atom_site_label
_atom_site_fract_x
_atom_site_fract_y
_atom_site_fract_z
Si Si1 0.644847 0.300180 0.583925
Si Si2 0.887917 0.652564 0.458816
Si Si3 0.092295 0.771494 0.753785
Si Si4 0.707736 0.796182 0.664555
Si Si5 0.329940 0.124480 0.626903
O O1 0.192509 0.628008 0.512056
O O2 0.613493 0.562732 0.646789
O O3 0.507587 0.211298 0.560947
O O4 0.649470 0.067805 0.649831
O O5 0.056689 0.700145 0.367442
O O6 0.868982 0.760843 0.561913
O O7 0.767822 0.792947 0.428432
O O8 0.983491 0.008036 0.753617
O O9 0.265317 0.841675 0.671521
O O10 0.711569 0.762348 0.766881
#
# Coordination Sequence:
#
# PCOD9249505 Si02
#       5
#     4   4   4   4   4
#     4  10  23  42  62  97 129 160 215 263 307 378
#     4   9  24  43  64  94 132 162 217 257 313 377
#     4  10  24  41  64  93 128 167 216 258 308 382
#     4  10  24  40  65  95 131 159 214 265 306 380
#     4  11  22  43  68  93 126 177 203 262 327 362
#
# _framework density 29.163184999999999
#
# number of rings (size 3 to 8) (size 9 to 14) (size 15 to 20)
#    1.200    0.800    0.000    1.800    5.600    8.000 
#    0.000    1.000    0.000    0.000    0.000    0.000 
#    0.000    0.000    0.000    0.000    0.000    0.000 
#
# Total GULP energy -111909.782073 kJ/mol
# GULP energy per Si atom -5595.489104 kJ/mol
# Density = 2.909681 g / cm^3
# Si number density = 29.163185 Si / 1000 Ang^3
#
#
#
# Elastic Constant Matrix: (Units=GPa)
#
#
# Indices 1 2 3 4 5 6 
#
# 1 141.7900 37.8126 9.8625 0.0000 -4.1196 0.0000
# 2 37.8126 180.9995 6.2374 0.0000 14.1794 0.0000
# 3 9.8625 6.2374 131.3752 0.0000 -5.4672 0.0000
# 4 0.0000 0.0000 0.0000 31.5151 0.0000 28.8376
# 5 -4.1196 14.1794 -5.4672 0.0000 59.2295 0.0000
# 6 0.0000 0.0000 0.0000 28.8376 0.0000 46.1019
#
#
#
# Elastic Compliance Matrix: (Units=1/GPa)
#
#
# Indices 1 2 3 4 5 6 
#
# 1 0.007544 -0.001629 -0.000453 0.000000 0.000873 0.000000
# 2 -0.001629 0.005996 -0.000228 0.000000 -0.001570 0.000000
# 3 -0.000453 -0.000228 0.007687 0.000000 0.000733 0.000000
# 4 0.000000 0.000000 0.000000 0.074203 0.000000 -0.046415
# 5 0.000873 -0.001570 0.000733 0.000000 0.017388 0.000000
# 6 0.000000 0.000000 0.000000 -0.046415 0.000000 0.050725
#
#
# Mechanical properties :
#
#
# Convention : Reuss Voigt Hill
#
# Bulk Modulus (GPa) = 60.20987 62.44332 61.32659
# Shear Modulus (GPa) = 28.78581 54.05276 41.41929
#
# Velocity S-wave (km/s) = 3.14516 4.30985 3.77272
# Velocity P-wave (km/s) = 5.82066 6.79887 6.32869
#
# Compressibility (1/GPa) = 0.01660857
#
# Stress axis : x y z
#
# Youngs Moduli (GPa) = 132.55755 166.77887 130.08858
#
# Poissons Ratio (x) = 0.27165 0.05889
# Poissons Ratio (y) = 0.21591 0.02962
# Poissons Ratio (z) = 0.06001 0.03798
#
# Static dielectric constant tensor:
#      x y z
#    x 2.352250 0.000000 -0.091430 
#    y 0.000000 2.349680 0.000000 
#    z -0.091430 0.000000 2.340570 
# 
# From -- ./inp_files/56334.got.cif
#   From: 2010.05.17/outbox.cif.g08.bks.cpg/sg14_29_cif.got.tgz:56334.got - 2010.06.03 17:49:19.
