data_PCOD9249205
_publ_section_title
;
Structure prediction by ZEFSAII (Michael W. Deem and Ramdas Pophale) SiO2 
 PCOD9249205
Probable space group: P 21/C
;
_chemical_formula_sum "Si O2"
_cell_formula_units_Z 24
_cell_length_a 13.848187
_cell_length_b 4.629841
_cell_length_c 27.739589
_cell_angle_alpha 90.000000
_cell_angle_beta 27.611935
_cell_angle_gamma 90.000000
_cell_volume 824.310065
_symmetry_space_group_name_H-M "P 21/C"
_symmetry_group_IT_number 14
_symmetry_cell_setting 'monoclinic'
loop_
_space_group_symop_operation_xyz
x,y,z
-x,1/2+y,1/2-z
-x,-y,-z
x,1/2-y,1/2+z
loop_
_atom_site_type_symbol
_atom_site_label
_atom_site_fract_x
_atom_site_fract_y
_atom_site_fract_z
Si Si1 0.920587 0.744240 0.654094
Si Si2 0.463145 0.007421 0.072371
Si Si3 0.369741 0.025853 0.446696
Si Si4 0.451900 0.631178 0.710760
Si Si5 0.182112 0.207395 0.400905
Si Si6 0.927458 0.091894 0.251694
O O1 0.952257 0.561400 0.688776
O O2 0.721894 0.965644 0.745257
O O3 0.877645 0.604241 0.620152
O O4 0.134914 0.915852 0.549062
O O5 0.093436 0.327958 0.200291
O O6 0.636015 0.838331 0.026949
O O7 0.739026 0.186624 0.831910
O O8 0.500000 0.000000 0.000000
O O9 0.503935 0.071289 0.338463
O O10 0.503756 0.824990 0.422444
O O11 0.355510 0.519171 0.803805
O O12 0.700374 0.591000 0.612450
O O13 0.000000 0.000000 0.500000
#
# Coordination Sequence:
#
# PCOD9249205 Si02
#       6
#     4   4   4   4   4   4
#     4  10  27  53  89 139 185 245 311 387 483 547
#     4  12  30  56  88 126 181 241 313 385 471 555
#     4  12  27  56  85 135 186 241 305 394 467 572
#     4  10  24  49  89 136 185 252 307 390 477 560
#     4  10  22  52  90 136 188 247 318 391 473 564
#     4  12  29  57  94 137 183 246 313 386 475 575
#
# _framework density 29.115254
#
# number of rings (size 3 to 8) (size 9 to 14) (size 15 to 20)
#    1.000    0.000    1.667    2.500    4.667    6.667 
#    6.000    1.667    0.000    2.000    0.000    1.167 
#    0.000    0.000    0.000    0.000    0.000    0.000 
#
# Total GULP energy -134066.901912 kJ/mol
# GULP energy per Si atom -5586.120913 kJ/mol
# Density = 2.904899 g / cm^3
# Si number density = 29.115254 Si / 1000 Ang^3
#
#
#
# Elastic Constant Matrix: (Units=GPa)
#
#
# Indices 1 2 3 4 5 6 
#
# 1 194.3530 39.0240 56.5057 0.0000 6.7044 0.0000
# 2 39.0240 108.1565 44.5466 0.0000 0.2596 0.0000
# 3 56.5057 44.5466 175.1498 0.0000 -5.3142 0.0000
# 4 0.0000 0.0000 0.0000 59.2376 0.0000 0.2975
# 5 6.7044 0.2596 -5.3142 0.0000 48.5419 0.0000
# 6 0.0000 0.0000 0.0000 0.2975 0.0000 51.7738
#
#
#
# Elastic Compliance Matrix: (Units=1/GPa)
#
#
# Indices 1 2 3 4 5 6 
#
# 1 0.005934 -0.001494 -0.001564 0.000000 -0.000983 0.000000
# 2 -0.001494 0.010710 -0.002245 0.000000 -0.000097 0.000000
# 3 -0.001564 -0.002245 0.006814 0.000000 0.000974 0.000000
# 4 0.000000 0.000000 0.000000 0.016882 0.000000 -0.000097
# 5 -0.000983 -0.000097 0.000974 0.000000 0.020844 0.000000
# 6 0.000000 0.000000 0.000000 -0.000097 0.000000 0.019315
#
#
# Mechanical properties :
#
#
# Convention : Reuss Voigt Hill
#
# Bulk Modulus (GPa) = 77.81032 84.20133 81.00582
# Shear Modulus (GPa) = 52.41674 54.41620 53.41647
#
# Velocity S-wave (km/s) = 4.24762 4.32787 4.28793
# Velocity P-wave (km/s) = 7.13017 7.34553 7.23865
#
# Compressibility (1/GPa) = 0.01285177
#
# Stress axis : x y z
#
# Youngs Moduli (GPa) = 168.52037 93.37214 146.74694
#
# Poissons Ratio (x) = 0.13954 0.22953
# Poissons Ratio (y) = 0.25185 0.32940
# Poissons Ratio (z) = 0.26358 0.20959
#
# Static dielectric constant tensor:
#      x y z
#    x 2.429790 0.000000 -0.060080 
#    y 0.000000 2.277180 0.000000 
#    z -0.060080 0.000000 2.375370 
# 
# From -- ./inp_files/80185.got.cif
#   From: 2010.05.17/outbox.cif.g08.bks.cpg/sg14_41_cif.got.tgz:80185.got - 2010.06.03 17:49:19.
