data_PCOD9249359
_publ_section_title
;
Structure prediction by ZEFSAII (Michael W. Deem and Ramdas Pophale) SiO2 
 PCOD9249359
Probable space group: P 21/C
;
_chemical_formula_sum "Si O2"
_cell_formula_units_Z 28
_cell_length_a 11.599345
_cell_length_b 5.396790
_cell_length_c 19.804259
_cell_angle_alpha 90.000000
_cell_angle_beta 121.394114
_cell_angle_gamma 90.000000
_cell_volume 1058.240028
_symmetry_space_group_name_H-M "P 21/C"
_symmetry_group_IT_number 14
_symmetry_cell_setting 'monoclinic'
loop_
_space_group_symop_operation_xyz
x,y,z
-x,1/2+y,1/2-z
-x,-y,-z
x,1/2-y,1/2+z
loop_
_atom_site_type_symbol
_atom_site_label
_atom_site_fract_x
_atom_site_fract_y
_atom_site_fract_z
Si Si1 0.306757 0.264656 0.925272
Si Si2 0.724694 0.284468 0.414562
Si Si3 0.802175 0.106070 0.202784
Si Si4 0.054629 0.581213 0.862555
Si Si5 0.837594 0.729321 0.894754
Si Si6 0.355613 0.541273 0.745306
Si Si7 0.465201 0.042159 0.576960
O O1 0.306263 0.080495 0.861881
O O2 0.155194 0.346847 0.898143
O O3 0.398790 0.485505 0.922243
O O4 0.388127 0.227933 0.019643
O O5 0.817393 0.531184 0.437138
O O6 0.621820 0.343719 0.321315
O O7 0.802930 0.033885 0.416777
O O8 0.640289 0.187619 0.452689
O O9 0.727968 0.706912 0.301040
O O10 0.929937 0.979036 0.276023
O O11 0.856875 0.226344 0.151121
O O12 0.985214 0.695537 0.907249
O O13 0.750266 0.202925 0.742914
O O14 0.486187 0.569166 0.831673
#
# Coordination Sequence:
#
# PCOD9249359 Si02
#       7
#     4   4   4   4   4   4   4
#     4  11  27  43  68 104 143 194 232 300 380 425
#     4  10  25  44  72 105 139 191 239 299 358 426
#     4  12  22  39  73 103 137 182 244 303 360 420
#     4  12  21  41  69 105 138 177 248 308 355 427
#     4  10  23  42  72 109 134 180 248 298 361 412
#     4  10  23  40  70 109 133 193 238 300 358 424
#     4  11  25  49  62 102 153 186 241 292 367 453
#
# _framework density 26.459028
#
# number of rings (size 3 to 8) (size 9 to 14) (size 15 to 20)
#    0.857    0.286    4.286    1.714    4.000    1.714 
#    2.571    1.429    0.000    0.000    0.000    0.000 
#    0.000    0.000    0.000    0.000    0.000    0.000 
#
# Total GULP energy -156403.161545 kJ/mol
# GULP energy per Si atom -5585.827198 kJ/mol
# Density = 2.639881 g / cm^3
# Si number density = 26.459028 Si / 1000 Ang^3
#
#
#
# Elastic Constant Matrix: (Units=GPa)
#
#
# Indices 1 2 3 4 5 6 
#
# 1 125.0766 30.5340 1.5749 0.0000 -17.4498 0.0000
# 2 30.5340 108.3928 18.5503 0.0000 -1.8957 0.0000
# 3 1.5749 18.5503 84.6899 0.0000 4.5323 0.0000
# 4 0.0000 0.0000 0.0000 26.5390 0.0000 -8.4297
# 5 -17.4498 -1.8957 4.5323 0.0000 27.7734 0.0000
# 6 0.0000 0.0000 0.0000 -8.4297 0.0000 24.3975
#
#
#
# Elastic Compliance Matrix: (Units=1/GPa)
#
#
# Indices 1 2 3 4 5 6 
#
# 1 0.009420 -0.002567 0.000080 0.000000 0.005730 0.000000
# 2 -0.002567 0.010313 -0.002182 0.000000 -0.000553 0.000000
# 3 0.000080 -0.002182 0.012398 0.000000 -0.002121 0.000000
# 4 0.000000 0.000000 0.000000 0.042326 0.000000 0.014624
# 5 0.005730 -0.000553 -0.002121 0.000000 0.039915 0.000000
# 6 0.000000 0.000000 0.000000 0.014624 0.000000 0.046041
#
#
# Mechanical properties :
#
#
# Convention : Reuss Voigt Hill
#
# Bulk Modulus (GPa) = 43.87127 46.60865 45.23996
# Shear Modulus (GPa) = 28.19352 33.57531 30.88441
#
# Velocity S-wave (km/s) = 3.26782 3.56610 3.42022
# Velocity P-wave (km/s) = 5.55473 5.88301 5.72122
#
# Compressibility (1/GPa) = 0.02279396
#
# Stress axis : x y z
#
# Youngs Moduli (GPa) = 106.15419 96.96918 80.66046
#
# Poissons Ratio (x) = 0.24894 -0.00649
# Poissons Ratio (y) = 0.27252 0.17596
# Poissons Ratio (z) = -0.00854 0.21154
#
# Static dielectric constant tensor:
#      x y z
#    x 2.060410 0.000000 -0.016580 
#    y 0.000000 2.163140 0.000000 
#    z -0.016580 0.000000 2.196410 
# 
# From -- ./inp_files/66559.got.cif
#   From: 2010.05.17/outbox.cif.g08.bks.cpg/sg14_34_cif.got.tgz:66559.got - 2010.06.03 17:49:19.
