data_PCOD9249312
_publ_section_title
;
Structure prediction by ZEFSAII (Michael W. Deem and Ramdas Pophale) SiO2 
 PCOD9249312
Probable space group: P 21/C
;
_chemical_formula_sum "Si O2"
_cell_formula_units_Z 20
_cell_length_a 13.714058
_cell_length_b 5.634182
_cell_length_c 20.798269
_cell_angle_alpha 90.000000
_cell_angle_beta 29.218912
_cell_angle_gamma 90.000000
_cell_volume 784.468210
_symmetry_space_group_name_H-M "P 21/C"
_symmetry_group_IT_number 14
_symmetry_cell_setting 'monoclinic'
loop_
_space_group_symop_operation_xyz
x,y,z
-x,1/2+y,1/2-z
-x,-y,-z
x,1/2-y,1/2+z
loop_
_atom_site_type_symbol
_atom_site_label
_atom_site_fract_x
_atom_site_fract_y
_atom_site_fract_z
Si Si1 0.931353 0.775897 0.115937
Si Si2 0.681073 0.258259 0.955713
Si Si3 0.273402 0.665653 0.328930
Si Si4 0.489009 0.073638 0.186096
Si Si5 0.764619 0.758107 0.848887
O O1 0.731176 0.681797 0.196078
O O2 0.911052 0.733660 0.202849
O O3 0.888951 0.053506 0.125629
O O4 0.126286 0.702814 0.964692
O O5 0.777875 0.509379 0.880188
O O6 0.780422 0.010826 0.875557
O O7 0.634798 0.219184 0.057236
O O8 0.459329 0.253167 0.051773
O O9 0.417863 0.534488 0.297328
O O10 0.433131 0.808749 0.194365
#
# Coordination Sequence:
#
# PCOD9249312 Si02
#       5
#     4   4   4   4   4
#     4  10  23  40  63  87 128 161 211 258 315 378
#     4   9  20  34  63  89 122 162 213 254 317 370
#     4  11  23  40  60  95 122 167 207 257 321 373
#     4  11  22  39  64  90 126 164 207 263 309 386
#     4   9  19  37  59  92 119 165 208 261 311 375
#
# _framework density 25.494978
#
# number of rings (size 3 to 8) (size 9 to 14) (size 15 to 20)
#    0.000    2.000    2.000    0.600   14.000    0.000 
#    0.000    2.000    0.000    0.000    0.000    0.000 
#    0.000    0.000    0.000    0.000    0.000    0.000 
#
# Total GULP energy -111462.236113 kJ/mol
# GULP energy per Si atom -5573.111806 kJ/mol
# Density = 2.543695 g / cm^3
# Si number density = 25.494978 Si / 1000 Ang^3
#
#
#
# Elastic Constant Matrix: (Units=GPa)
#
#
# Indices 1 2 3 4 5 6 
#
# 1 77.4684 25.3541 20.2365 0.0000 4.2947 0.0000
# 2 25.3541 112.5105 47.0466 0.0000 26.0924 0.0000
# 3 20.2365 47.0466 112.3491 0.0000 -12.6644 0.0000
# 4 0.0000 0.0000 0.0000 28.0941 0.0000 11.7398
# 5 4.2947 26.0924 -12.6644 0.0000 33.0253 0.0000
# 6 0.0000 0.0000 0.0000 11.7398 0.0000 5.3835
#
#
#
# Elastic Compliance Matrix: (Units=1/GPa)
#
#
# Indices 1 2 3 4 5 6 
#
# 1 0.014141 -0.002374 -0.001618 0.000000 -0.000584 0.000000
# 2 -0.002374 0.016629 -0.008342 0.000000 -0.016028 0.000000
# 3 -0.001618 -0.008342 0.014060 0.000000 0.012193 0.000000
# 4 0.000000 0.000000 0.000000 0.401096 0.000000 -0.874670
# 5 -0.000584 -0.016028 0.012193 0.000000 0.047695 0.000000
# 6 0.000000 0.000000 0.000000 -0.874670 0.000000 2.093145
#
#
# Mechanical properties :
#
#
# Convention : Reuss Voigt Hill
#
# Bulk Modulus (GPa) = 49.60586 54.17804 51.89195
# Shear Modulus (GPa) = 1.90974 27.27997 14.59486
#
# Velocity S-wave (km/s) = 0.86642 3.27465 2.39521
# Velocity P-wave (km/s) = 4.52772 5.96611 5.29597
#
# Compressibility (1/GPa) = 0.02015891
#
# Stress axis : x y z
#
# Youngs Moduli (GPa) = 70.71759 60.13719 71.12267
#
# Poissons Ratio (x) = 0.14280 0.11511
# Poissons Ratio (y) = 0.16792 0.59333
# Poissons Ratio (z) = 0.11446 0.50169
#
# Static dielectric constant tensor:
#      x y z
#    x 1.915360 0.000000 0.004800 
#    y 0.000000 2.824470 0.000000 
#    z 0.004800 0.000000 1.953290 
# 
# From -- ./inp_files/67780.got.cif
#   From: 2010.05.17/outbox.cif.g08.bks.cpg/sg14_34_cif.got.tgz:67780.got - 2010.06.03 17:49:19.
