data_PCOD9249298
_publ_section_title
;
Structure prediction by ZEFSAII (Michael W. Deem and Ramdas Pophale) SiO2 
 PCOD9249298
Probable space group: P 21/C
;
_chemical_formula_sum "Si O2"
_cell_formula_units_Z 24
_cell_length_a 4.916771
_cell_length_b 11.289275
_cell_length_c 22.935958
_cell_angle_alpha 90.000000
_cell_angle_beta 115.607960
_cell_angle_gamma 90.000000
_cell_volume 1148.047613
_symmetry_space_group_name_H-M "P 21/C"
_symmetry_group_IT_number 14
_symmetry_cell_setting 'monoclinic'
loop_
_space_group_symop_operation_xyz
x,y,z
-x,1/2+y,1/2-z
-x,-y,-z
x,1/2-y,1/2+z
loop_
_atom_site_type_symbol
_atom_site_label
_atom_site_fract_x
_atom_site_fract_y
_atom_site_fract_z
Si Si1 0.952574 0.416749 0.069015
Si Si2 0.786887 0.074235 0.805468
Si Si3 0.155789 0.204216 0.306027
Si Si4 0.655788 0.704213 0.806026
Si Si5 0.547427 0.083253 0.430985
Si Si6 0.286887 0.574238 0.305468
O O1 0.757793 0.529860 0.070699
O O2 0.053690 0.337103 0.132015
O O3 0.257794 0.470142 0.070699
O O4 0.750002 0.356852 0.000000
O O5 0.583934 0.098388 0.728478
O O6 0.976861 0.194810 0.825138
O O7 0.529388 0.031194 0.825263
O O8 0.029388 0.968803 0.825263
O O9 0.250001 0.250001 0.250000
O O10 0.446310 0.162900 0.367985
O O11 0.916066 0.098391 0.271522
O O12 0.476861 0.805187 0.825137
#
# Coordination Sequence:
#
# PCOD9249298 Si02
#       6
#     4   4   4   4   4   4
#     4  10  23  40  61  88 122 156 192 244 301 357
#     4  11  22  35  52  84 119 149 188 243 296 344
#     4  11  23  35  61  90 115 159 196 251 293 347
#     4  11  23  35  61  90 115 159 196 251 293 347
#     4  10  23  40  61  88 122 156 192 244 301 357
#     4  11  22  35  52  84 119 149 188 243 296 344
#
# _framework density 20.905058
#
# number of rings (size 3 to 8) (size 9 to 14) (size 15 to 20)
#    0.000    1.333    3.333    2.000    9.333    0.000 
#    0.000    0.000    0.000    2.000    0.000    0.000 
#    0.000    0.000    0.000    0.000    0.000    0.000 
#
# Total GULP energy -133799.952912 kJ/mol
# GULP energy per Si atom -5574.998038 kJ/mol
# Density = 2.085748 g / cm^3
# Si number density = 20.905058 Si / 1000 Ang^3
#
#
#
# Elastic Constant Matrix: (Units=GPa)
#
#
# Indices 1 2 3 4 5 6 
#
# 1 92.4688 20.2860 19.6627 0.0000 8.8305 0.0000
# 2 20.2860 35.4211 32.3585 0.0000 6.1681 0.0000
# 3 19.6627 32.3585 159.3404 0.0000 19.1742 0.0000
# 4 0.0000 0.0000 0.0000 32.2431 0.0000 7.1718
# 5 8.8305 6.1681 19.1742 0.0000 25.9791 0.0000
# 6 0.0000 0.0000 0.0000 7.1718 0.0000 27.2113
#
#
#
# Elastic Compliance Matrix: (Units=1/GPa)
#
#
# Indices 1 2 3 4 5 6 
#
# 1 0.012547 -0.006868 0.000179 0.000000 -0.002767 0.000000
# 2 -0.006868 0.038686 -0.006787 0.000000 -0.001841 0.000000
# 3 0.000179 -0.006787 0.008171 0.000000 -0.004480 0.000000
# 4 0.000000 0.000000 0.000000 0.032946 0.000000 -0.008683
# 5 -0.002767 -0.001841 -0.004480 0.000000 0.043177 0.000000
# 6 0.000000 0.000000 0.000000 -0.008683 0.000000 0.039038
#
#
# Mechanical properties :
#
#
# Convention : Reuss Voigt Hill
#
# Bulk Modulus (GPa) = 30.81392 47.98274 39.39833
# Shear Modulus (GPa) = 23.54776 31.41490 27.48133
#
# Velocity S-wave (km/s) = 3.35985 3.88073 3.62964
# Velocity P-wave (km/s) = 5.46108 6.56373 6.03763
#
# Compressibility (1/GPa) = 0.03245286
#
# Stress axis : x y z
#
# Youngs Moduli (GPa) = 79.69882 25.84906 122.38071
#
# Poissons Ratio (x) = 0.17753 -0.02194
# Poissons Ratio (y) = 0.54737 0.83062
# Poissons Ratio (z) = -0.01429 0.17544
#
# Static dielectric constant tensor:
#      x y z
#    x 1.794970 0.000000 -0.019110 
#    y 0.000000 1.825760 0.000000 
#    z -0.019110 0.000000 1.775600 
# 
# From -- ./inp_files/71289.got.cif
#   From: 2010.05.17/outbox.cif.g08.bks.cpg/sg14_36_cif.got.tgz:71289.got - 2010.06.03 17:49:19.
