data_PCOD9249748
_publ_section_title
;
Structure prediction by ZEFSAII (Michael W. Deem and Ramdas Pophale) SiO2 
 PCOD9249748
Probable space group: P 21/C
;
_chemical_formula_sum "Si O2"
_cell_formula_units_Z 28
_cell_length_a 8.386743
_cell_length_b 9.210080
_cell_length_c 19.131403
_cell_angle_alpha 90.000000
_cell_angle_beta 129.939643
_cell_angle_gamma 90.000000
_cell_volume 1133.028933
_symmetry_space_group_name_H-M "P 21/C"
_symmetry_group_IT_number 14
_symmetry_cell_setting 'monoclinic'
loop_
_space_group_symop_operation_xyz
x,y,z
-x,1/2+y,1/2-z
-x,-y,-z
x,1/2-y,1/2+z
loop_
_atom_site_type_symbol
_atom_site_label
_atom_site_fract_x
_atom_site_fract_y
_atom_site_fract_z
Si Si1 0.668448 0.451170 0.781457
Si Si2 0.162006 0.595018 0.504416
Si Si3 0.893655 0.920357 0.536242
Si Si4 0.426963 0.326588 0.586006
Si Si5 0.591020 0.365859 0.909930
Si Si6 0.150406 0.650999 0.350106
Si Si7 0.779141 0.835962 0.197207
O O1 0.528359 0.349859 0.691461
O O2 0.567201 0.454660 0.830300
O O3 0.689417 0.604147 0.746351
O O4 0.912264 0.403011 0.857045
O O5 0.351238 0.486259 0.541919
O O6 0.253610 0.734398 0.567867
O O7 0.070236 0.648093 0.406173
O O8 0.000000 0.500000 0.500000
O O9 0.769948 0.777307 0.478275
O O10 0.708245 0.034825 0.499509
O O11 0.000000 0.000000 0.500000
O O12 0.619879 0.282743 0.592250
O O13 0.386199 0.282114 0.876861
O O14 0.175618 0.484758 0.331491
O O15 0.991349 0.748924 0.263769
#
# Coordination Sequence:
#
# PCOD9249748 Si02
#       7
#     4   4   4   4   4   4   4
#     4  10  23  45  71 105 153 190 259 307 373 452
#     4  12  25  46  76 108 140 203 251 319 379 456
#     4  10  23  43  68 110 148 193 251 316 370 454
#     4  11  25  46  74 104 152 201 247 311 388 448
#     4  11  24  42  74 107 151 188 253 320 376 445
#     4  11  27  49  75 108 158 193 263 308 390 467
#     4  11  26  47  74 115 148 211 250 317 385 461
#
# _framework density 24.712519
#
# number of rings (size 3 to 8) (size 9 to 14) (size 15 to 20)
#    0.000    1.143    2.857    3.000    8.000    4.571 
#    0.000    1.429    0.000    0.000    0.000    0.000 
#    0.000    0.000    0.000    0.000    0.000    0.000 
#
# Total GULP energy -156550.020826 kJ/mol
# GULP energy per Si atom -5591.072172 kJ/mol
# Density = 2.465627 g / cm^3
# Si number density = 24.712519 Si / 1000 Ang^3
#
#
#
# Elastic Constant Matrix: (Units=GPa)
#
#
# Indices 1 2 3 4 5 6 
#
# 1 47.8371 4.8347 6.2549 0.0000 11.3311 0.0000
# 2 4.8347 96.6755 34.0096 0.0000 22.5509 0.0000
# 3 6.2549 34.0096 117.0124 0.0000 25.8687 0.0000
# 4 0.0000 0.0000 0.0000 48.3099 0.0000 17.6093
# 5 11.3311 22.5509 25.8687 0.0000 45.8870 0.0000
# 6 0.0000 0.0000 0.0000 17.6093 0.0000 49.1890
#
#
#
# Elastic Compliance Matrix: (Units=1/GPa)
#
#
# Indices 1 2 3 4 5 6 
#
# 1 0.022206 0.000193 -0.000011 0.000000 -0.005572 0.000000
# 2 0.000193 0.012322 -0.002562 0.000000 -0.004659 0.000000
# 3 -0.000011 -0.002562 0.010295 0.000000 -0.004542 0.000000
# 4 0.000000 0.000000 0.000000 0.023806 0.000000 -0.008522
# 5 -0.005572 -0.004659 -0.004542 0.000000 0.028019 0.000000
# 6 0.000000 0.000000 0.000000 -0.008522 0.000000 0.023381
#
#
# Mechanical properties :
#
#
# Convention : Reuss Voigt Hill
#
# Bulk Modulus (GPa) = 24.96003 39.08038 32.02021
# Shear Modulus (GPa) = 36.19409 43.10557 39.64983
#
# Velocity S-wave (km/s) = 3.83117 4.18099 4.00990
# Velocity P-wave (km/s) = 5.44909 6.25747 5.86722
#
# Compressibility (1/GPa) = 0.04006406
#
# Stress axis : x y z
#
# Youngs Moduli (GPa) = 45.03277 81.15407 97.13001
#
# Poissons Ratio (x) = -0.01568 0.00110
# Poissons Ratio (y) = -0.00870 0.24882
# Poissons Ratio (z) = 0.00051 0.20790
#
# Static dielectric constant tensor:
#      x y z
#    x 2.020590 0.000000 -0.012560 
#    y 0.000000 1.971900 0.000000 
#    z -0.012560 0.000000 2.015940 
# 
# From -- ./inp_files/65021.got.cif
#   From: 2010.05.17/outbox.cif.g08.bks.cpg/sg14_33_cif.got.tgz:65021.got - 2010.06.03 17:49:19.
