data_PCOD9249255
_publ_section_title
;
Structure prediction by ZEFSAII (Michael W. Deem and Ramdas Pophale) SiO2 
 PCOD9249255
Probable space group: P 21/C
;
_chemical_formula_sum "Si O2"
_cell_formula_units_Z 16
_cell_length_a 6.446977
_cell_length_b 8.887418
_cell_length_c 11.419811
_cell_angle_alpha 90.000000
_cell_angle_beta 104.288766
_cell_angle_gamma 90.000000
_cell_volume 634.078704
_symmetry_space_group_name_H-M "P 21/C"
_symmetry_group_IT_number 14
_symmetry_cell_setting 'monoclinic'
loop_
_space_group_symop_operation_xyz
x,y,z
-x,1/2+y,1/2-z
-x,-y,-z
x,1/2-y,1/2+z
loop_
_atom_site_type_symbol
_atom_site_label
_atom_site_fract_x
_atom_site_fract_y
_atom_site_fract_z
Si Si1 0.396193 0.738039 0.966636
Si Si2 0.289227 0.048286 0.608720
Si Si3 0.950187 0.447777 0.692430
Si Si4 0.844583 0.741201 0.604044
O O1 0.495176 0.649563 0.867062
O O2 0.202918 0.841207 0.903097
O O3 0.340392 0.605794 0.048901
O O4 0.603742 0.819629 0.050952
O O5 0.134491 0.147412 0.503438
O O6 0.187739 0.012367 0.717805
O O7 0.005358 0.601152 0.632501
O O8 0.130689 0.345823 0.777958
#
# Coordination Sequence:
#
# PCOD9249255 Si02
#       4
#     4   4   4   4
#     4   9  22  41  61  93 126 154 216 251 292 383
#     4   9  22  41  63  88 129 154 211 252 303 360
#     4  12  22  41  68  85 130 170 191 259 322 338
#     4  10  23  39  60  96 122 158 215 247 292 388
#
# _framework density 25.233461999999999
#
# number of rings (size 3 to 8) (size 9 to 14) (size 15 to 20)
#    1.500    0.500    0.000    3.000    3.500    0.000 
#    0.000    5.000    0.000    0.000    0.000    0.000 
#    0.000    0.000    0.000    0.000    0.000    0.000 
#
# Total GULP energy -89438.513627 kJ/mol
# GULP energy per Si atom -5589.907102 kJ/mol
# Density = 2.517603 g / cm^3
# Si number density = 25.233462 Si / 1000 Ang^3
#
#
#
# Elastic Constant Matrix: (Units=GPa)
#
#
# Indices 1 2 3 4 5 6 
#
# 1 35.5923 -5.2660 21.8594 0.0000 -1.8140 0.0000
# 2 -5.2660 124.7323 48.2888 0.0000 7.2574 0.0000
# 3 21.8594 48.2888 111.2384 0.0000 16.4533 0.0000
# 4 0.0000 0.0000 0.0000 53.2121 0.0000 12.5599
# 5 -1.8140 7.2574 16.4533 0.0000 40.8833 0.0000
# 6 0.0000 0.0000 0.0000 12.5599 0.0000 24.0595
#
#
#
# Elastic Compliance Matrix: (Units=1/GPa)
#
#
# Indices 1 2 3 4 5 6 
#
# 1 0.035038 0.004977 -0.009724 0.000000 0.004584 0.000000
# 2 0.004977 0.010344 -0.005560 0.000000 0.000622 0.000000
# 3 -0.009724 -0.005560 0.014070 0.000000 -0.005107 0.000000
# 4 0.000000 0.000000 0.000000 0.021434 0.000000 -0.011189
# 5 0.004584 0.000622 -0.005107 0.000000 0.026608 0.000000
# 6 0.000000 0.000000 0.000000 -0.011189 0.000000 0.047405
#
#
# Mechanical properties :
#
#
# Convention : Reuss Voigt Hill
#
# Bulk Modulus (GPa) = 25.74871 44.59192 35.17031
# Shear Modulus (GPa) = 26.53116 37.40971 31.97044
#
# Velocity S-wave (km/s) = 3.24609 3.85456 3.56334
# Velocity P-wave (km/s) = 4.92705 6.12538 5.55860
#
# Compressibility (1/GPa) = 0.03883690
#
# Stress axis : x y z
#
# Youngs Moduli (GPa) = 28.54045 96.67728 71.07527
#
# Poissons Ratio (x) = -0.48116 0.69113
# Poissons Ratio (y) = -0.14205 0.39520
# Poissons Ratio (z) = 0.27752 0.53755
#
# Static dielectric constant tensor:
#      x y z
#    x 2.043020 0.000000 0.003760 
#    y 0.000000 2.007570 0.000000 
#    z 0.003760 0.000000 1.977850 
# 
# From -- ./inp_files/22629.got.cif
#   From: 2010.05.17/outbox.cif.g08.bks.cpg/sg14_12_cif.got.tgz:22629.got - 2010.06.03 17:49:19.
