data_PCOD9249177
_publ_section_title
;
Structure prediction by ZEFSAII (Michael W. Deem and Ramdas Pophale) SiO2 
 PCOD9249177
Probable space group: P 21/C
;
_chemical_formula_sum "Si O2"
_cell_formula_units_Z 32
_cell_length_a 15.038031
_cell_length_b 13.074144
_cell_length_c 14.848213
_cell_angle_alpha 90.000000
_cell_angle_beta 152.841524
_cell_angle_gamma 90.000000
_cell_volume 1332.522969
_symmetry_space_group_name_H-M "P 21/C"
_symmetry_group_IT_number 14
_symmetry_cell_setting 'monoclinic'
loop_
_space_group_symop_operation_xyz
x,y,z
-x,1/2+y,1/2-z
-x,-y,-z
x,1/2-y,1/2+z
loop_
_atom_site_type_symbol
_atom_site_label
_atom_site_fract_x
_atom_site_fract_y
_atom_site_fract_z
Si Si1 0.836421 0.586067 0.028554
Si Si2 0.411398 0.572289 0.565339
Si Si3 0.922967 0.519714 0.303908
Si Si4 0.257219 0.615629 0.721799
Si Si5 0.582762 0.232786 0.789583
Si Si6 0.854659 0.180160 0.291921
Si Si7 0.784696 0.867986 0.034554
Si Si8 0.055316 0.632336 0.932257
O O1 0.637036 0.582298 0.793502
O O2 0.831102 0.564547 0.130178
O O3 0.949685 0.487095 0.092916
O O4 0.977430 0.678837 0.131334
O O5 0.328700 0.665720 0.550802
O O6 0.321578 0.600955 0.387907
O O7 0.335772 0.465510 0.534732
O O8 0.758178 0.481699 0.225942
O O9 0.066937 0.597094 0.486309
O O10 0.065458 0.423899 0.400541
O O11 0.420809 0.653604 0.798482
O O12 0.235556 0.710344 0.769736
O O13 0.381536 0.285234 0.638841
O O14 0.733052 0.321408 0.899191
O O15 0.970992 0.151617 0.487217
O O16 0.901568 0.822287 0.224562
#
# Coordination Sequence:
#
# PCOD9249177 Si02
#       8
#     4   4   4   4   4   4   4   4
#     4  11  23  42  68  97 131 184 231 278 353 413
#     4  12  25  40  67 103 135 180 238 283 344 426
#     4  10  22  47  74  97 140 190 235 289 353 418
#     4  10  23  43  73 102 139 184 230 296 352 404
#     4  11  24  44  67 103 142 177 238 290 346 422
#     4  11  24  40  65  99 137 176 230 288 346 417
#     4  11  23  43  75  96 137 190 235 285 354 420
#     4  10  23  43  68  92 135 185 223 286 354 403
#
# _framework density 24.014595
#
# number of rings (size 3 to 8) (size 9 to 14) (size 15 to 20)
#    0.000    1.250    5.000    0.375    5.250    4.500 
#    0.000    0.625    5.500    0.000    0.000    0.000 
#    0.000    0.000    0.000    0.000    0.000    0.000 
#
# Total GULP energy -178634.899797 kJ/mol
# GULP energy per Si atom -5582.340619 kJ/mol
# Density = 2.395994 g / cm^3
# Si number density = 24.014595 Si / 1000 Ang^3
#
#
#
# Elastic Constant Matrix: (Units=GPa)
#
#
# Indices 1 2 3 4 5 6 
#
# 1 33.6077 11.7662 32.8412 0.0000 1.5195 0.0000
# 2 11.7662 54.0631 9.0497 0.0000 1.6828 0.0000
# 3 32.8412 9.0497 111.7408 0.0000 3.6679 0.0000
# 4 0.0000 0.0000 0.0000 29.6344 0.0000 -9.0472
# 5 1.5195 1.6828 3.6679 0.0000 33.8420 0.0000
# 6 0.0000 0.0000 0.0000 -9.0472 0.0000 39.7970
#
#
#
# Elastic Compliance Matrix: (Units=1/GPa)
#
#
# Indices 1 2 3 4 5 6 
#
# 1 0.044644 -0.007616 -0.012495 0.000000 -0.000272 0.000000
# 2 -0.007616 0.020070 0.000637 0.000000 -0.000725 0.000000
# 3 -0.012495 0.000637 0.012598 0.000000 -0.000836 0.000000
# 4 0.000000 0.000000 0.000000 0.036261 0.000000 0.008243
# 5 -0.000272 -0.000725 -0.000836 0.000000 0.029688 0.000000
# 6 0.000000 0.000000 0.000000 0.008243 0.000000 0.027002
#
#
# Mechanical properties :
#
#
# Convention : Reuss Voigt Hill
#
# Bulk Modulus (GPa) = 26.06705 34.08064 30.07385
# Shear Modulus (GPa) = 22.52247 30.37164 26.44705
#
# Velocity S-wave (km/s) = 3.06578 3.56014 3.32217
# Velocity P-wave (km/s) = 4.83841 5.57870 5.22169
#
# Compressibility (1/GPa) = 0.03836260
#
# Stress axis : x y z
#
# Youngs Moduli (GPa) = 22.39925 49.82440 79.37999
#
# Poissons Ratio (x) = 0.37947 0.99189
# Poissons Ratio (y) = 0.17060 -0.05055
# Poissons Ratio (z) = 0.27989 -0.03173
#
# Static dielectric constant tensor:
#      x y z
#    x 1.969080 0.000000 0.006030 
#    y 0.000000 1.989210 0.000000 
#    z 0.006030 0.000000 1.912120 
# 
# From -- ./inp_files/47431.got.cif
#   From: 2010.05.17/outbox.cif.g08.bks.cpg/sg14_24_cif.got.tgz:47431.got - 2010.06.03 17:49:19.
