data_PCOD9249180
_publ_section_title
;
Structure prediction by ZEFSAII (Michael W. Deem and Ramdas Pophale) SiO2 
 PCOD9249180
Probable space group: P 21/C
;
_chemical_formula_sum "Si O2"
_cell_formula_units_Z 20
_cell_length_a 19.378018
_cell_length_b 5.020715
_cell_length_c 14.590732
_cell_angle_alpha 90.000000
_cell_angle_beta 148.864097
_cell_angle_gamma 90.000000
_cell_volume 734.008631
_symmetry_space_group_name_H-M "P 21/C"
_symmetry_group_IT_number 14
_symmetry_cell_setting 'monoclinic'
loop_
_space_group_symop_operation_xyz
x,y,z
-x,1/2+y,1/2-z
-x,-y,-z
x,1/2-y,1/2+z
loop_
_atom_site_type_symbol
_atom_site_label
_atom_site_fract_x
_atom_site_fract_y
_atom_site_fract_z
Si Si1 0.902518 0.278260 0.931948
Si Si2 0.518162 0.827716 0.833358
Si Si3 0.265490 0.105915 0.615430
Si Si4 0.048125 0.488772 0.752181
Si Si5 0.653666 0.536645 0.139479
O O1 0.832622 0.432455 0.936046
O O2 0.765533 0.169564 0.728743
O O3 0.000000 0.500000 0.000000
O O4 0.994885 0.058263 0.089273
O O5 0.463540 0.555657 0.723481
O O6 0.594305 0.463744 0.732305
O O7 0.633635 0.749995 0.035532
O O8 0.198798 0.112163 0.440337
O O9 0.279576 0.369951 0.689710
O O10 0.029594 0.791090 0.764864
O O11 0.500000 0.500000 0.000000
#
# Coordination Sequence:
#
# PCOD9249180 Si02
#       5
#     4   4   4   4   4
#     4  11  26  49  82 121 165 220 281 354 433 528
#     4  12  29  49  80 127 166 225 291 367 434 525
#     4  11  25  50  83 111 166 217 282 354 434 515
#     4  10  22  47  77 111 157 213 269 339 422 504
#     4  12  25  52  84 118 167 225 290 353 442 523
#
# _framework density 27.247637000000001
#
# number of rings (size 3 to 8) (size 9 to 14) (size 15 to 20)
#    0.000    0.800    4.000    1.800    2.800    2.400 
#   18.000    0.000    0.000    0.000    0.000    0.000 
#    0.000    0.000    0.000    0.000    0.000    0.000 
#
# Total GULP energy -111756.118465 kJ/mol
# GULP energy per Si atom -5587.805923 kJ/mol
# Density = 2.718562 g / cm^3
# Si number density = 27.247637 Si / 1000 Ang^3
#
#
#
# Elastic Constant Matrix: (Units=GPa)
#
#
# Indices 1 2 3 4 5 6 
#
# 1 119.6027 27.3973 23.7046 0.0000 7.3527 0.0000
# 2 27.3973 128.3418 50.1395 0.0000 0.1662 0.0000
# 3 23.7046 50.1395 138.1539 0.0000 4.4912 0.0000
# 4 0.0000 0.0000 0.0000 61.2334 0.0000 -0.6327
# 5 7.3527 0.1662 4.4912 0.0000 44.4142 0.0000
# 6 0.0000 0.0000 0.0000 -0.6327 0.0000 34.3879
#
#
#
# Elastic Compliance Matrix: (Units=1/GPa)
#
#
# Indices 1 2 3 4 5 6 
#
# 1 0.008987 -0.001552 -0.000934 0.000000 -0.001388 0.000000
# 2 -0.001552 0.009351 -0.003145 0.000000 0.000540 0.000000
# 3 -0.000934 -0.003145 0.008563 0.000000 -0.000700 0.000000
# 4 0.000000 0.000000 0.000000 0.016334 0.000000 0.000301
# 5 -0.001388 0.000540 -0.000700 0.000000 0.022814 0.000000
# 6 0.000000 0.000000 0.000000 0.000301 0.000000 0.029086
#
#
# Mechanical properties :
#
#
# Convention : Reuss Voigt Hill
#
# Bulk Modulus (GPa) = 63.94105 65.39791 64.66948
# Shear Modulus (GPa) = 44.79972 46.99757 45.89864
#
# Velocity S-wave (km/s) = 4.05923 4.15761 4.10872
# Velocity P-wave (km/s) = 6.74444 6.86302 6.80399
#
# Compressibility (1/GPa) = 0.01563940
#
# Stress axis : x y z
#
# Youngs Moduli (GPa) = 111.27368 106.94126 116.78657
#
# Poissons Ratio (x) = 0.16596 0.10904
# Poissons Ratio (y) = 0.17268 0.36729
# Poissons Ratio (z) = 0.10389 0.33633
#
# Static dielectric constant tensor:
#      x y z
#    x 2.158660 0.000000 0.035360 
#    y 0.000000 2.177010 0.000000 
#    z 0.035360 0.000000 2.317860 
# 
# From -- ./inp_files/49769.got.cif
#   From: 2010.05.17/outbox.cif.g08.bks.cpg/sg14_25_cif.got.tgz:49769.got - 2010.06.03 17:49:19.
