data_PCOD9249178
_publ_section_title
;
Structure prediction by ZEFSAII (Michael W. Deem and Ramdas Pophale) SiO2 
 PCOD9249178
Probable space group: P 21/C
;
_chemical_formula_sum "Si O2"
_cell_formula_units_Z 24
_cell_length_a 7.077037
_cell_length_b 14.178307
_cell_length_c 9.711429
_cell_angle_alpha 90.000000
_cell_angle_beta 68.454134
_cell_angle_gamma 90.000000
_cell_volume 906.358008
_symmetry_space_group_name_H-M "P 21/C"
_symmetry_group_IT_number 14
_symmetry_cell_setting 'monoclinic'
loop_
_space_group_symop_operation_xyz
x,y,z
-x,1/2+y,1/2-z
-x,-y,-z
x,1/2-y,1/2+z
loop_
_atom_site_type_symbol
_atom_site_label
_atom_site_fract_x
_atom_site_fract_y
_atom_site_fract_z
Si Si1 0.238695 0.348364 0.393830
Si Si2 0.417140 0.522536 0.671825
Si Si3 0.737973 0.473594 0.916532
Si Si4 0.836892 0.340229 0.629061
Si Si5 0.071561 0.872597 0.364497
Si Si6 0.376944 0.319061 0.668532
O O1 0.391207 0.430875 0.304315
O O2 0.325725 0.318404 0.521106
O O3 0.010597 0.382546 0.483503
O O4 0.131036 0.069889 0.613347
O O5 0.500000 0.500000 0.500000
O O6 0.240639 0.597015 0.710098
O O7 0.326162 0.422844 0.744695
O O8 0.824329 0.412148 0.023054
O O9 0.735432 0.760863 0.214870
O O10 0.500000 0.500000 0.000000
O O11 0.792428 0.406886 0.771370
O O12 0.936238 0.239032 0.636506
O O13 0.619111 0.314066 0.623922
#
# Coordination Sequence:
#
# PCOD9249178 Si02
#       6
#     4   4   4   4   4   4
#     4  11  27  48  74 113 156 200 257 325 385 466
#     4  10  22  47  75 103 154 196 247 317 386 450
#     4  11  27  49  76 114 157 209 260 322 393 471
#     4  12  28  45  80 113 151 204 261 316 391 462
#     4  11  26  47  75 111 153 205 260 321 387 469
#     4  11  26  48  76 110 151 202 256 319 387 465
#
# _framework density 26.479604999999999
#
# number of rings (size 3 to 8) (size 9 to 14) (size 15 to 20)
#    0.000    1.000    1.667    3.000   11.667    0.667 
#    3.000    0.833    0.000    0.000    0.000    0.000 
#    0.000    0.000    0.000    0.000    0.000    0.000 
#
# Total GULP energy -134609.361450 kJ/mol
# GULP energy per Si atom -5608.723394 kJ/mol
# Density = 2.641934 g / cm^3
# Si number density = 26.479605 Si / 1000 Ang^3
#
#
#
# Elastic Constant Matrix: (Units=GPa)
#
#
# Indices 1 2 3 4 5 6 
#
# 1 192.3564 33.6569 67.0214 0.0000 -6.7026 0.0000
# 2 33.6569 176.9340 46.6607 0.0000 5.3286 0.0000
# 3 67.0214 46.6607 136.5418 0.0000 -4.9465 0.0000
# 4 0.0000 0.0000 0.0000 50.5108 0.0000 -11.0808
# 5 -6.7026 5.3286 -4.9465 0.0000 53.3440 0.0000
# 6 0.0000 0.0000 0.0000 -11.0808 0.0000 42.2035
#
#
#
# Elastic Compliance Matrix: (Units=1/GPa)
#
#
# Indices 1 2 3 4 5 6 
#
# 1 0.006317 -0.000447 -0.002927 0.000000 0.000567 0.000000
# 2 -0.000447 0.006279 -0.001958 0.000000 -0.000865 0.000000
# 3 -0.002927 -0.001958 0.009455 0.000000 0.000705 0.000000
# 4 0.000000 0.000000 0.000000 0.021008 0.000000 0.005516
# 5 0.000567 -0.000865 0.000705 0.000000 0.018969 0.000000
# 6 0.000000 0.000000 0.000000 0.005516 0.000000 0.025143
#
#
# Mechanical properties :
#
#
# Convention : Reuss Voigt Hill
#
# Bulk Modulus (GPa) = 87.81742 88.94556 88.38149
# Shear Modulus (GPa) = 49.19802 53.11123 51.15462
#
# Velocity S-wave (km/s) = 4.31508 4.48341 4.40005
# Velocity P-wave (km/s) = 7.61989 7.77589 7.69828
#
# Compressibility (1/GPa) = 0.01138726
#
# Stress axis : x y z
#
# Youngs Moduli (GPa) = 158.31505 159.25687 105.76166
#
# Poissons Ratio (x) = 0.07113 0.30960
# Poissons Ratio (y) = 0.07071 0.20707
# Poissons Ratio (z) = 0.46343 0.31181
#
# Static dielectric constant tensor:
#      x y z
#    x 2.196280 0.000000 -0.090560 
#    y 0.000000 2.093900 0.000000 
#    z -0.090560 0.000000 2.335410 
# 
# From -- ./inp_files/24530.got.cif
#   From: 2010.05.17/outbox.cif.g08.bks.cpg/sg14_13_cif.got.tgz:24530.got - 2010.06.03 17:49:19.
