data_PCOD9249276
_publ_section_title
;
Structure prediction by ZEFSAII (Michael W. Deem and Ramdas Pophale) SiO2 
 PCOD9249276
Probable space group: P 21/C
;
_chemical_formula_sum "Si O2"
_cell_formula_units_Z 28
_cell_length_a 13.300289
_cell_length_b 8.160628
_cell_length_c 16.331377
_cell_angle_alpha 90.000000
_cell_angle_beta 127.901389
_cell_angle_gamma 90.000000
_cell_volume 1398.693482
_symmetry_space_group_name_H-M "P 21/C"
_symmetry_group_IT_number 14
_symmetry_cell_setting 'monoclinic'
loop_
_space_group_symop_operation_xyz
x,y,z
-x,1/2+y,1/2-z
-x,-y,-z
x,1/2-y,1/2+z
loop_
_atom_site_type_symbol
_atom_site_label
_atom_site_fract_x
_atom_site_fract_y
_atom_site_fract_z
Si Si1 0.687812 0.891979 0.099799
Si Si2 0.078798 0.600078 0.222333
Si Si3 0.117870 0.627312 0.065075
Si Si4 0.866909 0.336955 0.105429
Si Si5 0.406461 0.919763 0.676318
Si Si6 0.545970 0.424787 0.390196
Si Si7 0.378718 0.040047 0.494709
O O1 0.572308 0.899027 0.107091
O O2 0.688408 0.705756 0.068599
O O3 0.811990 0.964055 0.205970
O O4 0.655273 0.004737 0.004320
O O5 0.105761 0.696024 0.150809
O O6 0.080553 0.717261 0.300408
O O7 0.947749 0.503737 0.148308
O O8 0.260471 0.553238 0.132030
O O9 0.116431 0.728505 0.979356
O O10 0.000000 0.500000 0.000000
O O11 0.723988 0.392795 0.056340
O O12 0.423405 0.740869 0.644108
O O13 0.427059 0.047082 0.612400
O O14 0.500641 0.947878 0.798439
O O15 0.500000 0.000000 0.500000
#
# Coordination Sequence:
#
# PCOD9249276 Si02
#       7
#     4   4   4   4   4   4   4
#     4  11  22  38  60  89 122 164 203 258 314 365
#     4  11  21  42  66  87 127 164 212 263 316 369
#     4   9  20  38  61  86 117 163 205 248 308 371
#     4  10  23  39  65  94 118 168 214 255 316 383
#     4  11  21  40  59  89 125 164 206 254 312 381
#     4  11  23  36  60  90 123 163 207 249 315 372
#     4  11  22  38  61  91 127 158 210 259 308 374
#
# _framework density 20.018682999999999
#
# number of rings (size 3 to 8) (size 9 to 14) (size 15 to 20)
#    0.000    1.429    2.857    3.429    2.000    1.143 
#    0.000    0.714    0.000    0.000    0.000    0.000 
#    0.000    0.000    0.000    0.000    0.000    0.000 
#
# Total GULP energy -156148.071287 kJ/mol
# GULP energy per Si atom -5576.716832 kJ/mol
# Density = 1.997312 g / cm^3
# Si number density = 20.018683 Si / 1000 Ang^3
#
#
#
# Elastic Constant Matrix: (Units=GPa)
#
#
# Indices 1 2 3 4 5 6 
#
# 1 98.0377 16.0922 36.1393 0.0000 -4.9720 0.0000
# 2 16.0922 65.5083 17.9601 0.0000 -16.9463 0.0000
# 3 36.1393 17.9601 114.3326 0.0000 -26.6673 0.0000
# 4 0.0000 0.0000 0.0000 40.6263 0.0000 -6.0728
# 5 -4.9720 -16.9463 -26.6673 0.0000 38.0821 0.0000
# 6 0.0000 0.0000 0.0000 -6.0728 0.0000 18.8403
#
#
#
# Elastic Compliance Matrix: (Units=1/GPa)
#
#
# Indices 1 2 3 4 5 6 
#
# 1 0.011930 -0.002445 -0.003917 0.000000 -0.002273 0.000000
# 2 -0.002445 0.017868 -0.000304 0.000000 0.007420 0.000000
# 3 -0.003917 -0.000304 0.011810 0.000000 0.007624 0.000000
# 4 0.000000 0.000000 0.000000 0.025861 0.000000 0.008336
# 5 -0.002273 0.007420 0.007624 0.000000 0.034603 0.000000
# 6 0.000000 0.000000 0.000000 0.008336 0.000000 0.055765
#
#
# Mechanical properties :
#
#
# Convention : Reuss Voigt Hill
#
# Bulk Modulus (GPa) = 35.36321 46.47354 40.91837
# Shear Modulus (GPa) = 27.68640 33.35554 30.52097
#
# Velocity S-wave (km/s) = 3.72294 4.08636 3.90888
# Velocity P-wave (km/s) = 6.01530 6.74759 6.39194
#
# Compressibility (1/GPa) = 0.02827798
#
# Stress axis : x y z
#
# Youngs Moduli (GPa) = 83.82123 55.96471 84.67042
#
# Poissons Ratio (x) = 0.13682 0.33167
# Poissons Ratio (y) = 0.20493 0.02570
# Poissons Ratio (z) = 0.32834 0.01699
#
# Static dielectric constant tensor:
#      x y z
#    x 1.704680 0.000000 -0.009520 
#    y 0.000000 1.718250 0.000000 
#    z -0.009520 0.000000 1.746490 
# 
# From -- ./inp_files/43804.got.cif
#   From: 2010.05.17/outbox.cif.g08.bks.cpg/sg14_22_cif.got.tgz:43804.got - 2010.06.03 17:49:19.
