data_PCOD9249685
_publ_section_title
;
Structure prediction by ZEFSAII (Michael W. Deem and Ramdas Pophale) SiO2 
 PCOD9249685
Probable space group: P 21/C
;
_chemical_formula_sum "Si O2"
_cell_formula_units_Z 32
_cell_length_a 12.536720
_cell_length_b 18.673095
_cell_length_c 14.295174
_cell_angle_alpha 90.000000
_cell_angle_beta 27.270930
_cell_angle_gamma 90.000000
_cell_volume 1533.357688
_symmetry_space_group_name_H-M "P 21/C"
_symmetry_group_IT_number 14
_symmetry_cell_setting 'monoclinic'
loop_
_space_group_symop_operation_xyz
x,y,z
-x,1/2+y,1/2-z
-x,-y,-z
x,1/2-y,1/2+z
loop_
_atom_site_type_symbol
_atom_site_label
_atom_site_fract_x
_atom_site_fract_y
_atom_site_fract_z
Si Si1 0.520616 0.336815 0.354585
Si Si2 0.956127 0.430856 0.971593
Si Si3 0.222141 0.336215 0.152895
Si Si4 0.704456 0.797317 0.788474
Si Si5 0.213342 0.570648 0.461812
Si Si6 0.915648 0.930563 0.841123
Si Si7 0.344368 0.931108 0.646821
Si Si8 0.553417 0.797158 0.704118
O O1 0.502970 0.318896 0.478540
O O2 0.262286 0.364308 0.527928
O O3 0.575199 0.265785 0.252622
O O4 0.705338 0.397562 0.188564
O O5 0.139774 0.367365 0.849043
O O6 0.988996 0.447723 0.836451
O O7 0.000000 0.500000 0.000000
O O8 0.166111 0.265344 0.255439
O O9 0.037126 0.396783 0.318845
O O10 0.476712 0.364766 0.985124
O O11 0.241278 0.319061 0.027853
O O12 0.629063 0.769953 0.746156
O O13 0.230787 0.497381 0.504783
O O14 0.238630 0.556907 0.331997
O O15 0.399868 0.632042 0.340008
O O16 0.135550 0.918692 0.737300
O O17 0.500000 0.000000 0.500000
#
# Coordination Sequence:
#
# PCOD9249685 Si02
#       8
#     4   4   4   4   4   4   4   4
#     4  10  25  47  63  99 133 171 226 270 332 397
#     4  11  27  43  69  94 133 173 225 277 326 402
#     4  10  23  43  63  96 135 164 223 266 327 398
#     4  10  24  43  66  97 127 179 222 271 331 392
#     4  11  24  40  67  98 129 171 213 269 329 392
#     4  11  26  40  69  97 131 173 216 269 338 386
#     4  11  24  40  64 100 131 169 214 268 330 399
#     4  10  24  42  69  93 130 174 217 273 322 393
#
# _framework density 20.869233000000001
#
# number of rings (size 3 to 8) (size 9 to 14) (size 15 to 20)
#    0.000    1.500    1.250    1.125   10.500    1.000 
#    0.000    0.000    0.000    0.000    0.000    0.000 
#    0.000    0.000    0.000    0.000    0.000    0.000 
#
# Total GULP energy -178881.183497 kJ/mol
# GULP energy per Si atom -5590.036984 kJ/mol
# Density = 2.082173 g / cm^3
# Si number density = 20.869233 Si / 1000 Ang^3
#
#
#
# Elastic Constant Matrix: (Units=GPa)
#
#
# Indices 1 2 3 4 5 6 
#
# 1 60.8743 6.0698 44.3673 0.0000 29.4351 0.0000
# 2 6.0698 83.7156 21.5191 0.0000 10.3095 0.0000
# 3 44.3673 21.5191 88.1649 0.0000 16.3882 0.0000
# 4 0.0000 0.0000 0.0000 25.7877 0.0000 10.2101
# 5 29.4351 10.3095 16.3882 0.0000 25.1637 0.0000
# 6 0.0000 0.0000 0.0000 10.2101 0.0000 25.4163
#
#
#
# Elastic Compliance Matrix: (Units=1/GPa)
#
#
# Indices 1 2 3 4 5 6 
#
# 1 0.059783 0.008425 -0.021049 0.000000 -0.059675 0.000000
# 2 0.008425 0.014231 -0.005458 0.000000 -0.012131 0.000000
# 3 -0.021049 -0.005458 0.020792 0.000000 0.013317 0.000000
# 4 0.000000 0.000000 0.000000 0.046112 0.000000 -0.018524
# 5 -0.059675 -0.012131 0.013317 0.000000 0.105841 0.000000
# 6 0.000000 0.000000 0.000000 -0.018524 0.000000 0.046786
#
#
# Mechanical properties :
#
#
# Convention : Reuss Voigt Hill
#
# Bulk Modulus (GPa) = 17.05270 41.85191 29.45230
# Shear Modulus (GPa) = 14.31610 25.99345 20.15477
#
# Velocity S-wave (km/s) = 2.62198 3.53305 3.11105
# Velocity P-wave (km/s) = 4.16598 6.06145 5.20079
#
# Compressibility (1/GPa) = 0.05864175
#
# Stress axis : x y z
#
# Youngs Moduli (GPa) = 16.72708 70.26768 48.09631
#
# Poissons Ratio (x) = -0.59199 1.01237
# Poissons Ratio (y) = -0.14092 0.26252
# Poissons Ratio (z) = 0.35208 0.38354
#
# Static dielectric constant tensor:
#      x y z
#    x 1.734070 0.000000 -0.011460 
#    y 0.000000 1.756170 0.000000 
#    z -0.011460 0.000000 1.740840 
# 
# From -- ./inp_files/30723.got.cif
#   From: 2010.05.17/outbox.cif.g08.bks.cpg/sg14_16_cif.got.tgz:30723.got - 2010.06.03 17:49:19.
