data_PCOD9249198
_publ_section_title
;
Structure prediction by ZEFSAII (Michael W. Deem and Ramdas Pophale) SiO2 
 PCOD9249198
Probable space group: P 21/C
;
_chemical_formula_sum "Si O2"
_cell_formula_units_Z 32
_cell_length_a 5.261595
_cell_length_b 13.652880
_cell_length_c 19.860770
_cell_angle_alpha 90.000000
_cell_angle_beta 119.884141
_cell_angle_gamma 90.000000
_cell_volume 1237.012951
_symmetry_space_group_name_H-M "P 21/C"
_symmetry_group_IT_number 14
_symmetry_cell_setting 'monoclinic'
loop_
_space_group_symop_operation_xyz
x,y,z
-x,1/2+y,1/2-z
-x,-y,-z
x,1/2-y,1/2+z
loop_
_atom_site_type_symbol
_atom_site_label
_atom_site_fract_x
_atom_site_fract_y
_atom_site_fract_z
Si Si1 0.475691 0.629688 0.303107
Si Si2 0.078165 0.328610 0.383516
Si Si3 0.588411 0.907201 0.201027
Si Si4 0.452868 0.158487 0.656238
Si Si5 0.930400 0.611289 0.477717
Si Si6 0.705964 0.459683 0.086635
Si Si7 0.802349 0.380216 0.866027
Si Si8 0.838625 0.304062 0.012032
O O1 0.335743 0.522727 0.298490
O O2 0.369560 0.738766 0.311441
O O3 0.465985 0.629652 0.220956
O O4 0.769495 0.621417 0.385291
O O5 0.763798 0.386163 0.345213
O O6 0.250232 0.355013 0.339179
O O7 0.230591 0.355805 0.474727
O O8 0.006810 0.213603 0.376538
O O9 0.670228 0.863980 0.284985
O O10 0.389944 0.940418 0.349473
O O11 0.184583 0.174574 0.568874
O O12 0.000000 0.500000 0.500000
O O13 0.188976 0.690534 0.506719
O O14 0.996020 0.524869 0.117613
O O15 0.720090 0.346089 0.065005
O O16 0.500000 0.500000 0.000000
O O17 0.723001 0.364903 0.933208
#
# Coordination Sequence:
#
# PCOD9249198 Si02
#       8
#     4   4   4   4   4   4   4   4
#     4  11  25  45  75 110 153 199 254 328 381 466
#     4  11  27  51  75 108 155 203 256 319 380 473
#     4  12  27  49  77 111 155 205 259 319 390 456
#     4  11  26  48  69 111 150 198 258 313 386 464
#     4  10  22  49  74 109 146 203 256 311 392 464
#     4  12  26  45  76 108 149 205 256 316 390 466
#     4  11  24  46  73 113 148 202 256 317 392 455
#     4  10  24  45  70 105 150 192 251 315 379 464
#
# _framework density 25.868769
#
# number of rings (size 3 to 8) (size 9 to 14) (size 15 to 20)
#    0.000    1.000    3.750    1.125    5.250    4.500 
#    0.000    0.000    0.000    0.000    0.000    0.000 
#    0.000    0.000    0.000    0.000    0.000    0.000 
#
# Total GULP energy -178725.809201 kJ/mol
# GULP energy per Si atom -5585.181538 kJ/mol
# Density = 2.580989 g / cm^3
# Si number density = 25.868769 Si / 1000 Ang^3
#
#
#
# Elastic Constant Matrix: (Units=GPa)
#
#
# Indices 1 2 3 4 5 6 
#
# 1 125.1701 37.8363 39.9482 0.0000 -24.1853 0.0000
# 2 37.8363 174.4401 30.1912 0.0000 -18.3709 0.0000
# 3 39.9482 30.1912 176.6296 0.0000 -31.2947 0.0000
# 4 0.0000 0.0000 0.0000 46.7133 0.0000 -14.9010
# 5 -24.1853 -18.3709 -31.2947 0.0000 34.2445 0.0000
# 6 0.0000 0.0000 0.0000 -14.9010 0.0000 20.4193
#
#
#
# Elastic Compliance Matrix: (Units=1/GPa)
#
#
# Indices 1 2 3 4 5 6 
#
# 1 0.009744 -0.001386 -0.001049 0.000000 0.005179 0.000000
# 2 -0.001386 0.006318 -0.000405 0.000000 0.002040 0.000000
# 3 -0.001049 -0.000405 0.006919 0.000000 0.005364 0.000000
# 4 0.000000 0.000000 0.000000 0.027902 0.000000 0.020362
# 5 0.005179 0.002040 0.005364 0.000000 0.038856 0.000000
# 6 0.000000 0.000000 0.000000 0.020362 0.000000 0.063832
#
#
# Mechanical properties :
#
#
# Convention : Reuss Voigt Hill
#
# Bulk Modulus (GPa) = 57.80494 76.91012 67.35753
# Shear Modulus (GPa) = 30.29954 44.82637 37.56295
#
# Velocity S-wave (km/s) = 3.42611 4.16725 3.81472
# Velocity P-wave (km/s) = 6.16806 7.27668 6.74518
#
# Compressibility (1/GPa) = 0.01729956
#
# Stress axis : x y z
#
# Youngs Moduli (GPa) = 102.63001 158.27039 144.53989
#
# Poissons Ratio (x) = 0.21943 0.15164
# Poissons Ratio (y) = 0.14229 0.05853
# Poissons Ratio (z) = 0.10767 0.06409
#
# Static dielectric constant tensor:
#      x y z
#    x 2.040520 0.000000 0.060300 
#    y 0.000000 2.103830 0.000000 
#    z 0.060300 0.000000 2.088970 
# 
# From -- ./inp_files/79686.got.cif
#   From: 2010.05.17/outbox.cif.g08.bks.cpg/sg14_40_cif.got.tgz:79686.got - 2010.06.03 17:49:19.
