data_PCOD9249063
_publ_section_title
;
Structure prediction by ZEFSAII (Michael W. Deem and Ramdas Pophale) SiO2 
 PCOD9249063
Probable space group: P 21/C
;
_chemical_formula_sum "Si O2"
_cell_formula_units_Z 28
_cell_length_a 7.403823
_cell_length_b 17.651963
_cell_length_c 8.157889
_cell_angle_alpha 90.000000
_cell_angle_beta 91.511966
_cell_angle_gamma 90.000000
_cell_volume 1065.799706
_symmetry_space_group_name_H-M "P 21/C"
_symmetry_group_IT_number 14
_symmetry_cell_setting 'monoclinic'
loop_
_space_group_symop_operation_xyz
x,y,z
-x,1/2+y,1/2-z
-x,-y,-z
x,1/2-y,1/2+z
loop_
_atom_site_type_symbol
_atom_site_label
_atom_site_fract_x
_atom_site_fract_y
_atom_site_fract_z
Si Si1 0.735068 0.299718 0.083170
Si Si2 0.259517 0.334003 0.307934
Si Si3 0.109407 0.900035 0.120144
Si Si4 0.560859 0.360287 0.564266
Si Si5 0.975301 0.032887 0.317540
Si Si6 0.883567 0.686074 0.053737
Si Si7 0.421064 0.939688 0.626225
O O1 0.801370 0.343216 0.245565
O O2 0.608483 0.227348 0.108951
O O3 0.926223 0.277204 0.003446
O O4 0.639813 0.363890 0.971843
O O5 0.441020 0.362176 0.397357
O O6 0.095678 0.373720 0.400344
O O7 0.234418 0.245551 0.350376
O O8 0.221766 0.341945 0.112673
O O9 0.242973 0.894674 0.973317
O O10 0.910588 0.017048 0.803866
O O11 0.475094 0.406976 0.712632
O O12 0.048847 0.117558 0.332767
O O13 0.760142 0.024448 0.302318
O O14 0.000000 0.000000 0.500000
O O15 0.500000 0.000000 0.500000
#
# Coordination Sequence:
#
# PCOD9249063 Si02
#       7
#     4   4   4   4   4   4   4
#     4  10  22  45  80 105 159 208 258 324 392 466
#     4  11  25  44  75 118 156 202 265 320 392 472
#     4  11  24  49  78 113 158 204 271 321 389 475
#     4  12  27  47  78 123 157 207 263 335 390 466
#     4  11  22  49  80 106 154 221 254 321 403 470
#     4  10  23  44  77 113 151 204 267 319 393 473
#     4  11  27  50  77 117 162 210 265 326 404 476
#
# _framework density 26.271352
#
# number of rings (size 3 to 8) (size 9 to 14) (size 15 to 20)
#    0.000    1.143    5.714    0.857   10.000    2.857 
#    2.571    3.571    0.000    1.714    0.000    0.000 
#    0.000    0.000    0.000    0.000    0.000    0.000 
#
# Total GULP energy -156963.937285 kJ/mol
# GULP energy per Si atom -5605.854903 kJ/mol
# Density = 2.621156 g / cm^3
# Si number density = 26.271352 Si / 1000 Ang^3
#
#
#
# Elastic Constant Matrix: (Units=GPa)
#
#
# Indices 1 2 3 4 5 6 
#
# 1 116.2846 42.0090 22.7313 0.0000 5.6609 0.0000
# 2 42.0090 110.0252 51.7371 0.0000 -12.1250 0.0000
# 3 22.7313 51.7371 65.9846 0.0000 7.0939 0.0000
# 4 0.0000 0.0000 0.0000 40.7195 0.0000 -5.1675
# 5 5.6609 -12.1250 7.0939 0.0000 35.0685 0.0000
# 6 0.0000 0.0000 0.0000 -5.1675 0.0000 26.5438
#
#
#
# Elastic Compliance Matrix: (Units=1/GPa)
#
#
# Indices 1 2 3 4 5 6 
#
# 1 0.010301 -0.004412 0.000259 0.000000 -0.003241 0.000000
# 2 -0.004412 0.018462 -0.014024 0.000000 0.009932 0.000000
# 3 0.000259 -0.014024 0.027178 0.000000 -0.010388 0.000000
# 4 0.000000 0.000000 0.000000 0.025180 0.000000 0.004902
# 5 -0.003241 0.009932 -0.010388 0.000000 0.034574 0.000000
# 6 0.000000 0.000000 0.000000 0.004902 0.000000 0.038628
#
#
# Mechanical properties :
#
#
# Convention : Reuss Voigt Hill
#
# Bulk Modulus (GPa) = 51.05129 58.36103 54.70616
# Shear Modulus (GPa) = 25.35416 32.18749 28.77083
#
# Velocity S-wave (km/s) = 3.10996 3.50407 3.31288
# Velocity P-wave (km/s) = 5.68949 6.21565 5.95838
#
# Compressibility (1/GPa) = 0.01958814
#
# Stress axis : x y z
#
# Youngs Moduli (GPa) = 97.08261 54.16439 36.79394
#
# Poissons Ratio (x) = 0.23896 -0.00954
# Poissons Ratio (y) = 0.42831 0.51599
# Poissons Ratio (z) = -0.02516 0.75959
#
# Static dielectric constant tensor:
#      x y z
#    x 2.040690 0.000000 0.005590 
#    y 0.000000 2.049800 0.000000 
#    z 0.005590 0.000000 2.064830 
# 
# From -- ./inp_files/9985.got.cif
#   From: 2010.05.17/outbox.cif.g08.bks.cpg/sg14_5_cif.got.tgz:9985.got - 2010.06.03 17:49:19.
