data_PCOD9249981
_publ_section_title
;
Structure prediction by ZEFSAII (Michael W. Deem and Ramdas Pophale) SiO2 
 PCOD9249981
Probable space group: P 21/C
;
_chemical_formula_sum "Si O2"
_cell_formula_units_Z 24
_cell_length_a 7.200660
_cell_length_b 13.655973
_cell_length_c 13.958751
_cell_angle_alpha 90.000000
_cell_angle_beta 55.654458
_cell_angle_gamma 90.000000
_cell_volume 1133.280870
_symmetry_space_group_name_H-M "P 21/C"
_symmetry_group_IT_number 14
_symmetry_cell_setting 'monoclinic'
loop_
_space_group_symop_operation_xyz
x,y,z
-x,1/2+y,1/2-z
-x,-y,-z
x,1/2-y,1/2+z
loop_
_atom_site_type_symbol
_atom_site_label
_atom_site_fract_x
_atom_site_fract_y
_atom_site_fract_z
Si Si1 0.880760 0.586609 0.476864
Si Si2 0.362176 0.488716 0.942246
Si Si3 0.263595 0.709518 0.397339
Si Si4 0.669494 0.570704 0.336017
Si Si5 0.046425 0.359257 0.916545
Si Si6 0.505141 0.107558 0.769958
O O1 0.740912 0.560242 0.424217
O O2 0.710889 0.631510 0.604217
O O3 0.000000 0.500000 0.500000
O O4 0.084152 0.654662 0.383673
O O5 0.247915 0.388254 0.933922
O O6 0.521445 0.535169 0.813459
O O7 0.500000 0.500000 0.000000
O O8 0.144852 0.557860 0.017115
O O9 0.437335 0.631538 0.390859
O O10 0.387703 0.794328 0.302675
O O11 0.099301 0.762504 0.521494
O O12 0.843878 0.631127 0.219447
O O13 0.655310 0.462594 0.293804
#
# Coordination Sequence:
#
# PCOD9249981 Si02
#       6
#     4   4   4   4   4   4
#     4  12  26  44  68  97 136 186 225 275 353 411
#     4   9  19  37  67  94 131 177 213 282 341 387
#     4  11  24  44  66 101 136 176 232 285 337 410
#     4  11  24  44  69  97 140 182 220 288 343 401
#     4   9  21  39  60 100 130 164 236 272 327 415
#     4  10  23  45  67  99 138 171 231 282 330 415
#
# _framework density 21.177451000000001
#
# number of rings (size 3 to 8) (size 9 to 14) (size 15 to 20)
#    0.000    1.667    1.667    2.500    2.333    4.000 
#    3.000    0.000    0.000    0.000    0.000    0.000 
#    0.000    0.000    0.000    0.000    0.000    0.000 
#
# Total GULP energy -133821.910235 kJ/mol
# GULP energy per Si atom -5575.912926 kJ/mol
# Density = 2.112925 g / cm^3
# Si number density = 21.177451 Si / 1000 Ang^3
#
#
#
# Elastic Constant Matrix: (Units=GPa)
#
#
# Indices 1 2 3 4 5 6 
#
# 1 126.2398 29.5052 42.5722 0.0000 27.4199 0.0000
# 2 29.5052 56.5798 11.5713 0.0000 1.3498 0.0000
# 3 42.5722 11.5713 100.8829 0.0000 16.7708 0.0000
# 4 0.0000 0.0000 0.0000 24.9512 0.0000 -7.4863
# 5 27.4199 1.3498 16.7708 0.0000 25.9315 0.0000
# 6 0.0000 0.0000 0.0000 -7.4863 0.0000 13.8490
#
#
#
# Elastic Compliance Matrix: (Units=1/GPa)
#
#
# Indices 1 2 3 4 5 6 
#
# 1 0.012664 -0.005761 -0.002809 0.000000 -0.011274 0.000000
# 2 -0.005761 0.020724 -0.000873 0.000000 0.005577 0.000000
# 3 -0.002809 -0.000873 0.011985 0.000000 -0.004735 0.000000
# 4 0.000000 0.000000 0.000000 0.047837 0.000000 0.025859
# 5 -0.011274 0.005577 -0.004735 0.000000 0.053257 0.000000
# 6 0.000000 0.000000 0.000000 0.025859 0.000000 0.086186
#
#
# Mechanical properties :
#
#
# Convention : Reuss Voigt Hill
#
# Bulk Modulus (GPa) = 37.75427 50.11110 43.93268
# Shear Modulus (GPa) = 19.20364 26.28327 22.74345
#
# Velocity S-wave (km/s) = 3.01457 3.52674 3.28067
# Velocity P-wave (km/s) = 5.47569 6.34805 5.92794
#
# Compressibility (1/GPa) = 0.02648707
#
# Stress axis : x y z
#
# Youngs Moduli (GPa) = 78.96422 48.25403 83.43530
#
# Poissons Ratio (x) = 0.27797 0.23439
# Poissons Ratio (y) = 0.45487 0.07286
# Poissons Ratio (z) = 0.22183 0.04214
#
# Static dielectric constant tensor:
#      x y z
#    x 1.749590 0.000000 -0.021140 
#    y 0.000000 1.852530 0.000000 
#    z -0.021140 0.000000 1.774630 
# 
# From -- ./inp_files/37237.got.cif
#   From: 2010.05.17/outbox.cif.g08.bks.cpg/sg14_19_cif.got.tgz:37237.got - 2010.06.03 17:49:19.
