data_PCOD9249456
_publ_section_title
;
Structure prediction by ZEFSAII (Michael W. Deem and Ramdas Pophale) SiO2 
 PCOD9249456
Probable space group: P 21/C
;
_chemical_formula_sum "Si O2"
_cell_formula_units_Z 32
_cell_length_a 10.679458
_cell_length_b 11.642111
_cell_length_c 14.933642
_cell_angle_alpha 90.000000
_cell_angle_beta 49.834910
_cell_angle_gamma 90.000000
_cell_volume 1418.886174
_symmetry_space_group_name_H-M "P 21/C"
_symmetry_group_IT_number 14
_symmetry_cell_setting 'monoclinic'
loop_
_space_group_symop_operation_xyz
x,y,z
-x,1/2+y,1/2-z
-x,-y,-z
x,1/2-y,1/2+z
loop_
_atom_site_type_symbol
_atom_site_label
_atom_site_fract_x
_atom_site_fract_y
_atom_site_fract_z
Si Si1 0.600165 0.866819 0.754071
Si Si2 0.324739 0.438118 0.590186
Si Si3 0.078495 0.638584 0.671453
Si Si4 0.251539 0.671246 0.206695
Si Si5 0.213557 0.821475 0.917532
Si Si6 0.398501 0.254479 0.423157
Si Si7 0.822263 0.450806 0.056150
Si Si8 0.251706 0.451917 0.100594
O O1 0.665506 0.860237 0.824933
O O2 0.402238 0.861974 0.846866
O O3 0.649536 0.771843 0.657033
O O4 0.679678 0.982168 0.676004
O O5 0.500000 0.500000 0.500000
O O6 0.186414 0.533740 0.660844
O O7 0.311462 0.362551 0.507110
O O8 0.139586 0.756114 0.690601
O O9 0.111028 0.641455 0.550755
O O10 0.894479 0.611305 0.781419
O O11 0.164658 0.640154 0.340404
O O12 0.404347 0.754394 0.160796
O O13 0.316089 0.551771 0.135659
O O14 0.198152 0.683731 0.920901
O O15 0.355953 0.148181 0.507564
O O16 0.807263 0.478153 0.958779
O O17 0.000000 0.500000 0.000000
#
# Coordination Sequence:
#
# PCOD9249456 Si02
#       8
#     4   4   4   4   4   4   4   4
#     4  10  23  41  68 102 127 177 225 278 334 402
#     4  12  22  42  67 100 132 175 221 275 336 400
#     4  12  25  43  69 100 135 177 226 282 338 405
#     4  11  22  44  66  95 134 173 217 281 338 401
#     4  11  23  41  69  99 136 174 227 282 343 406
#     4  10  24  43  66  98 129 174 231 268 337 405
#     4  11  23  44  71  98 133 182 232 277 338 413
#     4  11  25  42  67  94 134 176 219 280 337 399
#
# _framework density 22.552900999999999
#
# number of rings (size 3 to 8) (size 9 to 14) (size 15 to 20)
#    0.000    1.000    3.750    2.625    3.500    1.500 
#    2.250    0.000    0.000    0.000    0.000    0.000 
#    0.000    0.000    0.000    0.000    0.000    0.000 
#
# Total GULP energy -178873.676765 kJ/mol
# GULP energy per Si atom -5589.802399 kJ/mol
# Density = 2.250157 g / cm^3
# Si number density = 22.552901 Si / 1000 Ang^3
#
#
#
# Elastic Constant Matrix: (Units=GPa)
#
#
# Indices 1 2 3 4 5 6 
#
# 1 30.3469 18.4354 37.5729 0.0000 2.7687 0.0000
# 2 18.4354 62.3463 15.4581 0.0000 -0.2136 0.0000
# 3 37.5729 15.4581 151.0185 0.0000 20.1843 0.0000
# 4 0.0000 0.0000 0.0000 18.6025 0.0000 -11.0673
# 5 2.7687 -0.2136 20.1843 0.0000 46.2177 0.0000
# 6 0.0000 0.0000 0.0000 -11.0673 0.0000 12.1482
#
#
#
# Elastic Compliance Matrix: (Units=1/GPa)
#
#
# Indices 1 2 3 4 5 6 
#
# 1 0.057376 -0.013691 -0.013175 0.000000 0.002253 0.000000
# 2 -0.013691 0.019757 0.001341 0.000000 0.000326 0.000000
# 3 -0.013175 0.001341 0.010255 0.000000 -0.003683 0.000000
# 4 0.000000 0.000000 0.000000 0.117372 0.000000 0.106929
# 5 0.002253 0.000326 -0.003683 0.000000 0.023112 0.000000
# 6 0.000000 0.000000 0.000000 0.106929 0.000000 0.179732
#
#
# Mechanical properties :
#
#
# Convention : Reuss Voigt Hill
#
# Bulk Modulus (GPa) = 27.52094 42.96049 35.24072
# Shear Modulus (GPa) = 10.62100 26.87669 18.74884
#
# Velocity S-wave (km/s) = 2.17246 3.45587 2.88640
# Velocity P-wave (km/s) = 4.30373 5.91728 5.17379
#
# Compressibility (1/GPa) = 0.03633597
#
# Stress axis : x y z
#
# Youngs Moduli (GPa) = 17.42892 50.61576 97.51787
#
# Poissons Ratio (x) = 0.69301 1.28476
# Poissons Ratio (y) = 0.23863 -0.13073
# Poissons Ratio (z) = 0.22962 -0.06785
#
# Static dielectric constant tensor:
#      x y z
#    x 1.832770 0.000000 0.013990 
#    y 0.000000 1.803590 0.000000 
#    z 0.013990 0.000000 1.835580 
# 
# From -- ./inp_files/44632.got.cif
#   From: 2010.05.17/outbox.cif.g08.bks.cpg/sg14_23_cif.got.tgz:44632.got - 2010.06.03 17:49:19.
