data_PCOD9249720
_publ_section_title
;
Structure prediction by ZEFSAII (Michael W. Deem and Ramdas Pophale) SiO2 
 PCOD9249720
Probable space group: P 21/C
;
_chemical_formula_sum "Si O2"
_cell_formula_units_Z 24
_cell_length_a 9.262014
_cell_length_b 8.027905
_cell_length_c 32.156686
_cell_angle_alpha 90.000000
_cell_angle_beta 28.231014
_cell_angle_gamma 90.000000
_cell_volume 1131.007681
_symmetry_space_group_name_H-M "P 21/C"
_symmetry_group_IT_number 14
_symmetry_cell_setting 'monoclinic'
loop_
_space_group_symop_operation_xyz
x,y,z
-x,1/2+y,1/2-z
-x,-y,-z
x,1/2-y,1/2+z
loop_
_atom_site_type_symbol
_atom_site_label
_atom_site_fract_x
_atom_site_fract_y
_atom_site_fract_z
Si Si1 0.659218 0.063524 0.589031
Si Si2 0.216419 0.564845 0.408864
Si Si3 0.546592 0.422005 0.943450
Si Si4 0.360734 0.970141 0.745136
Si Si5 0.751621 0.633753 0.222471
Si Si6 0.203048 0.398380 0.560006
O O1 0.702474 0.247801 0.596440
O O2 0.527935 0.041318 0.576138
O O3 0.463735 0.952909 0.671211
O O4 0.000000 0.000000 0.500000
O O5 0.552944 0.523099 0.305512
O O6 0.000000 0.500000 0.500000
O O7 0.012114 0.521723 0.420291
O O8 0.900229 0.377863 0.853118
O O9 0.500000 0.500000 0.000000
O O10 0.328329 0.261343 0.002864
O O11 0.638859 0.924148 0.705487
O O12 0.047322 0.877530 0.839253
O O13 0.311771 0.168422 0.762097
O O14 0.500000 0.500000 0.500000
#
# Coordination Sequence:
#
# PCOD9249720 Si02
#       6
#     4   4   4   4   4   4
#     4  11  23  44  67  98 137 174 224 290 338 410
#     4  10  24  44  68  99 134 180 231 274 354 408
#     4  12  26  43  66 101 137 175 234 281 352 405
#     4  10  23  44  69  93 137 178 227 280 352 410
#     4  10  23  43  66  99 131 178 230 280 340 425
#     4  11  23  44  68  96 134 180 227 283 331 423
#
# _framework density 21.220013999999999
#
# number of rings (size 3 to 8) (size 9 to 14) (size 15 to 20)
#    0.000    1.333    3.333    1.000    7.000    4.000 
#    3.000    0.000    0.000    0.000    0.000    0.000 
#    0.000    0.000    0.000    0.000    0.000    0.000 
#
# Total GULP energy -133603.704687 kJ/mol
# GULP energy per Si atom -5566.821029 kJ/mol
# Density = 2.117172 g / cm^3
# Si number density = 21.220014 Si / 1000 Ang^3
#
#
#
# Elastic Constant Matrix: (Units=GPa)
#
#
# Indices 1 2 3 4 5 6 
#
# 1 103.0450 9.5809 44.3239 0.0000 5.6198 0.0000
# 2 9.5809 15.4519 10.1142 0.0000 -8.7648 0.0000
# 3 44.3239 10.1142 143.6405 0.0000 16.1819 0.0000
# 4 0.0000 0.0000 0.0000 30.6001 0.0000 2.7628
# 5 5.6198 -8.7648 16.1819 0.0000 38.7216 0.0000
# 6 0.0000 0.0000 0.0000 2.7628 0.0000 26.1637
#
#
#
# Elastic Compliance Matrix: (Units=1/GPa)
#
#
# Indices 1 2 3 4 5 6 
#
# 1 0.011666 -0.006400 -0.002933 0.000000 -0.001916 0.000000
# 2 -0.006400 0.086284 -0.006722 0.000000 0.023269 0.000000
# 3 -0.002933 -0.006722 0.008882 0.000000 -0.004808 0.000000
# 4 0.000000 0.000000 0.000000 0.032994 0.000000 -0.003484
# 5 -0.001916 0.023269 -0.004808 0.000000 0.033380 0.000000
# 6 0.000000 0.000000 0.000000 -0.003484 0.000000 0.038589
#
#
# Mechanical properties :
#
#
# Convention : Reuss Voigt Hill
#
# Bulk Modulus (GPa) = 13.38313 43.35283 28.36798
# Shear Modulus (GPa) = 18.60035 32.30496 25.45266
#
# Velocity S-wave (km/s) = 2.96387 3.90600 3.46709
# Velocity P-wave (km/s) = 4.24655 6.38882 5.42449
#
# Compressibility (1/GPa) = 0.07472096
#
# Stress axis : x y z
#
# Youngs Moduli (GPa) = 85.72076 11.58962 112.58871
#
# Poissons Ratio (x) = 0.07417 0.33025
# Poissons Ratio (y) = 0.54862 0.75682
# Poissons Ratio (z) = 0.25144 0.07791
#
# Static dielectric constant tensor:
#      x y z
#    x 1.900070 0.000000 0.077400 
#    y 0.000000 1.838330 0.000000 
#    z 0.077400 0.000000 1.865890 
# 
# From -- ./inp_files/58984.got.cif
#   From: 2010.05.17/outbox.cif.g08.bks.cpg/sg14_30_cif.got.tgz:58984.got - 2010.06.03 17:49:19.
