data_PCOD9249921
_publ_section_title
;
Structure prediction by ZEFSAII (Michael W. Deem and Ramdas Pophale) SiO2 
 PCOD9249921
Probable space group: P 21/C
;
_chemical_formula_sum "Si O2"
_cell_formula_units_Z 16
_cell_length_a 9.190374
_cell_length_b 8.986231
_cell_length_c 10.790251
_cell_angle_alpha 90.000000
_cell_angle_beta 130.875395
_cell_angle_gamma 90.000000
_cell_volume 673.816133
_symmetry_space_group_name_H-M "P 21/C"
_symmetry_group_IT_number 14
_symmetry_cell_setting 'monoclinic'
loop_
_space_group_symop_operation_xyz
x,y,z
-x,1/2+y,1/2-z
-x,-y,-z
x,1/2-y,1/2+z
loop_
_atom_site_type_symbol
_atom_site_label
_atom_site_fract_x
_atom_site_fract_y
_atom_site_fract_z
Si Si1 0.102866 0.661214 0.723524
Si Si2 0.488549 0.627777 0.812610
Si Si3 0.549133 0.167085 0.987650
Si Si4 0.887981 0.943002 0.556417
O O1 0.262433 0.597961 0.714320
O O2 0.045951 0.530636 0.784230
O O3 0.932571 0.765714 0.580138
O O4 0.230883 0.782799 0.870537
O O5 0.506969 0.690865 0.685250
O O6 0.546742 0.729193 0.962330
O O7 0.662767 0.511409 0.916009
O O8 0.500000 0.000000 0.000000
O O9 0.000000 0.000000 0.500000
#
# Coordination Sequence:
#
# PCOD9249921 Si02
#       4
#     4   4   4   4
#     4  10  26  44  70 106 140 188 230 293 359 410
#     4  10  25  44  72  97 145 183 232 289 354 406
#     4  10  23  44  71 101 138 182 237 283 354 415
#     4  12  25  45  71 104 146 179 241 292 350 428
#
# _framework density 23.745350999999999
#
# number of rings (size 3 to 8) (size 9 to 14) (size 15 to 20)
#    1.500    0.000    0.000    3.750   10.500    0.000 
#    0.000    2.500    0.000    0.000    0.000    0.000 
#    0.000    0.000    0.000    0.000    0.000    0.000 
#
# Total GULP energy -89109.723706 kJ/mol
# GULP energy per Si atom -5569.357732 kJ/mol
# Density = 2.369131 g / cm^3
# Si number density = 23.745351 Si / 1000 Ang^3
#
#
#
# Elastic Constant Matrix: (Units=GPa)
#
#
# Indices 1 2 3 4 5 6 
#
# 1 179.3659 61.3221 48.9813 0.0000 -19.8233 0.0000
# 2 61.3221 43.4104 -1.8241 0.0000 10.0364 0.0000
# 3 48.9813 -1.8241 55.2719 0.0000 -17.5093 0.0000
# 4 0.0000 0.0000 0.0000 37.3062 0.0000 7.3976
# 5 -19.8233 10.0364 -17.5093 0.0000 53.6678 0.0000
# 6 0.0000 0.0000 0.0000 7.3976 0.0000 35.3981
#
#
#
# Elastic Compliance Matrix: (Units=1/GPa)
#
#
# Indices 1 2 3 4 5 6 
#
# 1 0.026656 -0.040979 -0.021667 0.000000 0.010440 0.000000
# 2 -0.040979 0.087099 0.032604 0.000000 -0.020788 0.000000
# 3 -0.021667 0.032604 0.037810 0.000000 -0.001765 0.000000
# 4 0.000000 0.000000 0.000000 0.027964 0.000000 -0.005844
# 5 0.010440 -0.020788 -0.001765 0.000000 0.025801 0.000000
# 6 0.000000 0.000000 0.000000 -0.005844 0.000000 0.029471
#
#
# Mechanical properties :
#
#
# Convention : Reuss Voigt Hill
#
# Bulk Modulus (GPa) = 10.93111 55.00075 32.96593
# Shear Modulus (GPa) = 15.36669 36.57902 25.97285
#
# Velocity S-wave (km/s) = 2.54666 3.92914 3.31086
# Velocity P-wave (km/s) = 3.64154 6.61795 5.34126
#
# Compressibility (1/GPa) = 0.09148202
#
# Stress axis : x y z
#
# Youngs Moduli (GPa) = 37.51531 11.48119 26.44770
#
# Poissons Ratio (x) = 0.47048 0.57305
# Poissons Ratio (y) = 1.53732 -0.86230
# Poissons Ratio (z) = 0.81285 -0.37433
#
# Static dielectric constant tensor:
#      x y z
#    x 1.863850 0.000000 0.088800 
#    y 0.000000 1.926420 0.000000 
#    z 0.088800 0.000000 1.928120 
# 
# From -- ./inp_files/7813.got.cif
#   From: 2010.05.17/outbox.cif.g08.bks.cpg/sg14_4_cif.got.tgz:7813.got - 2010.06.03 17:49:19.
