data_PCOD9249402
_publ_section_title
;
Structure prediction by ZEFSAII (Michael W. Deem and Ramdas Pophale) SiO2 
 PCOD9249402
Probable space group: P 21/C
;
_chemical_formula_sum "Si O2"
_cell_formula_units_Z 24
_cell_length_a 11.608137
_cell_length_b 12.294835
_cell_length_c 8.461449
_cell_angle_alpha 90.000000
_cell_angle_beta 102.747368
_cell_angle_gamma 90.000000
_cell_volume 1177.854251
_symmetry_space_group_name_H-M "P 21/C"
_symmetry_group_IT_number 14
_symmetry_cell_setting 'monoclinic'
loop_
_space_group_symop_operation_xyz
x,y,z
-x,1/2+y,1/2-z
-x,-y,-z
x,1/2-y,1/2+z
loop_
_atom_site_type_symbol
_atom_site_label
_atom_site_fract_x
_atom_site_fract_y
_atom_site_fract_z
Si Si1 0.038396 0.619676 0.062488
Si Si2 0.526900 0.817864 0.800716
Si Si3 0.575925 0.895830 0.475267
Si Si4 0.714581 0.046610 0.298398
Si Si5 0.099879 0.291812 0.689881
Si Si6 0.756747 0.623182 0.553098
O O1 0.179979 0.621402 0.107974
O O2 0.981134 0.642357 0.214809
O O3 0.000000 0.500000 0.000000
O O4 0.982026 0.707345 0.928888
O O5 0.584299 0.836261 0.646015
O O6 0.514812 0.690248 0.838642
O O7 0.404386 0.884175 0.767053
O O8 0.622207 0.860336 0.956058
O O9 0.500000 0.000000 0.500000
O O10 0.685973 0.948907 0.415298
O O11 0.759577 0.986812 0.154215
O O12 0.191607 0.218927 0.819650
O O13 0.165802 0.367158 0.582361
#
# Coordination Sequence:
#
# PCOD9249402 Si02
#       6
#     4   4   4   4   4   4
#     4  11  24  45  69  95 138 172 228 275 323 400
#     4  11  23  39  66  95 131 167 221 276 332 396
#     4  10  23  41  63  93 133 174 212 268 336 391
#     4  11  24  42  66  99 131 177 220 278 333 386
#     4  10  24  43  67  99 128 182 222 276 328 387
#     4  11  21  39  66  95 128 170 225 268 332 399
#
# _framework density 20.376035000000002
#
# number of rings (size 3 to 8) (size 9 to 14) (size 15 to 20)
#    0.000    1.333    1.667    3.500    4.667    4.667 
#    0.000    0.000    0.000    0.000    0.000    0.000 
#    0.000    0.000    0.000    0.000    0.000    0.000 
#
# Total GULP energy -134033.265613 kJ/mol
# GULP energy per Si atom -5584.719401 kJ/mol
# Density = 2.032966 g / cm^3
# Si number density = 20.376035 Si / 1000 Ang^3
#
#
#
# Elastic Constant Matrix: (Units=GPa)
#
#
# Indices 1 2 3 4 5 6 
#
# 1 123.1311 53.7606 64.2448 0.0000 8.2133 0.0000
# 2 53.7606 91.4839 42.4529 0.0000 -6.5902 0.0000
# 3 64.2448 42.4529 115.4563 0.0000 -7.8985 0.0000
# 4 0.0000 0.0000 0.0000 36.0543 0.0000 -0.6021
# 5 8.2133 -6.5902 -7.8985 0.0000 32.3883 0.0000
# 6 0.0000 0.0000 0.0000 -0.6021 0.0000 43.9855
#
#
#
# Elastic Compliance Matrix: (Units=1/GPa)
#
#
# Indices 1 2 3 4 5 6 
#
# 1 0.014460 -0.006056 -0.006259 0.000000 -0.006425 0.000000
# 2 -0.006056 0.015790 -0.002147 0.000000 0.004225 0.000000
# 3 -0.006259 -0.002147 0.013233 0.000000 0.004377 0.000000
# 4 0.000000 0.000000 0.000000 0.027742 0.000000 0.000380
# 5 -0.006425 0.004225 0.004377 0.000000 0.034432 0.000000
# 6 0.000000 0.000000 0.000000 0.000380 0.000000 0.022740
#
#
# Mechanical properties :
#
#
# Convention : Reuss Voigt Hill
#
# Bulk Modulus (GPa) = 68.68530 72.33198 70.50864
# Shear Modulus (GPa) = 30.83109 33.79315 32.31212
#
# Velocity S-wave (km/s) = 3.89409 4.07686 3.98652
# Velocity P-wave (km/s) = 7.34851 7.59846 7.47453
#
# Compressibility (1/GPa) = 0.01455916
#
# Stress axis : x y z
#
# Youngs Moduli (GPa) = 69.15825 63.32984 75.56843
#
# Poissons Ratio (x) = 0.38350 0.47297
# Poissons Ratio (y) = 0.41880 0.16228
# Poissons Ratio (z) = 0.43285 0.13600
#
# Static dielectric constant tensor:
#      x y z
#    x 1.737190 0.000000 -0.015650 
#    y 0.000000 1.720950 0.000000 
#    z -0.015650 0.000000 1.766130 
# 
# From -- ./inp_files/12508.got.cif
#   From: 2010.05.17/outbox.cif.g08.bks.cpg/sg14_7_cif.got.tgz:12508.got - 2010.06.03 17:49:19.
