data_PCOD9249515
_publ_section_title
;
Structure prediction by ZEFSAII (Michael W. Deem and Ramdas Pophale) SiO2 
 PCOD9249515
Probable space group: P 21/C
;
_chemical_formula_sum "Si O2"
_cell_formula_units_Z 26
_cell_length_a 16.214503
_cell_length_b 8.193405
_cell_length_c 15.391343
_cell_angle_alpha 90.000000
_cell_angle_beta 142.367815
_cell_angle_gamma 90.000000
_cell_volume 1248.516701
_symmetry_space_group_name_H-M "P 21/C"
_symmetry_group_IT_number 14
_symmetry_cell_setting 'monoclinic'
loop_
_space_group_symop_operation_xyz
x,y,z
-x,1/2+y,1/2-z
-x,-y,-z
x,1/2-y,1/2+z
loop_
_atom_site_type_symbol
_atom_site_label
_atom_site_fract_x
_atom_site_fract_y
_atom_site_fract_z
Si Si1 0.868544 0.695236 0.667292
Si Si2 0.522305 0.513755 0.654918
Si Si3 0.194759 0.602588 0.703220
Si Si4 0.724208 0.449865 0.672015
Si Si5 0.590816 0.652182 0.899216
Si Si6 0.500000 0.500000 0.000000
Si Si7 0.055106 0.567267 0.410123
O O1 0.812246 0.589599 0.701073
O O2 0.751532 0.821375 0.542705
O O3 0.889105 0.572829 0.605174
O O4 0.005405 0.783432 0.809599
O O5 0.650349 0.513021 0.697439
O O6 0.399138 0.591820 0.497162
O O7 0.551032 0.598864 0.769657
O O8 0.476910 0.327050 0.633747
O O9 0.195737 0.786152 0.740993
O O10 0.161469 0.611152 0.573193
O O11 0.078732 0.497718 0.652643
O O12 0.339892 0.525916 0.841723
O O13 0.541205 0.529762 0.931498
#
# Coordination Sequence:
#
# PCOD9249515 Si02
#       7
#     4   4   4   4   4   2   4
#     4  11  25  45  68 100 138 182 232 290 339 421
#     4  10  24  39  64 106 139 173 225 286 354 406
#     4  11  25  44  72  99 137 189 230 286 347 416
#     4  10  23  42  64 100 138 175 231 288 339 409
#     4  11  25  41  70 103 138 183 227 287 350 409
#     4  12  24  46  72 104 138 182 228 296 342 406
#     4  11  26  46  68 101 139 186 231 277 359 413
#
# _framework density 20.824712999999999
#
# number of rings (size 3 to 8) (size 9 to 14) (size 15 to 20)
#    0.000    1.231    3.077    0.923    6.462    4.308 
#    0.000    0.000    0.000    0.000    0.000    0.000 
#    0.000    0.000    0.000    0.000    0.000    0.000 
#
# Total GULP energy -144937.643303 kJ/mol
# GULP energy per Si atom -5574.524742 kJ/mol
# Density = 2.077732 g / cm^3
# Si number density = 20.824713 Si / 1000 Ang^3
#
#
#
# Elastic Constant Matrix: (Units=GPa)
#
#
# Indices 1 2 3 4 5 6 
#
# 1 67.9440 5.3271 76.2461 0.0000 -22.2039 0.0000
# 2 5.3271 22.8749 13.9596 0.0000 -19.8828 0.0000
# 3 76.2461 13.9596 -4.4512 0.0000 -45.4685 0.0000
# 4 0.0000 0.0000 0.0000 35.1151 0.0000 -5.2002
# 5 -22.2039 -19.8828 -45.4685 0.0000 41.7870 0.0000
# 6 0.0000 0.0000 0.0000 -5.2002 0.0000 7.5739
#
#
#
# Elastic Compliance Matrix: (Units=1/GPa)
#
#
# Indices 1 2 3 4 5 6 
#
# 1 0.010480 0.009139 0.008822 0.000000 0.019516 0.000000
# 2 0.009139 0.076903 -0.002118 0.000000 0.039143 0.000000
# 3 0.008822 -0.002118 -0.009722 0.000000 -0.006899 0.000000
# 4 0.000000 0.000000 0.000000 0.031701 0.000000 0.021765
# 5 0.019516 0.039143 -0.006899 0.000000 0.045419 0.000000
# 6 0.000000 0.000000 0.000000 0.021765 0.000000 0.146975
#
#
# Mechanical properties :
#
#
# Convention : Reuss Voigt Hill
#
# Bulk Modulus (GPa) = 9.14527 30.82591 19.98559
# Shear Modulus (GPa) = 16.31218 16.28422 16.29820
#
# Velocity S-wave (km/s) = 2.80180 2.79940 2.80060
# Velocity P-wave (km/s) = 3.85589 5.02827 4.48059
#
# Compressibility (1/GPa) = 0.10934616
#
# Stress axis : x y z
#
# Youngs Moduli (GPa) = 95.42232 13.00335 -102.85865
#
# Poissons Ratio (x) = -0.11884 0.90737
# Poissons Ratio (y) = -0.87207 -0.21785
# Poissons Ratio (z) = -0.84177 0.02754
#
# Static dielectric constant tensor:
#      x y z
#    x 1.719950 0.000000 0.010360 
#    y 0.000000 1.769580 0.000000 
#    z 0.010360 0.000000 1.718040 
# 
# From -- ./inp_files/46755.got.cif
#   From: 2010.05.17/outbox.cif.g08.bks.cpg/sg14_24_cif.got.tgz:46755.got - 2010.06.03 17:49:19.
