data_PCOD9249058
_publ_section_title
;
Structure prediction by ZEFSAII (Michael W. Deem and Ramdas Pophale) SiO2 
 PCOD9249058
Probable space group: P 21/C
;
_chemical_formula_sum "Si O2"
_cell_formula_units_Z 20
_cell_length_a 16.794510
_cell_length_b 5.177017
_cell_length_c 9.005837
_cell_angle_alpha 90.000000
_cell_angle_beta 106.068792
_cell_angle_gamma 90.000000
_cell_volume 752.424260
_symmetry_space_group_name_H-M "P 21/C"
_symmetry_group_IT_number 14
_symmetry_cell_setting 'monoclinic'
loop_
_space_group_symop_operation_xyz
x,y,z
-x,1/2+y,1/2-z
-x,-y,-z
x,1/2-y,1/2+z
loop_
_atom_site_type_symbol
_atom_site_label
_atom_site_fract_x
_atom_site_fract_y
_atom_site_fract_z
Si Si1 0.251953 0.653003 0.626596
Si Si2 0.491738 0.219958 0.344801
Si Si3 0.007873 0.251843 0.402872
Si Si4 0.143393 0.967360 0.337999
Si Si5 0.641401 0.021653 0.086384
O O1 0.193343 0.836723 0.497035
O O2 0.200558 0.495493 0.723154
O O3 0.301309 0.488394 0.528898
O O4 0.310852 0.837349 0.755942
O O5 0.495494 0.446601 0.223851
O O6 0.403909 0.264855 0.379807
O O7 0.433357 0.705242 0.508004
O O8 0.000000 0.500000 0.500000
O O9 0.931532 0.279377 0.251238
O O10 0.095566 0.221359 0.366407
O O11 0.000000 0.000000 0.500000
#
# Coordination Sequence:
#
# PCOD9249058 Si02
#       5
#     4   4   4   4   4
#     4  10  22  47  78 119 159 207 256 341 393 469
#     4  11  24  47  80 111 152 215 262 324 380 478
#     4  12  26  49  79 116 151 205 262 323 389 489
#     4  11  24  47  84 110 164 201 270 321 410 463
#     4  10  22  45  76 113 162 201 270 314 402 462
#
# _framework density 26.580746000000001
#
# number of rings (size 3 to 8) (size 9 to 14) (size 15 to 20)
#    0.000    1.200    4.000    1.200    0.000    3.200 
#    0.000    6.000    0.000    0.000    0.000    0.000 
#    0.000    0.000    0.000    0.000    0.000    0.000 
#
# Total GULP energy -112381.519425 kJ/mol
# GULP energy per Si atom -5619.075971 kJ/mol
# Density = 2.652025 g / cm^3
# Si number density = 26.580746 Si / 1000 Ang^3
#
#
#
# Elastic Constant Matrix: (Units=GPa)
#
#
# Indices 1 2 3 4 5 6 
#
# 1 185.6798 40.4090 85.4854 0.0000 -38.8298 0.0000
# 2 40.4090 130.3841 55.1007 0.0000 -24.4246 0.0000
# 3 85.4854 55.1007 193.9954 0.0000 1.5966 0.0000
# 4 0.0000 0.0000 0.0000 48.1231 0.0000 -11.0835
# 5 -38.8298 -24.4246 1.5966 0.0000 84.1919 0.0000
# 6 0.0000 0.0000 0.0000 -11.0835 0.0000 32.6937
#
#
#
# Elastic Compliance Matrix: (Units=1/GPa)
#
#
# Indices 1 2 3 4 5 6 
#
# 1 0.007736 -0.000320 -0.003347 0.000000 0.003539 0.000000
# 2 -0.000320 0.009326 -0.002529 0.000000 0.002606 0.000000
# 3 -0.003347 -0.002529 0.007368 0.000000 -0.002417 0.000000
# 4 0.000000 0.000000 0.000000 0.022540 0.000000 0.007641
# 5 0.003539 0.002606 -0.002417 0.000000 0.014311 0.000000
# 6 0.000000 0.000000 0.000000 0.007641 0.000000 0.033177
#
#
# Mechanical properties :
#
#
# Convention : Reuss Voigt Hill
#
# Bulk Modulus (GPa) = 83.07766 96.89440 89.98603
# Shear Modulus (GPa) = 45.10008 54.93936 50.01972
#
# Velocity S-wave (km/s) = 4.12359 4.55123 4.34268
# Velocity P-wave (km/s) = 7.34811 8.00939 7.68586
#
# Compressibility (1/GPa) = 0.01203693
#
# Stress axis : x y z
#
# Youngs Moduli (GPa) = 129.25982 107.22879 135.72199
#
# Poissons Ratio (x) = 0.03434 0.45430
# Poissons Ratio (y) = 0.04139 0.34326
# Poissons Ratio (z) = 0.43266 0.27120
#
# Static dielectric constant tensor:
#      x y z
#    x 2.141630 0.000000 -0.033610 
#    y 0.000000 2.038590 0.000000 
#    z -0.033610 0.000000 2.090240 
# 
# From -- ./inp_files/17280.got.cif
#   From: 2010.05.17/outbox.cif.g08.bks.cpg/sg14_9_cif.got.tgz:17280.got - 2010.06.03 17:49:19.
