data_PCOD9249796
_publ_section_title
;
Structure prediction by ZEFSAII (Michael W. Deem and Ramdas Pophale) SiO2 
 PCOD9249796
Probable space group: P 21/C
;
_chemical_formula_sum "Si O2"
_cell_formula_units_Z 28
_cell_length_a 6.100484
_cell_length_b 26.821361
_cell_length_c 8.318319
_cell_angle_alpha 90.000000
_cell_angle_beta 120.999478
_cell_angle_gamma 90.000000
_cell_volume 1166.671658
_symmetry_space_group_name_H-M "P 21/C"
_symmetry_group_IT_number 14
_symmetry_cell_setting 'monoclinic'
loop_
_space_group_symop_operation_xyz
x,y,z
-x,1/2+y,1/2-z
-x,-y,-z
x,1/2-y,1/2+z
loop_
_atom_site_type_symbol
_atom_site_label
_atom_site_fract_x
_atom_site_fract_y
_atom_site_fract_z
Si Si1 0.355143 0.195149 0.629152
Si Si2 0.437144 0.902588 0.784533
Si Si3 0.200744 0.484720 0.921398
Si Si4 0.206338 0.635695 0.517821
Si Si5 0.894909 0.945245 0.096349
Si Si6 0.290874 0.305702 0.735674
Si Si7 0.932967 0.897804 0.441936
O O1 0.572106 0.165526 0.807629
O O2 0.325156 0.251397 0.674751
O O3 0.398570 0.194947 0.455829
O O4 0.104642 0.161102 0.563275
O O5 0.573698 0.850035 0.809059
O O6 0.233591 0.910261 0.566817
O O7 0.286266 0.894891 0.891621
O O8 0.642703 0.945902 0.891235
O O9 0.204089 0.425612 0.960393
O O10 0.500000 0.500000 0.000000
O O11 0.964458 0.494980 0.291587
O O12 0.000000 0.500000 0.000000
O O13 0.085518 0.594556 0.589763
O O14 0.002783 0.676947 0.382603
O O15 0.815156 0.918828 0.234238
#
# Coordination Sequence:
#
# PCOD9249796 Si02
#       7
#     4   4   4   4   4   4   4
#     4  12  24  42  68  93 134 180 228 287 358 413
#     4  11  23  44  65 101 137 175 235 282 352 422
#     4  10  23  44  73 107 142 188 244 289 358 431
#     4  11  23  43  67  93 137 177 224 292 348 422
#     4  10  23  43  71  97 138 182 229 288 354 416
#     4  11  27  41  64  99 129 180 231 286 343 431
#     4  11  23  43  71  97 140 183 231 292 355 420
#
# _framework density 23.999898000000002
#
# number of rings (size 3 to 8) (size 9 to 14) (size 15 to 20)
#    0.000    1.143    2.857    2.571    6.000    2.857 
#    0.000    0.714    0.000    0.000    0.000    0.000 
#    0.000    0.000    0.000    0.000    0.000    0.000 
#
# Total GULP energy -156527.898301 kJ/mol
# GULP energy per Si atom -5590.282082 kJ/mol
# Density = 2.394527 g / cm^3
# Si number density = 23.999898 Si / 1000 Ang^3
#
#
#
# Elastic Constant Matrix: (Units=GPa)
#
#
# Indices 1 2 3 4 5 6 
#
# 1 88.2008 34.9650 29.4472 0.0000 15.6253 0.0000
# 2 34.9650 87.9548 15.4039 0.0000 -3.7306 0.0000
# 3 29.4472 15.4039 99.0607 0.0000 18.4197 0.0000
# 4 0.0000 0.0000 0.0000 39.5033 0.0000 -9.7492
# 5 15.6253 -3.7306 18.4197 0.0000 38.5193 0.0000
# 6 0.0000 0.0000 0.0000 -9.7492 0.0000 28.2702
#
#
#
# Elastic Compliance Matrix: (Units=1/GPa)
#
#
# Indices 1 2 3 4 5 6 
#
# 1 0.015590 -0.005971 -0.002659 0.000000 -0.005631 0.000000
# 2 -0.005971 0.014146 -0.001240 0.000000 0.004385 0.000000
# 3 -0.002659 -0.001240 0.011964 0.000000 -0.004762 0.000000
# 4 0.000000 0.000000 0.000000 0.027669 0.000000 0.009542
# 5 -0.005631 0.004385 -0.004762 0.000000 0.030947 0.000000
# 6 0.000000 0.000000 0.000000 0.009542 0.000000 0.038664
#
#
# Mechanical properties :
#
#
# Convention : Reuss Voigt Hill
#
# Bulk Modulus (GPa) = 45.53704 48.31652 46.92678
# Shear Modulus (GPa) = 30.11330 34.28523 32.19926
#
# Velocity S-wave (km/s) = 3.54605 3.78373 3.66682
# Velocity P-wave (km/s) = 5.98173 6.26614 6.12558
#
# Compressibility (1/GPa) = 0.02196015
#
# Stress axis : x y z
#
# Youngs Moduli (GPa) = 64.14384 70.69013 83.58675
#
# Poissons Ratio (x) = 0.42207 0.22225
# Poissons Ratio (y) = 0.38298 0.10367
# Poissons Ratio (z) = 0.17055 0.08767
#
# Static dielectric constant tensor:
#      x y z
#    x 1.966460 0.000000 0.022660 
#    y 0.000000 1.915060 0.000000 
#    z 0.022660 0.000000 1.914530 
# 
# From -- ./inp_files/6846.got.cif
#   From: 2010.05.17/outbox.cif.g08.bks.cpg/sg14_4_cif.got.tgz:6846.got - 2010.06.03 17:49:19.
