data_PCOD9249828
_publ_section_title
;
Structure prediction by ZEFSAII (Michael W. Deem and Ramdas Pophale) SiO2 
 PCOD9249828
Probable space group: P 21/C
;
_chemical_formula_sum "Si O2"
_cell_formula_units_Z 20
_cell_length_a 26.362388
_cell_length_b 7.407703
_cell_length_c 18.733339
_cell_angle_alpha 90.000000
_cell_angle_beta 164.897706
_cell_angle_gamma 90.000000
_cell_volume 953.154240
_symmetry_space_group_name_H-M "P 21/C"
_symmetry_group_IT_number 14
_symmetry_cell_setting 'monoclinic'
loop_
_space_group_symop_operation_xyz
x,y,z
-x,1/2+y,1/2-z
-x,-y,-z
x,1/2-y,1/2+z
loop_
_atom_site_type_symbol
_atom_site_label
_atom_site_fract_x
_atom_site_fract_y
_atom_site_fract_z
Si Si1 0.784774 0.468684 0.174816
Si Si2 0.589189 0.780276 0.981631
Si Si3 0.187794 0.539651 0.944839
Si Si4 0.895723 0.844426 0.524130
Si Si5 0.178433 0.954900 0.795170
O O1 0.633791 0.576620 0.018302
O O2 0.757743 0.253192 0.130871
O O3 0.000000 0.500000 0.500000
O O4 0.781378 0.551030 0.090399
O O5 0.726370 0.829313 0.235153
O O6 0.656407 0.908421 0.006649
O O7 0.368334 0.823910 0.699337
O O8 0.176117 0.420932 0.998995
O O9 0.989104 0.649773 0.664958
O O10 0.073230 0.959341 0.729276
O O11 0.000000 0.000000 0.500000
#
# Coordination Sequence:
#
# PCOD9249828 Si02
#       5
#     4   4   4   4   4
#     4  11  21  41  66  97 127 168 223 271 319 386
#     4  11  23  44  67  94 133 170 225 268 323 396
#     4  11  25  40  68  97 131 173 219 268 331 397
#     4  10  23  44  61  96 133 171 210 272 336 381
#     4   9  19  38  67  92 124 174 211 262 330 376
#
# _framework density 20.982962000000001
#
# number of rings (size 3 to 8) (size 9 to 14) (size 15 to 20)
#    0.000    1.600    6.000    0.600    8.400    0.000 
#    3.600    1.000    0.000    0.000    0.000    0.000 
#    0.000    0.000    0.000    0.000    0.000    0.000 
#
# Total GULP energy -111666.083055 kJ/mol
# GULP energy per Si atom -5583.304153 kJ/mol
# Density = 2.093520 g / cm^3
# Si number density = 20.982962 Si / 1000 Ang^3
#
#
#
# Elastic Constant Matrix: (Units=GPa)
#
#
# Indices 1 2 3 4 5 6 
#
# 1 108.3083 14.8325 21.9111 0.0000 -28.1997 0.0000
# 2 14.8325 52.0764 0.2308 0.0000 -2.8992 0.0000
# 3 21.9111 0.2308 79.7024 0.0000 -13.5667 0.0000
# 4 0.0000 0.0000 0.0000 26.9456 0.0000 9.1901
# 5 -28.1997 -2.8992 -13.5667 0.0000 26.8980 0.0000
# 6 0.0000 0.0000 0.0000 9.1901 0.0000 45.6158
#
#
#
# Elastic Compliance Matrix: (Units=1/GPa)
#
#
# Indices 1 2 3 4 5 6 
#
# 1 0.013300 -0.003065 -0.001455 0.000000 0.012880 0.000000
# 2 -0.003065 0.020032 0.000662 0.000000 -0.000720 0.000000
# 3 -0.001455 0.000662 0.013890 0.000000 0.005551 0.000000
# 4 0.000000 0.000000 0.000000 0.039850 0.000000 -0.008029
# 5 0.012880 -0.000720 0.005551 0.000000 0.053403 0.000000
# 6 0.000000 0.000000 0.000000 -0.008029 0.000000 0.023540
#
#
# Mechanical properties :
#
#
# Convention : Reuss Voigt Hill
#
# Bulk Modulus (GPa) = 25.31224 34.89289 30.10257
# Shear Modulus (GPa) = 27.04161 33.43273 30.23717
#
# Velocity S-wave (km/s) = 3.59380 3.99598 3.80021
# Velocity P-wave (km/s) = 5.41387 6.16082 5.79938
#
# Compressibility (1/GPa) = 0.03950658
#
# Stress axis : x y z
#
# Youngs Moduli (GPa) = 75.18545 49.91901 71.99558
#
# Poissons Ratio (x) = 0.15299 0.10477
# Poissons Ratio (y) = 0.23043 -0.04766
# Poissons Ratio (z) = 0.10941 -0.03304
#
# Static dielectric constant tensor:
#      x y z
#    x 1.776640 0.000000 -0.003690 
#    y 0.000000 1.858270 0.000000 
#    z -0.003690 0.000000 1.774850 
# 
# From -- ./inp_files/50168.got.cif
#   From: 2010.05.17/outbox.cif.g08.bks.cpg/sg14_26_cif.got.tgz:50168.got - 2010.06.03 17:49:19.
