data_PCOD9249805
_publ_section_title
;
Structure prediction by ZEFSAII (Michael W. Deem and Ramdas Pophale) SiO2 
 PCOD9249805
Probable space group: P 21/C
;
_chemical_formula_sum "Si O2"
_cell_formula_units_Z 16
_cell_length_a 15.434190
_cell_length_b 5.032151
_cell_length_c 26.178249
_cell_angle_alpha 90.000000
_cell_angle_beta 17.395155
_cell_angle_gamma 90.000000
_cell_volume 607.842875
_symmetry_space_group_name_H-M "P 21/C"
_symmetry_group_IT_number 14
_symmetry_cell_setting 'monoclinic'
loop_
_space_group_symop_operation_xyz
x,y,z
-x,1/2+y,1/2-z
-x,-y,-z
x,1/2-y,1/2+z
loop_
_atom_site_type_symbol
_atom_site_label
_atom_site_fract_x
_atom_site_fract_y
_atom_site_fract_z
Si Si1 0.854121 0.285483 0.523534
Si Si2 0.049109 0.625436 0.189108
Si Si3 0.502943 0.785800 0.680073
Si Si4 0.365287 0.415165 0.674107
O O1 0.717183 0.553991 0.579410
O O2 0.784259 0.270761 0.622939
O O3 0.178793 0.241399 0.322015
O O4 0.672678 0.049640 0.599086
O O5 0.094561 0.356142 0.195273
O O6 0.837329 0.561325 0.261258
O O7 0.345150 0.760157 0.003535
O O8 0.436440 0.697880 0.660015
#
# Coordination Sequence:
#
# PCOD9249805 Si02
#       4
#     4   4   4   4
#     4  10  23  43  72 112 149 187 235 288 359 444
#     4  12  30  50  74 108 142 190 252 310 358 420
#     4  10  23  43  72 112 149 187 235 288 359 444
#     4  12  25  50  80 102 150 186 248 293 380 414
#
# _framework density 26.322590000000002
#
# number of rings (size 3 to 8) (size 9 to 14) (size 15 to 20)
#    0.000    1.000    2.500    2.250    3.500    6.000 
#    0.000    7.500    0.000    0.000    0.000    0.000 
#    0.000    0.000    0.000    0.000    0.000    0.000 
#
# Total GULP energy -89947.873610 kJ/mol
# GULP energy per Si atom -5621.742101 kJ/mol
# Density = 2.626268 g / cm^3
# Si number density = 26.322590 Si / 1000 Ang^3
#
#
#
# Elastic Constant Matrix: (Units=GPa)
#
#
# Indices 1 2 3 4 5 6 
#
# 1 190.5611 50.2573 50.5081 0.0000 -2.3214 0.0000
# 2 50.2573 137.8859 21.0314 0.0000 -3.0573 0.0000
# 3 50.5081 21.0314 159.1383 0.0000 8.4237 0.0000
# 4 0.0000 0.0000 0.0000 42.4889 0.0000 8.9517
# 5 -2.3214 -3.0573 8.4237 0.0000 42.1525 0.0000
# 6 0.0000 0.0000 0.0000 8.9517 0.0000 41.5258
#
#
#
# Elastic Compliance Matrix: (Units=1/GPa)
#
#
# Indices 1 2 3 4 5 6 
#
# 1 0.006244 -0.001997 -0.001747 0.000000 0.000548 0.000000
# 2 -0.001997 0.008063 -0.000462 0.000000 0.000567 0.000000
# 3 -0.001747 -0.000462 0.006980 0.000000 -0.001525 0.000000
# 4 0.000000 0.000000 0.000000 0.024655 0.000000 -0.005315
# 5 0.000548 0.000567 -0.001525 0.000000 0.024099 0.000000
# 6 0.000000 0.000000 0.000000 -0.005315 0.000000 0.025227
#
#
# Mechanical properties :
#
#
# Convention : Reuss Voigt Hill
#
# Bulk Modulus (GPa) = 77.66570 81.24209 79.45390
# Shear Modulus (GPa) = 46.30789 49.61932 47.96361
#
# Velocity S-wave (km/s) = 4.19889 4.34642 4.27329
# Velocity P-wave (km/s) = 7.28539 7.49130 7.38906
#
# Compressibility (1/GPa) = 0.01287570
#
# Stress axis : x y z
#
# Youngs Moduli (GPa) = 160.15162 124.01786 143.26680
#
# Poissons Ratio (x) = 0.24770 0.25026
# Poissons Ratio (y) = 0.31987 0.06615
# Poissons Ratio (z) = 0.27976 0.05727
#
# Static dielectric constant tensor:
#      x y z
#    x 2.026500 0.000000 0.040420 
#    y 0.000000 2.066920 0.000000 
#    z 0.040420 0.000000 2.069900 
# 
# From -- ./inp_files/14715.got.cif
#   From: 2010.05.17/outbox.cif.g08.bks.cpg/sg14_8_cif.got.tgz:14715.got - 2010.06.03 17:49:19.
