data_PCOD9249160
_publ_section_title
;
Structure prediction by ZEFSAII (Michael W. Deem and Ramdas Pophale) SiO2 
 PCOD9249160
Probable space group: P 21/C
;
_chemical_formula_sum "Si O2"
_cell_formula_units_Z 32
_cell_length_a 19.086052
_cell_length_b 10.079655
_cell_length_c 12.005495
_cell_angle_alpha 90.000000
_cell_angle_beta 143.473139
_cell_angle_gamma 90.000000
_cell_volume 1374.689000
_symmetry_space_group_name_H-M "P 21/C"
_symmetry_group_IT_number 14
_symmetry_cell_setting 'monoclinic'
loop_
_space_group_symop_operation_xyz
x,y,z
-x,1/2+y,1/2-z
-x,-y,-z
x,1/2-y,1/2+z
loop_
_atom_site_type_symbol
_atom_site_label
_atom_site_fract_x
_atom_site_fract_y
_atom_site_fract_z
Si Si1 0.691728 0.530879 0.468638
Si Si2 0.073380 0.863016 0.080146
Si Si3 0.314187 0.574367 0.958547
Si Si4 0.309009 0.281092 0.876017
Si Si5 0.915144 0.762393 0.538330
Si Si6 0.924486 0.469058 0.651356
Si Si7 0.468606 0.327709 0.896905
Si Si8 0.518206 0.541030 0.650706
O O1 0.705735 0.669765 0.551155
O O2 0.816496 0.469585 0.599145
O O3 0.619325 0.560810 0.263081
O O4 0.604385 0.454282 0.439103
O O5 0.190612 0.851174 0.304242
O O6 0.983810 0.751875 0.008072
O O7 0.111148 0.878615 0.000676
O O8 0.000000 0.000000 0.000000
O O9 0.275550 0.425446 0.876120
O O10 0.401543 0.631673 0.975862
O O11 0.393446 0.555400 0.169922
O O12 0.222004 0.240300 0.664830
O O13 0.438303 0.299617 0.986835
O O14 0.941871 0.623875 0.638208
O O15 0.960897 0.893982 0.656200
O O16 0.438752 0.191179 0.796181
O O17 0.500000 0.500000 0.500000
#
# Coordination Sequence:
#
# PCOD9249160 Si02
#       8
#     4   4   4   4   4   4   4   4
#     4  11  24  42  69 102 140 181 238 288 351 433
#     4  10  22  47  68  99 139 188 239 289 354 434
#     4  11  23  42  70  99 136 188 235 275 357 433
#     4  12  22  43  71  98 138 193 236 285 353 435
#     4  11  26  44  73 103 143 188 246 292 361 425
#     4  11  25  47  71 102 141 187 240 300 357 426
#     4  11  23  41  69  99 138 182 230 290 354 416
#     4  11  24  44  64 106 141 176 230 296 355 408
#
# _framework density 23.277992000000001
#
# number of rings (size 3 to 8) (size 9 to 14) (size 15 to 20)
#    0.000    1.000    6.250    0.375    3.500    3.500 
#    2.250    0.000    0.000    0.000    0.000    0.000 
#    0.000    0.000    0.000    0.000    0.000    0.000 
#
# Total GULP energy -178819.856502 kJ/mol
# GULP energy per Si atom -5588.120516 kJ/mol
# Density = 2.322501 g / cm^3
# Si number density = 23.277992 Si / 1000 Ang^3
#
#
#
# Elastic Constant Matrix: (Units=GPa)
#
#
# Indices 1 2 3 4 5 6 
#
# 1 120.3878 15.8813 37.0851 0.0000 3.2579 0.0000
# 2 15.8813 58.3354 20.1116 0.0000 -2.9818 0.0000
# 3 37.0851 20.1116 99.8807 0.0000 10.8085 0.0000
# 4 0.0000 0.0000 0.0000 26.9562 0.0000 2.0315
# 5 3.2579 -2.9818 10.8085 0.0000 31.2855 0.0000
# 6 0.0000 0.0000 0.0000 2.0315 0.0000 24.2644
#
#
#
# Elastic Compliance Matrix: (Units=1/GPa)
#
#
# Indices 1 2 3 4 5 6 
#
# 1 0.009495 -0.001473 -0.003227 0.000000 -0.000014 0.000000
# 2 -0.001473 0.018954 -0.003617 0.000000 0.003209 0.000000
# 3 -0.003227 -0.003617 0.012403 0.000000 -0.004294 0.000000
# 4 0.000000 0.000000 0.000000 0.037333 0.000000 -0.003126
# 5 -0.000014 0.003209 -0.004294 0.000000 0.033754 0.000000
# 6 0.000000 0.000000 0.000000 -0.003126 0.000000 0.041474
#
#
# Mechanical properties :
#
#
# Convention : Reuss Voigt Hill
#
# Bulk Modulus (GPa) = 41.29160 47.19556 44.24358
# Shear Modulus (GPa) = 28.07065 30.20294 29.13680
#
# Velocity S-wave (km/s) = 3.47636 3.60598 3.54176
# Velocity P-wave (km/s) = 5.82155 6.13646 5.98108
#
# Compressibility (1/GPa) = 0.02421800
#
# Stress axis : x y z
#
# Youngs Moduli (GPa) = 105.31406 52.75847 80.62429
#
# Poissons Ratio (x) = 0.07772 0.26021
# Poissons Ratio (y) = 0.15514 0.29161
# Poissons Ratio (z) = 0.33990 0.19082
#
# Static dielectric constant tensor:
#      x y z
#    x 1.911480 0.000000 -0.041280 
#    y 0.000000 1.795020 0.000000 
#    z -0.041280 0.000000 1.908010 
# 
# From -- ./inp_files/33946.got.cif
#   From: 2010.05.17/outbox.cif.g08.bks.cpg/sg14_17_cif.got.tgz:33946.got - 2010.06.03 17:49:19.
