data_PCOD9249816
_publ_section_title
;
Structure prediction by ZEFSAII (Michael W. Deem and Ramdas Pophale) SiO2 
 PCOD9249816
Probable space group: P 21/C
;
_chemical_formula_sum "Si O2"
_cell_formula_units_Z 30
_cell_length_a 12.865868
_cell_length_b 9.402710
_cell_length_c 17.969148
_cell_angle_alpha 90.000000
_cell_angle_beta 148.810190
_cell_angle_gamma 90.000000
_cell_volume 1125.756493
_symmetry_space_group_name_H-M "P 21/C"
_symmetry_group_IT_number 14
_symmetry_cell_setting 'monoclinic'
loop_
_space_group_symop_operation_xyz
x,y,z
-x,1/2+y,1/2-z
-x,-y,-z
x,1/2-y,1/2+z
loop_
_atom_site_type_symbol
_atom_site_label
_atom_site_fract_x
_atom_site_fract_y
_atom_site_fract_z
Si Si1 0.785243 0.726947 0.110967
Si Si2 0.619184 0.053913 0.747217
Si Si3 0.372021 0.167661 0.127604
Si Si4 0.348510 0.028543 0.791406
Si Si5 0.000000 0.000000 0.000000
Si Si6 0.750635 0.078044 0.546565
Si Si7 0.365688 0.806542 0.920496
Si Si8 0.981744 0.724974 0.889622
O O1 0.851346 0.568741 0.131177
O O2 0.881648 0.775920 0.246182
O O3 0.785778 0.817310 0.035924
O O4 0.545562 0.733641 0.984154
O O5 0.722266 0.925725 0.862668
O O6 0.482157 0.963863 0.608193
O O7 0.480671 0.176872 0.699527
O O8 0.831113 0.107033 0.849060
O O9 0.546909 0.062533 0.207584
O O10 0.173431 0.131990 0.657488
O O11 0.270017 0.920122 0.806588
O O12 0.524423 0.113087 0.943130
O O13 0.992888 0.119598 0.064648
O O14 0.769691 0.191017 0.623521
O O15 0.816536 0.141879 0.507722
#
# Coordination Sequence:
#
# PCOD9249816 Si02
#       8
#     4   4   4   4   2   4   4   4
#     4   9  21  43  65 106 134 179 234 290 353 420
#     4  11  25  46  66 102 133 193 233 297 353 433
#     4  10  23  43  73  97 142 183 241 285 364 426
#     4   9  20  39  64  95 133 174 228 284 342 421
#     4  12  28  46  66  96 138 178 244 288 362 418
#     4  11  23  40  69  97 143 179 234 285 352 428
#     4   9  18  36  67  93 132 180 223 283 348 413
#     4  11  25  42  67 105 138 186 235 297 355 424
#
# _framework density 26.648747
#
# number of rings (size 3 to 8) (size 9 to 14) (size 15 to 20)
#    0.000    1.867    0.000    3.600    7.467    3.200 
#    4.800    1.333    0.000    0.000    0.000    0.000 
#    0.000    0.000    0.000    0.000    0.000    0.000 
#
# Total GULP energy -167432.982913 kJ/mol
# GULP energy per Si atom -5581.099430 kJ/mol
# Density = 2.658809 g / cm^3
# Si number density = 26.648747 Si / 1000 Ang^3
#
#
#
# Elastic Constant Matrix: (Units=GPa)
#
#
# Indices 1 2 3 4 5 6 
#
# 1 71.7803 39.9783 -3.4264 0.0000 2.1472 0.0000
# 2 39.9783 136.7778 14.8222 0.0000 -18.9000 0.0000
# 3 -3.4264 14.8222 82.9101 0.0000 -3.0960 0.0000
# 4 0.0000 0.0000 0.0000 26.1920 0.0000 -7.8846
# 5 2.1472 -18.9000 -3.0960 0.0000 29.9212 0.0000
# 6 0.0000 0.0000 0.0000 -7.8846 0.0000 59.0864
#
#
#
# Elastic Compliance Matrix: (Units=1/GPa)
#
#
# Indices 1 2 3 4 5 6 
#
# 1 0.017466 -0.005948 0.001604 0.000000 -0.004845 0.000000
# 2 -0.005948 0.010167 -0.001815 0.000000 0.006661 0.000000
# 3 0.001604 -0.001815 0.012453 0.000000 0.000027 0.000000
# 4 0.000000 0.000000 0.000000 0.039777 0.000000 0.005308
# 5 -0.004845 0.006661 0.000027 0.000000 0.037979 0.000000
# 6 0.000000 0.000000 0.000000 0.005308 0.000000 0.017633
#
#
# Mechanical properties :
#
#
# Convention : Reuss Voigt Hill
#
# Bulk Modulus (GPa) = 36.01229 43.80181 39.90705
# Shear Modulus (GPa) = 31.83735 39.04620 35.44178
#
# Velocity S-wave (km/s) = 3.46020 3.83197 3.65082
# Velocity P-wave (km/s) = 5.43203 6.00425 5.72530
#
# Compressibility (1/GPa) = 0.02776830
#
# Stress axis : x y z
#
# Youngs Moduli (GPa) = 57.25466 98.35930 80.30207
#
# Poissons Ratio (x) = 0.58507 -0.12883
# Poissons Ratio (y) = 0.34057 0.14572
# Poissons Ratio (z) = -0.09185 0.17849
#
# Static dielectric constant tensor:
#      x y z
#    x -0.067850 0.000000 -2.647300 
#    y 0.000000 1.862180 0.000000 
#    z -2.647300 0.000000 -1.127200 
# 
# From -- ./inp_files/68386.got.cif
#   From: 2010.05.17/outbox.cif.g08.bks.cpg/sg14_35_cif.got.tgz:68386.got - 2010.06.03 17:49:19.
