data_PCOD9249051
_publ_section_title
;
Structure prediction by ZEFSAII (Michael W. Deem and Ramdas Pophale) SiO2 
 PCOD9249051
Probable space group: P 21/C
;
_chemical_formula_sum "Si O2"
_cell_formula_units_Z 28
_cell_length_a 10.075402
_cell_length_b 4.912699
_cell_length_c 21.142513
_cell_angle_alpha 90.000000
_cell_angle_beta 107.296456
_cell_angle_gamma 90.000000
_cell_volume 999.176223
_symmetry_space_group_name_H-M "P 21/C"
_symmetry_group_IT_number 14
_symmetry_cell_setting 'monoclinic'
loop_
_space_group_symop_operation_xyz
x,y,z
-x,1/2+y,1/2-z
-x,-y,-z
x,1/2-y,1/2+z
loop_
_atom_site_type_symbol
_atom_site_label
_atom_site_fract_x
_atom_site_fract_y
_atom_site_fract_z
Si Si1 0.500000 0.500000 0.000000
Si Si2 0.507953 0.479184 0.710801
Si Si3 0.762250 0.309801 0.962330
Si Si4 0.212414 0.036268 0.153184
Si Si5 0.500000 0.500000 0.500000
Si Si6 0.983747 0.436996 0.154168
Si Si7 0.191560 0.189980 0.954149
Si Si8 0.198450 0.689670 0.276447
O O1 0.641864 0.780434 0.038879
O O2 0.468523 0.748573 0.945164
O O3 0.522483 0.290286 0.775481
O O4 0.367573 0.356538 0.661163
O O5 0.656397 0.462971 0.700047
O O6 0.796205 0.207907 0.898106
O O7 0.600202 0.278580 0.964073
O O8 0.833781 0.104378 0.021796
O O9 0.812887 0.605383 0.987080
O O10 0.089868 0.250392 0.130881
O O11 0.213128 0.928041 0.225649
O O12 0.075406 0.515106 0.228108
O O13 0.916709 0.697088 0.110870
O O14 0.851627 0.280298 0.162700
#
# Coordination Sequence:
#
# PCOD9249051 Si02
#       8
#     2   4   4   4   2   4   4   4
#     4   8  16  38  64  92 140 188 246 310 380 454
#     4  10  22  45  74 107 147 196 254 323 395 472
#     4  10  23  44  71 111 153 206 263 332 400 498
#     4  11  25  45  77 111 156 206 269 339 415 490
#     4   8  16  40  64  94 144 192 254 308 380 472
#     4  12  25  46  76 111 160 211 268 343 411 499
#     4  10  24  43  72 109 153 209 264 328 408 485
#     4  11  25  48  74 112 155 203 271 330 410 481
#
# _framework density 28.023084000000001
#
# number of rings (size 3 to 8) (size 9 to 14) (size 15 to 20)
#    0.000    1.714    2.857    0.000    4.000    1.143 
#    0.000   35.714    0.000    0.000    0.000    0.000 
#    0.000    0.000    0.000    0.000    0.000    0.000 
#
# Total GULP energy -156238.316102 kJ/mol
# GULP energy per Si atom -5579.939861 kJ/mol
# Density = 2.795930 g / cm^3
# Si number density = 28.023084 Si / 1000 Ang^3
#
#
#
# Elastic Constant Matrix: (Units=GPa)
#
#
# Indices 1 2 3 4 5 6 
#
# 1 142.5359 43.6711 39.8051 0.0000 -1.0968 0.0000
# 2 43.6711 177.5476 36.3062 0.0000 -8.4619 0.0000
# 3 39.8051 36.3062 85.3807 0.0000 -3.4861 0.0000
# 4 0.0000 0.0000 0.0000 31.0311 0.0000 -0.2179
# 5 -1.0968 -8.4619 -3.4861 0.0000 42.6259 0.0000
# 6 0.0000 0.0000 0.0000 -0.2179 0.0000 40.0251
#
#
#
# Elastic Compliance Matrix: (Units=1/GPa)
#
#
# Indices 1 2 3 4 5 6 
#
# 1 0.008368 -0.001395 -0.003322 0.000000 -0.000333 0.000000
# 2 -0.001395 0.006445 -0.002046 0.000000 0.001076 0.000000
# 3 -0.003322 -0.002046 0.014158 0.000000 0.000666 0.000000
# 4 0.000000 0.000000 0.000000 0.032227 0.000000 0.000175
# 5 -0.000333 0.001076 0.000666 0.000000 0.023719 0.000000
# 6 0.000000 0.000000 0.000000 0.000175 0.000000 0.024985
#
#
# Mechanical properties :
#
#
# Convention : Reuss Voigt Hill
#
# Bulk Modulus (GPa) = 64.74394 71.66990 68.20692
# Shear Modulus (GPa) = 38.88685 41.78185 40.33435
#
# Velocity S-wave (km/s) = 3.72919 3.86551 3.79796
# Velocity P-wave (km/s) = 6.45728 6.74935 6.60493
#
# Compressibility (1/GPa) = 0.01544546
#
# Stress axis : x y z
#
# Youngs Moduli (GPa) = 119.49914 155.15528 70.63016
#
# Poissons Ratio (x) = 0.21643 0.23462
# Poissons Ratio (y) = 0.16670 0.14454
# Poissons Ratio (z) = 0.39695 0.31751
#
# Static dielectric constant tensor:
#      x y z
#    x 1.913680 0.000000 -0.081720 
#    y 0.000000 1.097780 0.000000 
#    z -0.081720 0.000000 1.701890 
# 
# From -- ./inp_files/66338.got.cif
#   From: 2010.05.17/outbox.cif.g08.bks.cpg/sg14_34_cif.got.tgz:66338.got - 2010.06.03 17:49:19.
