data_PCOD9249295
_publ_section_title
;
Structure prediction by ZEFSAII (Michael W. Deem and Ramdas Pophale) SiO2 
 PCOD9249295
Probable space group: P 21/C
;
_chemical_formula_sum "Si O2"
_cell_formula_units_Z 32
_cell_length_a 13.674047
_cell_length_b 7.611045
_cell_length_c 19.373138
_cell_angle_alpha 90.000000
_cell_angle_beta 39.037059
_cell_angle_gamma 90.000000
_cell_volume 1269.871541
_symmetry_space_group_name_H-M "P 21/C"
_symmetry_group_IT_number 14
_symmetry_cell_setting 'monoclinic'
loop_
_space_group_symop_operation_xyz
x,y,z
-x,1/2+y,1/2-z
-x,-y,-z
x,1/2-y,1/2+z
loop_
_atom_site_type_symbol
_atom_site_label
_atom_site_fract_x
_atom_site_fract_y
_atom_site_fract_z
Si Si1 0.680791 0.796815 0.933404
Si Si2 0.816301 0.274960 0.426319
Si Si3 0.951691 0.957819 0.283252
Si Si4 0.456186 0.969591 0.424268
Si Si5 0.214887 0.893969 0.760469
Si Si6 0.555161 0.046385 0.722627
Si Si7 0.242382 0.598775 0.394488
Si Si8 0.606220 0.478130 0.343611
O O1 0.853376 0.720505 0.852689
O O2 0.662797 0.883726 0.868756
O O3 0.591842 0.611340 0.992942
O O4 0.571984 0.918261 0.041935
O O5 0.918934 0.096728 0.361586
O O6 0.837474 0.363755 0.488883
O O7 0.641913 0.205926 0.510184
O O8 0.876665 0.401671 0.333160
O O9 0.882749 0.043829 0.251040
O O10 0.403250 0.028382 0.375666
O O11 0.639059 0.974105 0.318166
O O12 0.146746 0.903875 0.875630
O O13 0.288149 0.699058 0.710728
O O14 0.639406 0.234664 0.678376
O O15 0.609798 0.954482 0.763058
O O16 0.367998 0.057301 0.829957
#
# Coordination Sequence:
#
# PCOD9249295 Si02
#       8
#     4   4   4   4   4   4   4   4
#     4   9  19  34  55  84 116 150 195 237 290 347
#     4  10  23  40  60  83 120 160 197 236 288 346
#     4  11  24  40  58  83 119 160 196 235 285 348
#     4   8  17  36  60  86 117 153 192 243 293 340
#     4   9  19  37  61  88 117 146 190 245 296 343
#     4   9  17  32  56  86 118 148 187 237 293 342
#     4   9  19  36  59  86 117 152 191 243 295 345
#     4   9  18  31  55  89 118 147 190 245 294 343
#
# _framework density 25.199399
#
# number of rings (size 3 to 8) (size 9 to 14) (size 15 to 20)
#    0.000    2.750    0.000    0.750    0.000   13.000 
#    0.000    0.000    0.000   13.500    0.000    0.000 
#    0.000    0.000    0.000    0.000    0.000    0.000 
#
# Total GULP energy -178810.769365 kJ/mol
# GULP energy per Si atom -5587.836543 kJ/mol
# Density = 2.514204 g / cm^3
# Si number density = 25.199399 Si / 1000 Ang^3
#
#
#
# Elastic Constant Matrix: (Units=GPa)
#
#
# Indices 1 2 3 4 5 6 
#
# 1 102.4840 33.7331 40.2409 0.0000 22.3987 0.0000
# 2 33.7331 108.8905 38.4514 0.0000 18.3470 0.0000
# 3 40.2409 38.4514 119.4339 0.0000 19.5549 0.0000
# 4 0.0000 0.0000 0.0000 42.2196 0.0000 -0.1111
# 5 22.3987 18.3470 19.5549 0.0000 32.0596 0.0000
# 6 0.0000 0.0000 0.0000 -0.1111 0.0000 40.4399
#
#
#
# Elastic Compliance Matrix: (Units=1/GPa)
#
#
# Indices 1 2 3 4 5 6 
#
# 1 0.012809 -0.001985 -0.002664 0.000000 -0.006189 0.000000
# 2 -0.001985 0.011239 -0.002359 0.000000 -0.003606 0.000000
# 3 -0.002664 -0.002359 0.010559 0.000000 -0.003229 0.000000
# 4 0.000000 0.000000 0.000000 0.023686 0.000000 0.000065
# 5 -0.006189 -0.003606 -0.003229 0.000000 0.039549 0.000000
# 6 0.000000 0.000000 0.000000 0.000065 0.000000 0.024728
#
#
# Mechanical properties :
#
#
# Convention : Reuss Voigt Hill
#
# Bulk Modulus (GPa) = 48.56309 61.73991 55.15150
# Shear Modulus (GPa) = 34.85546 37.50270 36.17908
#
# Velocity S-wave (km/s) = 3.72316 3.86195 3.79319
# Velocity P-wave (km/s) = 6.14784 6.66633 6.41233
#
# Compressibility (1/GPa) = 0.02059177
#
# Stress axis : x y z
#
# Youngs Moduli (GPa) = 78.06740 88.97502 94.71028
#
# Poissons Ratio (x) = 0.17661 0.25227
# Poissons Ratio (y) = 0.15496 0.22344
# Poissons Ratio (z) = 0.20794 0.20991
#
# Static dielectric constant tensor:
#      x y z
#    x 2.014070 0.000000 -0.026270 
#    y 0.000000 2.101800 0.000000 
#    z -0.026270 0.000000 2.031960 
# 
# From -- ./inp_files/68088.got.cif
#   From: 2010.05.17/outbox.cif.g08.bks.cpg/sg14_35_cif.got.tgz:68088.got - 2010.06.03 17:49:19.
