data_PCOD9249294
_publ_section_title
;
Structure prediction by ZEFSAII (Michael W. Deem and Ramdas Pophale) SiO2 
 PCOD9249294
Probable space group: P 21/C
;
_chemical_formula_sum "Si O2"
_cell_formula_units_Z 32
_cell_length_a 12.544674
_cell_length_b 10.102876
_cell_length_c 15.765588
_cell_angle_alpha 90.000000
_cell_angle_beta 40.426800
_cell_angle_gamma 90.000000
_cell_volume 1295.712083
_symmetry_space_group_name_H-M "P 21/C"
_symmetry_group_IT_number 14
_symmetry_cell_setting 'monoclinic'
loop_
_space_group_symop_operation_xyz
x,y,z
-x,1/2+y,1/2-z
-x,-y,-z
x,1/2-y,1/2+z
loop_
_atom_site_type_symbol
_atom_site_label
_atom_site_fract_x
_atom_site_fract_y
_atom_site_fract_z
Si Si1 0.018966 0.785736 0.875103
Si Si2 0.168613 0.799729 0.128257
Si Si3 0.405468 0.161426 0.969363
Si Si4 0.176103 0.983011 0.984059
Si Si5 0.760704 0.066409 0.754399
Si Si6 0.739992 0.878320 0.628701
Si Si7 0.449860 0.216635 0.617924
Si Si8 0.531228 0.057304 0.320435
O O1 0.057799 0.798677 0.751013
O O2 0.178584 0.710673 0.813409
O O3 0.975571 0.922229 0.944031
O O4 0.870765 0.686675 0.987305
O O5 0.171637 0.925449 0.191515
O O6 0.356815 0.752219 0.007063
O O7 0.114683 0.853916 0.071205
O O8 0.278242 0.081538 0.987780
O O9 0.564712 0.066257 0.876638
O O10 0.470949 0.299976 0.889690
O O11 0.362639 0.210580 0.090877
O O12 0.307676 0.944663 0.834658
O O13 0.825908 0.956907 0.652583
O O14 0.627123 0.771597 0.747541
O O15 0.621501 0.978055 0.649590
O O16 0.440909 0.057565 0.627407
#
# Coordination Sequence:
#
# PCOD9249294 Si02
#       8
#     4   4   4   4   4   4   4   4
#     4  10  23  40  59  98 130 157 209 264 327 368
#     4   9  22  39  62  90 126 170 201 259 320 372
#     4  11  22  41  63  92 127 170 211 258 320 382
#     4  12  21  41  66  94 129 162 220 265 308 385
#     4   9  21  40  62  90 126 165 207 260 314 384
#     4  12  20  38  69  92 122 166 216 267 309 374
#     4  11  22  40  64  93 126 170 216 256 318 383
#     4  12  23  36  66  98 126 159 222 268 310 367
#
# _framework density 24.696846000000001
#
# number of rings (size 3 to 8) (size 9 to 14) (size 15 to 20)
#    0.750    0.500    5.000    1.500    0.000    3.000 
#    0.000    0.625    0.000    0.000    0.000    0.000 
#    0.000    0.000    0.000    0.000    0.000    0.000 
#
# Total GULP energy -178668.425897 kJ/mol
# GULP energy per Si atom -5583.388309 kJ/mol
# Density = 2.464063 g / cm^3
# Si number density = 24.696846 Si / 1000 Ang^3
#
#
#
# Elastic Constant Matrix: (Units=GPa)
#
#
# Indices 1 2 3 4 5 6 
#
# 1 25.5659 5.7075 19.0810 0.0000 -6.1977 0.0000
# 2 5.7075 80.6943 32.0066 0.0000 12.4509 0.0000
# 3 19.0810 32.0066 129.8861 0.0000 -4.0158 0.0000
# 4 0.0000 0.0000 0.0000 47.3013 0.0000 12.5235
# 5 -6.1977 12.4509 -4.0158 0.0000 22.8579 0.0000
# 6 0.0000 0.0000 0.0000 12.5235 0.0000 34.1825
#
#
#
# Elastic Compliance Matrix: (Units=1/GPa)
#
#
# Indices 1 2 3 4 5 6 
#
# 1 0.047412 -0.003158 -0.005767 0.000000 0.013562 0.000000
# 2 -0.003158 0.015628 -0.003697 0.000000 -0.010019 0.000000
# 3 -0.005767 -0.003697 0.009523 0.000000 0.002123 0.000000
# 4 0.000000 0.000000 0.000000 0.023412 0.000000 -0.008578
# 5 0.013562 -0.010019 0.002123 0.000000 0.053256 0.000000
# 6 0.000000 0.000000 0.000000 -0.008578 0.000000 0.032397
#
#
# Mechanical properties :
#
#
# Convention : Reuss Voigt Hill
#
# Bulk Modulus (GPa) = 21.13387 38.85959 29.99673
# Shear Modulus (GPa) = 22.45717 32.82509 27.64113
#
# Velocity S-wave (km/s) = 3.01875 3.64967 3.34910
# Velocity P-wave (km/s) = 4.55262 5.79041 5.20842
#
# Compressibility (1/GPa) = 0.04731742
#
# Stress axis : x y z
#
# Youngs Moduli (GPa) = 21.09174 63.98775 105.00970
#
# Poissons Ratio (x) = 0.20210 0.60564
# Poissons Ratio (y) = 0.06662 0.38820
# Poissons Ratio (z) = 0.12165 0.23655
#
# Static dielectric constant tensor:
#      x y z
#    x 2.072230 0.000000 0.057830 
#    y 0.000000 2.008530 0.000000 
#    z 0.057830 0.000000 1.933110 
# 
# From -- ./inp_files/47136.got.cif
#   From: 2010.05.17/outbox.cif.g08.bks.cpg/sg14_24_cif.got.tgz:47136.got - 2010.06.03 17:49:19.
