data_PCOD9249423
_publ_section_title
;
Structure prediction by ZEFSAII (Michael W. Deem and Ramdas Pophale) SiO2 
 PCOD9249423
Probable space group: P 21/C
;
_chemical_formula_sum "Si O2"
_cell_formula_units_Z 28
_cell_length_a 7.961729
_cell_length_b 13.614100
_cell_length_c 13.771178
_cell_angle_alpha 90.000000
_cell_angle_beta 51.472238
_cell_angle_gamma 90.000000
_cell_volume 1167.735063
_symmetry_space_group_name_H-M "P 21/C"
_symmetry_group_IT_number 14
_symmetry_cell_setting 'monoclinic'
loop_
_space_group_symop_operation_xyz
x,y,z
-x,1/2+y,1/2-z
-x,-y,-z
x,1/2-y,1/2+z
loop_
_atom_site_type_symbol
_atom_site_label
_atom_site_fract_x
_atom_site_fract_y
_atom_site_fract_z
Si Si1 0.565599 0.243449 0.699079
Si Si2 0.955235 0.456195 0.186252
Si Si3 0.906188 0.148327 0.437083
Si Si4 0.692941 0.947545 0.182723
Si Si5 0.659663 0.571419 0.173225
Si Si6 0.859438 0.963584 0.924074
Si Si7 0.056347 0.736705 0.288906
O O1 0.727561 0.206240 0.558975
O O2 0.381519 0.162534 0.775282
O O3 0.456970 0.347794 0.717237
O O4 0.707340 0.255571 0.746566
O O5 0.131638 0.535835 0.087351
O O6 0.832504 0.497799 0.325086
O O7 0.769206 0.471351 0.173595
O O8 0.034364 0.346896 0.171495
O O9 0.945180 0.205417 0.322709
O O10 0.120812 0.132247 0.426643
O O11 0.548690 0.021700 0.299951
O O12 0.937984 0.969512 0.117977
O O13 0.681524 0.970809 0.071161
O O14 0.932167 0.849571 0.890423
#
# Coordination Sequence:
#
# PCOD9249423 Si02
#       7
#     4   4   4   4   4   4   4
#     4  12  24  42  70  97 132 172 219 269 328 393
#     4   9  22  43  65  90 134 173 209 270 332 380
#     4   9  25  45  61  96 134 169 210 277 322 380
#     4  11  24  41  67 100 125 175 219 272 327 387
#     4  10  23  41  65  98 126 171 221 261 330 390
#     4  10  24  41  66  96 135 164 222 277 319 388
#     4  11  22  43  67  96 130 178 214 263 333 388
#
# _framework density 23.978044000000001
#
# number of rings (size 3 to 8) (size 9 to 14) (size 15 to 20)
#    0.857    0.857    2.857    0.000    6.000    4.000 
#    0.000    2.857    0.000    0.000    0.000    0.000 
#    0.000    0.000    0.000    0.000    0.000    0.000 
#
# Total GULP energy -155970.664740 kJ/mol
# GULP energy per Si atom -5570.380884 kJ/mol
# Density = 2.392347 g / cm^3
# Si number density = 23.978044 Si / 1000 Ang^3
#
#
#
# Elastic Constant Matrix: (Units=GPa)
#
#
# Indices 1 2 3 4 5 6 
#
# 1 37.6807 10.3406 18.9201 0.0000 -0.5820 0.0000
# 2 10.3406 175.5988 33.3248 0.0000 -8.7762 0.0000
# 3 18.9201 33.3248 81.3064 0.0000 -5.1119 0.0000
# 4 0.0000 0.0000 0.0000 23.8187 0.0000 -6.5363
# 5 -0.5820 -8.7762 -5.1119 0.0000 32.0908 0.0000
# 6 0.0000 0.0000 0.0000 -6.5363 0.0000 34.0906
#
#
#
# Elastic Compliance Matrix: (Units=1/GPa)
#
#
# Indices 1 2 3 4 5 6 
#
# 1 0.030102 -0.000509 -0.006839 0.000000 -0.000683 0.000000
# 2 -0.000509 0.006238 -0.002355 0.000000 0.001322 0.000000
# 3 -0.006839 -0.002355 0.014957 0.000000 0.001615 0.000000
# 4 0.000000 0.000000 0.000000 0.044315 0.000000 0.008497
# 5 -0.000683 0.001322 0.001615 0.000000 0.031768 0.000000
# 6 0.000000 0.000000 0.000000 0.008497 0.000000 0.030963
#
#
# Mechanical properties :
#
#
# Convention : Reuss Voigt Hill
#
# Bulk Modulus (GPa) = 31.35691 46.63963 38.99827
# Shear Modulus (GPa) = 26.54216 33.46673 30.00445
#
# Velocity S-wave (km/s) = 3.33067 3.73999 3.54125
# Velocity P-wave (km/s) = 5.28175 6.17602 5.74631
#
# Compressibility (1/GPa) = 0.03189090
#
# Stress axis : x y z
#
# Youngs Moduli (GPa) = 33.22049 160.31377 66.85636
#
# Poissons Ratio (x) = 0.08157 0.45724
# Poissons Ratio (y) = 0.01690 0.15746
# Poissons Ratio (z) = 0.22720 0.37756
#
# Static dielectric constant tensor:
#      x y z
#    x 1.994870 0.000000 0.050870 
#    y 0.000000 1.900680 0.000000 
#    z 0.050870 0.000000 1.998720 
# 
# From -- ./inp_files/41122.got.cif
#   From: 2010.05.17/outbox.cif.g08.bks.cpg/sg14_21_cif.got.tgz:41122.got - 2010.06.03 17:49:19.
