data_PCOD9249743
_publ_section_title
;
Structure prediction by ZEFSAII (Michael W. Deem and Ramdas Pophale) SiO2 
 PCOD9249743
Probable space group: P 21/C
;
_chemical_formula_sum "Si O2"
_cell_formula_units_Z 24
_cell_length_a 11.004610
_cell_length_b 7.218009
_cell_length_c 11.058307
_cell_angle_alpha 90.000000
_cell_angle_beta 79.041028
_cell_angle_gamma 90.000000
_cell_volume 862.358063
_symmetry_space_group_name_H-M "P 21/C"
_symmetry_group_IT_number 14
_symmetry_cell_setting 'monoclinic'
loop_
_space_group_symop_operation_xyz
x,y,z
-x,1/2+y,1/2-z
-x,-y,-z
x,1/2-y,1/2+z
loop_
_atom_site_type_symbol
_atom_site_label
_atom_site_fract_x
_atom_site_fract_y
_atom_site_fract_z
Si Si1 0.154711 0.195321 0.142290
Si Si2 0.325780 0.925998 0.989674
Si Si3 0.557278 0.692797 0.715738
Si Si4 0.657067 0.113028 0.350356
Si Si5 0.125276 0.811853 0.840471
Si Si6 0.204961 0.103738 0.383660
O O1 0.151334 0.237643 0.286947
O O2 0.015758 0.130709 0.140140
O O3 0.264510 0.043513 0.109616
O O4 0.180710 0.336854 0.026735
O O5 0.367366 0.722246 0.022236
O O6 0.206997 0.912213 0.925383
O O7 0.424210 0.048413 0.898910
O O8 0.418763 0.763720 0.733653
O O9 0.607173 0.589891 0.826446
O O10 0.648074 0.861783 0.662720
O O11 0.801053 0.140518 0.295895
O O12 0.143873 0.594012 0.867369
#
# Coordination Sequence:
#
# PCOD9249743 Si02
#       6
#     4   4   4   4   4   4
#     4  11  25  44  72 102 151 185 242 298 357 430
#     4  10  23  43  68 102 142 189 237 298 363 428
#     4  10  24  43  69 101 141 185 243 301 359 427
#     4  11  22  43  69  99 140 183 241 292 366 420
#     4  11  24  41  68 104 138 189 236 293 362 425
#     4  11  25  46  70 107 142 191 244 296 360 428
#
# _framework density 27.830666999999998
#
# number of rings (size 3 to 8) (size 9 to 14) (size 15 to 20)
#    0.000    1.333    1.667    2.500    4.667    4.000 
#    3.000    4.167    0.000    0.000    0.000    0.000 
#    0.000    0.000    0.000    0.000    0.000    0.000 
#
# Total GULP energy -134357.839097 kJ/mol
# GULP energy per Si atom -5598.243296 kJ/mol
# Density = 2.776732 g / cm^3
# Si number density = 27.830667 Si / 1000 Ang^3
#
#
#
# Elastic Constant Matrix: (Units=GPa)
#
#
# Indices 1 2 3 4 5 6 
#
# 1 83.8474 13.1265 27.9782 0.0000 -21.1292 0.0000
# 2 13.1265 104.5930 35.3911 0.0000 -6.5305 0.0000
# 3 27.9782 35.3911 131.1473 0.0000 16.2758 0.0000
# 4 0.0000 0.0000 0.0000 55.2341 0.0000 11.0837
# 5 -21.1292 -6.5305 16.2758 0.0000 51.2622 0.0000
# 6 0.0000 0.0000 0.0000 11.0837 0.0000 33.3994
#
#
#
# Elastic Compliance Matrix: (Units=1/GPa)
#
#
# Indices 1 2 3 4 5 6 
#
# 1 0.015247 -0.000020 -0.004192 0.000000 0.007613 0.000000
# 2 -0.000020 0.010797 -0.003205 0.000000 0.002385 0.000000
# 3 -0.004192 -0.003205 0.010045 0.000000 -0.005326 0.000000
# 4 0.000000 0.000000 0.000000 0.019396 0.000000 -0.006437
# 5 0.007613 0.002385 -0.005326 0.000000 0.024640 0.000000
# 6 0.000000 0.000000 0.000000 -0.006437 0.000000 0.032077
#
#
# Mechanical properties :
#
#
# Convention : Reuss Voigt Hill
#
# Bulk Modulus (GPa) = 47.04889 52.50879 49.77884
# Shear Modulus (GPa) = 37.27964 44.18527 40.73246
#
# Velocity S-wave (km/s) = 3.66391 3.98885 3.82983
# Velocity P-wave (km/s) = 5.90264 6.33425 6.12225
#
# Compressibility (1/GPa) = 0.02125449
#
# Stress axis : x y z
#
# Youngs Moduli (GPa) = 65.58769 92.61942 99.54925
#
# Poissons Ratio (x) = 0.00182 0.41732
# Poissons Ratio (y) = 0.00129 0.31910
# Poissons Ratio (z) = 0.27495 0.29688
#
# Static dielectric constant tensor:
#      x y z
#    x 2.085850 0.000000 0.040780 
#    y 0.000000 2.289400 0.000000 
#    z 0.040780 0.000000 2.211240 
# 
# From -- ./inp_files/28018.got.cif
#   From: 2010.05.17/outbox.cif.g08.bks.cpg/sg14_15_cif.got.tgz:28018.got - 2010.06.03 17:49:19.
