data_PCOD9249496
_publ_section_title
;
Structure prediction by ZEFSAII (Michael W. Deem and Ramdas Pophale) SiO2 
 PCOD9249496
Probable space group: P 21/C
;
_chemical_formula_sum "Si O2"
_cell_formula_units_Z 20
_cell_length_a 22.741897
_cell_length_b 7.599339
_cell_length_c 13.654481
_cell_angle_alpha 90.000000
_cell_angle_beta 21.493217
_cell_angle_gamma 90.000000
_cell_volume 864.614653
_symmetry_space_group_name_H-M "P 21/C"
_symmetry_group_IT_number 14
_symmetry_cell_setting 'monoclinic'
loop_
_space_group_symop_operation_xyz
x,y,z
-x,1/2+y,1/2-z
-x,-y,-z
x,1/2-y,1/2+z
loop_
_atom_site_type_symbol
_atom_site_label
_atom_site_fract_x
_atom_site_fract_y
_atom_site_fract_z
Si Si1 0.501957 0.647694 0.840513
Si Si2 0.804002 0.937687 0.200145
Si Si3 0.982959 0.258711 0.989149
Si Si4 0.708012 0.504618 0.345857
Si Si5 0.781140 0.769996 0.054986
O O1 0.604103 0.621058 0.583001
O O2 0.626657 0.659109 0.736416
O O3 0.383821 0.479631 0.023475
O O4 0.398864 0.827587 0.006516
O O5 0.897396 0.776374 0.106335
O O6 0.856938 0.922522 0.005545
O O7 0.857839 0.098030 0.184316
O O8 0.091097 0.226079 0.725892
O O9 0.868954 0.425773 0.148279
O O10 0.737173 0.612643 0.199352
#
# Coordination Sequence:
#
# PCOD9249496 Si02
#       5
#     4   4   4   4   4
#     4  11  24  42  64  94 131 170 216 270 328 387
#     4  10  23  42  62  91 128 168 216 269 325 388
#     4  10  23  42  64  91 128 171 217 267 323 388
#     4  11  24  42  66  94 130 174 217 269 325 387
#     4  12  22  38  64  94 126 166 216 269 326 388
#
# _framework density 23.131692000000001
#
# number of rings (size 3 to 8) (size 9 to 14) (size 15 to 20)
#    0.000    1.200    0.000    6.000    0.000    4.800 
#    0.000   10.000    0.000    0.000    0.000    0.000 
#    0.000    0.000    0.000    0.000    0.000    0.000 
#
# Total GULP energy -111484.280375 kJ/mol
# GULP energy per Si atom -5574.214019 kJ/mol
# Density = 2.307904 g / cm^3
# Si number density = 23.131692 Si / 1000 Ang^3
#
#
#
# Elastic Constant Matrix: (Units=GPa)
#
#
# Indices 1 2 3 4 5 6 
#
# 1 112.9676 24.0100 46.5092 0.0000 -12.0730 0.0000
# 2 24.0100 121.4959 13.4042 0.0000 -29.4923 0.0000
# 3 46.5092 13.4042 79.6862 0.0000 -10.9071 0.0000
# 4 0.0000 0.0000 0.0000 39.3373 0.0000 -6.4088
# 5 -12.0730 -29.4923 -10.9071 0.0000 37.0976 0.0000
# 6 0.0000 0.0000 0.0000 -6.4088 0.0000 33.2999
#
#
#
# Elastic Compliance Matrix: (Units=1/GPa)
#
#
# Indices 1 2 3 4 5 6 
#
# 1 0.011977 -0.001440 -0.006638 0.000000 0.000801 0.000000
# 2 -0.001440 0.010403 0.000165 0.000000 0.007850 0.000000
# 3 -0.006638 0.000165 0.016794 0.000000 0.002908 0.000000
# 4 0.000000 0.000000 0.000000 0.026244 0.000000 0.005051
# 5 0.000801 0.007850 0.002908 0.000000 0.034312 0.000000
# 6 0.000000 0.000000 0.000000 0.005051 0.000000 0.031002
#
#
# Mechanical properties :
#
#
# Convention : Reuss Voigt Hill
#
# Bulk Modulus (GPa) = 42.83241 53.55517 48.19379
# Shear Modulus (GPa) = 32.39576 37.29539 34.84558
#
# Velocity S-wave (km/s) = 3.74638 4.01971 3.88545
# Velocity P-wave (km/s) = 6.10498 6.68929 6.40380
#
# Compressibility (1/GPa) = 0.02334680
#
# Stress axis : x y z
#
# Youngs Moduli (GPa) = 83.49442 96.12984 59.54470
#
# Poissons Ratio (x) = 0.13843 0.39528
# Poissons Ratio (y) = 0.12023 -0.00983
# Poissons Ratio (z) = 0.55427 -0.01587
#
# Static dielectric constant tensor:
#      x y z
#    x 1.825730 0.000000 -0.010070 
#    y 0.000000 2.025530 0.000000 
#    z -0.010070 0.000000 1.885010 
# 
# From -- ./inp_files/51095.got.cif
#   From: 2010.05.17/outbox.cif.g08.bks.cpg/sg14_26_cif.got.tgz:51095.got - 2010.06.03 17:49:19.
