data_PCOD9249050
_publ_section_title
;
Structure prediction by ZEFSAII (Michael W. Deem and Ramdas Pophale) SiO2 
 PCOD9249050
Probable space group: P 21/C
;
_chemical_formula_sum "Si O2"
_cell_formula_units_Z 26
_cell_length_a 5.056104
_cell_length_b 19.793504
_cell_length_c 12.590312
_cell_angle_alpha 90.000000
_cell_angle_beta 49.210972
_cell_angle_gamma 90.000000
_cell_volume 953.981583
_symmetry_space_group_name_H-M "P 21/C"
_symmetry_group_IT_number 14
_symmetry_cell_setting 'monoclinic'
loop_
_space_group_symop_operation_xyz
x,y,z
-x,1/2+y,1/2-z
-x,-y,-z
x,1/2-y,1/2+z
loop_
_atom_site_type_symbol
_atom_site_label
_atom_site_fract_x
_atom_site_fract_y
_atom_site_fract_z
Si Si1 0.648366 0.198069 0.213704
Si Si2 0.409702 0.618817 0.952286
Si Si3 0.320647 0.070696 0.411398
Si Si4 0.345751 0.622474 0.499997
Si Si5 0.669713 0.951301 0.196361
Si Si6 0.500000 0.000000 0.000000
Si Si7 0.082554 0.748309 0.156754
O O1 0.493333 0.138767 0.324667
O O2 0.313846 0.244819 0.279035
O O3 0.934515 0.230777 0.213604
O O4 0.767528 0.162602 0.074862
O O5 0.676372 0.582641 0.963066
O O6 0.064031 0.572396 0.036668
O O7 0.286283 0.691424 0.031757
O O8 0.555545 0.614332 0.794068
O O9 0.545092 0.011450 0.303135
O O10 0.677559 0.575356 0.401798
O O11 0.095717 0.554643 0.580345
O O12 0.286862 0.680815 0.599088
O O13 0.532655 0.963135 0.114990
#
# Coordination Sequence:
#
# PCOD9249050 Si02
#       7
#     4   4   4   4   4   2   4
#     4  10  24  48  73 105 146 194 249 303 380 441
#     4  10  24  45  75 107 143 195 252 307 368 439
#     4  10  22  45  74 103 147 194 238 310 366 441
#     4  12  29  46  76 107 154 198 246 321 375 457
#     4  12  27  44  71 111 147 193 255 301 376 455
#     4  12  30  46  72 110 152 204 244 312 388 452
#     4  10  26  47  75 105 144 198 251 310 375 441
#
# _framework density 27.254197000000001
#
# number of rings (size 3 to 8) (size 9 to 14) (size 15 to 20)
#    0.000    1.231    1.538    1.385   10.769    0.000 
#    2.769    0.000    0.000    0.000    0.000    0.000 
#    0.000    0.000    0.000    0.000    0.000    0.000 
#
# Total GULP energy -145179.812872 kJ/mol
# GULP energy per Si atom -5583.838957 kJ/mol
# Density = 2.719217 g / cm^3
# Si number density = 27.254197 Si / 1000 Ang^3
#
#
#
# Elastic Constant Matrix: (Units=GPa)
#
#
# Indices 1 2 3 4 5 6 
#
# 1 92.4074 49.6706 29.5803 0.0000 14.6958 0.0000
# 2 49.6706 189.6427 52.4089 0.0000 12.9837 0.0000
# 3 29.5803 52.4089 103.5730 0.0000 20.8650 0.0000
# 4 0.0000 0.0000 0.0000 31.5785 0.0000 -7.6790
# 5 14.6958 12.9837 20.8650 0.0000 52.6459 0.0000
# 6 0.0000 0.0000 0.0000 -7.6790 0.0000 23.4239
#
#
#
# Elastic Compliance Matrix: (Units=1/GPa)
#
#
# Indices 1 2 3 4 5 6 
#
# 1 0.013301 -0.002796 -0.001929 0.000000 -0.002259 0.000000
# 2 -0.002796 0.006723 -0.002637 0.000000 0.000168 0.000000
# 3 -0.001929 -0.002637 0.012281 0.000000 -0.003679 0.000000
# 4 0.000000 0.000000 0.000000 0.034410 0.000000 0.011281
# 5 -0.002259 0.000168 -0.003679 0.000000 0.021042 0.000000
# 6 0.000000 0.000000 0.000000 0.011281 0.000000 0.046390
#
#
# Mechanical properties :
#
#
# Convention : Reuss Voigt Hill
#
# Bulk Modulus (GPa) = 56.87839 72.10473 64.49156
# Shear Modulus (GPa) = 32.31405 38.46054 35.38730
#
# Velocity S-wave (km/s) = 3.44707 3.76064 3.60726
# Velocity P-wave (km/s) = 6.06283 6.73575 6.40813
#
# Compressibility (1/GPa) = 0.01758137
#
# Stress axis : x y z
#
# Youngs Moduli (GPa) = 75.18052 148.75020 81.42458
#
# Poissons Ratio (x) = 0.41592 0.15706
# Poissons Ratio (y) = 0.21021 0.21471
# Poissons Ratio (z) = 0.14502 0.39225
#
# Static dielectric constant tensor:
#      x y z
#    x 2.260280 0.000000 -0.031890 
#    y 0.000000 2.358200 0.000000 
#    z -0.031890 0.000000 2.162770 
# 
# From -- ./inp_files/21478.got.cif
#   From: 2010.05.17/outbox.cif.g08.bks.cpg/sg14_11_cif.got.tgz:21478.got - 2010.06.03 17:49:19.
