data_PCOD9249970
_publ_section_title
;
Structure prediction by ZEFSAII (Michael W. Deem and Ramdas Pophale) SiO2 
 PCOD9249970
Probable space group: P 21/C
;
_chemical_formula_sum "Si O2"
_cell_formula_units_Z 30
_cell_length_a 10.987541
_cell_length_b 9.924810
_cell_length_c 10.763488
_cell_angle_alpha 90.000000
_cell_angle_beta 67.676745
_cell_angle_gamma 90.000000
_cell_volume 1085.784385
_symmetry_space_group_name_H-M "P 21/C"
_symmetry_group_IT_number 14
_symmetry_cell_setting 'monoclinic'
loop_
_space_group_symop_operation_xyz
x,y,z
-x,1/2+y,1/2-z
-x,-y,-z
x,1/2-y,1/2+z
loop_
_atom_site_type_symbol
_atom_site_label
_atom_site_fract_x
_atom_site_fract_y
_atom_site_fract_z
Si Si1 0.000000 0.000000 0.000000
Si Si2 0.675403 0.032254 0.364363
Si Si3 0.375428 0.655293 0.625018
Si Si4 0.311784 0.387130 0.523691
Si Si5 0.673475 0.788343 0.246066
Si Si6 0.031399 0.495109 0.214345
Si Si7 0.317252 0.460886 0.859406
Si Si8 0.973899 0.680520 0.014429
O O1 0.948435 0.978295 0.869417
O O2 0.007101 0.836448 0.013413
O O3 0.663083 0.189745 0.360723
O O4 0.825246 0.985484 0.275534
O O5 0.596209 0.921961 0.316393
O O6 0.655666 0.987955 0.511248
O O7 0.314534 0.546049 0.552962
O O8 0.531794 0.646853 0.546154
O O9 0.328396 0.590931 0.772549
O O10 0.260658 0.346769 0.407217
O O11 0.265241 0.284561 0.652613
O O12 0.592093 0.658527 0.230323
O O13 0.046125 0.611682 0.104672
O O14 0.993211 0.371153 0.138546
O O15 0.171944 0.389682 0.907898
#
# Coordination Sequence:
#
# PCOD9249970 Si02
#       8
#     2   4   4   4   4   4   4   4
#     4  12  22  40  72  98 122 180 230 262 332 406
#     4  11  24  41  68 101 134 181 235 280 346 413
#     4  10  25  43  67 101 136 178 231 287 338 421
#     4  10  24  44  69  97 137 179 230 282 360 398
#     4  11  22  44  67  98 135 182 225 292 345 414
#     4  10  24  44  63 100 137 174 219 281 339 397
#     4  10  23  45  65  97 138 180 229 286 345 405
#     4  10  23  45  67  93 139 177 222 279 332 403
#
# _framework density 27.629795999999999
#
# number of rings (size 3 to 8) (size 9 to 14) (size 15 to 20)
#    0.000    1.600    1.333    1.600    3.733    8.000 
#    7.200    0.000    0.000    0.000    0.000    0.000 
#    0.000    0.000    0.000    0.000    0.000    0.000 
#
# Total GULP energy -167104.891603 kJ/mol
# GULP energy per Si atom -5570.163053 kJ/mol
# Density = 2.756691 g / cm^3
# Si number density = 27.629796 Si / 1000 Ang^3
#
#
#
# Elastic Constant Matrix: (Units=GPa)
#
#
# Indices 1 2 3 4 5 6 
#
# 1 58.2087 4.1888 12.7663 0.0000 7.6366 0.0000
# 2 4.1888 323.0305 87.1335 0.0000 45.8256 0.0000
# 3 12.7663 87.1335 175.4914 0.0000 53.9082 0.0000
# 4 0.0000 0.0000 0.0000 42.0989 0.0000 12.1458
# 5 7.6366 45.8256 53.9082 0.0000 40.0926 0.0000
# 6 0.0000 0.0000 0.0000 12.1458 0.0000 22.3683
#
#
#
# Elastic Compliance Matrix: (Units=1/GPa)
#
#
# Indices 1 2 3 4 5 6 
#
# 1 0.017670 0.000345 -0.000514 0.000000 -0.003069 0.000000
# 2 0.000345 0.003790 -0.000947 0.000000 -0.003124 0.000000
# 3 -0.000514 -0.000947 0.009955 0.000000 -0.012205 0.000000
# 4 0.000000 0.000000 0.000000 0.028166 0.000000 -0.015294
# 5 -0.003069 -0.003124 -0.012205 0.000000 0.045508 0.000000
# 6 0.000000 0.000000 0.000000 -0.015294 0.000000 0.053011
#
#
# Mechanical properties :
#
#
# Convention : Reuss Voigt Hill
#
# Bulk Modulus (GPa) = 34.26712 84.98973 59.62843
# Shear Modulus (GPa) = 29.40134 51.08809 40.24472
#
# Velocity S-wave (km/s) = 3.26562 4.30469 3.82064
# Velocity P-wave (km/s) = 5.16219 7.45212 6.41024
#
# Compressibility (1/GPa) = 0.02918249
#
# Stress axis : x y z
#
# Youngs Moduli (GPa) = 56.59286 263.86184 100.45008
#
# Poissons Ratio (x) = -0.09099 0.05163
# Poissons Ratio (y) = -0.01952 0.09514
# Poissons Ratio (z) = 0.02909 0.24993
#
# Static dielectric constant tensor:
#      x y z
#    x 3.780700 0.000000 -0.688610 
#    y 0.000000 4.681210 0.000000 
#    z -0.688610 0.000000 2.479360 
# 
# From -- ./inp_files/31815.got.cif
#   From: 2010.05.17/outbox.cif.g08.bks.cpg/sg14_16_cif.got.tgz:31815.got - 2010.06.03 17:49:19.
