data_PCOD9249869
_publ_section_title
;
Structure prediction by ZEFSAII (Michael W. Deem and Ramdas Pophale) SiO2 
 PCOD9249869
Probable space group: P 21/C
;
_chemical_formula_sum "Si O2"
_cell_formula_units_Z 12
_cell_length_a 9.740945
_cell_length_b 10.569601
_cell_length_c 8.380088
_cell_angle_alpha 90.000000
_cell_angle_beta 147.082193
_cell_angle_gamma 90.000000
_cell_volume 468.874015
_symmetry_space_group_name_H-M "P 21/C"
_symmetry_group_IT_number 14
_symmetry_cell_setting 'monoclinic'
loop_
_space_group_symop_operation_xyz
x,y,z
-x,1/2+y,1/2-z
-x,-y,-z
x,1/2-y,1/2+z
loop_
_atom_site_type_symbol
_atom_site_label
_atom_site_fract_x
_atom_site_fract_y
_atom_site_fract_z
Si Si1 0.951858 0.131793 0.040020
Si Si2 0.410564 0.958726 0.087461
Si Si3 0.448419 0.198648 0.362136
O O1 0.872719 0.089468 0.141738
O O2 0.704801 0.193305 0.716595
O O3 0.199580 0.205871 0.229038
O O4 0.000000 0.000000 0.000000
O O5 0.554685 0.825936 0.242876
O O6 0.458540 0.072563 0.259944
O O7 0.500000 0.000000 0.000000
#
# Coordination Sequence:
#
# PCOD9249869 Si02
#       3
#     4   4   4
#     4  10  23  44  67  95 138 179 219 274 335 395
#     4  11  24  44  72 103 134 178 230 278 334 403
#     4  11  25  46  69 100 139 179 221 278 341 402
#
# _framework density 25.593229000000001
#
# number of rings (size 3 to 8) (size 9 to 14) (size 15 to 20)
#    0.000    1.333    0.000    6.000    0.000   13.333 
#    0.000   21.667    0.000    0.000    0.000    0.000 
#    0.000    0.000    0.000    0.000    0.000    0.000 
#
# Total GULP energy -66937.741401 kJ/mol
# GULP energy per Si atom -5578.145117 kJ/mol
# Density = 2.553498 g / cm^3
# Si number density = 25.593229 Si / 1000 Ang^3
#
#
#
# Elastic Constant Matrix: (Units=GPa)
#
#
# Indices 1 2 3 4 5 6 
#
# 1 294.1199 65.2197 84.9221 0.0000 32.6691 0.0000
# 2 65.2197 149.4738 33.3208 0.0000 5.5517 0.0000
# 3 84.9221 33.3208 130.1462 0.0000 26.0259 0.0000
# 4 0.0000 0.0000 0.0000 22.2190 0.0000 5.2360
# 5 32.6691 5.5517 26.0259 0.0000 45.9442 0.0000
# 6 0.0000 0.0000 0.0000 5.2360 0.0000 60.7270
#
#
#
# Elastic Compliance Matrix: (Units=1/GPa)
#
#
# Indices 1 2 3 4 5 6 
#
# 1 0.004566 -0.001423 -0.002256 0.000000 -0.001797 0.000000
# 2 -0.001423 0.007540 -0.001153 0.000000 0.000754 0.000000
# 3 -0.002256 -0.001153 0.010265 0.000000 -0.004071 0.000000
# 4 0.000000 0.000000 0.000000 0.045940 0.000000 -0.003961
# 5 -0.001797 0.000754 -0.004071 0.000000 0.025259 0.000000
# 6 0.000000 0.000000 0.000000 -0.003961 0.000000 0.016809
#
#
# Mechanical properties :
#
#
# Convention : Reuss Voigt Hill
#
# Bulk Modulus (GPa) = 78.68849 104.51835 91.60342
# Shear Modulus (GPa) = 40.23243 51.79654 46.01449
#
# Velocity S-wave (km/s) = 3.96914 4.50359 4.24478
# Velocity P-wave (km/s) = 7.19847 8.24439 7.73912
#
# Compressibility (1/GPa) = 0.01270834
#
# Stress axis : x y z
#
# Youngs Moduli (GPa) = 218.98678 132.62729 97.41809
#
# Poissons Ratio (x) = 0.18871 0.21978
# Poissons Ratio (y) = 0.31158 0.11229
# Poissons Ratio (z) = 0.49404 0.15288
#
# Static dielectric constant tensor:
#      x y z
#    x 2.099430 0.000000 -0.034900 
#    y 0.000000 1.802050 0.000000 
#    z -0.034900 0.000000 2.157560 
# 
# From -- ./inp_files/4756.got.cif
#   From: 2010.05.17/outbox.cif.g08.bks.cpg/sg14_3_cif.got.tgz:4756.got - 2010.06.03 17:49:19.
