data_PCOD9249739
_publ_section_title
;
Structure prediction by ZEFSAII (Michael W. Deem and Ramdas Pophale) SiO2 
 PCOD9249739
Probable space group: P 21/C
;
_chemical_formula_sum "Si O2"
_cell_formula_units_Z 28
_cell_length_a 12.060357
_cell_length_b 6.139326
_cell_length_c 20.754596
_cell_angle_alpha 90.000000
_cell_angle_beta 54.054492
_cell_angle_gamma 90.000000
_cell_volume 1244.092237
_symmetry_space_group_name_H-M "P 21/C"
_symmetry_group_IT_number 14
_symmetry_cell_setting 'monoclinic'
loop_
_space_group_symop_operation_xyz
x,y,z
-x,1/2+y,1/2-z
-x,-y,-z
x,1/2-y,1/2+z
loop_
_atom_site_type_symbol
_atom_site_label
_atom_site_fract_x
_atom_site_fract_y
_atom_site_fract_z
Si Si1 0.918865 0.560993 0.184314
Si Si2 0.474242 0.260127 0.334998
Si Si3 0.298487 0.926102 0.331759
Si Si4 0.540033 0.251191 0.961022
Si Si5 0.198711 0.000916 0.901490
Si Si6 0.055845 0.347002 0.578399
Si Si7 0.154543 0.630789 0.654389
O O1 0.796958 0.598086 0.173872
O O2 0.853253 0.442987 0.269033
O O3 0.019383 0.733344 0.182530
O O4 0.013007 0.393806 0.112259
O O5 0.619558 0.301596 0.252262
O O6 0.486644 0.266878 0.406552
O O7 0.356347 0.421378 0.347657
O O8 0.414322 0.029629 0.335341
O O9 0.212854 0.761393 0.404892
O O10 0.704986 0.255025 0.905642
O O11 0.500000 0.500000 0.000000
O O12 0.500000 0.000000 0.000000
O O13 0.084478 0.989159 0.883619
O O14 0.132946 0.123802 0.984637
O O15 0.146308 0.434285 0.606245
#
# Coordination Sequence:
#
# PCOD9249739 Si02
#       7
#     4   4   4   4   4   4   4
#     4  11  24  43  67 105 140 192 256 309 380 450
#     4  12  24  44  72 102 148 197 248 318 373 460
#     4  11  24  43  67 105 140 192 256 309 380 450
#     4  12  32  52  78 116 157 205 257 317 394 470
#     4  10  23  43  68 100 140 183 243 310 372 446
#     4  10  23  43  68 100 140 183 243 310 372 446
#     4  12  24  44  72 102 148 197 248 318 373 460
#
# _framework density 22.50637
#
# number of rings (size 3 to 8) (size 9 to 14) (size 15 to 20)
#    0.000    0.857    4.286    1.714    8.000    0.000 
#    2.571    4.286    0.000    0.000    0.000    0.000 
#    0.000    0.000    0.000    0.000    0.000    0.000 
#
# Total GULP energy -156001.597663 kJ/mol
# GULP energy per Si atom -5571.485631 kJ/mol
# Density = 2.245514 g / cm^3
# Si number density = 22.506370 Si / 1000 Ang^3
#
#
#
# Elastic Constant Matrix: (Units=GPa)
#
#
# Indices 1 2 3 4 5 6 
#
# 1 111.4982 3.1725 14.4811 0.0000 11.6708 0.0000
# 2 3.1725 35.1746 15.0261 0.0000 9.7527 0.0000
# 3 14.4811 15.0261 53.2226 0.0000 14.1612 0.0000
# 4 0.0000 0.0000 0.0000 25.4736 0.0000 -0.5601
# 5 11.6708 9.7527 14.1612 0.0000 43.5536 0.0000
# 6 0.0000 0.0000 0.0000 -0.5601 0.0000 31.1674
#
#
#
# Elastic Compliance Matrix: (Units=1/GPa)
#
#
# Indices 1 2 3 4 5 6 
#
# 1 0.009444 0.000642 -0.002233 0.000000 -0.001949 0.000000
# 2 0.000642 0.033266 -0.008253 0.000000 -0.004938 0.000000
# 3 -0.002233 -0.008253 0.023072 0.000000 -0.005055 0.000000
# 4 0.000000 0.000000 0.000000 0.039272 0.000000 0.000706
# 5 -0.001949 -0.004938 -0.005055 0.000000 0.026232 0.000000
# 6 0.000000 0.000000 0.000000 0.000706 0.000000 0.032098
#
#
# Mechanical properties :
#
#
# Convention : Reuss Voigt Hill
#
# Bulk Modulus (GPa) = 21.69390 29.47275 25.58332
# Shear Modulus (GPa) = 25.19719 31.18663 28.19191
#
# Velocity S-wave (km/s) = 3.34961 3.72651 3.54308
# Velocity P-wave (km/s) = 4.96183 5.62491 5.30374
#
# Compressibility (1/GPa) = 0.04609591
#
# Stress axis : x y z
#
# Youngs Moduli (GPa) = 105.88274 30.06053 43.34350
#
# Poissons Ratio (x) = -0.01930 0.09676
# Poissons Ratio (y) = -0.06800 0.35770
# Poissons Ratio (z) = 0.23638 0.24808
#
# Static dielectric constant tensor:
#      x y z
#    x 1.835310 0.000000 -0.039930 
#    y 0.000000 -0.174200 0.000000 
#    z -0.039930 0.000000 1.815530 
# 
# From -- ./inp_files/66397.got.cif
#   From: 2010.05.17/outbox.cif.g08.bks.cpg/sg14_34_cif.got.tgz:66397.got - 2010.06.03 17:49:19.
