data_PCOD9249507
_publ_section_title
;
Structure prediction by ZEFSAII (Michael W. Deem and Ramdas Pophale) SiO2 
 PCOD9249507
Probable space group: P 21/C
;
_chemical_formula_sum "Si O2"
_cell_formula_units_Z 20
_cell_length_a 11.324488
_cell_length_b 8.882122
_cell_length_c 11.779049
_cell_angle_alpha 90.000000
_cell_angle_beta 137.207458
_cell_angle_gamma 90.000000
_cell_volume 804.889807
_symmetry_space_group_name_H-M "P 21/C"
_symmetry_group_IT_number 14
_symmetry_cell_setting 'monoclinic'
loop_
_space_group_symop_operation_xyz
x,y,z
-x,1/2+y,1/2-z
-x,-y,-z
x,1/2-y,1/2+z
loop_
_atom_site_type_symbol
_atom_site_label
_atom_site_fract_x
_atom_site_fract_y
_atom_site_fract_z
Si Si1 0.312700 0.278082 0.153080
Si Si2 0.709591 0.008827 0.175424
Si Si3 0.806889 0.175294 0.843859
Si Si4 0.941099 0.978687 0.118474
Si Si5 0.477412 0.510981 0.118738
O O1 0.257097 0.360287 0.228345
O O2 0.328583 0.412156 0.071917
O O3 0.483435 0.177565 0.306600
O O4 0.175441 0.159525 0.010796
O O5 0.754587 0.155750 0.281106
O O6 0.844876 0.015265 0.167139
O O7 0.500000 0.000000 0.000000
O O8 0.641096 0.088165 0.773683
O O9 0.869780 0.095378 0.770207
O O10 0.940165 0.126259 0.036828
O O11 0.500000 0.500000 0.000000
#
# Coordination Sequence:
#
# PCOD9249507 Si02
#       5
#     4   4   4   4   4
#     4  11  23  39  62  93 123 162 215 261 316 386
#     4  12  24  41  67  95 126 170 217 265 324 385
#     4  10  23  42  63  89 127 166 210 264 319 383
#     4  10  24  43  62  93 131 167 213 266 322 383
#     4  11  22  39  63  89 122 162 207 262 318 377
#
# _framework density 24.848120999999999
#
# number of rings (size 3 to 8) (size 9 to 14) (size 15 to 20)
#    0.000    1.200    0.000    7.200    0.000    8.800 
#    0.000    0.000    0.000    0.000    0.000    0.000 
#    0.000    0.000    0.000    0.000    0.000    0.000 
#
# Total GULP energy -111619.244410 kJ/mol
# GULP energy per Si atom -5580.962220 kJ/mol
# Density = 2.479157 g / cm^3
# Si number density = 24.848121 Si / 1000 Ang^3
#
#
#
# Elastic Constant Matrix: (Units=GPa)
#
#
# Indices 1 2 3 4 5 6 
#
# 1 138.4891 53.1479 9.9500 0.0000 -28.1390 0.0000
# 2 53.1479 181.6531 41.6972 0.0000 -16.6399 0.0000
# 3 9.9500 41.6972 23.9457 0.0000 -12.8421 0.0000
# 4 0.0000 0.0000 0.0000 36.2828 0.0000 -6.2233
# 5 -28.1390 -16.6399 -12.8421 0.0000 37.5654 0.0000
# 6 0.0000 0.0000 0.0000 -6.2233 0.0000 55.8965
#
#
#
# Elastic Compliance Matrix: (Units=1/GPa)
#
#
# Indices 1 2 3 4 5 6 
#
# 1 0.009753 -0.003620 0.006501 0.000000 0.007925 0.000000
# 2 -0.003620 0.010605 -0.019466 0.000000 -0.004669 0.000000
# 3 0.006501 -0.019466 0.086870 0.000000 0.025944 0.000000
# 4 0.000000 0.000000 0.000000 0.028098 0.000000 0.003128
# 5 0.007925 -0.004669 0.025944 0.000000 0.039358 0.000000
# 6 0.000000 0.000000 0.000000 0.003128 0.000000 0.018239
#
#
# Mechanical properties :
#
#
# Convention : Reuss Voigt Hill
#
# Bulk Modulus (GPa) = 13.50293 61.51979 37.51136
# Shear Modulus (GPa) = 19.93792 41.90177 30.91985
#
# Velocity S-wave (km/s) = 2.83572 4.11093 3.53137
# Velocity P-wave (km/s) = 4.02092 6.88078 5.63528
#
# Compressibility (1/GPa) = 0.07405802
#
# Stress axis : x y z
#
# Youngs Moduli (GPa) = 102.53171 94.29801 11.51140
#
# Poissons Ratio (x) = 0.34134 -0.07483
# Poissons Ratio (y) = 0.37114 0.22408
# Poissons Ratio (z) = -0.66652 1.83559
#
# Static dielectric constant tensor:
#      x y z
#    x 2.057060 0.000000 0.061180 
#    y 0.000000 1.933390 0.000000 
#    z 0.061180 0.000000 2.150620 
# 
# From -- ./inp_files/27835.got.cif
#   From: 2010.05.17/outbox.cif.g08.bks.cpg/sg14_14_cif.got.tgz:27835.got - 2010.06.03 17:49:19.
