data_PCOD9249268
_publ_section_title
;
Structure prediction by ZEFSAII (Michael W. Deem and Ramdas Pophale) SiO2 
 PCOD9249268
Probable space group: P 21/C
;
_chemical_formula_sum "Si O2"
_cell_formula_units_Z 28
_cell_length_a 11.629674
_cell_length_b 7.467803
_cell_length_c 16.111365
_cell_angle_alpha 90.000000
_cell_angle_beta 68.694171
_cell_angle_gamma 90.000000
_cell_volume 1303.609473
_symmetry_space_group_name_H-M "P 21/C"
_symmetry_group_IT_number 14
_symmetry_cell_setting 'monoclinic'
loop_
_space_group_symop_operation_xyz
x,y,z
-x,1/2+y,1/2-z
-x,-y,-z
x,1/2-y,1/2+z
loop_
_atom_site_type_symbol
_atom_site_label
_atom_site_fract_x
_atom_site_fract_y
_atom_site_fract_z
Si Si1 0.138231 0.049235 0.992295
Si Si2 0.400860 0.191025 0.204745
Si Si3 0.353646 0.629133 0.836773
Si Si4 0.935453 0.946448 0.297739
Si Si5 0.248244 0.545528 0.292036
Si Si6 0.822017 0.950120 0.833641
Si Si7 0.134119 0.024008 0.504449
O O1 0.157944 0.263020 0.992574
O O2 0.220066 0.977473 0.896393
O O3 0.167953 0.976428 0.075891
O O4 0.000000 0.000000 0.000000
O O5 0.537022 0.260302 0.147240
O O6 0.329119 0.374826 0.244831
O O7 0.316682 0.087519 0.159692
O O8 0.402639 0.054869 0.282309
O O9 0.311337 0.761237 0.773193
O O10 0.240081 0.576996 0.925963
O O11 0.873921 0.030722 0.231998
O O12 0.083457 0.948317 0.252313
O O13 0.886857 0.744876 0.314953
O O14 0.882930 0.033759 0.395404
O O15 0.000000 0.000000 0.500000
#
# Coordination Sequence:
#
# PCOD9249268 Si02
#       7
#     4   4   4   4   4   4   4
#     4  11  21  40  64 101 140 176 225 287 347 403
#     4  11  24  45  68  96 135 180 232 280 336 418
#     4  12  24  45  72  95 136 180 234 278 344 409
#     4  10  23  39  63  98 134 173 222 284 349 401
#     4  11  23  43  68  96 131 183 228 280 341 406
#     4  10  23  39  64 100 138 176 228 283 346 411
#     4  11  24  40  65 105 138 175 225 291 350 405
#
# _framework density 21.478826000000002
#
# number of rings (size 3 to 8) (size 9 to 14) (size 15 to 20)
#    0.000    1.143    4.286    1.714    6.000    1.143 
#    0.000    8.571    0.000    0.000    0.000    0.000 
#    0.000    0.000    0.000    0.000    0.000    0.000 
#
# Total GULP energy -156376.090774 kJ/mol
# GULP energy per Si atom -5584.860385 kJ/mol
# Density = 2.142994 g / cm^3
# Si number density = 21.478826 Si / 1000 Ang^3
#
#
#
# Elastic Constant Matrix: (Units=GPa)
#
#
# Indices 1 2 3 4 5 6 
#
# 1 147.0249 24.2285 50.8904 0.0000 -4.7467 0.0000
# 2 24.2285 91.1923 26.6331 0.0000 1.4396 0.0000
# 3 50.8904 26.6331 111.3449 0.0000 1.7110 0.0000
# 4 0.0000 0.0000 0.0000 21.9079 0.0000 -7.2648
# 5 -4.7467 1.4396 1.7110 0.0000 25.4518 0.0000
# 6 0.0000 0.0000 0.0000 -7.2648 0.0000 42.5261
#
#
#
# Elastic Compliance Matrix: (Units=1/GPa)
#
#
# Indices 1 2 3 4 5 6 
#
# 1 0.008279 -0.001199 -0.003526 0.000000 0.001849 0.000000
# 2 -0.001199 0.011969 -0.002303 0.000000 -0.000746 0.000000
# 3 -0.003526 -0.002303 0.011163 0.000000 -0.001278 0.000000
# 4 0.000000 0.000000 0.000000 0.048387 0.000000 0.008266
# 5 0.001849 -0.000746 -0.001278 0.000000 0.039763 0.000000
# 6 0.000000 0.000000 0.000000 0.008266 0.000000 0.024927
#
#
# Mechanical properties :
#
#
# Convention : Reuss Voigt Hill
#
# Bulk Modulus (GPa) = 57.62052 61.45177 59.53615
# Shear Modulus (GPa) = 30.42678 34.49783 32.46231
#
# Velocity S-wave (km/s) = 3.76785 4.01201 3.89184
# Velocity P-wave (km/s) = 6.76859 7.08054 6.92632
#
# Compressibility (1/GPa) = 0.01735493
#
# Stress axis : x y z
#
# Youngs Moduli (GPa) = 120.78456 83.54968 89.58109
#
# Poissons Ratio (x) = 0.10019 0.31583
# Poissons Ratio (y) = 0.14484 0.20634
# Poissons Ratio (z) = 0.42584 0.19244
#
# Static dielectric constant tensor:
#      x y z
#    x 1.808720 0.000000 0.012020 
#    y 0.000000 1.944610 0.000000 
#    z 0.012020 0.000000 1.807950 
# 
# From -- ./inp_files/43358.got.cif
#   From: 2010.05.17/outbox.cif.g08.bks.cpg/sg14_22_cif.got.tgz:43358.got - 2010.06.03 17:49:19.
