data_PCOD9249056
_publ_section_title
;
Structure prediction by ZEFSAII (Michael W. Deem and Ramdas Pophale) SiO2 
 PCOD9249056
Probable space group: P 21/C
;
_chemical_formula_sum "Si O2"
_cell_formula_units_Z 12
_cell_length_a 13.848578
_cell_length_b 7.466264
_cell_length_c 9.909323
_cell_angle_alpha 90.000000
_cell_angle_beta 153.183255
_cell_angle_gamma 90.000000
_cell_volume 462.234427
_symmetry_space_group_name_H-M "P 21/C"
_symmetry_group_IT_number 14
_symmetry_cell_setting 'monoclinic'
loop_
_space_group_symop_operation_xyz
x,y,z
-x,1/2+y,1/2-z
-x,-y,-z
x,1/2-y,1/2+z
loop_
_atom_site_type_symbol
_atom_site_label
_atom_site_fract_x
_atom_site_fract_y
_atom_site_fract_z
Si Si1 0.200146 0.483752 0.152421
Si Si2 0.208439 0.463402 0.848972
Si Si3 0.447451 0.270440 0.820223
O O1 0.378765 0.612290 0.440215
O O2 0.281329 0.279415 0.230411
O O3 0.168508 0.544530 0.953973
O O4 0.000000 0.500000 0.000000
O O5 0.000000 0.500000 0.500000
O O6 0.410404 0.558602 0.028787
O O7 0.294543 0.270265 0.004040
#
# Coordination Sequence:
#
# PCOD9249056 Si02
#       3
#     4   4   4
#     4   9  21  46  73  98 152 191 238 312 375 423
#     4  10  22  45  76 106 141 204 250 296 372 453
#     4   9  22  45  70 103 147 191 243 308 369 439
#
# _framework density 25.960851999999999
#
# number of rings (size 3 to 8) (size 9 to 14) (size 15 to 20)
#    2.000    0.667    0.000    0.000    0.000    5.333 
#    6.000    3.333    0.000    0.000    0.000    0.000 
#    0.000    0.000    0.000    0.000    0.000    0.000 
#
# Total GULP energy -66854.459840 kJ/mol
# GULP energy per Si atom -5571.204987 kJ/mol
# Density = 2.590176 g / cm^3
# Si number density = 25.960852 Si / 1000 Ang^3
#
#
#
# Elastic Constant Matrix: (Units=GPa)
#
#
# Indices 1 2 3 4 5 6 
#
# 1 212.2684 -2.6966 63.4009 0.0000 1.5062 0.0000
# 2 -2.6966 62.0061 10.6967 0.0000 16.9560 0.0000
# 3 63.4009 10.6967 200.0651 0.0000 -19.2387 0.0000
# 4 0.0000 0.0000 0.0000 50.4263 0.0000 9.4290
# 5 1.5062 16.9560 -19.2387 0.0000 64.7799 0.0000
# 6 0.0000 0.0000 0.0000 9.4290 0.0000 45.4899
#
#
#
# Elastic Compliance Matrix: (Units=1/GPa)
#
#
# Indices 1 2 3 4 5 6 
#
# 1 0.005262 0.000772 -0.001791 0.000000 -0.000856 0.000000
# 2 0.000772 0.017877 -0.001701 0.000000 -0.005202 0.000000
# 3 -0.001791 -0.001701 0.005871 0.000000 0.002231 0.000000
# 4 0.000000 0.000000 0.000000 0.020631 0.000000 -0.004276
# 5 -0.000856 -0.005202 0.002231 0.000000 0.017481 0.000000
# 6 0.000000 0.000000 0.000000 -0.004276 0.000000 0.022869
#
#
# Mechanical properties :
#
#
# Convention : Reuss Voigt Hill
#
# Bulk Modulus (GPa) = 42.42574 68.57130 55.49852
# Shear Modulus (GPa) = 48.40853 59.00178 53.70515
#
# Velocity S-wave (km/s) = 4.32287 4.77248 4.55323
# Velocity P-wave (km/s) = 6.42604 7.53919 7.00476
#
# Compressibility (1/GPa) = 0.02357060
#
# Stress axis : x y z
#
# Youngs Moduli (GPa) = 190.04624 55.93776 170.31697
#
# Poissons Ratio (x) = -0.04318 0.30506
# Poissons Ratio (y) = -0.14671 0.28966
# Poissons Ratio (z) = 0.34040 0.09513
#
# Static dielectric constant tensor:
#      x y z
#    x 2.193820 0.000000 -0.055340 
#    y 0.000000 2.311350 0.000000 
#    z -0.055340 0.000000 2.021050 
# 
# From -- ./inp_files/11969.got.cif
#   From: 2010.05.17/outbox.cif.g08.bks.cpg/sg14_6_cif.got.tgz:11969.got - 2010.06.03 17:49:19.
