data_PCOD9249768
_publ_section_title
;
Structure prediction by ZEFSAII (Michael W. Deem and Ramdas Pophale) SiO2 
 PCOD9249768
Probable space group: P 21/C
;
_chemical_formula_sum "Si O2"
_cell_formula_units_Z 18
_cell_length_a 24.879311
_cell_length_b 4.749256
_cell_length_c 12.059219
_cell_angle_alpha 90.000000
_cell_angle_beta 152.748927
_cell_angle_gamma 90.000000
_cell_volume 652.446349
_symmetry_space_group_name_H-M "P 21/C"
_symmetry_group_IT_number 14
_symmetry_cell_setting 'monoclinic'
loop_
_space_group_symop_operation_xyz
x,y,z
-x,1/2+y,1/2-z
-x,-y,-z
x,1/2-y,1/2+z
loop_
_atom_site_type_symbol
_atom_site_label
_atom_site_fract_x
_atom_site_fract_y
_atom_site_fract_z
Si Si1 0.294789 0.950459 0.059006
Si Si2 0.856219 0.810051 0.549739
Si Si3 0.434394 0.058679 0.114424
Si Si4 0.500000 0.000000 0.000000
Si Si5 0.130174 0.682896 0.579161
O O1 0.200924 0.768572 0.817038
O O2 0.223768 0.156912 0.008023
O O3 0.360149 0.142667 0.085084
O O4 0.396516 0.748402 0.293037
O O5 0.848687 0.630984 0.422619
O O6 0.990494 0.786257 0.837535
O O7 0.833822 0.122270 0.461324
O O8 0.444353 0.721675 0.135825
O O9 0.425367 0.128160 0.969794
#
# Coordination Sequence:
#
# PCOD9249768 Si02
#       5
#     4   4   4   2   4
#     4  11  23  42  71 100 141 190 237 295 357 427
#     4  10  23  43  70 105 143 184 239 300 360 428
#     4  10  24  42  62  90 127 175 230 281 337 404
#     4  10  24  44  64  96 134 180 234 284 342 418
#     4  10  23  43  69 106 144 185 236 296 367 428
#
# _framework density 27.588474999999999
#
# number of rings (size 3 to 8) (size 9 to 14) (size 15 to 20)
#    0.000    1.778    0.000    2.000    0.000   16.000 
#    0.000    6.667    0.000    0.000    0.000    0.000 
#    0.000    0.000    0.000    0.000    0.000    0.000 
#
# Total GULP energy -100275.847217 kJ/mol
# GULP energy per Si atom -5570.880401 kJ/mol
# Density = 2.752568 g / cm^3
# Si number density = 27.588475 Si / 1000 Ang^3
#
#
#
# Elastic Constant Matrix: (Units=GPa)
#
#
# Indices 1 2 3 4 5 6 
#
# 1 191.4328 18.8300 39.7989 0.0000 24.3204 0.0000
# 2 18.8300 91.0274 27.2275 0.0000 13.6090 0.0000
# 3 39.7989 27.2275 105.1421 0.0000 -0.0270 0.0000
# 4 0.0000 0.0000 0.0000 49.9273 0.0000 2.4419
# 5 24.3204 13.6090 -0.0270 0.0000 27.4892 0.0000
# 6 0.0000 0.0000 0.0000 2.4419 0.0000 -1.1992
#
#
#
# Elastic Compliance Matrix: (Units=1/GPa)
#
#
# Indices 1 2 3 4 5 6 
#
# 1 0.006465 0.000295 -0.002525 0.000000 -0.005869 0.000000
# 2 0.000295 0.012961 -0.003470 0.000000 -0.006681 0.000000
# 3 -0.002525 -0.003470 0.011366 0.000000 0.003963 0.000000
# 4 0.000000 0.000000 0.000000 0.018215 0.000000 0.037090
# 5 -0.005869 -0.006681 0.003963 0.000000 0.044882 0.000000
# 6 0.000000 0.000000 0.000000 0.037090 0.000000 -0.758346
#
#
# Mechanical properties :
#
#
# Convention : Reuss Voigt Hill
#
# Bulk Modulus (GPa) = 51.56419 62.14612 56.85515
# Shear Modulus (GPa) = -7.73285 35.35986 13.81351
#
# Velocity S-wave (km/s) = -1.67601 3.58395 2.24006
# Velocity P-wave (km/s) = 3.87114 6.30090 5.22910
#
# Compressibility (1/GPa) = 0.01939330
#
# Stress axis : x y z
#
# Youngs Moduli (GPa) = 154.67194 77.15194 87.97853
#
# Poissons Ratio (x) = -0.02278 0.22217
# Poissons Ratio (y) = -0.04568 0.30528
# Poissons Ratio (z) = 0.39059 0.26772
#
# Static dielectric constant tensor:
#      x y z
#    x 1.954340 0.000000 1.201140 
#    y 0.000000 2.156270 0.000000 
#    z 1.201140 0.000000 -5.160920 
# 
# From -- ./inp_files/27371.got.cif
#   From: 2010.05.17/outbox.cif.g08.bks.cpg/sg14_14_cif.got.tgz:27371.got - 2010.06.03 17:49:19.
