data_PCOD9249654
_publ_section_title
;
Structure prediction by ZEFSAII (Michael W. Deem and Ramdas Pophale) SiO2 
 PCOD9249654
Probable space group: P 21/C
;
_chemical_formula_sum "Si O2"
_cell_formula_units_Z 28
_cell_length_a 10.427304
_cell_length_b 15.269955
_cell_length_c 8.631368
_cell_angle_alpha 90.000000
_cell_angle_beta 117.570713
_cell_angle_gamma 90.000000
_cell_volume 1218.256978
_symmetry_space_group_name_H-M "P 21/C"
_symmetry_group_IT_number 14
_symmetry_cell_setting 'monoclinic'
loop_
_space_group_symop_operation_xyz
x,y,z
-x,1/2+y,1/2-z
-x,-y,-z
x,1/2-y,1/2+z
loop_
_atom_site_type_symbol
_atom_site_label
_atom_site_fract_x
_atom_site_fract_y
_atom_site_fract_z
Si Si1 0.730723 0.160367 0.661584
Si Si2 0.923683 0.256883 0.522515
Si Si3 0.275477 0.476023 0.968253
Si Si4 0.312466 0.539739 0.327852
Si Si5 0.609121 0.633222 0.492180
Si Si6 0.589995 0.809532 0.625079
Si Si7 0.001394 0.875111 0.676648
O O1 0.850098 0.191200 0.603472
O O2 0.792467 0.197711 0.855436
O O3 0.577050 0.197700 0.522474
O O4 0.714163 0.055948 0.645328
O O5 0.010829 0.330961 0.662184
O O6 0.021081 0.201114 0.461024
O O7 0.344958 0.388263 0.940385
O O8 0.108591 0.453366 0.906206
O O9 0.341575 0.507473 0.168019
O O10 0.448962 0.598769 0.450616
O O11 0.297124 0.453645 0.425145
O O12 0.166612 0.594972 0.249991
O O13 0.656448 0.715168 0.622538
O O14 0.603125 0.664949 0.311808
#
# Coordination Sequence:
#
# PCOD9249654 Si02
#       7
#     4   4   4   4   4   4   4
#     4  11  22  42  69  98 128 174 223 276 329 392
#     4  10  23  42  71  96 126 177 227 269 330 394
#     4  12  26  42  67  99 139 175 216 274 338 395
#     4  11  24  44  69 101 129 178 221 279 333 392
#     4  11  25  43  71  98 134 171 227 277 337 384
#     4  12  24  44  65 100 134 174 218 280 330 398
#     4  11  24  45  66  97 136 176 221 273 326 404
#
# _framework density 22.983654999999999
#
# number of rings (size 3 to 8) (size 9 to 14) (size 15 to 20)
#    0.000    0.857    2.857    4.286    2.000    4.000 
#    2.571    0.000    0.000    0.000    0.000    0.000 
#    0.000    0.000    0.000    0.000    0.000    0.000 
#
# Total GULP energy -156841.543593 kJ/mol
# GULP energy per Si atom -5601.483700 kJ/mol
# Density = 2.293134 g / cm^3
# Si number density = 22.983655 Si / 1000 Ang^3
#
#
#
# Elastic Constant Matrix: (Units=GPa)
#
#
# Indices 1 2 3 4 5 6 
#
# 1 16.9328 -2.9925 5.1214 0.0000 -1.9418 0.0000
# 2 -2.9925 137.4267 37.2803 0.0000 -11.8976 0.0000
# 3 5.1214 37.2803 63.3645 0.0000 -11.2041 0.0000
# 4 0.0000 0.0000 0.0000 39.5191 0.0000 2.2294
# 5 -1.9418 -11.8976 -11.2041 0.0000 22.2238 0.0000
# 6 0.0000 0.0000 0.0000 2.2294 0.0000 30.0096
#
#
#
# Elastic Compliance Matrix: (Units=1/GPa)
#
#
# Indices 1 2 3 4 5 6 
#
# 1 0.062033 0.003413 -0.006302 0.000000 0.004070 0.000000
# 2 0.003413 0.008952 -0.005097 0.000000 0.002521 0.000000
# 3 -0.006302 -0.005097 0.020541 0.000000 0.007076 0.000000
# 4 0.000000 0.000000 0.000000 0.025411 0.000000 -0.001888
# 5 0.004070 0.002521 0.007076 0.000000 0.050270 0.000000
# 6 0.000000 0.000000 0.000000 -0.001888 0.000000 0.033463
#
#
# Mechanical properties :
#
#
# Convention : Reuss Voigt Hill
#
# Bulk Modulus (GPa) = 13.23564 32.94917 23.09241
# Shear Modulus (GPa) = 20.67603 30.23816 25.45709
#
# Velocity S-wave (km/s) = 3.00258 3.63111 3.33170
# Velocity P-wave (km/s) = 4.21804 5.65216 4.98692
#
# Compressibility (1/GPa) = 0.07555358
#
# Stress axis : x y z
#
# Youngs Moduli (GPa) = 16.12044 111.70918 48.68301
#
# Poissons Ratio (x) = -0.38123 0.30680
# Poissons Ratio (y) = -0.05501 0.24813
# Poissons Ratio (z) = 0.10159 0.56936
#
# Static dielectric constant tensor:
#      x y z
#    x 1.857930 0.000000 -0.008970 
#    y 0.000000 1.825030 0.000000 
#    z -0.008970 0.000000 1.838250 
# 
# From -- ./inp_files/12986.got.cif
#   From: 2010.05.17/outbox.cif.g08.bks.cpg/sg14_7_cif.got.tgz:12986.got - 2010.06.03 17:49:19.
