data_PCOD9249560
_publ_section_title
;
Structure prediction by ZEFSAII (Michael W. Deem and Ramdas Pophale) SiO2 
 PCOD9249560
Probable space group: P 21/C
;
_chemical_formula_sum "Si O2"
_cell_formula_units_Z 26
_cell_length_a 5.330998
_cell_length_b 15.224430
_cell_length_c 13.154755
_cell_angle_alpha 90.000000
_cell_angle_beta 65.701804
_cell_angle_gamma 90.000000
_cell_volume 973.081206
_symmetry_space_group_name_H-M "P 21/C"
_symmetry_group_IT_number 14
_symmetry_cell_setting 'monoclinic'
loop_
_space_group_symop_operation_xyz
x,y,z
-x,1/2+y,1/2-z
-x,-y,-z
x,1/2-y,1/2+z
loop_
_atom_site_type_symbol
_atom_site_label
_atom_site_fract_x
_atom_site_fract_y
_atom_site_fract_z
Si Si1 0.586574 0.286966 0.963728
Si Si2 0.496991 0.419335 0.819794
Si Si3 0.500000 0.000000 0.000000
Si Si4 0.251292 0.364832 0.417719
Si Si5 0.086836 0.506208 0.741954
Si Si6 0.958901 0.794735 0.238665
Si Si7 0.791276 0.210826 0.118089
O O1 0.435626 0.367597 0.935093
O O2 0.440491 0.196591 0.955788
O O3 0.878483 0.277476 0.856326
O O4 0.642493 0.283872 0.073538
O O5 0.242039 0.470456 0.814965
O O6 0.585192 0.345820 0.720713
O O7 0.768537 0.477418 0.793601
O O8 0.767199 0.970421 0.885025
O O9 0.352605 0.038334 0.921134
O O10 0.273467 0.327009 0.300971
O O11 0.939309 0.349783 0.508163
O O12 0.106101 0.611451 0.731393
O O13 0.977913 0.751433 0.346034
#
# Coordination Sequence:
#
# PCOD9249560 Si02
#       7
#     4   4   2   4   4   4   4
#     4  10  23  42  66  94 129 180 223 275 330 408
#     4  11  26  42  68  97 138 174 227 272 346 396
#     4  12  22  38  66 102 132 164 212 272 356 392
#     4  11  22  40  69  98 136 173 218 287 334 406
#     4  12  25  43  65 100 138 177 214 287 335 405
#     4  10  24  41  64  95 135 172 227 271 340 397
#     4  10  23  43  66  97 128 183 223 277 329 407
#
# _framework density 26.719249999999999
#
# number of rings (size 3 to 8) (size 9 to 14) (size 15 to 20)
#    0.000    1.231    3.077    1.846    8.615    2.462 
#    0.000    1.538    0.000    0.000    0.000    0.000 
#    0.000    0.000    0.000    0.000    0.000    0.000 
#
# Total GULP energy -145091.131528 kJ/mol
# GULP energy per Si atom -5580.428136 kJ/mol
# Density = 2.665844 g / cm^3
# Si number density = 26.719250 Si / 1000 Ang^3
#
#
#
# Elastic Constant Matrix: (Units=GPa)
#
#
# Indices 1 2 3 4 5 6 
#
# 1 107.9839 24.8589 44.8746 0.0000 43.1069 0.0000
# 2 24.8589 73.0988 32.1691 0.0000 10.8173 0.0000
# 3 44.8746 32.1691 135.8374 0.0000 40.0921 0.0000
# 4 0.0000 0.0000 0.0000 29.7267 0.0000 17.6822
# 5 43.1069 10.8173 40.0921 0.0000 47.5420 0.0000
# 6 0.0000 0.0000 0.0000 17.6822 0.0000 48.1068
#
#
#
# Elastic Compliance Matrix: (Units=1/GPa)
#
#
# Indices 1 2 3 4 5 6 
#
# 1 0.015255 -0.003060 -0.000583 0.000000 -0.012644 0.000000
# 2 -0.003060 0.015897 -0.003335 0.000000 0.001970 0.000000
# 3 -0.000583 -0.003335 0.010603 0.000000 -0.007654 0.000000
# 4 0.000000 0.000000 0.000000 0.043053 0.000000 -0.015824
# 5 -0.012644 0.001970 -0.007654 0.000000 0.038505 0.000000
# 6 0.000000 0.000000 0.000000 -0.015824 0.000000 0.026604
#
#
# Mechanical properties :
#
#
# Convention : Reuss Voigt Hill
#
# Bulk Modulus (GPa) = 35.97350 57.85837 46.91594
# Shear Modulus (GPa) = 28.87850 39.40958 34.14404
#
# Velocity S-wave (km/s) = 3.29114 3.84468 3.57863
# Velocity P-wave (km/s) = 5.28534 6.43505 5.88833
#
# Compressibility (1/GPa) = 0.02779824
#
# Stress axis : x y z
#
# Youngs Moduli (GPa) = 65.55335 62.90482 94.30964
#
# Poissons Ratio (x) = 0.19250 0.05498
# Poissons Ratio (y) = 0.20060 0.31455
# Poissons Ratio (z) = 0.03822 0.20981
#
# Static dielectric constant tensor:
#      x y z
#    x 2.742150 0.000000 -0.079370 
#    y 0.000000 2.410910 0.000000 
#    z -0.079370 0.000000 2.125910 
# 
# From -- ./inp_files/21248.got.cif
#   From: 2010.05.17/outbox.cif.g08.bks.cpg/sg14_11_cif.got.tgz:21248.got - 2010.06.03 17:49:19.
