data_PCOD9249280
_publ_section_title
;
Structure prediction by ZEFSAII (Michael W. Deem and Ramdas Pophale) SiO2 
 PCOD9249280
Probable space group: P 21/C
;
_chemical_formula_sum "Si O2"
_cell_formula_units_Z 22
_cell_length_a 5.173607
_cell_length_b 24.427547
_cell_length_c 7.691553
_cell_angle_alpha 90.000000
_cell_angle_beta 87.280373
_cell_angle_gamma 90.000000
_cell_volume 970.952311
_symmetry_space_group_name_H-M "P 21/C"
_symmetry_group_IT_number 14
_symmetry_cell_setting 'monoclinic'
loop_
_space_group_symop_operation_xyz
x,y,z
-x,1/2+y,1/2-z
-x,-y,-z
x,1/2-y,1/2+z
loop_
_atom_site_type_symbol
_atom_site_label
_atom_site_fract_x
_atom_site_fract_y
_atom_site_fract_z
Si Si1 0.322715 0.907983 0.342383
Si Si2 0.000000 0.000000 0.500000
Si Si3 0.127346 0.193115 0.953924
Si Si4 0.317986 0.087789 0.364801
Si Si5 0.969966 0.683494 0.945975
Si Si6 0.385073 0.869932 0.962158
O O1 0.075838 0.945995 0.379258
O O2 0.529006 0.933221 0.468436
O O3 0.244943 0.847376 0.414743
O O4 0.404682 0.903102 0.141909
O O5 0.894568 0.958259 0.657429
O O6 0.140094 0.182683 0.746713
O O7 0.904959 0.153472 0.038034
O O8 0.406210 0.179375 0.024632
O O9 0.033885 0.254766 0.989193
O O10 0.194518 0.145788 0.419693
O O11 0.519979 0.095663 0.204273
#
# Coordination Sequence:
#
# PCOD9249280 Si02
#       6
#     4   2   4   4   4   4
#     4  10  23  45  63  97 129 175 215 283 318 399
#     4  10  24  44  68  96 126 168 228 272 344 374
#     4  11  24  42  63 104 134 178 214 267 315 399
#     4  11  23  43  68  93 130 176 214 281 323 394
#     4  10  23  39  66  93 140 169 222 260 327 382
#     4  11  26  42  69  99 137 170 224 260 333 387
#
# _framework density 22.658166999999999
#
# number of rings (size 3 to 8) (size 9 to 14) (size 15 to 20)
#    0.000    1.455    1.818    1.636   10.182    2.182 
#    0.000    1.818    0.000    0.000    0.000    0.000 
#    0.000    0.000    0.000    0.000    0.000    0.000 
#
# Total GULP energy -122478.581081 kJ/mol
# GULP energy per Si atom -5567.208231 kJ/mol
# Density = 2.260660 g / cm^3
# Si number density = 22.658167 Si / 1000 Ang^3
#
#
#
# Elastic Constant Matrix: (Units=GPa)
#
#
# Indices 1 2 3 4 5 6 
#
# 1 53.2147 -4.9440 25.6672 0.0000 -8.1009 0.0000
# 2 -4.9440 93.3084 34.9071 0.0000 -15.6637 0.0000
# 3 25.6672 34.9071 133.7027 0.0000 -37.1328 0.0000
# 4 0.0000 0.0000 0.0000 17.7645 0.0000 -97.6920
# 5 -8.1009 -15.6637 -37.1328 0.0000 32.1252 0.0000
# 6 0.0000 0.0000 0.0000 -97.6920 0.0000 1340.7691
#
#
#
# Elastic Compliance Matrix: (Units=1/GPa)
#
#
# Indices 1 2 3 4 5 6 
#
# 1 0.021494 0.003101 -0.004434 0.000000 0.001807 0.000000
# 2 0.003101 0.012560 -0.002881 0.000000 0.003575 0.000000
# 3 -0.004434 -0.002881 0.012345 0.000000 0.011746 0.000000
# 4 0.000000 0.000000 0.000000 0.093929 0.000000 0.006844
# 5 0.001807 0.003575 0.011746 0.000000 0.046904 0.000000
# 6 0.000000 0.000000 0.000000 0.006844 0.000000 0.001245
#
#
# Mechanical properties :
#
#
# Convention : Reuss Voigt Hill
#
# Bulk Modulus (GPa) = 26.33710 43.49848 34.91779
# Shear Modulus (GPa) = 23.85941 293.10481 158.48211
#
# Velocity S-wave (km/s) = 3.24854 11.38597 8.37237
# Velocity P-wave (km/s) = 5.07145 13.85976 10.43582
#
# Compressibility (1/GPa) = 0.03796926
#
# Stress axis : x y z
#
# Youngs Moduli (GPa) = 46.52553 79.62049 81.00429
#
# Poissons Ratio (x) = -0.24690 0.35917
# Poissons Ratio (y) = -0.14427 0.23341
# Poissons Ratio (z) = 0.20629 0.22942
#
# Static dielectric constant tensor:
#      x y z
#    x 2.036870 0.000000 0.022650 
#    y 0.000000 1.784190 0.000000 
#    z 0.022650 0.000000 1.848450 
# 
# From -- ./inp_files/5735.got.cif
#   From: 2010.05.17/outbox.cif.g08.bks.cpg/sg14_3_cif.got.tgz:5735.got - 2010.06.03 17:49:19.
