data_PCOD9249330
_publ_section_title
;
Structure prediction by ZEFSAII (Michael W. Deem and Ramdas Pophale) SiO2 
 PCOD9249330
Probable space group: P 21/C
;
_chemical_formula_sum "Si O2"
_cell_formula_units_Z 32
_cell_length_a 26.200676
_cell_length_b 11.141043
_cell_length_c 14.973576
_cell_angle_alpha 90.000000
_cell_angle_beta 161.221578
_cell_angle_gamma 90.000000
_cell_volume 1407.010083
_symmetry_space_group_name_H-M "P 21/C"
_symmetry_group_IT_number 14
_symmetry_cell_setting 'monoclinic'
loop_
_space_group_symop_operation_xyz
x,y,z
-x,1/2+y,1/2-z
-x,-y,-z
x,1/2-y,1/2+z
loop_
_atom_site_type_symbol
_atom_site_label
_atom_site_fract_x
_atom_site_fract_y
_atom_site_fract_z
Si Si1 0.604805 0.558077 0.751622
Si Si2 0.462094 0.361928 0.610249
Si Si3 0.587753 0.222702 0.484334
Si Si4 0.124416 0.848234 0.758863
Si Si5 0.624349 0.542790 0.277002
Si Si6 0.889780 0.289181 0.090020
Si Si7 0.228314 0.233497 0.574963
Si Si8 0.148916 0.976075 0.621331
O O1 0.500000 0.500000 0.500000
O O2 0.605489 0.451769 0.822790
O O3 0.501491 0.668266 0.616296
O O4 0.762495 0.619695 0.976357
O O5 0.550221 0.264624 0.818010
O O6 0.374652 0.289619 0.385404
O O7 0.317120 0.453268 0.398518
O O8 0.484885 0.104052 0.330256
O O9 0.755522 0.215763 0.811879
O O10 0.122463 0.863078 0.647042
O O11 0.134018 0.733838 0.842712
O O12 0.974519 0.924753 0.548080
O O13 0.274036 0.930839 0.027189
O O14 0.737634 0.645938 0.424100
O O15 0.500000 0.500000 0.000000
O O16 0.875187 0.420055 0.017729
O O17 0.064876 0.244230 0.355737
#
# Coordination Sequence:
#
# PCOD9249330 Si02
#       8
#     4   4   4   4   4   4   4   4
#     4   9  21  42  63  87 126 177 213 261 329 398
#     4  11  21  41  66  94 132 177 218 277 329 397
#     4  11  23  37  65  97 127 167 228 267 327 400
#     4  11  23  40  68  94 131 175 221 277 335 398
#     4  11  21  38  62  93 127 165 221 279 326 385
#     4  12  23  42  67 100 132 174 222 277 337 403
#     4  10  23  40  65  93 130 176 223 265 340 400
#     4  11  23  41  68  97 132 178 222 273 341 406
#
# _framework density 22.743262999999999
#
# number of rings (size 3 to 8) (size 9 to 14) (size 15 to 20)
#    0.000    1.250    6.250    0.000    0.000    2.000 
#    2.250    0.625    0.000    0.000    0.000    0.000 
#    0.000    0.000    0.000    0.000    0.000    0.000 
#
# Total GULP energy -178335.526506 kJ/mol
# GULP energy per Si atom -5572.985203 kJ/mol
# Density = 2.269150 g / cm^3
# Si number density = 22.743263 Si / 1000 Ang^3
#
#
#
# Elastic Constant Matrix: (Units=GPa)
#
#
# Indices 1 2 3 4 5 6 
#
# 1 51.0257 30.1305 9.0943 0.0000 -8.7466 0.0000
# 2 30.1305 51.5942 6.7055 0.0000 -1.4909 0.0000
# 3 9.0943 6.7055 45.8311 0.0000 1.9801 0.0000
# 4 0.0000 0.0000 0.0000 30.7852 0.0000 -7.4653
# 5 -8.7466 -1.4909 1.9801 0.0000 33.3457 0.0000
# 6 0.0000 0.0000 0.0000 -7.4653 0.0000 45.2585
#
#
#
# Elastic Compliance Matrix: (Units=1/GPa)
#
#
# Indices 1 2 3 4 5 6 
#
# 1 0.032421 -0.018169 -0.004118 0.000000 0.007936 0.000000
# 2 -0.018169 0.029977 -0.000634 0.000000 -0.003388 0.000000
# 3 -0.004118 -0.000634 0.022836 0.000000 -0.002464 0.000000
# 4 0.000000 0.000000 0.000000 0.033837 0.000000 0.005581
# 5 0.007936 -0.003388 -0.002464 0.000000 0.032065 0.000000
# 6 0.000000 0.000000 0.000000 0.005581 0.000000 0.023016
#
#
# Mechanical properties :
#
#
# Convention : Reuss Voigt Hill
#
# Bulk Modulus (GPa) = 25.38630 26.70131 26.04380
# Shear Modulus (GPa) = 21.44773 28.71258 25.08016
#
# Velocity S-wave (km/s) = 3.07422 3.55697 3.32437
# Velocity P-wave (km/s) = 4.87724 5.35119 5.11970
#
# Compressibility (1/GPa) = 0.03939132
#
# Stress axis : x y z
#
# Youngs Moduli (GPa) = 30.84407 33.35876 43.79123
#
# Poissons Ratio (x) = 0.60610 0.18033
# Poissons Ratio (y) = 0.56041 0.02777
# Poissons Ratio (z) = 0.12701 0.02116
#
# Static dielectric constant tensor:
#      x y z
#    x 1.023000 0.000000 -0.466220 
#    y 0.000000 1.891160 0.000000 
#    z -0.466220 0.000000 1.387300 
# 
# From -- ./inp_files/52072.got.cif
#   From: 2010.05.17/outbox.cif.g08.bks.cpg/sg14_27_cif.got.tgz:52072.got - 2010.06.03 17:49:19.
