data_PCOD9249204
_publ_section_title
;
Structure prediction by ZEFSAII (Michael W. Deem and Ramdas Pophale) SiO2 
 PCOD9249204
Probable space group: P 21/C
;
_chemical_formula_sum "Si O2"
_cell_formula_units_Z 14
_cell_length_a 9.506769
_cell_length_b 5.309201
_cell_length_c 21.144480
_cell_angle_alpha 90.000000
_cell_angle_beta 153.631880
_cell_angle_gamma 90.000000
_cell_volume 473.997232
_symmetry_space_group_name_H-M "P 21/C"
_symmetry_group_IT_number 14
_symmetry_cell_setting 'monoclinic'
loop_
_space_group_symop_operation_xyz
x,y,z
-x,1/2+y,1/2-z
-x,-y,-z
x,1/2-y,1/2+z
loop_
_atom_site_type_symbol
_atom_site_label
_atom_site_fract_x
_atom_site_fract_y
_atom_site_fract_z
Si Si1 0.674327 0.423294 0.928436
Si Si2 0.146116 0.734805 0.684638
Si Si3 0.665598 0.751183 0.093640
Si Si4 0.000000 0.500000 0.500000
O O1 0.522244 0.687052 0.839988
O O2 0.407430 0.282512 0.862065
O O3 0.971489 0.519196 0.088281
O O4 0.773852 0.245848 0.912299
O O5 0.013924 0.729711 0.703799
O O6 0.024471 0.510974 0.589505
O O7 0.500000 0.500000 0.000000
O O8 0.500000 0.000000 0.000000
#
# Coordination Sequence:
#
# PCOD9249204 Si02
#       4
#     4   4   4   2
#     4  11  27  51  86 118 172 222 286 355 434 514
#     4  11  27  49  81 122 166 219 283 357 433 511
#     4  10  22  50  78 121 161 216 280 347 422 506
#     4  12  26  50  78 124 170 226 282 346 428 522
#
# _framework density 29.536038999999999
#
# number of rings (size 3 to 8) (size 9 to 14) (size 15 to 20)
#    0.000    1.143    2.857    0.857    4.000    6.857 
#    0.000    0.000    0.000    0.000    0.000    0.000 
#    0.000    0.000    0.000    0.000    0.000    0.000 
#
# Total GULP energy -78091.444896 kJ/mol
# GULP energy per Si atom -5577.960350 kJ/mol
# Density = 2.946881 g / cm^3
# Si number density = 29.536039 Si / 1000 Ang^3
#
#
#
# Elastic Constant Matrix: (Units=GPa)
#
#
# Indices 1 2 3 4 5 6 
#
# 1 201.2247 38.1835 33.9895 0.0000 6.3857 0.0000
# 2 38.1835 186.8963 64.4711 0.0000 9.4234 0.0000
# 3 33.9895 64.4711 144.7498 0.0000 -3.7577 0.0000
# 4 0.0000 0.0000 0.0000 52.2442 0.0000 6.0564
# 5 6.3857 9.4234 -3.7577 0.0000 39.3463 0.0000
# 6 0.0000 0.0000 0.0000 6.0564 0.0000 63.8973
#
#
#
# Elastic Compliance Matrix: (Units=1/GPa)
#
#
# Indices 1 2 3 4 5 6 
#
# 1 0.005289 -0.000716 -0.000943 0.000000 -0.000777 0.000000
# 2 -0.000716 0.006547 -0.002792 0.000000 -0.001718 0.000000
# 3 -0.000943 -0.002792 0.008416 0.000000 0.001626 0.000000
# 4 0.000000 0.000000 0.000000 0.019354 0.000000 -0.001834
# 5 -0.000777 -0.001718 0.001626 0.000000 0.026108 0.000000
# 6 0.000000 0.000000 0.000000 -0.001834 0.000000 0.015824
#
#
# Mechanical properties :
#
#
# Convention : Reuss Voigt Hill
#
# Bulk Modulus (GPa) = 88.11638 89.57322 88.84480
# Shear Modulus (GPa) = 53.06497 57.51269 55.28883
#
# Velocity S-wave (km/s) = 4.24325 4.41750 4.33125
# Velocity P-wave (km/s) = 7.34202 7.51077 7.42687
#
# Compressibility (1/GPa) = 0.01134863
#
# Stress axis : x y z
#
# Youngs Moduli (GPa) = 189.05601 152.74771 118.82305
#
# Poissons Ratio (x) = 0.10938 0.11208
# Poissons Ratio (y) = 0.13538 0.33180
# Poissons Ratio (z) = 0.17833 0.42653
#
# Static dielectric constant tensor:
#      x y z
#    x 2.288470 0.000000 -0.242730 
#    y 0.000000 1.837310 0.000000 
#    z -0.242730 0.000000 1.526520 
# 
# From -- ./inp_files/76812.got.cif
#   From: 2010.05.17/outbox.cif.g08.bks.cpg/sg14_39_cif.got.tgz:76812.got - 2010.06.03 17:49:19.
