data_PCOD9249129
_publ_section_title
;
Structure prediction by ZEFSAII (Michael W. Deem and Ramdas Pophale) SiO2 
 PCOD9249129
Probable space group: P 21/C
;
_chemical_formula_sum "Si O2"
_cell_formula_units_Z 28
_cell_length_a 21.824192
_cell_length_b 9.202539
_cell_length_c 10.844510
_cell_angle_alpha 90.000000
_cell_angle_beta 149.502983
_cell_angle_gamma 90.000000
_cell_volume 1105.315501
_symmetry_space_group_name_H-M "P 21/C"
_symmetry_group_IT_number 14
_symmetry_cell_setting 'monoclinic'
loop_
_space_group_symop_operation_xyz
x,y,z
-x,1/2+y,1/2-z
-x,-y,-z
x,1/2-y,1/2+z
loop_
_atom_site_type_symbol
_atom_site_label
_atom_site_fract_x
_atom_site_fract_y
_atom_site_fract_z
Si Si1 0.081237 0.709937 0.399374
Si Si2 0.324985 0.305237 0.850684
Si Si3 0.770254 0.460706 0.167074
Si Si4 0.722548 0.044340 0.933224
Si Si5 0.090918 0.020935 0.542523
Si Si6 0.640421 0.493254 0.697181
Si Si7 0.586476 0.221513 0.888506
O O1 0.116379 0.629878 0.589187
O O2 0.181699 0.640697 0.479912
O O3 0.084114 0.878142 0.442878
O O4 0.957392 0.653214 0.124587
O O5 0.227850 0.380365 0.771391
O O6 0.329824 0.418846 0.744618
O O7 0.317076 0.147432 0.780033
O O8 0.444088 0.288831 0.141198
O O9 0.739273 0.459631 0.971597
O O10 0.648809 0.377884 0.007158
O O11 0.786715 0.973582 0.164956
O O12 0.626388 0.153096 0.826758
O O13 0.000000 0.000000 0.500000
O O14 0.500000 0.500000 0.500000
O O15 0.637515 0.373356 0.587137
#
# Coordination Sequence:
#
# PCOD9249129 Si02
#       7
#     4   4   4   4   4   4   4
#     4  10  23  46  74 101 139 178 232 299 363 422
#     4  11  24  42  65  98 144 186 237 286 341 419
#     4  11  25  44  68 102 140 186 239 285 357 420
#     4  10  24  42  70 101 139 183 233 287 352 422
#     4  10  22  46  73 103 138 178 235 297 364 431
#     4  12  26  41  64  97 144 187 239 289 341 407
#     4  12  23  41  70  97 140 192 235 283 348 421
#
# _framework density 25.332134
#
# number of rings (size 3 to 8) (size 9 to 14) (size 15 to 20)
#    0.000    1.143    4.286    0.429    6.000    2.286 
#    5.143    2.857    0.000    0.000    0.000    0.000 
#    0.000    0.000    0.000    0.000    0.000    0.000 
#
# Total GULP energy -156698.395857 kJ/mol
# GULP energy per Si atom -5596.371281 kJ/mol
# Density = 2.527448 g / cm^3
# Si number density = 25.332134 Si / 1000 Ang^3
#
#
#
# Elastic Constant Matrix: (Units=GPa)
#
#
# Indices 1 2 3 4 5 6 
#
# 1 81.6792 32.3026 16.1581 0.0000 -18.5785 0.0000
# 2 32.3026 152.4921 57.7802 0.0000 -28.7726 0.0000
# 3 16.1581 57.7802 151.2455 0.0000 -37.9681 0.0000
# 4 0.0000 0.0000 0.0000 42.4830 0.0000 -6.3894
# 5 -18.5785 -28.7726 -37.9681 0.0000 48.4557 0.0000
# 6 0.0000 0.0000 0.0000 -6.3894 0.0000 30.5007
#
#
#
# Elastic Compliance Matrix: (Units=1/GPa)
#
#
# Indices 1 2 3 4 5 6 
#
# 1 0.014069 -0.002338 0.000493 0.000000 0.004392 0.000000
# 2 -0.002338 0.008377 -0.002399 0.000000 0.002198 0.000000
# 3 0.000493 -0.002399 0.008920 0.000000 0.005754 0.000000
# 4 0.000000 0.000000 0.000000 0.024305 0.000000 0.005091
# 5 0.004392 0.002198 0.005754 0.000000 0.028135 0.000000
# 6 0.000000 0.000000 0.000000 0.005091 0.000000 0.033853
#
#
# Mechanical properties :
#
#
# Convention : Reuss Voigt Hill
#
# Bulk Modulus (GPa) = 43.71082 66.43321 55.07201
# Shear Modulus (GPa) = 37.37697 42.89961 40.13829
#
# Velocity S-wave (km/s) = 3.84536 4.11966 3.98487
# Velocity P-wave (km/s) = 6.08344 6.99361 6.55435
#
# Compressibility (1/GPa) = 0.02287763
#
# Stress axis : x y z
#
# Youngs Moduli (GPa) = 71.07679 119.38037 112.10901
#
# Poissons Ratio (x) = 0.27915 -0.05525
# Poissons Ratio (y) = 0.16620 0.26889
# Poissons Ratio (z) = -0.03503 0.28633
#
# Static dielectric constant tensor:
#      x y z
#    x 2.066100 0.000000 0.038210 
#    y 0.000000 2.003090 0.000000 
#    z 0.038210 0.000000 1.994290 
# 
# From -- ./inp_files/36180.got.cif
#   From: 2010.05.17/outbox.cif.g08.bks.cpg/sg14_19_cif.got.tgz:36180.got - 2010.06.03 17:49:19.
