data_PCOD9249152
_publ_section_title
;
Structure prediction by ZEFSAII (Michael W. Deem and Ramdas Pophale) SiO2 
 PCOD9249152
Probable space group: P 21/C
;
_chemical_formula_sum "Si O2"
_cell_formula_units_Z 32
_cell_length_a 7.070403
_cell_length_b 13.602794
_cell_length_c 26.724874
_cell_angle_alpha 90.000000
_cell_angle_beta 30.829414
_cell_angle_gamma 90.000000
_cell_volume 1317.249571
_symmetry_space_group_name_H-M "P 21/C"
_symmetry_group_IT_number 14
_symmetry_cell_setting 'monoclinic'
loop_
_space_group_symop_operation_xyz
x,y,z
-x,1/2+y,1/2-z
-x,-y,-z
x,1/2-y,1/2+z
loop_
_atom_site_type_symbol
_atom_site_label
_atom_site_fract_x
_atom_site_fract_y
_atom_site_fract_z
Si Si1 0.220028 0.034849 0.188731
Si Si2 0.569491 0.895035 0.958313
Si Si3 0.213463 0.033304 0.522440
Si Si4 0.333752 0.227273 0.223635
Si Si5 0.515948 0.749315 0.562298
Si Si6 0.763067 0.146520 0.694801
Si Si7 0.776787 0.879242 0.091231
Si Si8 0.387798 0.386295 0.129042
O O1 0.596140 0.970388 0.101741
O O2 0.616531 0.254779 0.202668
O O3 0.885994 0.964534 0.281644
O O4 0.147030 0.085347 0.151683
O O5 0.633843 0.817477 0.988205
O O6 0.194077 0.869892 0.013816
O O7 0.500000 0.000000 0.000000
O O8 0.365317 0.138102 0.469719
O O9 0.835059 0.061756 0.636715
O O10 0.500000 0.000000 0.500000
O O11 0.261926 0.946107 0.471310
O O12 0.295591 0.117271 0.213134
O O13 0.321055 0.290156 0.423003
O O14 0.457543 0.296473 0.149711
O O15 0.926072 0.259194 0.333424
O O16 0.460054 0.117787 0.804160
O O17 0.143948 0.155597 0.638570
#
# Coordination Sequence:
#
# PCOD9249152 Si02
#       8
#     4   4   4   4   4   4   4   4
#     4  11  24  41  67  99 135 175 222 282 338 411
#     4  12  25  42  69 101 134 179 223 278 347 413
#     4  10  24  45  71  97 136 187 230 288 344 409
#     4  12  23  43  68 100 134 181 226 280 345 406
#     4  12  24  43  70  96 140 177 228 286 346 410
#     4  10  23  42  67  94 133 177 228 277 338 405
#     4  11  24  46  65 100 139 174 226 288 340 414
#     4  10  22  47  65  94 141 176 228 283 341 410
#
# _framework density 24.293043000000001
#
# number of rings (size 3 to 8) (size 9 to 14) (size 15 to 20)
#    0.000    1.000    6.250    0.375    5.250    0.500 
#    0.000    5.000    0.000    0.000    0.000    0.000 
#    0.000    0.000    0.000    0.000    0.000    0.000 
#
# Total GULP energy -179123.977598 kJ/mol
# GULP energy per Si atom -5597.624300 kJ/mol
# Density = 2.423775 g / cm^3
# Si number density = 24.293043 Si / 1000 Ang^3
#
#
#
# Elastic Constant Matrix: (Units=GPa)
#
#
# Indices 1 2 3 4 5 6 
#
# 1 65.3796 16.2323 28.7233 0.0000 -11.9091 0.0000
# 2 16.2323 98.0057 23.4319 0.0000 7.9558 0.0000
# 3 28.7233 23.4319 104.8243 0.0000 18.8603 0.0000
# 4 0.0000 0.0000 0.0000 33.8289 0.0000 3.1237
# 5 -11.9091 7.9558 18.8603 0.0000 28.1546 0.0000
# 6 0.0000 0.0000 0.0000 3.1237 0.0000 34.6299
#
#
#
# Elastic Compliance Matrix: (Units=1/GPa)
#
#
# Indices 1 2 3 4 5 6 
#
# 1 0.022693 -0.003050 -0.008435 0.000000 0.016111 0.000000
# 2 -0.003050 0.011255 -0.000996 0.000000 -0.003803 0.000000
# 3 -0.008435 -0.000996 0.014401 0.000000 -0.012933 0.000000
# 4 0.000000 0.000000 0.000000 0.029809 0.000000 -0.002689
# 5 0.016111 -0.003803 -0.012933 0.000000 0.052072 0.000000
# 6 0.000000 0.000000 0.000000 -0.002689 0.000000 0.029119
#
#
# Mechanical properties :
#
#
# Convention : Reuss Voigt Hill
#
# Bulk Modulus (GPa) = 42.75816 44.99829 43.87823
# Shear Modulus (GPa) = 26.02718 32.64417 29.33568
#
# Velocity S-wave (km/s) = 3.27675 3.66972 3.47879
# Velocity P-wave (km/s) = 5.65290 6.04310 5.85126
#
# Compressibility (1/GPa) = 0.02338735
#
# Stress axis : x y z
#
# Youngs Moduli (GPa) = 44.06636 88.84571 69.44042
#
# Poissons Ratio (x) = 0.27095 0.58575
# Poissons Ratio (y) = 0.13439 0.06917
# Poissons Ratio (z) = 0.37171 0.08850
#
# Static dielectric constant tensor:
#      x y z
#    x 1.920590 0.000000 0.026700 
#    y 0.000000 1.918290 0.000000 
#    z 0.026700 0.000000 1.965190 
# 
# From -- ./inp_files/79681.got.cif
#   From: 2010.05.17/outbox.cif.g08.bks.cpg/sg14_40_cif.got.tgz:79681.got - 2010.06.03 17:49:19.
