data_PCOD9249459
_publ_section_title
;
Structure prediction by ZEFSAII (Michael W. Deem and Ramdas Pophale) SiO2 
 PCOD9249459
Probable space group: P 21/C
;
_chemical_formula_sum "Si O2"
_cell_formula_units_Z 24
_cell_length_a 15.229047
_cell_length_b 17.527885
_cell_length_c 10.532282
_cell_angle_alpha 90.000000
_cell_angle_beta 155.020333
_cell_angle_gamma 90.000000
_cell_volume 1187.250367
_symmetry_space_group_name_H-M "P 21/C"
_symmetry_group_IT_number 14
_symmetry_cell_setting 'monoclinic'
loop_
_space_group_symop_operation_xyz
x,y,z
-x,1/2+y,1/2-z
-x,-y,-z
x,1/2-y,1/2+z
loop_
_atom_site_type_symbol
_atom_site_label
_atom_site_fract_x
_atom_site_fract_y
_atom_site_fract_z
Si Si1 0.054416 0.877042 0.609776
Si Si2 0.224529 0.865568 0.094952
Si Si3 0.254060 0.498798 0.193826
Si Si4 0.317593 0.183321 0.269769
Si Si5 0.064359 0.025196 0.943238
Si Si6 0.134124 0.260523 0.784858
O O1 0.849480 0.918289 0.400098
O O2 0.989772 0.813759 0.424938
O O3 0.186738 0.942038 0.714152
O O4 0.186389 0.843199 0.898540
O O5 0.441772 0.836769 0.431851
O O6 0.210625 0.957008 0.083652
O O7 0.030013 0.828724 0.912823
O O8 0.500000 0.500000 0.500000
O O9 0.136854 0.523676 0.911457
O O10 0.285120 0.218738 0.366794
O O11 0.241394 0.239403 0.058374
O O12 0.180981 0.105717 0.087820
O O13 0.000000 0.000000 0.000000
#
# Coordination Sequence:
#
# PCOD9249459 Si02
#       6
#     4   4   4   4   4   4
#     4  10  23  43  62  98 136 168 229 274 327 411
#     4  11  26  43  71  96 136 181 225 284 338 398
#     4  10  23  41  68  96 133 180 218 276 338 398
#     4  12  27  45  71  97 139 183 223 280 344 402
#     4  11  23  45  68 101 131 172 235 280 326 406
#     4  12  25  46  64 102 137 174 229 277 336 415
#
# _framework density 20.214774999999999
#
# number of rings (size 3 to 8) (size 9 to 14) (size 15 to 20)
#    0.000    1.000    5.000    0.500    4.667    2.667 
#    0.000    0.000    0.000    0.000    0.000    0.000 
#    0.000    0.000    0.000    0.000    0.000    0.000 
#
# Total GULP energy -134163.899522 kJ/mol
# GULP energy per Si atom -5590.162480 kJ/mol
# Density = 2.016877 g / cm^3
# Si number density = 20.214775 Si / 1000 Ang^3
#
#
#
# Elastic Constant Matrix: (Units=GPa)
#
#
# Indices 1 2 3 4 5 6 
#
# 1 91.5195 8.1569 42.3898 0.0000 -10.8975 0.0000
# 2 8.1569 68.1865 23.9058 0.0000 6.1507 0.0000
# 3 42.3898 23.9058 113.6042 0.0000 8.6135 0.0000
# 4 0.0000 0.0000 0.0000 20.4715 0.0000 -10.1672
# 5 -10.8975 6.1507 8.6135 0.0000 28.4743 0.0000
# 6 0.0000 0.0000 0.0000 -10.1672 0.0000 35.0518
#
#
#
# Elastic Compliance Matrix: (Units=1/GPa)
#
#
# Indices 1 2 3 4 5 6 
#
# 1 0.014596 -0.000336 -0.005941 0.000000 0.007456 0.000000
# 2 -0.000336 0.016013 -0.003042 0.000000 -0.002667 0.000000
# 3 -0.005941 -0.003042 0.012059 0.000000 -0.005264 0.000000
# 4 0.000000 0.000000 0.000000 0.057070 0.000000 0.016554
# 5 0.007456 -0.002667 -0.005264 0.000000 0.040141 0.000000
# 6 0.000000 0.000000 0.000000 0.016554 0.000000 0.033331
#
#
# Mechanical properties :
#
#
# Convention : Reuss Voigt Hill
#
# Bulk Modulus (GPa) = 41.61472 46.91281 44.26376
# Shear Modulus (GPa) = 25.01782 30.05669 27.53726
#
# Velocity S-wave (km/s) = 3.52177 3.86018 3.69485
# Velocity P-wave (km/s) = 6.09657 6.56700 6.33615
#
# Compressibility (1/GPa) = 0.02402996
#
# Stress axis : x y z
#
# Youngs Moduli (GPa) = 68.51160 62.44937 82.92854
#
# Poissons Ratio (x) = 0.02097 0.49268
# Poissons Ratio (y) = 0.02300 0.25228
# Poissons Ratio (z) = 0.40703 0.18998
#
# Static dielectric constant tensor:
#      x y z
#    x 1.728870 0.000000 -0.007590 
#    y 0.000000 1.735570 0.000000 
#    z -0.007590 0.000000 1.701970 
# 
# From -- ./inp_files/34324.got.cif
#   From: 2010.05.17/outbox.cif.g08.bks.cpg/sg14_18_cif.got.tgz:34324.got - 2010.06.03 17:49:19.
