data_PCOD9249586
_publ_section_title
;
Structure prediction by ZEFSAII (Michael W. Deem and Ramdas Pophale) SiO2 
 PCOD9249586
Probable space group: P 21/C
;
_chemical_formula_sum "Si O2"
_cell_formula_units_Z 20
_cell_length_a 19.704344
_cell_length_b 7.159856
_cell_length_c 11.048523
_cell_angle_alpha 90.000000
_cell_angle_beta 144.152946
_cell_angle_gamma 90.000000
_cell_volume 912.828171
_symmetry_space_group_name_H-M "P 21/C"
_symmetry_group_IT_number 14
_symmetry_cell_setting 'monoclinic'
loop_
_space_group_symop_operation_xyz
x,y,z
-x,1/2+y,1/2-z
-x,-y,-z
x,1/2-y,1/2+z
loop_
_atom_site_type_symbol
_atom_site_label
_atom_site_fract_x
_atom_site_fract_y
_atom_site_fract_z
Si Si1 0.664461 0.025589 0.666901
Si Si2 0.530981 0.699558 0.599359
Si Si3 0.863067 0.487791 0.639642
Si Si4 0.763361 0.649210 0.080742
Si Si5 0.040514 0.907597 0.185070
O O1 0.583362 0.198811 0.515696
O O2 0.582789 0.847253 0.577430
O O3 0.748891 0.961687 0.683310
O O4 0.743931 0.067649 0.898134
O O5 0.500000 0.500000 0.500000
O O6 0.634855 0.675935 0.843873
O O7 0.826434 0.650954 0.678656
O O8 0.923360 0.306442 0.781114
O O9 0.948341 0.570489 0.659588
O O10 0.843900 0.522894 0.111574
O O11 0.000000 0.000000 0.000000
#
# Coordination Sequence:
#
# PCOD9249586 Si02
#       5
#     4   4   4   4   4
#     4  10  23  44  64 100 138 176 237 281 346 413
#     4  10  23  42  67  96 138 182 230 291 336 406
#     4  11  24  45  66  99 141 175 234 295 342 423
#     4  11  24  42  70 101 135 186 234 279 356 411
#     4  12  24  44  69 100 136 186 230 288 354 419
#
# _framework density 21.909929000000002
#
# number of rings (size 3 to 8) (size 9 to 14) (size 15 to 20)
#    0.000    1.200    4.000    1.200    2.800    2.400 
#    7.200    0.000    0.000    0.000    0.000    0.000 
#    0.000    0.000    0.000    0.000    0.000    0.000 
#
# Total GULP energy -111793.640234 kJ/mol
# GULP energy per Si atom -5589.682012 kJ/mol
# Density = 2.186006 g / cm^3
# Si number density = 21.909929 Si / 1000 Ang^3
#
#
#
# Elastic Constant Matrix: (Units=GPa)
#
#
# Indices 1 2 3 4 5 6 
#
# 1 74.6807 34.8380 27.8724 0.0000 17.0957 0.0000
# 2 34.8380 160.2494 52.5181 0.0000 8.8006 0.0000
# 3 27.8724 52.5181 83.2656 0.0000 17.8284 0.0000
# 4 0.0000 0.0000 0.0000 39.1390 0.0000 15.2509
# 5 17.0957 8.8006 17.8284 0.0000 26.0050 0.0000
# 6 0.0000 0.0000 0.0000 15.2509 0.0000 37.6034
#
#
#
# Elastic Compliance Matrix: (Units=1/GPa)
#
#
# Indices 1 2 3 4 5 6 
#
# 1 0.017520 -0.002553 -0.002313 0.000000 -0.009068 0.000000
# 2 -0.002553 0.008255 -0.004821 0.000000 0.002190 0.000000
# 3 -0.002313 -0.004821 0.017756 0.000000 -0.009021 0.000000
# 4 0.000000 0.000000 0.000000 0.030346 0.000000 -0.012307
# 5 -0.009068 0.002190 -0.009021 0.000000 0.049859 0.000000
# 6 0.000000 0.000000 0.000000 -0.012307 0.000000 0.031585
#
#
# Mechanical properties :
#
#
# Convention : Reuss Voigt Hill
#
# Bulk Modulus (GPa) = 41.39409 60.96143 51.17776
# Shear Modulus (GPa) = 27.36011 34.08062 30.72036
#
# Velocity S-wave (km/s) = 3.53760 3.94825 3.74855
# Velocity P-wave (km/s) = 5.96825 6.97631 6.49188
#
# Compressibility (1/GPa) = 0.02415804
#
# Stress axis : x y z
#
# Youngs Moduli (GPa) = 57.07648 121.13907 56.31793
#
# Poissons Ratio (x) = 0.30925 0.13026
# Poissons Ratio (y) = 0.14571 0.27151
# Poissons Ratio (z) = 0.13202 0.58401
#
# Static dielectric constant tensor:
#      x y z
#    x 1.807180 0.000000 0.025680 
#    y 0.000000 1.787720 0.000000 
#    z 0.025680 0.000000 1.872550 
# 
# From -- ./inp_files/34628.got.cif
#   From: 2010.05.17/outbox.cif.g08.bks.cpg/sg14_18_cif.got.tgz:34628.got - 2010.06.03 17:49:19.
