data_PCOD9249014
_publ_section_title
;
Structure prediction by ZEFSAII (Michael W. Deem and Ramdas Pophale) SiO2 
 PCOD9249014
Probable space group: P 21/C
;
_chemical_formula_sum "Si O2"
_cell_formula_units_Z 32
_cell_length_a 13.789399
_cell_length_b 8.395703
_cell_length_c 12.086191
_cell_angle_alpha 90.000000
_cell_angle_beta 107.384967
_cell_angle_gamma 90.000000
_cell_volume 1335.319890
_symmetry_space_group_name_H-M "P 21/C"
_symmetry_group_IT_number 14
_symmetry_cell_setting 'monoclinic'
loop_
_space_group_symop_operation_xyz
x,y,z
-x,1/2+y,1/2-z
-x,-y,-z
x,1/2-y,1/2+z
loop_
_atom_site_type_symbol
_atom_site_label
_atom_site_fract_x
_atom_site_fract_y
_atom_site_fract_z
Si Si1 0.524714 0.385401 0.109515
Si Si2 0.628878 0.491267 0.763766
Si Si3 0.981599 0.921922 0.661766
Si Si4 0.209838 0.333882 0.033638
Si Si5 0.080628 0.638156 0.566428
Si Si6 0.052183 0.246503 0.140747
Si Si7 0.679487 0.375455 0.323983
Si Si8 0.376985 0.390562 0.493040
O O1 0.463614 0.430951 0.200081
O O2 0.638973 0.427582 0.188622
O O3 0.479044 0.213469 0.055150
O O4 0.500000 0.500000 0.000000
O O5 0.724840 0.566382 0.858667
O O6 0.636121 0.305364 0.799485
O O7 0.627053 0.539536 0.633190
O O8 0.879663 0.930796 0.555102
O O9 0.941735 0.891639 0.769580
O O10 0.036072 0.756575 0.644998
O O11 0.056756 0.070709 0.682516
O O12 0.143111 0.218799 0.087189
O O13 0.283872 0.234333 0.979477
O O14 0.199298 0.619562 0.625499
O O15 0.000000 0.500000 0.500000
O O16 0.060269 0.743266 0.449311
O O17 0.638389 0.476388 0.415635
#
# Coordination Sequence:
#
# PCOD9249014 Si02
#       8
#     4   4   4   4   4   4   4   4
#     4  11  29  51  78 111 152 197 256 318 392 467
#     4  11  26  48  76 115 157 197 258 321 386 470
#     4  11  22  40  65 101 144 202 253 324 381 450
#     4  10  22  45  70 101 143 205 257 316 385 457
#     4  11  24  44  66 104 146 191 257 310 375 452
#     4  11  22  39  66  95 147 191 257 318 380 454
#     4  12  26  46  77 112 150 202 255 317 387 461
#     4  11  27  49  78 110 156 199 256 318 390 464
#
# _framework density 23.964295
#
# number of rings (size 3 to 8) (size 9 to 14) (size 15 to 20)
#    0.000    1.000    0.000    6.750    7.000    3.000 
#    9.000    0.000    0.000    0.000    0.000    0.000 
#    0.000    0.000    0.000    0.000    0.000    0.000 
#
# Total GULP energy -178500.807133 kJ/mol
# GULP energy per Si atom -5578.150223 kJ/mol
# Density = 2.390975 g / cm^3
# Si number density = 23.964295 Si / 1000 Ang^3
#
#
#
# Elastic Constant Matrix: (Units=GPa)
#
#
# Indices 1 2 3 4 5 6 
#
# 1 78.8991 38.8744 35.0063 0.0000 9.1327 0.0000
# 2 38.8744 105.9917 20.4121 0.0000 -9.6395 0.0000
# 3 35.0063 20.4121 83.8746 0.0000 -25.1859 0.0000
# 4 0.0000 0.0000 0.0000 34.3692 0.0000 0.4115
# 5 9.1327 -9.6395 -25.1859 0.0000 23.5828 0.0000
# 6 0.0000 0.0000 0.0000 0.4115 0.0000 23.1729
#
#
#
# Elastic Compliance Matrix: (Units=1/GPa)
#
#
# Indices 1 2 3 4 5 6 
#
# 1 0.035439 -0.012252 -0.025664 0.000000 -0.046141 0.000000
# 2 -0.012252 0.014210 0.007101 0.000000 0.018137 0.000000
# 3 -0.025664 0.007101 0.036452 0.000000 0.051771 0.000000
# 4 0.000000 0.000000 0.000000 0.029102 0.000000 -0.000517
# 5 -0.046141 0.018137 0.051771 0.000000 0.122976 0.000000
# 6 0.000000 0.000000 0.000000 -0.000517 0.000000 0.043163
#
#
# Mechanical properties :
#
#
# Convention : Reuss Voigt Hill
#
# Bulk Modulus (GPa) = 40.86481 50.81678 45.84079
# Shear Modulus (GPa) = 14.23982 27.85647 21.04814
#
# Velocity S-wave (km/s) = 2.44029 3.41312 2.96685
# Velocity P-wave (km/s) = 5.00294 6.06496 5.55937
#
# Compressibility (1/GPa) = 0.02447093
#
# Stress axis : x y z
#
# Youngs Moduli (GPa) = 28.21772 70.37251 27.43364
#
# Poissons Ratio (x) = 0.86218 0.70407
# Poissons Ratio (y) = 0.34571 -0.19482
# Poissons Ratio (z) = 0.72419 -0.49974
#
# Static dielectric constant tensor:
#      x y z
#    x 1.934570 0.000000 0.031270 
#    y 0.000000 2.147300 0.000000 
#    z 0.031270 0.000000 2.170780 
# 
# From -- ./inp_files/46514.got.cif
#   From: 2010.05.17/outbox.cif.g08.bks.cpg/sg14_24_cif.got.tgz:46514.got - 2010.06.03 17:49:19.
