data_PCOD9249655
_publ_section_title
;
Structure prediction by ZEFSAII (Michael W. Deem and Ramdas Pophale) SiO2 
 PCOD9249655
Probable space group: P 21/C
;
_chemical_formula_sum "Si O2"
_cell_formula_units_Z 26
_cell_length_a 8.931521
_cell_length_b 19.466303
_cell_length_c 9.064838
_cell_angle_alpha 90.000000
_cell_angle_beta 136.859116
_cell_angle_gamma 90.000000
_cell_volume 1077.691918
_symmetry_space_group_name_H-M "P 21/C"
_symmetry_group_IT_number 14
_symmetry_cell_setting 'monoclinic'
loop_
_space_group_symop_operation_xyz
x,y,z
-x,1/2+y,1/2-z
-x,-y,-z
x,1/2-y,1/2+z
loop_
_atom_site_type_symbol
_atom_site_label
_atom_site_fract_x
_atom_site_fract_y
_atom_site_fract_z
Si Si1 0.221711 0.472961 0.007316
Si Si2 0.528329 0.638619 0.371725
Si Si3 0.976242 0.390473 0.070220
Si Si4 0.500000 0.500000 0.500000
Si Si5 0.344765 0.131591 0.365572
Si Si6 0.686013 0.226779 0.737491
Si Si7 0.992333 0.244006 0.207888
O O1 0.408308 0.494163 0.259957
O O2 0.084941 0.414401 0.995705
O O3 0.056836 0.537391 0.865653
O O4 0.304492 0.440879 0.915666
O O5 0.579197 0.579477 0.525063
O O6 0.659490 0.631336 0.313910
O O7 0.503946 0.716430 0.409983
O O8 0.272884 0.628932 0.145248
O O9 0.061359 0.321396 0.208273
O O10 0.581119 0.159490 0.590296
O O11 0.163367 0.185030 0.293793
O O12 0.908788 0.248420 0.814402
O O13 0.766264 0.221376 0.962401
#
# Coordination Sequence:
#
# PCOD9249655 Si02
#       7
#     4   4   4   2   4   4   4
#     4  10  23  42  71  99 137 191 231 290 354 431
#     4  10  23  43  63 100 135 177 236 287 352 418
#     4   9  20  44  64  94 138 181 225 286 353 415
#     4  10  24  40  70  98 134 182 224 284 356 420
#     4  12  25  42  73 103 137 191 239 296 355 427
#     4  11  24  43  63 102 140 179 235 298 345 429
#     4  11  25  42  69  99 143 184 231 300 356 417
#
# _framework density 24.125634999999999
#
# number of rings (size 3 to 8) (size 9 to 14) (size 15 to 20)
#    0.000    1.538    3.077    1.846    8.615    2.462 
#    0.000    0.000    0.000   11.077    0.000    0.000 
#    0.000    0.000    0.000    0.000    0.000    0.000 
#
# Total GULP energy -144771.756814 kJ/mol
# GULP energy per Si atom -5568.144493 kJ/mol
# Density = 2.407072 g / cm^3
# Si number density = 24.125635 Si / 1000 Ang^3
#
#
#
# Elastic Constant Matrix: (Units=GPa)
#
#
# Indices 1 2 3 4 5 6 
#
# 1 72.6292 23.5156 4.7257 0.0000 -5.1187 0.0000
# 2 23.5156 93.9622 18.7120 0.0000 -5.7520 0.0000
# 3 4.7257 18.7120 42.3901 0.0000 4.5175 0.0000
# 4 0.0000 0.0000 0.0000 40.0468 0.0000 6.9023
# 5 -5.1187 -5.7520 4.5175 0.0000 24.1079 0.0000
# 6 0.0000 0.0000 0.0000 6.9023 0.0000 40.8684
#
#
#
# Elastic Compliance Matrix: (Units=1/GPa)
#
#
# Indices 1 2 3 4 5 6 
#
# 1 0.015117 -0.003560 -0.000373 0.000000 0.002430 0.000000
# 2 -0.003560 0.012863 -0.005640 0.000000 0.003370 0.000000
# 3 -0.000373 -0.005640 0.026809 0.000000 -0.006448 0.000000
# 4 0.000000 0.000000 0.000000 0.025719 0.000000 -0.004344
# 5 0.002430 0.003370 -0.006448 0.000000 0.044009 0.000000
# 6 0.000000 0.000000 0.000000 -0.004344 0.000000 0.025202
#
#
# Mechanical properties :
#
#
# Convention : Reuss Voigt Hill
#
# Bulk Modulus (GPa) = 28.05645 33.65424 30.85535
# Shear Modulus (GPa) = 27.66304 31.80650 29.73477
#
# Velocity S-wave (km/s) = 3.38986 3.63487 3.51450
# Velocity P-wave (km/s) = 5.19385 5.62106 5.41167
#
# Compressibility (1/GPa) = 0.03564243
#
# Stress axis : x y z
#
# Youngs Moduli (GPa) = 66.15156 77.74148 37.30097
#
# Poissons Ratio (x) = 0.27678 0.01390
# Poissons Ratio (y) = 0.23552 0.21039
# Poissons Ratio (z) = 0.02465 0.43849
#
# Static dielectric constant tensor:
#      x y z
#    x 1.917270 0.000000 0.086270 
#    y 0.000000 1.998230 0.000000 
#    z 0.086270 0.000000 1.994140 
# 
# From -- ./inp_files/10429.got.cif
#   From: 2010.05.17/outbox.cif.g08.bks.cpg/sg14_6_cif.got.tgz:10429.got - 2010.06.03 17:49:19.
