data_PCOD9249469
_publ_section_title
;
Structure prediction by ZEFSAII (Michael W. Deem and Ramdas Pophale) SiO2 
 PCOD9249469
Probable space group: P 21/C
;
_chemical_formula_sum "Si O2"
_cell_formula_units_Z 28
_cell_length_a 14.402958
_cell_length_b 9.750314
_cell_length_c 8.649544
_cell_angle_alpha 90.000000
_cell_angle_beta 61.220745
_cell_angle_gamma 90.000000
_cell_volume 1064.647993
_symmetry_space_group_name_H-M "P 21/C"
_symmetry_group_IT_number 14
_symmetry_cell_setting 'monoclinic'
loop_
_space_group_symop_operation_xyz
x,y,z
-x,1/2+y,1/2-z
-x,-y,-z
x,1/2-y,1/2+z
loop_
_atom_site_type_symbol
_atom_site_label
_atom_site_fract_x
_atom_site_fract_y
_atom_site_fract_z
Si Si1 0.235522 0.924857 0.278537
Si Si2 0.515355 0.181015 0.616377
Si Si3 0.365590 0.339411 0.498088
Si Si4 0.947138 0.686826 0.540289
Si Si5 0.814165 0.875013 0.446307
Si Si6 0.872184 0.068364 0.936134
Si Si7 0.348369 0.643857 0.256546
O O1 0.214745 0.975734 0.468788
O O2 0.298927 0.785902 0.232863
O O3 0.304506 0.046921 0.145713
O O4 0.139640 0.906885 0.235384
O O5 0.438892 0.257638 0.558350
O O6 0.442569 0.104012 0.800987
O O7 0.591755 0.091187 0.445136
O O8 0.577410 0.296883 0.666075
O O9 0.282851 0.232352 0.487956
O O10 0.896389 0.821126 0.510020
O O11 0.935333 0.571910 0.416724
O O12 0.062100 0.683507 0.525085
O O13 0.870944 0.632934 0.737542
O O14 0.753259 0.061367 0.100367
#
# Coordination Sequence:
#
# PCOD9249469 Si02
#       7
#     4   4   4   4   4   4   4
#     4  12  25  45  73  97 144 187 222 293 347 408
#     4  10  23  41  69  97 138 182 229 273 353 401
#     4  11  21  45  68 102 138 176 233 286 331 419
#     4  11  25  44  74 103 136 182 235 288 352 417
#     4  12  23  45  73 105 135 180 235 289 346 411
#     4  11  26  48  68 100 143 181 231 295 347 416
#     4  11  25  47  64 104 142 184 227 287 347 421
#
# _framework density 26.299771
#
# number of rings (size 3 to 8) (size 9 to 14) (size 15 to 20)
#    0.000    0.857    5.714    0.000    4.000    2.857 
#    2.571    1.429    0.000    0.000    0.000    0.000 
#    0.000    0.000    0.000    0.000    0.000    0.000 
#
# Total GULP energy -156992.245497 kJ/mol
# GULP energy per Si atom -5606.865911 kJ/mol
# Density = 2.623991 g / cm^3
# Si number density = 26.299771 Si / 1000 Ang^3
#
#
#
# Elastic Constant Matrix: (Units=GPa)
#
#
# Indices 1 2 3 4 5 6 
#
# 1 149.8273 13.1522 14.1078 0.0000 14.4131 0.0000
# 2 13.1522 43.4804 -5.9180 0.0000 6.9567 0.0000
# 3 14.1078 -5.9180 94.8130 0.0000 5.0316 0.0000
# 4 0.0000 0.0000 0.0000 37.0595 0.0000 9.4638
# 5 14.4131 6.9567 5.0316 0.0000 37.6957 0.0000
# 6 0.0000 0.0000 0.0000 9.4638 0.0000 22.8475
#
#
#
# Elastic Compliance Matrix: (Units=1/GPa)
#
#
# Indices 1 2 3 4 5 6 
#
# 1 0.007162 -0.001954 -0.001069 0.000000 -0.002235 0.000000
# 2 -0.001954 0.024515 0.002036 0.000000 -0.004049 0.000000
# 3 -0.001069 0.002036 0.010909 0.000000 -0.001423 0.000000
# 4 0.000000 0.000000 0.000000 0.030176 0.000000 -0.012499
# 5 -0.002235 -0.004049 -0.001423 0.000000 0.028320 0.000000
# 6 0.000000 0.000000 0.000000 -0.012499 0.000000 0.048946
#
#
# Mechanical properties :
#
#
# Convention : Reuss Voigt Hill
#
# Bulk Modulus (GPa) = 24.62424 36.75608 30.69016
# Shear Modulus (GPa) = 30.20455 37.30577 33.75516
#
# Velocity S-wave (km/s) = 3.39259 3.77036 3.58645
# Velocity P-wave (km/s) = 4.97287 5.74111 5.37074
#
# Compressibility (1/GPa) = 0.04061039
#
# Stress axis : x y z
#
# Youngs Moduli (GPa) = 139.63465 40.79163 91.66975
#
# Poissons Ratio (x) = 0.07971 0.09799
# Poissons Ratio (y) = 0.27287 -0.18662
# Poissons Ratio (z) = 0.14927 -0.08304
#
# Static dielectric constant tensor:
#      x y z
#    x 2.061350 0.000000 -0.061390 
#    y 0.000000 2.062160 0.000000 
#    z -0.061390 0.000000 2.087360 
# 
# From -- ./inp_files/15453.got.cif
#   From: 2010.05.17/outbox.cif.g08.bks.cpg/sg14_8_cif.got.tgz:15453.got - 2010.06.03 17:49:19.
