data_PCOD9249055
_publ_section_title
;
Structure prediction by ZEFSAII (Michael W. Deem and Ramdas Pophale) SiO2 
 PCOD9249055
Probable space group: P 21/C
;
_chemical_formula_sum "Si O2"
_cell_formula_units_Z 22
_cell_length_a 4.865949
_cell_length_b 17.606296
_cell_length_c 8.519839
_cell_angle_alpha 90.000000
_cell_angle_beta 88.508872
_cell_angle_gamma 90.000000
_cell_volume 729.658839
_symmetry_space_group_name_H-M "P 21/C"
_symmetry_group_IT_number 14
_symmetry_cell_setting 'monoclinic'
loop_
_space_group_symop_operation_xyz
x,y,z
-x,1/2+y,1/2-z
-x,-y,-z
x,1/2-y,1/2+z
loop_
_atom_site_type_symbol
_atom_site_label
_atom_site_fract_x
_atom_site_fract_y
_atom_site_fract_z
Si Si1 0.871620 0.613522 0.464136
Si Si2 0.588289 0.735358 0.633756
Si Si3 0.925373 0.352230 0.879824
Si Si4 0.000000 0.000000 0.500000
Si Si5 0.526385 0.622902 0.926118
Si Si6 0.751185 0.461893 0.322488
O O1 0.624519 0.669715 0.505497
O O2 0.737065 0.531452 0.440248
O O3 0.037226 0.633592 0.305790
O O4 0.086767 0.607655 0.602192
O O5 0.540730 0.697411 0.805106
O O6 0.384159 0.805159 0.588033
O O7 0.885245 0.775108 0.612829
O O8 0.192120 0.401260 0.986670
O O9 0.735023 0.422019 0.975617
O O10 0.951451 0.007118 0.685027
O O11 0.505702 0.564593 0.773944
#
# Coordination Sequence:
#
# PCOD9249055 Si02
#       6
#     4   4   4   2   4   4
#     4  10  22  45  75  99 139 188 233 290 357 413
#     4  12  26  42  68 104 139 183 235 290 359 422
#     4  10  23  45  69  97 141 180 226 302 338 426
#     4   8  18  40  72  98 132 184 228 272 362 392
#     4  11  27  42  69 102 137 185 236 283 362 421
#     4   9  21  44  74 100 137 190 233 287 353 423
#
# _framework density 30.151077000000001
#
# number of rings (size 3 to 8) (size 9 to 14) (size 15 to 20)
#    0.000    1.818    1.818    0.000   10.182    0.727 
#    0.000    8.182    0.000    0.000    0.000    0.000 
#    0.000    0.000    0.000    0.000    0.000    0.000 
#
# Total GULP energy -122679.522643 kJ/mol
# GULP energy per Si atom -5576.341938 kJ/mol
# Density = 3.008245 g / cm^3
# Si number density = 30.151077 Si / 1000 Ang^3
#
#
#
# Elastic Constant Matrix: (Units=GPa)
#
#
# Indices 1 2 3 4 5 6 
#
# 1 173.0322 88.9545 67.2365 0.0000 1.8818 0.0000
# 2 88.9545 198.8601 73.6002 0.0000 5.0220 0.0000
# 3 67.2365 73.6002 215.0309 0.0000 -9.2091 0.0000
# 4 0.0000 0.0000 0.0000 71.0546 0.0000 5.2539
# 5 1.8818 5.0220 -9.2091 0.0000 57.7894 0.0000
# 6 0.0000 0.0000 0.0000 5.2539 0.0000 52.3953
#
#
#
# Elastic Compliance Matrix: (Units=1/GPa)
#
#
# Indices 1 2 3 4 5 6 
#
# 1 0.007879 -0.002981 -0.001453 0.000000 -0.000229 0.000000
# 2 -0.002981 0.006925 -0.001470 0.000000 -0.000739 0.000000
# 3 -0.001453 -0.001470 0.005654 0.000000 0.001076 0.000000
# 4 0.000000 0.000000 0.000000 0.014179 0.000000 -0.001422
# 5 -0.000229 -0.000739 0.001076 0.000000 0.017547 0.000000
# 6 0.000000 0.000000 0.000000 -0.001422 0.000000 0.019228
#
#
# Mechanical properties :
#
#
# Convention : Reuss Voigt Hill
#
# Bulk Modulus (GPa) = 115.60477 116.27839 115.94158
# Shear Modulus (GPa) = 58.07027 60.05667 59.06347
#
# Velocity S-wave (km/s) = 4.39336 4.46787 4.43077
# Velocity P-wave (km/s) = 8.01003 8.07866 8.04442
#
# Compressibility (1/GPa) = 0.00865016
#
# Stress axis : x y z
#
# Youngs Moduli (GPa) = 126.92284 144.41149 176.86539
#
# Poissons Ratio (x) = 0.43046 0.25701
# Poissons Ratio (y) = 0.37833 0.25995
# Poissons Ratio (z) = 0.18444 0.21225
#
# Static dielectric constant tensor:
#      x y z
#    x 2.426130 0.000000 -0.115750 
#    y 0.000000 2.478630 0.000000 
#    z -0.115750 0.000000 2.411610 
# 
# From -- ./inp_files/5477.got.cif
#   From: 2010.05.17/outbox.cif.g08.bks.cpg/sg14_3_cif.got.tgz:5477.got - 2010.06.03 17:49:19.
