data_PCOD9249797
_publ_section_title
;
Structure prediction by ZEFSAII (Michael W. Deem and Ramdas Pophale) SiO2 
 PCOD9249797
Probable space group: P 21/C
;
_chemical_formula_sum "Si O2"
_cell_formula_units_Z 32
_cell_length_a 20.646705
_cell_length_b 14.452930
_cell_length_c 14.616452
_cell_angle_alpha 90.000000
_cell_angle_beta 160.512484
_cell_angle_gamma 90.000000
_cell_volume 1455.045459
_symmetry_space_group_name_H-M "P 21/C"
_symmetry_group_IT_number 14
_symmetry_cell_setting 'monoclinic'
loop_
_space_group_symop_operation_xyz
x,y,z
-x,1/2+y,1/2-z
-x,-y,-z
x,1/2-y,1/2+z
loop_
_atom_site_type_symbol
_atom_site_label
_atom_site_fract_x
_atom_site_fract_y
_atom_site_fract_z
Si Si1 0.141693 0.651107 0.427463
Si Si2 0.204853 0.496838 0.220892
Si Si3 0.480860 0.140812 0.828606
Si Si4 0.877814 0.793394 0.406339
Si Si5 0.797319 0.040819 0.693242
Si Si6 0.846278 0.504248 0.052539
Si Si7 0.804882 0.269377 0.309740
Si Si8 0.415443 0.355790 0.041947
O O1 0.112131 0.704581 0.481996
O O2 0.368749 0.651302 0.708530
O O3 0.061036 0.547242 0.334937
O O4 0.015065 0.694483 0.177368
O O5 0.366977 0.556731 0.486854
O O6 0.247170 0.387306 0.270495
O O7 0.193065 0.535640 0.100673
O O8 0.000000 0.500000 0.000000
O O9 0.297845 0.092751 0.630813
O O10 0.418520 0.184160 0.649437
O O11 0.604479 0.213783 0.049776
O O12 0.031460 0.785618 0.528111
O O13 0.741738 0.703412 0.223442
O O14 0.765123 0.138059 0.698569
O O15 0.809146 0.048879 0.598121
O O16 0.647540 0.961963 0.526069
O O17 0.000000 0.000000 0.000000
#
# Coordination Sequence:
#
# PCOD9249797 Si02
#       8
#     4   4   4   4   4   4   4   4
#     4  11  24  43  69 102 140 179 237 291 347 418
#     4  11  22  43  69 101 137 180 233 292 345 414
#     4  11  23  44  67 101 139 181 231 284 351 412
#     4  11  24  46  70 100 141 185 228 290 357 416
#     4  11  22  44  68  98 138 183 232 284 357 414
#     4  10  23  43  71  97 141 185 231 294 347 419
#     4  12  23  43  70 101 138 183 230 289 346 420
#     4  11  24  45  72  98 144 181 230 296 342 420
#
# _framework density 21.992439000000001
#
# number of rings (size 3 to 8) (size 9 to 14) (size 15 to 20)
#    0.000    1.000    5.000    1.875    3.500    3.500 
#    0.000    0.000    0.000    0.000    0.000    0.000 
#    0.000    0.000    0.000    0.000    0.000    0.000 
#
# Total GULP energy -178888.698805 kJ/mol
# GULP energy per Si atom -5590.271838 kJ/mol
# Density = 2.194238 g / cm^3
# Si number density = 21.992439 Si / 1000 Ang^3
#
#
#
# Elastic Constant Matrix: (Units=GPa)
#
#
# Indices 1 2 3 4 5 6 
#
# 1 122.7620 15.9847 31.1280 0.0000 -8.0465 0.0000
# 2 15.9847 67.7640 15.8328 0.0000 -12.3508 0.0000
# 3 31.1280 15.8328 86.1945 0.0000 3.9052 0.0000
# 4 0.0000 0.0000 0.0000 31.9883 0.0000 0.0876
# 5 -8.0465 -12.3508 3.9052 0.0000 34.3368 0.0000
# 6 0.0000 0.0000 0.0000 0.0876 0.0000 24.2245
#
#
#
# Elastic Compliance Matrix: (Units=1/GPa)
#
#
# Indices 1 2 3 4 5 6 
#
# 1 0.009245 -0.001027 -0.003248 0.000000 0.002167 0.000000
# 2 -0.001027 0.016821 -0.002998 0.000000 0.006151 0.000000
# 3 -0.003248 -0.002998 0.013478 0.000000 -0.003372 0.000000
# 4 0.000000 0.000000 0.000000 0.031262 0.000000 -0.000113
# 5 0.002167 0.006151 -0.003372 0.000000 0.032227 0.000000
# 6 0.000000 0.000000 0.000000 -0.000113 0.000000 0.041281
#
#
# Mechanical properties :
#
#
# Convention : Reuss Voigt Hill
#
# Bulk Modulus (GPa) = 40.00249 44.73464 42.36857
# Shear Modulus (GPa) = 29.90570 32.36157 31.13364
#
# Velocity S-wave (km/s) = 3.69157 3.84016 3.76660
# Velocity P-wave (km/s) = 6.03315 6.32831 6.18249
#
# Compressibility (1/GPa) = 0.02499844
#
# Stress axis : x y z
#
# Youngs Moduli (GPa) = 108.16388 59.45041 74.19420
#
# Poissons Ratio (x) = 0.06106 0.24101
# Poissons Ratio (y) = 0.11108 0.22240
# Poissons Ratio (z) = 0.35135 0.17820
#
# Static dielectric constant tensor:
#      x y z
#    x 1.813410 0.000000 0.003700 
#    y 0.000000 1.831600 0.000000 
#    z 0.003700 0.000000 1.791980 
# 
# From -- ./inp_files/50636.got.cif
#   From: 2010.05.17/outbox.cif.g08.bks.cpg/sg14_26_cif.got.tgz:50636.got - 2010.06.03 17:49:19.
