data_PCOD9249881
_publ_section_title
;
Structure prediction by ZEFSAII (Michael W. Deem and Ramdas Pophale) SiO2 
 PCOD9249881
Probable space group: P 21/C
;
_chemical_formula_sum "Si O2"
_cell_formula_units_Z 30
_cell_length_a 8.288092
_cell_length_b 8.980399
_cell_length_c 26.729775
_cell_angle_alpha 90.000000
_cell_angle_beta 42.051099
_cell_angle_gamma 90.000000
_cell_volume 1332.558167
_symmetry_space_group_name_H-M "P 21/C"
_symmetry_group_IT_number 14
_symmetry_cell_setting 'monoclinic'
loop_
_space_group_symop_operation_xyz
x,y,z
-x,1/2+y,1/2-z
-x,-y,-z
x,1/2-y,1/2+z
loop_
_atom_site_type_symbol
_atom_site_label
_atom_site_fract_x
_atom_site_fract_y
_atom_site_fract_z
Si Si1 0.607370 0.920954 0.592751
Si Si2 0.981411 0.288643 0.462817
Si Si3 0.428972 0.648907 0.807016
Si Si4 0.500000 0.000000 0.500000
Si Si5 0.002361 0.056971 0.665565
Si Si6 0.964492 0.721966 0.661440
Si Si7 0.238021 0.647971 0.687327
Si Si8 0.339181 0.567459 0.385522
O O1 0.861787 0.838547 0.546253
O O2 0.583733 0.970199 0.540686
O O3 0.404940 0.794195 0.649034
O O4 0.569579 0.048719 0.643148
O O5 0.928732 0.247605 0.417881
O O6 0.144942 0.437319 0.422352
O O7 0.749512 0.335209 0.547078
O O8 0.229020 0.587729 0.815742
O O9 0.694819 0.660232 0.722124
O O10 0.357030 0.817689 0.836476
O O11 0.751483 0.923801 0.421172
O O12 0.971527 0.152087 0.723015
O O13 0.980441 0.882281 0.684093
O O14 0.130384 0.620577 0.657451
O O15 0.412536 0.513610 0.661547
#
# Coordination Sequence:
#
# PCOD9249881 Si02
#       8
#     4   4   4   2   4   4   4   4
#     4  11  24  44  74 105 150 190 243 311 358 450
#     4  10  23  44  69 101 142 187 241 298 366 436
#     4  12  25  42  75 104 137 192 248 294 361 441
#     4  12  26  46  70 112 148 186 242 308 380 422
#     4  12  26  47  73 110 143 194 244 306 367 445
#     4  12  25  44  73 104 143 191 244 306 363 445
#     4  11  25  48  68 102 150 187 241 305 367 438
#     4  10  23  44  68 101 140 187 235 297 368 436
#
# _framework density 22.513088
#
# number of rings (size 3 to 8) (size 9 to 14) (size 15 to 20)
#    0.000    0.800    4.000    3.200    1.867    1.600 
#    0.000    2.667    0.000    0.000    0.000    0.000 
#    0.000    0.000    0.000    0.000    0.000    0.000 
#
# Total GULP energy -167383.741511 kJ/mol
# GULP energy per Si atom -5579.458050 kJ/mol
# Density = 2.246185 g / cm^3
# Si number density = 22.513088 Si / 1000 Ang^3
#
#
#
# Elastic Constant Matrix: (Units=GPa)
#
#
# Indices 1 2 3 4 5 6 
#
# 1 79.5158 6.2875 8.9388 0.0000 23.6078 0.0000
# 2 6.2875 61.9536 14.8791 0.0000 3.2503 0.0000
# 3 8.9388 14.8791 93.4519 0.0000 16.6552 0.0000
# 4 0.0000 0.0000 0.0000 27.4565 0.0000 10.9820
# 5 23.6078 3.2503 16.6552 0.0000 40.2178 0.0000
# 6 0.0000 0.0000 0.0000 10.9820 0.0000 15.5190
#
#
#
# Elastic Compliance Matrix: (Units=1/GPa)
#
#
# Indices 1 2 3 4 5 6 
#
# 1 0.015312 -0.001159 0.000329 0.000000 -0.009031 0.000000
# 2 -0.001159 0.016873 -0.002649 0.000000 0.000414 0.000000
# 3 0.000329 -0.002649 0.011971 0.000000 -0.004937 0.000000
# 4 0.000000 0.000000 0.000000 0.050800 0.000000 -0.035949
# 5 -0.009031 0.000414 -0.004937 0.000000 0.032177 0.000000
# 6 0.000000 0.000000 0.000000 -0.035949 0.000000 0.089876
#
#
# Mechanical properties :
#
#
# Convention : Reuss Voigt Hill
#
# Bulk Modulus (GPa) = 26.88342 32.79245 29.83793
# Shear Modulus (GPa) = 21.15358 30.29304 25.72331
#
# Velocity S-wave (km/s) = 3.06864 3.67219 3.38389
# Velocity P-wave (km/s) = 4.95202 5.70767 5.34322
#
# Compressibility (1/GPa) = 0.03719765
#
# Stress axis : x y z
#
# Youngs Moduli (GPa) = 65.30841 59.26507 83.53636
#
# Poissons Ratio (x) = 0.06871 -0.02752
# Poissons Ratio (y) = 0.07571 0.22132
# Poissons Ratio (z) = -0.02152 0.15702
#
# Static dielectric constant tensor:
#      x y z
#    x 1.820840 0.000000 -0.002870 
#    y 0.000000 1.839100 0.000000 
#    z -0.002870 0.000000 1.835110 
# 
# From -- ./inp_files/76467.got.cif
#   From: 2010.05.17/outbox.cif.g08.bks.cpg/sg14_39_cif.got.tgz:76467.got - 2010.06.03 17:49:19.
