data_PCOD9249638
_publ_section_title
;
Structure prediction by ZEFSAII (Michael W. Deem and Ramdas Pophale) SiO2 
 PCOD9249638
Probable space group: P 21/C
;
_chemical_formula_sum "Si O2"
_cell_formula_units_Z 20
_cell_length_a 16.624710
_cell_length_b 7.905123
_cell_length_c 17.632174
_cell_angle_alpha 90.000000
_cell_angle_beta 161.489618
_cell_angle_gamma 90.000000
_cell_volume 735.665076
_symmetry_space_group_name_H-M "P 21/C"
_symmetry_group_IT_number 14
_symmetry_cell_setting 'monoclinic'
loop_
_space_group_symop_operation_xyz
x,y,z
-x,1/2+y,1/2-z
-x,-y,-z
x,1/2-y,1/2+z
loop_
_atom_site_type_symbol
_atom_site_label
_atom_site_fract_x
_atom_site_fract_y
_atom_site_fract_z
Si Si1 0.920891 0.834834 0.226672
Si Si2 0.315126 0.540732 0.600823
Si Si3 0.462242 0.820173 0.923057
Si Si4 0.739103 0.895860 0.789035
Si Si5 0.794795 0.545419 0.917976
O O1 0.151211 0.708882 0.443757
O O2 0.852467 0.884850 0.080905
O O3 0.681649 0.774345 0.059478
O O4 0.981793 0.009288 0.324438
O O5 0.372963 0.496652 0.739134
O O6 0.549086 0.553222 0.752568
O O7 0.235099 0.882792 0.664652
O O8 0.512496 0.670710 0.029322
O O9 0.500000 0.000000 0.000000
O O10 0.828336 0.715134 0.901692
O O11 0.000000 0.000000 0.000000
#
# Coordination Sequence:
#
# PCOD9249638 Si02
#       5
#     4   4   4   4   4
#     4  11  22  42  68  95 137 188 231 291 358 429
#     4  11  23  41  67  99 138 184 241 289 356 437
#     4   9  21  41  66  97 140 182 232 291 361 426
#     4  11  21  42  68 102 140 179 238 298 351 422
#     4  10  23  42  70  96 143 192 234 288 365 439
#
# _framework density 27.186285999999999
#
# number of rings (size 3 to 8) (size 9 to 14) (size 15 to 20)
#    0.000    1.600    2.000    2.400    0.000    4.800 
#    0.000    5.000    0.000    0.000    0.000    0.000 
#    0.000    0.000    0.000    0.000    0.000    0.000 
#
# Total GULP energy -111860.145038 kJ/mol
# GULP energy per Si atom -5593.007252 kJ/mol
# Density = 2.712441 g / cm^3
# Si number density = 27.186286 Si / 1000 Ang^3
#
#
#
# Elastic Constant Matrix: (Units=GPa)
#
#
# Indices 1 2 3 4 5 6 
#
# 1 131.3607 64.7396 46.1932 0.0000 8.1228 0.0000
# 2 64.7396 193.7090 56.2015 0.0000 -0.9714 0.0000
# 3 46.1932 56.2015 81.8575 0.0000 -12.7055 0.0000
# 4 0.0000 0.0000 0.0000 68.7690 0.0000 -2.2505
# 5 8.1228 -0.9714 -12.7055 0.0000 44.8460 0.0000
# 6 0.0000 0.0000 0.0000 -2.2505 0.0000 42.7894
#
#
#
# Elastic Compliance Matrix: (Units=1/GPa)
#
#
# Indices 1 2 3 4 5 6 
#
# 1 0.010652 -0.002097 -0.005102 0.000000 -0.003420 0.000000
# 2 -0.002097 0.006918 -0.003645 0.000000 -0.000503 0.000000
# 3 -0.005102 -0.003645 0.018545 0.000000 0.006099 0.000000
# 4 0.000000 0.000000 0.000000 0.014567 0.000000 0.000766
# 5 -0.003420 -0.000503 0.006099 0.000000 0.024635 0.000000
# 6 0.000000 0.000000 0.000000 0.000766 0.000000 0.023411
#
#
# Mechanical properties :
#
#
# Convention : Reuss Voigt Hill
#
# Bulk Modulus (GPa) = 69.31348 82.35508 75.83428
# Shear Modulus (GPa) = 39.92894 47.26707 43.59801
#
# Velocity S-wave (km/s) = 3.83654 4.17422 4.00894
# Velocity P-wave (km/s) = 6.72135 7.32057 7.02735
#
# Compressibility (1/GPa) = 0.01442721
#
# Stress axis : x y z
#
# Youngs Moduli (GPa) = 93.88221 144.54958 53.92428
#
# Poissons Ratio (x) = 0.30308 0.27513
# Poissons Ratio (y) = 0.19685 0.19653
# Poissons Ratio (z) = 0.47900 0.52683
#
# Static dielectric constant tensor:
#      x y z
#    x 2.112790 0.000000 -0.023200 
#    y 0.000000 2.202650 0.000000 
#    z -0.023200 0.000000 2.163260 
# 
# From -- ./inp_files/60398.got.cif
#   From: 2010.05.17/outbox.cif.g08.bks.cpg/sg14_31_cif.got.tgz:60398.got - 2010.06.03 17:49:19.
