data_PCOD9249890
_publ_section_title
;
Structure prediction by ZEFSAII (Michael W. Deem and Ramdas Pophale) SiO2 
 PCOD9249890
Probable space group: P 21/C
;
_chemical_formula_sum "Si O2"
_cell_formula_units_Z 22
_cell_length_a 14.516455
_cell_length_b 5.087042
_cell_length_c 12.641897
_cell_angle_alpha 90.000000
_cell_angle_beta 119.772634
_cell_angle_gamma 90.000000
_cell_volume 810.324986
_symmetry_space_group_name_H-M "P 21/C"
_symmetry_group_IT_number 14
_symmetry_cell_setting 'monoclinic'
loop_
_space_group_symop_operation_xyz
x,y,z
-x,1/2+y,1/2-z
-x,-y,-z
x,1/2-y,1/2+z
loop_
_atom_site_type_symbol
_atom_site_label
_atom_site_fract_x
_atom_site_fract_y
_atom_site_fract_z
Si Si1 0.000000 0.000000 0.000000
Si Si2 0.593723 0.406161 0.419811
Si Si3 0.256699 0.943095 0.403952
Si Si4 0.949908 0.150700 0.268925
Si Si5 0.355785 0.145301 0.819382
Si Si6 0.224492 0.266730 0.576098
O O1 0.873722 0.934244 0.941050
O O2 0.972821 0.234712 0.896844
O O3 0.619396 0.514602 0.552930
O O4 0.469805 0.389770 0.328978
O O5 0.669521 0.561752 0.384622
O O6 0.643763 0.121511 0.463860
O O7 0.309522 0.072916 0.331966
O O8 0.195307 0.141151 0.446525
O O9 0.172229 0.714330 0.331869
O O10 0.014640 0.347323 0.224449
O O11 0.262068 0.060374 0.687234
#
# Coordination Sequence:
#
# PCOD9249890 Si02
#       6
#     2   4   4   4   4   4
#     4  12  24  48  70 104 144 198 246 300 378 440
#     4  10  24  44  66 100 140 177 234 297 357 438
#     4  11  23  43  69  96 138 182 232 288 363 425
#     4  12  27  48  73 105 149 192 246 311 363 447
#     4  10  23  44  68  98 136 181 231 292 368 430
#     4  11  24  43  67 104 132 185 238 292 362 438
#
# _framework density 27.149598000000001
#
# number of rings (size 3 to 8) (size 9 to 14) (size 15 to 20)
#    0.000    1.091    3.636    1.636    5.091    2.182 
#    6.545    0.000    0.000    0.000    0.000    0.000 
#    0.000    0.000    0.000    0.000    0.000    0.000 
#
# Total GULP energy -122558.909197 kJ/mol
# GULP energy per Si atom -5570.859509 kJ/mol
# Density = 2.708780 g / cm^3
# Si number density = 27.149598 Si / 1000 Ang^3
#
#
#
# Elastic Constant Matrix: (Units=GPa)
#
#
# Indices 1 2 3 4 5 6 
#
# 1 185.3183 34.6392 57.7124 0.0000 34.5130 0.0000
# 2 34.6392 48.8289 8.8656 0.0000 2.8413 0.0000
# 3 57.7124 8.8656 113.6001 0.0000 15.9975 0.0000
# 4 0.0000 0.0000 0.0000 28.2317 0.0000 3.8228
# 5 34.5130 2.8413 15.9975 0.0000 48.3836 0.0000
# 6 0.0000 0.0000 0.0000 3.8228 0.0000 25.4343
#
#
#
# Elastic Compliance Matrix: (Units=1/GPa)
#
#
# Indices 1 2 3 4 5 6 
#
# 1 0.008121 -0.004936 -0.003110 0.000000 -0.004474 0.000000
# 2 -0.004936 0.023798 0.000368 0.000000 0.002001 0.000000
# 3 -0.003110 0.000368 0.010535 0.000000 -0.001286 0.000000
# 4 0.000000 0.000000 0.000000 0.036157 0.000000 -0.005434
# 5 -0.004474 0.002001 -0.001286 0.000000 0.024168 0.000000
# 6 0.000000 0.000000 0.000000 -0.005434 0.000000 0.040134
#
#
# Mechanical properties :
#
#
# Convention : Reuss Voigt Hill
#
# Bulk Modulus (GPa) = 36.90227 61.13129 49.01678
# Shear Modulus (GPa) = 29.88646 36.84527 33.36586
#
# Velocity S-wave (km/s) = 3.32144 3.68791 3.50946
# Velocity P-wave (km/s) = 5.32269 6.37962 5.87497
#
# Compressibility (1/GPa) = 0.02709860
#
# Stress axis : x y z
#
# Youngs Moduli (GPa) = 123.14416 42.02088 94.91894
#
# Poissons Ratio (x) = 0.20740 0.29522
# Poissons Ratio (y) = 0.60780 -0.03497
# Poissons Ratio (z) = 0.38300 -0.01548
#
# Static dielectric constant tensor:
#      x y z
#    x 2.169060 0.000000 -0.121680 
#    y 0.000000 2.276480 0.000000 
#    z -0.121680 0.000000 2.145150 
# 
# From -- ./inp_files/45983.got.cif
#   From: 2010.05.17/outbox.cif.g08.bks.cpg/sg14_23_cif.got.tgz:45983.got - 2010.06.03 17:49:19.
