data_PCOD9249351
_publ_section_title
;
Structure prediction by ZEFSAII (Michael W. Deem and Ramdas Pophale) SiO2 
 PCOD9249351
Probable space group: P 21/C
;
_chemical_formula_sum "Si O2"
_cell_formula_units_Z 24
_cell_length_a 9.749978
_cell_length_b 16.511012
_cell_length_c 9.640089
_cell_angle_alpha 90.000000
_cell_angle_beta 35.121789
_cell_angle_gamma 90.000000
_cell_volume 892.822414
_symmetry_space_group_name_H-M "P 21/C"
_symmetry_group_IT_number 14
_symmetry_cell_setting 'monoclinic'
loop_
_space_group_symop_operation_xyz
x,y,z
-x,1/2+y,1/2-z
-x,-y,-z
x,1/2-y,1/2+z
loop_
_atom_site_type_symbol
_atom_site_label
_atom_site_fract_x
_atom_site_fract_y
_atom_site_fract_z
Si Si1 0.350764 0.239730 0.898340
Si Si2 0.735253 0.572703 0.048335
Si Si3 0.971606 0.117091 0.918629
Si Si4 0.661185 0.970411 0.214643
Si Si5 0.146054 0.711725 0.092898
Si Si6 0.769298 0.896590 0.828070
O O1 0.372789 0.336530 0.884992
O O2 0.570711 0.208246 0.622614
O O3 0.372608 0.188782 0.025258
O O4 0.062609 0.223107 0.116209
O O5 0.608603 0.500068 0.071391
O O6 0.717734 0.561084 0.226881
O O7 0.993877 0.585484 0.768269
O O8 0.223551 0.097573 0.783619
O O9 0.894984 0.208718 0.966966
O O10 0.793567 0.055352 0.137828
O O11 0.720060 0.943301 0.009656
O O12 0.043938 0.633162 0.099608
#
# Coordination Sequence:
#
# PCOD9249351 Si02
#       6
#     4   4   4   4   4   4
#     4   9  21  41  64  97 133 180 224 281 344 407
#     4  11  22  43  65  99 138 184 222 297 347 413
#     4  10  23  40  68  94 137 186 231 280 351 415
#     4  11  23  43  65 103 135 184 232 286 347 422
#     4   9  20  43  64  98 134 182 226 284 339 410
#     4  10  25  38  69 103 136 181 235 290 347 412
#
# _framework density 26.881043999999999
#
# number of rings (size 3 to 8) (size 9 to 14) (size 15 to 20)
#    1.000    1.000    1.667    1.000    2.333    3.333 
#    3.000    0.000    0.000    0.000    0.000    0.000 
#    0.000    0.000    0.000    0.000    0.000    0.000 
#
# Total GULP energy -133767.721527 kJ/mol
# GULP energy per Si atom -5573.655064 kJ/mol
# Density = 2.681986 g / cm^3
# Si number density = 26.881044 Si / 1000 Ang^3
#
#
#
# Elastic Constant Matrix: (Units=GPa)
#
#
# Indices 1 2 3 4 5 6 
#
# 1 82.9463 22.6956 45.3366 0.0000 16.4522 0.0000
# 2 22.6956 70.4777 24.4034 0.0000 -15.4864 0.0000
# 3 45.3366 24.4034 141.8798 0.0000 -10.8428 0.0000
# 4 0.0000 0.0000 0.0000 55.4216 0.0000 -5.1042
# 5 16.4522 -15.4864 -10.8428 0.0000 36.3223 0.0000
# 6 0.0000 0.0000 0.0000 -5.1042 0.0000 31.5336
#
#
#
# Elastic Compliance Matrix: (Units=1/GPa)
#
#
# Indices 1 2 3 4 5 6 
#
# 1 0.020425 -0.007541 -0.006327 0.000000 -0.014355 0.000000
# 2 -0.007541 0.019163 -0.000001 0.000000 0.011586 0.000000
# 3 -0.006327 -0.000001 0.009506 0.000000 0.005703 0.000000
# 4 0.000000 0.000000 0.000000 0.018317 0.000000 0.002965
# 5 -0.014355 0.011586 0.005703 0.000000 0.040676 0.000000
# 6 0.000000 0.000000 0.000000 0.002965 0.000000 0.032192
#
#
# Mechanical properties :
#
#
# Convention : Reuss Voigt Hill
#
# Bulk Modulus (GPa) = 46.82343 53.35277 50.08810
# Shear Modulus (GPa) = 28.54960 38.18006 33.36483
#
# Velocity S-wave (km/s) = 3.26248 3.77282 3.52689
# Velocity P-wave (km/s) = 5.62568 6.23456 5.93793
#
# Compressibility (1/GPa) = 0.02135683
#
# Stress axis : x y z
#
# Youngs Moduli (GPa) = 48.96076 52.18272 105.19887
#
# Poissons Ratio (x) = 0.39350 0.66554
# Poissons Ratio (y) = 0.36921 0.00011
# Poissons Ratio (z) = 0.30975 0.00006
#
# Static dielectric constant tensor:
#      x y z
#    x 2.130880 0.000000 -0.030960 
#    y 0.000000 2.104030 0.000000 
#    z -0.030960 0.000000 2.145780 
# 
# From -- ./inp_files/30358.got.cif
#   From: 2010.05.17/outbox.cif.g08.bks.cpg/sg14_16_cif.got.tgz:30358.got - 2010.06.03 17:49:19.
