data_PCOD9249926
_publ_section_title
;
Structure prediction by ZEFSAII (Michael W. Deem and Ramdas Pophale) SiO2 
 PCOD9249926
Probable space group: P 21/C
;
_chemical_formula_sum "Si O2"
_cell_formula_units_Z 16
_cell_length_a 10.091460
_cell_length_b 4.899393
_cell_length_c 13.785503
_cell_angle_alpha 90.000000
_cell_angle_beta 116.552527
_cell_angle_gamma 90.000000
_cell_volume 609.693190
_symmetry_space_group_name_H-M "P 21/C"
_symmetry_group_IT_number 14
_symmetry_cell_setting 'monoclinic'
loop_
_space_group_symop_operation_xyz
x,y,z
-x,1/2+y,1/2-z
-x,-y,-z
x,1/2-y,1/2+z
loop_
_atom_site_type_symbol
_atom_site_label
_atom_site_fract_x
_atom_site_fract_y
_atom_site_fract_z
Si Si1 0.655925 0.897617 0.593593
Si Si2 0.902251 0.290845 0.690905
Si Si3 0.161417 0.931589 0.517235
Si Si4 0.593565 0.995304 0.248612
O O1 0.479699 0.254565 0.713740
O O2 0.756275 0.128292 0.681447
O O3 0.500000 0.000000 0.500000
O O4 0.626295 0.647502 0.655794
O O5 0.964286 0.569298 0.754654
O O6 0.864525 0.319338 0.564872
O O7 0.241860 0.363457 0.967998
O O8 0.267043 0.906743 0.642873
O O9 0.000000 0.000000 0.500000
#
# Coordination Sequence:
#
# PCOD9249926 Si02
#       4
#     4   4   4   4
#     4  10  23  48  72 110 146 193 244 309 361 438
#     4  10  23  44  71 103 145 188 236 297 364 425
#     4  10  24  47  74 109 148 193 246 302 371 440
#     4  12  26  48  77 112 148 197 249 304 371 441
#
# _framework density 26.242709999999999
#
# number of rings (size 3 to 8) (size 9 to 14) (size 15 to 20)
#    1.500    0.000    2.500    1.500    0.000    9.000 
#    0.000    3.750    0.000    0.000    0.000    0.000 
#    0.000    0.000    0.000    0.000    0.000    0.000 
#
# Total GULP energy -89432.291681 kJ/mol
# GULP energy per Si atom -5589.518230 kJ/mol
# Density = 2.618298 g / cm^3
# Si number density = 26.242710 Si / 1000 Ang^3
#
#
#
# Elastic Constant Matrix: (Units=GPa)
#
#
# Indices 1 2 3 4 5 6 
#
# 1 164.1238 32.9342 54.2971 0.0000 11.2078 0.0000
# 2 32.9342 140.9571 58.6374 0.0000 22.4957 0.0000
# 3 54.2971 58.6374 201.3901 0.0000 20.4136 0.0000
# 4 0.0000 0.0000 0.0000 17.1989 0.0000 0.5973
# 5 11.2078 22.4957 20.4136 0.0000 53.2629 0.0000
# 6 0.0000 0.0000 0.0000 0.5973 0.0000 26.4475
#
#
#
# Elastic Compliance Matrix: (Units=1/GPa)
#
#
# Indices 1 2 3 4 5 6 
#
# 1 0.006808 -0.000878 -0.001532 0.000000 -0.000475 0.000000
# 2 -0.000878 0.008550 -0.001982 0.000000 -0.002666 0.000000
# 3 -0.001532 -0.001982 0.006074 0.000000 -0.001168 0.000000
# 4 0.000000 0.000000 0.000000 0.058189 0.000000 -0.001314
# 5 -0.000475 -0.002666 -0.001168 0.000000 0.020449 0.000000
# 6 0.000000 0.000000 0.000000 -0.001314 0.000000 0.037840
#
#
# Mechanical properties :
#
#
# Convention : Reuss Voigt Hill
#
# Bulk Modulus (GPa) = 79.06363 88.68982 83.87673
# Shear Modulus (GPa) = 33.13225 43.42201 38.27713
#
# Velocity S-wave (km/s) = 3.55707 4.07213 3.82328
# Velocity P-wave (km/s) = 6.86029 7.48191 7.17783
#
# Compressibility (1/GPa) = 0.01264804
#
# Stress axis : x y z
#
# Youngs Moduli (GPa) = 146.87918 116.96381 164.63210
#
# Poissons Ratio (x) = 0.10266 0.25220
# Poissons Ratio (y) = 0.12892 0.32637
# Poissons Ratio (z) = 0.22501 0.23187
#
# Static dielectric constant tensor:
#      x y z
#    x 2.184250 0.000000 -0.088930 
#    y 0.000000 2.117410 0.000000 
#    z -0.088930 0.000000 2.076170 
# 
# From -- ./inp_files/27291.got.cif
#   From: 2010.05.17/outbox.cif.g08.bks.cpg/sg14_14_cif.got.tgz:27291.got - 2010.06.03 17:49:19.
