data_PCOD9249341
_publ_section_title
;
Structure prediction by ZEFSAII (Michael W. Deem and Ramdas Pophale) SiO2 
 PCOD9249341
Probable space group: P 21/C
;
_chemical_formula_sum "Si O2"
_cell_formula_units_Z 28
_cell_length_a 15.720155
_cell_length_b 8.698563
_cell_length_c 21.581737
_cell_angle_alpha 90.000000
_cell_angle_beta 24.391373
_cell_angle_gamma 90.000000
_cell_volume 1218.726912
_symmetry_space_group_name_H-M "P 21/C"
_symmetry_group_IT_number 14
_symmetry_cell_setting 'monoclinic'
loop_
_space_group_symop_operation_xyz
x,y,z
-x,1/2+y,1/2-z
-x,-y,-z
x,1/2-y,1/2+z
loop_
_atom_site_type_symbol
_atom_site_label
_atom_site_fract_x
_atom_site_fract_y
_atom_site_fract_z
Si Si1 0.369170 0.245369 0.187104
Si Si2 0.226063 0.339414 0.084470
Si Si3 0.026261 0.287338 0.602548
Si Si4 0.349482 0.884238 0.413955
Si Si5 0.987489 0.132098 0.869170
Si Si6 0.780721 0.950794 0.617809
Si Si7 0.575281 0.173129 0.930815
O O1 0.148543 0.266446 0.302020
O O2 0.360720 0.086072 0.229578
O O3 0.430344 0.364097 0.199999
O O4 0.537097 0.259336 0.021831
O O5 0.247567 0.487695 0.025878
O O6 0.085790 0.381181 0.235912
O O7 0.125062 0.218165 0.105204
O O8 0.429124 0.260815 0.978794
O O9 0.011692 0.467366 0.598467
O O10 0.808012 0.198459 0.754343
O O11 0.162319 0.196369 0.462551
O O12 0.224119 0.724429 0.497761
O O13 0.333757 0.937495 0.353714
O O14 0.000000 0.000000 0.500000
O O15 0.500000 0.000000 0.000000
#
# Coordination Sequence:
#
# PCOD9249341 Si02
#       7
#     4   4   4   4   4   4   4
#     4  11  24  43  67  93 135 172 227 270 344 395
#     4  10  23  40  67 102 137 174 223 275 346 408
#     4  11  25  41  69 101 135 171 231 275 337 413
#     4  11  24  43  68  95 138 182 224 283 341 407
#     4  11  22  41  68  99 137 176 215 290 339 401
#     4  11  24  49  64  93 135 181 221 278 340 407
#     4  11  24  42  71 104 134 177 226 286 339 407
#
# _framework density 22.974795
#
# number of rings (size 3 to 8) (size 9 to 14) (size 15 to 20)
#    0.000    1.143    1.429    4.286   10.000    4.000 
#   10.286    0.000    0.000    0.000    0.000    0.000 
#    0.000    0.000    0.000    0.000    0.000    0.000 
#
# Total GULP energy -156420.074014 kJ/mol
# GULP energy per Si atom -5586.431215 kJ/mol
# Density = 2.292250 g / cm^3
# Si number density = 22.974795 Si / 1000 Ang^3
#
#
#
# Elastic Constant Matrix: (Units=GPa)
#
#
# Indices 1 2 3 4 5 6 
#
# 1 127.8564 14.9099 8.3606 0.0000 2.2300 0.0000
# 2 14.9099 66.7559 2.9081 0.0000 6.9378 0.0000
# 3 8.3606 2.9081 50.1716 0.0000 0.4370 0.0000
# 4 0.0000 0.0000 0.0000 22.3124 0.0000 -7.1340
# 5 2.2300 6.9378 0.4370 0.0000 15.4525 0.0000
# 6 0.0000 0.0000 0.0000 -7.1340 0.0000 36.7482
#
#
#
# Elastic Compliance Matrix: (Units=1/GPa)
#
#
# Indices 1 2 3 4 5 6 
#
# 1 0.008110 -0.001719 -0.001249 0.000000 -0.000363 0.000000
# 2 -0.001719 0.016114 -0.000587 0.000000 -0.006970 0.000000
# 3 -0.001249 -0.000587 0.020175 0.000000 -0.000127 0.000000
# 4 0.000000 0.000000 0.000000 0.047784 0.000000 0.009276
# 5 -0.000363 -0.006970 -0.000127 0.000000 0.067900 0.000000
# 6 0.000000 0.000000 0.000000 0.009276 0.000000 0.029013
#
#
# Mechanical properties :
#
#
# Convention : Reuss Voigt Hill
#
# Bulk Modulus (GPa) = 26.81740 33.01567 29.91654
# Shear Modulus (GPa) = 23.96537 29.47631 26.72084
#
# Velocity S-wave (km/s) = 3.23323 3.58576 3.41405
# Velocity P-wave (km/s) = 5.06323 5.61651 5.34703
#
# Compressibility (1/GPa) = 0.03728922
#
# Stress axis : x y z
#
# Youngs Moduli (GPa) = 123.30863 62.05832 49.56685
#
# Poissons Ratio (x) = 0.10669 0.06189
# Poissons Ratio (y) = 0.21199 0.02909
# Poissons Ratio (z) = 0.15396 0.03642
#
# Static dielectric constant tensor:
#      x y z
#    x 1.833800 0.000000 0.000350 
#    y 0.000000 1.947150 0.000000 
#    z 0.000350 0.000000 1.834340 
# 
# From -- ./inp_files/68298.got.cif
#   From: 2010.05.17/outbox.cif.g08.bks.cpg/sg14_35_cif.got.tgz:68298.got - 2010.06.03 17:49:19.
