data_PCOD9249377
_publ_section_title
;
Structure prediction by ZEFSAII (Michael W. Deem and Ramdas Pophale) SiO2 
 PCOD9249377
Probable space group: P 21/C
;
_chemical_formula_sum "Si O2"
_cell_formula_units_Z 32
_cell_length_a 10.609383
_cell_length_b 12.141702
_cell_length_c 12.688949
_cell_angle_alpha 90.000000
_cell_angle_beta 117.539985
_cell_angle_gamma 90.000000
_cell_volume 1449.326939
_symmetry_space_group_name_H-M "P 21/C"
_symmetry_group_IT_number 14
_symmetry_cell_setting 'monoclinic'
loop_
_space_group_symop_operation_xyz
x,y,z
-x,1/2+y,1/2-z
-x,-y,-z
x,1/2-y,1/2+z
loop_
_atom_site_type_symbol
_atom_site_label
_atom_site_fract_x
_atom_site_fract_y
_atom_site_fract_z
Si Si1 0.987541 0.825168 0.459843
Si Si2 0.345574 0.140127 0.425273
Si Si3 0.960654 0.958488 0.651171
Si Si4 0.977655 0.583936 0.395856
Si Si5 0.437855 0.716026 0.812884
Si Si6 0.685540 0.677798 0.751382
Si Si7 0.338671 0.009708 0.235369
Si Si8 0.442539 0.960584 0.865079
O O1 0.024505 0.874304 0.588683
O O2 0.039612 0.703011 0.451103
O O3 0.816961 0.812096 0.381082
O O4 0.028258 0.918699 0.390891
O O5 0.205845 0.075000 0.407962
O O6 0.454088 0.171684 0.557119
O O7 0.295538 0.252492 0.347750
O O8 0.419378 0.063721 0.365409
O O9 0.022127 0.948015 0.793595
O O10 0.806318 0.577322 0.323356
O O11 0.000000 0.500000 0.500000
O O12 0.538658 0.718145 0.748224
O O13 0.322322 0.620512 0.749135
O O14 0.389690 0.835758 0.832156
O O15 0.670341 0.549820 0.717460
O O16 0.425007 0.028398 0.163267
O O17 0.500000 0.000000 0.000000
#
# Coordination Sequence:
#
# PCOD9249377 Si02
#       8
#     4   4   4   4   4   4   4   4
#     4  11  22  44  66  94 135 168 228 282 322 406
#     4  11  19  39  66  90 129 178 209 258 331 390
#     4  10  24  40  67 101 122 172 233 269 333 396
#     4  11  25  45  71  93 130 182 220 279 343 401
#     4  11  21  39  62  93 134 168 209 272 312 391
#     4  11  21  37  67  93 128 175 209 264 327 390
#     4  10  23  41  59  95 127 168 219 253 329 394
#     4  11  22  36  61  97 127 168 218 259 320 379
#
# _framework density 22.079215000000001
#
# number of rings (size 3 to 8) (size 9 to 14) (size 15 to 20)
#    0.000    1.250    6.250    0.375    1.750    1.000 
#    4.500    2.500    0.000    0.000    0.000    0.000 
#    0.000    0.000    0.000    0.000    0.000    0.000 
#
# Total GULP energy -178663.069569 kJ/mol
# GULP energy per Si atom -5583.220924 kJ/mol
# Density = 2.202896 g / cm^3
# Si number density = 22.079215 Si / 1000 Ang^3
#
#
#
# Elastic Constant Matrix: (Units=GPa)
#
#
# Indices 1 2 3 4 5 6 
#
# 1 29.8660 19.8969 10.8101 0.0000 -19.4965 0.0000
# 2 19.8969 205.9077 56.1362 0.0000 -23.7708 0.0000
# 3 10.8101 56.1362 113.9599 0.0000 -31.2723 0.0000
# 4 0.0000 0.0000 0.0000 35.1432 0.0000 0.6302
# 5 -19.4965 -23.7708 -31.2723 0.0000 35.3744 0.0000
# 6 0.0000 0.0000 0.0000 0.6302 0.0000 26.3499
#
#
#
# Elastic Compliance Matrix: (Units=1/GPa)
#
#
# Indices 1 2 3 4 5 6 
#
# 1 0.055133 -0.002954 0.005306 0.000000 0.033092 0.000000
# 2 -0.002954 0.005852 -0.002601 0.000000 0.000005 0.000000
# 3 0.005306 -0.002601 0.013039 0.000000 0.012704 0.000000
# 4 0.000000 0.000000 0.000000 0.028467 0.000000 -0.000681
# 5 0.033092 0.000005 0.012704 0.000000 0.057742 0.000000
# 6 0.000000 0.000000 0.000000 -0.000681 0.000000 0.037967
#
#
# Mechanical properties :
#
#
# Convention : Reuss Voigt Hill
#
# Bulk Modulus (GPa) = 13.60056 58.15777 35.87917
# Shear Modulus (GPa) = 22.40090 36.89951 29.65021
#
# Velocity S-wave (km/s) = 3.18869 4.09251 3.66854
# Velocity P-wave (km/s) = 4.44187 6.98063 5.85062
#
# Compressibility (1/GPa) = 0.07352638
#
# Stress axis : x y z
#
# Youngs Moduli (GPa) = 18.13801 170.89262 76.69306
#
# Poissons Ratio (x) = 0.50479 -0.40695
# Poissons Ratio (y) = 0.05358 0.19948
# Poissons Ratio (z) = -0.09625 0.44449
#
# Static dielectric constant tensor:
#      x y z
#    x 1.837000 0.000000 0.014530 
#    y 0.000000 1.974370 0.000000 
#    z 0.014530 0.000000 1.920270 
# 
# From -- ./inp_files/29166.got.cif
#   From: 2010.05.17/outbox.cif.g08.bks.cpg/sg14_15_cif.got.tgz:29166.got - 2010.06.03 17:49:19.
