data_PCOD9249711
_publ_section_title
;
Structure prediction by ZEFSAII (Michael W. Deem and Ramdas Pophale) SiO2 
 PCOD9249711
Probable space group: P 21/C
;
_chemical_formula_sum "Si O2"
_cell_formula_units_Z 20
_cell_length_a 11.327646
_cell_length_b 17.059275
_cell_length_c 5.019895
_cell_angle_alpha 90.000000
_cell_angle_beta 66.179260
_cell_angle_gamma 90.000000
_cell_volume 887.416403
_symmetry_space_group_name_H-M "P 21/C"
_symmetry_group_IT_number 14
_symmetry_cell_setting 'monoclinic'
loop_
_space_group_symop_operation_xyz
x,y,z
-x,1/2+y,1/2-z
-x,-y,-z
x,1/2-y,1/2+z
loop_
_atom_site_type_symbol
_atom_site_label
_atom_site_fract_x
_atom_site_fract_y
_atom_site_fract_z
Si Si1 0.041093 0.193029 0.565979
Si Si2 0.649337 0.805254 0.328346
Si Si3 0.136322 0.597392 0.469646
Si Si4 0.137487 0.420181 0.592092
Si Si5 0.641097 0.304156 0.986271
O O1 0.060006 0.251344 0.302232
O O2 0.121925 0.116792 0.400889
O O3 0.901500 0.156591 0.757761
O O4 0.663414 0.767020 0.606534
O O5 0.503918 0.836326 0.423914
O O6 0.753103 0.870607 0.157698
O O7 0.166589 0.511862 0.555032
O O8 0.003040 0.591223 0.419905
O O9 0.249632 0.634348 0.193049
O O10 0.650522 0.268458 0.271039
#
# Coordination Sequence:
#
# PCOD9249711 Si02
#       5
#     4   4   4   4   4
#     4  12  23  40  63  90 124 168 214 258 311 368
#     4  10  23  43  66  93 125 168 220 264 311 378
#     4  11  25  42  64  99 136 168 210 264 326 385
#     4  11  25  42  64  99 136 168 210 264 326 385
#     4  10  23  43  66  93 125 168 220 264 311 378
#
# _framework density 22.537334000000001
#
# number of rings (size 3 to 8) (size 9 to 14) (size 15 to 20)
#    0.000    1.200    2.000    3.000    5.600    0.800 
#    0.000    0.000    0.000    7.200    0.000    0.000 
#    0.000    0.000    0.000    0.000    0.000    0.000 
#
# Total GULP energy -111894.585253 kJ/mol
# GULP energy per Si atom -5594.729263 kJ/mol
# Density = 2.248604 g / cm^3
# Si number density = 22.537334 Si / 1000 Ang^3
#
#
#
# Elastic Constant Matrix: (Units=GPa)
#
#
# Indices 1 2 3 4 5 6 
#
# 1 99.3721 27.1049 37.6097 0.0000 -27.6899 0.0000
# 2 27.1049 49.3529 -3.2476 0.0000 -25.1434 0.0000
# 3 37.6097 -3.2476 112.7479 0.0000 -12.7308 0.0000
# 4 0.0000 0.0000 0.0000 18.6736 0.0000 -4.4340
# 5 -27.6899 -25.1434 -12.7308 0.0000 59.2332 0.0000
# 6 0.0000 0.0000 0.0000 -4.4340 0.0000 28.9221
#
#
#
# Elastic Compliance Matrix: (Units=1/GPa)
#
#
# Indices 1 2 3 4 5 6 
#
# 1 0.014505 -0.006810 -0.004710 0.000000 0.002878 0.000000
# 2 -0.006810 0.029513 0.004281 0.000000 0.010264 0.000000
# 3 -0.004710 0.004281 0.010782 0.000000 0.001933 0.000000
# 4 0.000000 0.000000 0.000000 0.055575 0.000000 0.008520
# 5 0.002878 0.010264 0.001933 0.000000 0.023000 0.000000
# 6 0.000000 0.000000 0.000000 0.008520 0.000000 0.035882
#
#
# Mechanical properties :
#
#
# Convention : Reuss Voigt Hill
#
# Bulk Modulus (GPa) = 24.80021 42.71188 33.75605
# Shear Modulus (GPa) = 25.35807 34.69952 30.02879
#
# Velocity S-wave (km/s) = 3.35798 3.92809 3.65417
# Velocity P-wave (km/s) = 5.10516 6.29015 5.72838
#
# Compressibility (1/GPa) = 0.04032223
#
# Stress axis : x y z
#
# Youngs Moduli (GPa) = 68.94122 33.88295 92.74775
#
# Poissons Ratio (x) = 0.23075 0.43682
# Poissons Ratio (y) = 0.46950 -0.39703
# Poissons Ratio (z) = 0.32470 -0.14505
#
# Static dielectric constant tensor:
#      x y z
#    x 1.958140 0.000000 0.036640 
#    y 0.000000 1.797010 0.000000 
#    z 0.036640 0.000000 1.846280 
# 
# From -- ./inp_files/2592.got.cif
#   From: 2010.05.17/outbox.cif.g08.bks.cpg/sg14_2_cif.got.tgz:2592.got - 2010.06.03 17:49:19.
