data_PCOD9249639
_publ_section_title
;
Structure prediction by ZEFSAII (Michael W. Deem and Ramdas Pophale) SiO2 
 PCOD9249639
Probable space group: P 21/C
;
_chemical_formula_sum "Si O2"
_cell_formula_units_Z 28
_cell_length_a 12.003043
_cell_length_b 7.338993
_cell_length_c 16.091111
_cell_angle_alpha 90.000000
_cell_angle_beta 126.786520
_cell_angle_gamma 90.000000
_cell_volume 1135.212407
_symmetry_space_group_name_H-M "P 21/C"
_symmetry_group_IT_number 14
_symmetry_cell_setting 'monoclinic'
loop_
_space_group_symop_operation_xyz
x,y,z
-x,1/2+y,1/2-z
-x,-y,-z
x,1/2-y,1/2+z
loop_
_atom_site_type_symbol
_atom_site_label
_atom_site_fract_x
_atom_site_fract_y
_atom_site_fract_z
Si Si1 0.371735 0.864148 0.750123
Si Si2 0.155827 0.498234 0.034602
Si Si3 0.404956 0.679130 0.443083
Si Si4 0.221556 0.420859 0.567498
Si Si5 0.885309 0.296697 0.154092
Si Si6 0.936899 0.519341 0.341423
Si Si7 0.479021 0.804568 0.143055
O O1 0.408117 0.752602 0.849547
O O2 0.476952 0.821043 0.722432
O O3 0.231265 0.868180 0.634324
O O4 0.386915 0.068628 0.791759
O O5 0.226517 0.298892 0.063275
O O6 0.158554 0.575307 0.942311
O O7 0.000000 0.500000 0.000000
O O8 0.500000 0.500000 0.500000
O O9 0.240558 0.654848 0.386349
O O10 0.458903 0.794989 0.546293
O O11 0.184958 0.466015 0.646604
O O12 0.350824 0.546758 0.595981
O O13 0.080495 0.471135 0.453498
O O14 0.906275 0.386593 0.252304
O O15 0.027894 0.209302 0.186964
#
# Coordination Sequence:
#
# PCOD9249639 Si02
#       7
#     4   4   4   4   4   4   4
#     4  11  24  43  71  96 135 181 229 288 347 418
#     4  12  25  41  66  99 139 180 232 280 349 423
#     4  10  23  42  70  97 131 180 231 282 348 413
#     4  11  23  42  65  98 134 180 228 283 346 415
#     4  12  23  43  65 103 142 181 230 290 351 418
#     4  11  24  38  67  98 137 179 225 284 352 419
#     4  11  22  46  70  98 132 182 231 286 351 407
#
# _framework density 24.664987
#
# number of rings (size 3 to 8) (size 9 to 14) (size 15 to 20)
#    0.000    0.857    4.286    2.571    6.000    0.000 
#    2.571    0.714    3.143    0.000    0.000    0.000 
#    0.000    0.000    0.000    0.000    0.000    0.000 
#
# Total GULP energy -156311.907863 kJ/mol
# GULP energy per Si atom -5582.568138 kJ/mol
# Density = 2.460885 g / cm^3
# Si number density = 24.664987 Si / 1000 Ang^3
#
#
#
# Elastic Constant Matrix: (Units=GPa)
#
#
# Indices 1 2 3 4 5 6 
#
# 1 68.0566 10.0793 48.8438 0.0000 -22.1583 0.0000
# 2 10.0793 61.9422 21.0804 0.0000 -3.8797 0.0000
# 3 48.8438 21.0804 159.3844 0.0000 -47.4918 0.0000
# 4 0.0000 0.0000 0.0000 43.2887 0.0000 -1.7205
# 5 -22.1583 -3.8797 -47.4918 0.0000 52.5820 0.0000
# 6 0.0000 0.0000 0.0000 -1.7205 0.0000 29.3335
#
#
#
# Elastic Compliance Matrix: (Units=1/GPa)
#
#
# Indices 1 2 3 4 5 6 
#
# 1 0.019493 -0.001353 -0.004620 0.000000 0.003942 0.000000
# 2 -0.001353 0.017042 -0.002237 0.000000 -0.001333 0.000000
# 3 -0.004620 -0.002237 0.010065 0.000000 0.006979 0.000000
# 4 0.000000 0.000000 0.000000 0.023155 0.000000 0.001358
# 5 0.003942 -0.001333 0.006979 0.000000 0.026884 0.000000
# 6 0.000000 0.000000 0.000000 0.001358 0.000000 0.034170
#
#
# Mechanical properties :
#
#
# Convention : Reuss Voigt Hill
#
# Bulk Modulus (GPa) = 33.13297 49.93225 41.53261
# Shear Modulus (GPa) = 31.78855 38.99948 35.39401
#
# Velocity S-wave (km/s) = 3.59390 3.98070 3.79224
# Velocity P-wave (km/s) = 5.53930 6.43554 6.00416
#
# Compressibility (1/GPa) = 0.03018141
#
# Stress axis : x y z
#
# Youngs Moduli (GPa) = 51.29951 58.67903 99.35031
#
# Poissons Ratio (x) = 0.07937 0.45904
# Poissons Ratio (y) = 0.06939 0.22220
# Poissons Ratio (z) = 0.23702 0.13124
#
# Static dielectric constant tensor:
#      x y z
#    x 2.034110 0.000000 0.001480 
#    y 0.000000 2.032450 0.000000 
#    z 0.001480 0.000000 2.035220 
# 
# From -- ./inp_files/43316.got.cif
#   From: 2010.05.17/outbox.cif.g08.bks.cpg/sg14_22_cif.got.tgz:43316.got - 2010.06.03 17:49:19.
