data_PCOD9249112
_publ_section_title
;
Structure prediction by ZEFSAII (Michael W. Deem and Ramdas Pophale) SiO2 
 PCOD9249112
Probable space group: P 21/C
;
_chemical_formula_sum "Si O2"
_cell_formula_units_Z 28
_cell_length_a 7.820222
_cell_length_b 5.830209
_cell_length_c 23.169380
_cell_angle_alpha 90.000000
_cell_angle_beta 75.968672
_cell_angle_gamma 90.000000
_cell_volume 1024.855088
_symmetry_space_group_name_H-M "P 21/C"
_symmetry_group_IT_number 14
_symmetry_cell_setting 'monoclinic'
loop_
_space_group_symop_operation_xyz
x,y,z
-x,1/2+y,1/2-z
-x,-y,-z
x,1/2-y,1/2+z
loop_
_atom_site_type_symbol
_atom_site_label
_atom_site_fract_x
_atom_site_fract_y
_atom_site_fract_z
Si Si1 0.263810 0.945167 0.521738
Si Si2 0.935653 0.286641 0.279159
Si Si3 0.890406 0.437262 0.402467
Si Si4 0.394971 0.235136 0.606900
Si Si5 0.645358 0.041640 0.164621
Si Si6 0.546088 0.146271 0.300765
Si Si7 0.104852 0.687905 0.919755
O O1 0.262835 0.698095 0.552258
O O2 0.240546 0.912965 0.455546
O O3 0.394815 0.117365 0.544011
O O4 0.066393 0.030794 0.558369
O O5 0.978505 0.295829 0.344002
O O6 0.723485 0.297418 0.292806
O O7 0.013015 0.528354 0.247466
O O8 0.794814 0.645353 0.377055
O O9 0.026497 0.552564 0.435622
O O10 0.539497 0.418116 0.613744
O O11 0.415312 0.053722 0.656730
O O12 0.548789 0.083394 0.233400
O O13 0.796117 0.236628 0.147308
O O14 0.637972 0.766268 0.167849
#
# Coordination Sequence:
#
# PCOD9249112 Si02
#       7
#     4   4   4   4   4   4   4
#     4  10  22  46  70  96 136 176 239 302 345 423
#     4  12  26  41  71 106 141 188 245 298 365 440
#     4  11  22  41  70  92 136 176 233 295 356 416
#     4  11  22  44  67  94 136 189 225 289 358 427
#     4  12  25  42  66  97 140 185 226 288 367 437
#     4  12  25  42  65  98 143 181 231 295 357 441
#     4  10  25  42  68 104 131 179 236 295 362 418
#
# _framework density 27.320936
#
# number of rings (size 3 to 8) (size 9 to 14) (size 15 to 20)
#    0.000    0.857    4.286    2.143    4.000    2.857 
#    0.000    2.857    0.000    0.000    0.000    0.000 
#    0.000    0.000    0.000    0.000    0.000    0.000 
#
# Total GULP energy -156121.532462 kJ/mol
# GULP energy per Si atom -5575.769016 kJ/mol
# Density = 2.725875 g / cm^3
# Si number density = 27.320936 Si / 1000 Ang^3
#
#
#
# Elastic Constant Matrix: (Units=GPa)
#
#
# Indices 1 2 3 4 5 6 
#
# 1 82.8057 -4.0831 -16.4312 0.0000 14.1661 0.0000
# 2 -4.0831 86.6230 33.5888 0.0000 -6.7805 0.0000
# 3 -16.4312 33.5888 107.2323 0.0000 1.9326 0.0000
# 4 0.0000 0.0000 0.0000 41.1552 0.0000 0.0517
# 5 14.1661 -6.7805 1.9326 0.0000 37.0360 0.0000
# 6 0.0000 0.0000 0.0000 0.0517 0.0000 44.1590
#
#
#
# Elastic Compliance Matrix: (Units=1/GPa)
#
#
# Indices 1 2 3 4 5 6 
#
# 1 0.013436 -0.000711 0.002379 0.000000 -0.005394 0.000000
# 2 -0.000711 0.013438 -0.004371 0.000000 0.002960 0.000000
# 3 0.002379 -0.004371 0.011101 0.000000 -0.002289 0.000000
# 4 0.000000 0.000000 0.000000 0.024298 0.000000 -0.000028
# 5 -0.005394 0.002960 -0.002289 0.000000 0.029725 0.000000
# 6 0.000000 0.000000 0.000000 -0.000028 0.000000 0.022645
#
#
# Mechanical properties :
#
#
# Convention : Reuss Voigt Hill
#
# Bulk Modulus (GPa) = 30.70642 33.64558 32.17600
# Shear Modulus (GPa) = 38.19520 42.04249 40.11884
#
# Velocity S-wave (km/s) = 3.74307 3.92706 3.83617
# Velocity P-wave (km/s) = 5.47214 5.73621 5.60573
#
# Compressibility (1/GPa) = 0.03256648
#
# Stress axis : x y z
#
# Youngs Moduli (GPa) = 74.42613 74.41842 90.08528
#
# Poissons Ratio (x) = 0.05293 -0.21430
# Poissons Ratio (y) = 0.05294 0.39380
# Poissons Ratio (z) = -0.17705 0.32532
#
# Static dielectric constant tensor:
#      x y z
#    x 2.337810 0.000000 -0.097060 
#    y 0.000000 2.304000 0.000000 
#    z -0.097060 0.000000 2.119370 
# 
# From -- ./inp_files/76041.got.cif
#   From: 2010.05.17/outbox.cif.g08.bks.cpg/sg14_39_cif.got.tgz:76041.got - 2010.06.03 17:49:19.
