data_PCOD9249888
_publ_section_title
;
Structure prediction by ZEFSAII (Michael W. Deem and Ramdas Pophale) SiO2 
 PCOD9249888
Probable space group: P 21/C
;
_chemical_formula_sum "Si O2"
_cell_formula_units_Z 28
_cell_length_a 15.317394
_cell_length_b 9.162937
_cell_length_c 15.408122
_cell_angle_alpha 90.000000
_cell_angle_beta 141.017858
_cell_angle_gamma 90.000000
_cell_volume 1360.422750
_symmetry_space_group_name_H-M "P 21/C"
_symmetry_group_IT_number 14
_symmetry_cell_setting 'monoclinic'
loop_
_space_group_symop_operation_xyz
x,y,z
-x,1/2+y,1/2-z
-x,-y,-z
x,1/2-y,1/2+z
loop_
_atom_site_type_symbol
_atom_site_label
_atom_site_fract_x
_atom_site_fract_y
_atom_site_fract_z
Si Si1 0.643953 0.215486 0.890922
Si Si2 0.068920 0.919218 0.635346
Si Si3 0.824741 0.019434 0.569658
Si Si4 0.206945 0.469103 0.598004
Si Si5 0.901506 0.422347 0.323167
Si Si6 0.358865 0.512683 0.447032
Si Si7 0.654865 0.735490 0.417198
O O1 0.691571 0.082914 0.867696
O O2 0.496709 0.266050 0.741484
O O3 0.755584 0.343948 0.968058
O O4 0.635456 0.151601 0.982432
O O5 0.082171 0.744681 0.632605
O O6 0.222820 0.973511 0.781218
O O7 0.962579 0.956277 0.631341
O O8 0.000000 0.000000 0.500000
O O9 0.709438 0.893341 0.485922
O O10 0.861130 0.075348 0.692841
O O11 0.206178 0.490165 0.699995
O O12 0.245434 0.316990 0.584135
O O13 0.049559 0.500920 0.447795
O O14 0.500000 0.500000 0.500000
O O15 0.340672 0.374547 0.497857
#
# Coordination Sequence:
#
# PCOD9249888 Si02
#       7
#     4   4   4   4   4   4   4
#     4  11  24  45  70  98 145 186 227 290 349 425
#     4  12  27  45  73 105 141 189 236 293 350 415
#     4  12  24  43  72 101 138 176 242 284 353 409
#     4  10  23  44  68  95 142 174 231 277 356 410
#     4  11  24  43  71 103 132 179 230 300 338 414
#     4  11  27  46  69 103 145 185 237 287 350 421
#     4  11  25  44  68 101 140 190 225 288 357 419
#
# _framework density 20.581837
#
# number of rings (size 3 to 8) (size 9 to 14) (size 15 to 20)
#    0.000    0.857    2.857    4.286    6.000    3.429 
#    0.000    2.143    0.000    0.000    0.000    0.000 
#    0.000    0.000    0.000    0.000    0.000    0.000 
#
# Total GULP energy -156488.605255 kJ/mol
# GULP energy per Si atom -5588.878759 kJ/mol
# Density = 2.053499 g / cm^3
# Si number density = 20.581837 Si / 1000 Ang^3
#
#
#
# Elastic Constant Matrix: (Units=GPa)
#
#
# Indices 1 2 3 4 5 6 
#
# 1 81.7854 -6.1205 27.8531 0.0000 6.9596 0.0000
# 2 -6.1205 61.2626 8.7063 0.0000 -6.9278 0.0000
# 3 27.8531 8.7063 117.3307 0.0000 2.1096 0.0000
# 4 0.0000 0.0000 0.0000 35.6005 0.0000 1.7442
# 5 6.9596 -6.9278 2.1096 0.0000 29.9619 0.0000
# 6 0.0000 0.0000 0.0000 1.7442 0.0000 25.9864
#
#
#
# Elastic Compliance Matrix: (Units=1/GPa)
#
#
# Indices 1 2 3 4 5 6 
#
# 1 0.013694 0.001547 -0.003319 0.000000 -0.002589 0.000000
# 2 0.001547 0.017141 -0.001706 0.000000 0.003724 0.000000
# 3 -0.003319 -0.001706 0.009443 0.000000 -0.000288 0.000000
# 4 0.000000 0.000000 0.000000 0.028182 0.000000 -0.001892
# 5 -0.002589 0.003724 -0.000288 0.000000 0.034859 0.000000
# 6 0.000000 0.000000 0.000000 -0.001892 0.000000 0.038609
#
#
# Mechanical properties :
#
#
# Convention : Reuss Voigt Hill
#
# Bulk Modulus (GPa) = 30.01095 35.69517 32.85306
# Shear Modulus (GPa) = 31.25193 33.63909 32.44551
#
# Velocity S-wave (km/s) = 3.90092 4.04717 3.97472
# Velocity P-wave (km/s) = 5.90784 6.26259 6.08780
#
# Compressibility (1/GPa) = 0.03332117
#
# Stress axis : x y z
#
# Youngs Moduli (GPa) = 73.02719 58.33856 105.90323
#
# Poissons Ratio (x) = -0.09025 0.35149
# Poissons Ratio (y) = -0.11297 0.18068
# Poissons Ratio (z) = 0.24237 0.09953
#
# Static dielectric constant tensor:
#      x y z
#    x 1.661350 0.000000 -0.099440 
#    y 0.000000 1.752720 0.000000 
#    z -0.099440 0.000000 1.628350 
# 
# From -- ./inp_files/46746.got.cif
#   From: 2010.05.17/outbox.cif.g08.bks.cpg/sg14_24_cif.got.tgz:46746.got - 2010.06.03 17:49:19.
