data_PCOD9249602
_publ_section_title
;
Structure prediction by ZEFSAII (Michael W. Deem and Ramdas Pophale) SiO2 
 PCOD9249602
Probable space group: P 21/C
;
_chemical_formula_sum "Si O2"
_cell_formula_units_Z 20
_cell_length_a 18.160535
_cell_length_b 7.583050
_cell_length_c 12.052451
_cell_angle_alpha 90.000000
_cell_angle_beta 152.930228
_cell_angle_gamma 90.000000
_cell_volume 755.320182
_symmetry_space_group_name_H-M "P 21/C"
_symmetry_group_IT_number 14
_symmetry_cell_setting 'monoclinic'
loop_
_space_group_symop_operation_xyz
x,y,z
-x,1/2+y,1/2-z
-x,-y,-z
x,1/2-y,1/2+z
loop_
_atom_site_type_symbol
_atom_site_label
_atom_site_fract_x
_atom_site_fract_y
_atom_site_fract_z
Si Si1 0.642068 0.555965 0.555235
Si Si2 0.089665 0.349035 0.802616
Si Si3 0.643239 0.959976 0.495990
Si Si4 0.840397 0.476672 0.624893
Si Si5 0.270683 0.760476 0.211158
O O1 0.641929 0.767281 0.553077
O O2 0.801096 0.491940 0.699506
O O3 0.656895 0.434029 0.683164
O O4 0.498395 0.489713 0.282513
O O5 0.191516 0.466275 0.855616
O O6 0.018915 0.429197 0.820668
O O7 0.920780 0.288189 0.519670
O O8 0.190735 0.173561 0.962852
O O9 0.639463 0.112101 0.582490
O O10 0.725363 0.339217 0.407440
#
# Coordination Sequence:
#
# PCOD9249602 Si02
#       5
#     4   4   4   4   4
#     4  11  23  42  66  93 132 166 213 260 315 380
#     4   9  22  40  63  94 125 165 214 256 313 375
#     4  11  22  40  65  93 125 172 211 259 312 378
#     4   9  23  40  64  94 130 158 217 262 307 381
#     4  10  23  42  68  90 130 170 209 258 328 363
#
# _framework density 26.478836999999999
#
# number of rings (size 3 to 8) (size 9 to 14) (size 15 to 20)
#    1.200    0.800    2.000    0.600    2.800    5.600 
#    0.000    1.000    0.000    0.000    0.000    0.000 
#    0.000    0.000    0.000    0.000    0.000    0.000 
#
# Total GULP energy -111877.910549 kJ/mol
# GULP energy per Si atom -5593.895527 kJ/mol
# Density = 2.641857 g / cm^3
# Si number density = 26.478837 Si / 1000 Ang^3
#
#
#
# Elastic Constant Matrix: (Units=GPa)
#
#
# Indices 1 2 3 4 5 6 
#
# 1 57.1426 45.1227 6.0890 0.0000 9.2933 0.0000
# 2 45.1227 100.4399 39.0412 0.0000 -11.5592 0.0000
# 3 6.0890 39.0412 93.3330 0.0000 -5.8812 0.0000
# 4 0.0000 0.0000 0.0000 51.8537 0.0000 -10.1103
# 5 9.2933 -11.5592 -5.8812 0.0000 35.6708 0.0000
# 6 0.0000 0.0000 0.0000 -10.1103 0.0000 36.5469
#
#
#
# Elastic Compliance Matrix: (Units=1/GPa)
#
#
# Indices 1 2 3 4 5 6 
#
# 1 0.034189 -0.018846 0.004756 0.000000 -0.014230 0.000000
# 2 -0.018846 0.022619 -0.007539 0.000000 0.010997 0.000000
# 3 0.004756 -0.007539 0.013465 0.000000 -0.001462 0.000000
# 4 0.000000 0.000000 0.000000 0.020385 0.000000 0.005639
# 5 -0.014230 0.010997 -0.001462 0.000000 0.035064 0.000000
# 6 0.000000 0.000000 0.000000 0.005639 0.000000 0.028922
#
#
# Mechanical properties :
#
#
# Convention : Reuss Voigt Hill
#
# Bulk Modulus (GPa) = 37.01540 47.93572 42.47556
# Shear Modulus (GPa) = 24.16538 35.52510 29.84524
#
# Velocity S-wave (km/s) = 3.02425 3.66682 3.36093
# Velocity P-wave (km/s) = 5.11902 6.00584 5.58008
#
# Compressibility (1/GPa) = 0.02701578
#
# Stress axis : x y z
#
# Youngs Moduli (GPa) = 29.24882 44.21102 74.26400
#
# Poissons Ratio (x) = 0.83320 -0.35321
# Poissons Ratio (y) = 0.55122 0.55988
# Poissons Ratio (z) = -0.13911 0.33331
#
# Static dielectric constant tensor:
#      x y z
#    x 2.110940 0.000000 0.059920 
#    y 0.000000 2.219630 0.000000 
#    z 0.059920 0.000000 2.054300 
# 
# From -- ./inp_files/51304.got.cif
#   From: 2010.05.17/outbox.cif.g08.bks.cpg/sg14_26_cif.got.tgz:51304.got - 2010.06.03 17:49:19.
