data_PCOD9249733
_publ_section_title
;
Structure prediction by ZEFSAII (Michael W. Deem and Ramdas Pophale) SiO2 
 PCOD9249733
Probable space group: P 21/C
;
_chemical_formula_sum "Si O2"
_cell_formula_units_Z 24
_cell_length_a 7.738629
_cell_length_b 11.153428
_cell_length_c 13.080422
_cell_angle_alpha 90.000000
_cell_angle_beta 100.138566
_cell_angle_gamma 90.000000
_cell_volume 1111.371104
_symmetry_space_group_name_H-M "P 21/C"
_symmetry_group_IT_number 14
_symmetry_cell_setting 'monoclinic'
loop_
_space_group_symop_operation_xyz
x,y,z
-x,1/2+y,1/2-z
-x,-y,-z
x,1/2-y,1/2+z
loop_
_atom_site_type_symbol
_atom_site_label
_atom_site_fract_x
_atom_site_fract_y
_atom_site_fract_z
Si Si1 0.152455 0.172233 0.295084
Si Si2 0.314845 0.066080 0.790245
Si Si3 0.665709 0.046797 0.580363
Si Si4 0.318103 0.853051 0.211477
Si Si5 0.188588 0.615259 0.110993
Si Si6 0.004664 0.984362 0.881029
O O1 0.247125 0.298034 0.294156
O O2 0.996758 0.158743 0.362305
O O3 0.279620 0.067003 0.345976
O O4 0.069991 0.136233 0.177177
O O5 0.524275 0.067985 0.818931
O O6 0.203569 0.997088 0.863881
O O7 0.251298 0.002902 0.678819
O O8 0.640994 0.150229 0.662752
O O9 0.803593 0.089108 0.508520
O O10 0.500000 0.000000 0.500000
O O11 0.315474 0.724601 0.156844
O O12 0.127136 0.913870 0.177635
O O13 0.000000 0.000000 0.000000
#
# Coordination Sequence:
#
# PCOD9249733 Si02
#       6
#     4   4   4   4   4   4
#     4  10  23  43  67  96 138 175 231 281 330 408
#     4  11  23  43  68  98 139 176 225 284 337 403
#     4  11  22  43  70 100 131 182 232 277 345 408
#     4  11  24  44  68 100 140 172 229 288 336 411
#     4  11  23  43  69 101 134 181 227 279 344 402
#     4  10  24  45  65  97 135 180 229 279 341 399
#
# _framework density 21.594947000000001
#
# number of rings (size 3 to 8) (size 9 to 14) (size 15 to 20)
#    0.000    1.333    3.333    1.500    2.333    4.667 
#    3.000    0.000    0.000    0.000    0.000    0.000 
#    0.000    0.000    0.000    0.000    0.000    0.000 
#
# Total GULP energy -133991.458254 kJ/mol
# GULP energy per Si atom -5582.977427 kJ/mol
# Density = 2.154580 g / cm^3
# Si number density = 21.594947 Si / 1000 Ang^3
#
#
#
# Elastic Constant Matrix: (Units=GPa)
#
#
# Indices 1 2 3 4 5 6 
#
# 1 88.6383 -16.9644 0.8715 0.0000 -1.1898 0.0000
# 2 -16.9644 43.9573 -13.5442 0.0000 12.7782 0.0000
# 3 0.8715 -13.5442 95.4890 0.0000 -11.1027 0.0000
# 4 0.0000 0.0000 0.0000 11.9611 0.0000 -2.1587
# 5 -1.1898 12.7782 -11.1027 0.0000 23.5840 0.0000
# 6 0.0000 0.0000 0.0000 -2.1587 0.0000 27.8761
#
#
#
# Elastic Compliance Matrix: (Units=1/GPa)
#
#
# Indices 1 2 3 4 5 6 
#
# 1 0.012302 0.005506 0.000417 0.000000 -0.002166 0.000000
# 2 0.005506 0.029932 0.002478 0.000000 -0.014774 0.000000
# 3 0.000417 0.002478 0.011284 0.000000 0.003991 0.000000
# 4 0.000000 0.000000 0.000000 0.084790 0.000000 0.006566
# 5 -0.002166 -0.014774 0.003991 0.000000 0.052176 0.000000
# 6 0.000000 0.000000 0.000000 0.006566 0.000000 0.036382
#
#
# Mechanical properties :
#
#
# Convention : Reuss Voigt Hill
#
# Bulk Modulus (GPa) = 14.22076 18.75672 16.48874
# Shear Modulus (GPa) = 21.41284 29.86567 25.63925
#
# Velocity S-wave (km/s) = 3.15233 3.72290 3.44943
# Velocity P-wave (km/s) = 4.45523 5.21388 4.84941
#
# Compressibility (1/GPa) = 0.07031974
#
# Stress axis : x y z
#
# Youngs Moduli (GPa) = 81.28476 33.40866 88.62066
#
# Poissons Ratio (x) = -0.18395 -0.03694
# Poissons Ratio (y) = -0.44756 -0.21957
# Poissons Ratio (z) = -0.03388 -0.08277
#
# Static dielectric constant tensor:
#      x y z
#    x 1.834490 0.000000 -0.016280 
#    y 0.000000 1.827130 0.000000 
#    z -0.016280 0.000000 1.713120 
# 
# From -- ./inp_files/24249.got.cif
#   From: 2010.05.17/outbox.cif.g08.bks.cpg/sg14_13_cif.got.tgz:24249.got - 2010.06.03 17:49:19.
