data_PCOD9249999
_publ_section_title
;
Structure prediction by ZEFSAII (Michael W. Deem and Ramdas Pophale) SiO2 
 PCOD9249999
Probable space group: P 21/C
;
_chemical_formula_sum "Si O2"
_cell_formula_units_Z 16
_cell_length_a 11.006317
_cell_length_b 4.899442
_cell_length_c 13.606477
_cell_angle_alpha 90.000000
_cell_angle_beta 126.640300
_cell_angle_gamma 90.000000
_cell_volume 588.740781
_symmetry_space_group_name_H-M "P 21/C"
_symmetry_group_IT_number 14
_symmetry_cell_setting 'monoclinic'
loop_
_space_group_symop_operation_xyz
x,y,z
-x,1/2+y,1/2-z
-x,-y,-z
x,1/2-y,1/2+z
loop_
_atom_site_type_symbol
_atom_site_label
_atom_site_fract_x
_atom_site_fract_y
_atom_site_fract_z
Si Si1 0.350835 0.836749 0.459333
Si Si2 0.810619 0.553717 0.296404
Si Si3 0.468571 0.057668 0.801119
Si Si4 0.900400 0.194043 0.520489
O O1 0.580335 0.420889 0.448596
O O2 0.233206 0.950800 0.484071
O O3 0.500000 0.000000 0.500000
O O4 0.252040 0.839433 0.313236
O O5 0.690210 0.800703 0.246900
O O6 0.833600 0.418515 0.413949
O O7 0.977021 0.664254 0.349134
O O8 0.471287 0.760841 0.755577
O O9 0.000000 0.000000 0.500000
#
# Coordination Sequence:
#
# PCOD9249999 Si02
#       4
#     4   4   4   4
#     4  10  23  45  69 105 139 189 248 297 369 445
#     4  10  24  42  67 105 141 190 243 300 376 437
#     4  11  22  45  72 102 149 193 244 301 369 436
#     4  11  23  44  71  99 145 185 238 310 368 439
#
# _framework density 27.176645000000001
#
# number of rings (size 3 to 8) (size 9 to 14) (size 15 to 20)
#    0.000    1.500    2.500    1.500    3.500    0.000 
#    4.500    3.750    0.000    0.000    0.000    0.000 
#    0.000    0.000    0.000    0.000    0.000    0.000 
#
# Total GULP energy -89626.064291 kJ/mol
# GULP energy per Si atom -5601.629018 kJ/mol
# Density = 2.711479 g / cm^3
# Si number density = 27.176645 Si / 1000 Ang^3
#
#
#
# Elastic Constant Matrix: (Units=GPa)
#
#
# Indices 1 2 3 4 5 6 
#
# 1 206.6940 45.9559 50.2634 0.0000 -1.5533 0.0000
# 2 45.9559 94.8628 29.5558 0.0000 -1.7693 0.0000
# 3 50.2634 29.5558 178.1705 0.0000 26.0016 0.0000
# 4 0.0000 0.0000 0.0000 24.4314 0.0000 -13.4355
# 5 -1.5533 -1.7693 26.0016 0.0000 54.0150 0.0000
# 6 0.0000 0.0000 0.0000 -13.4355 0.0000 39.4360
#
#
#
# Elastic Compliance Matrix: (Units=1/GPa)
#
#
# Indices 1 2 3 4 5 6 
#
# 1 0.005683 -0.002327 -0.001323 0.000000 0.000724 0.000000
# 2 -0.002327 0.012161 -0.001516 0.000000 0.001061 0.000000
# 3 -0.001323 -0.001516 0.006722 0.000000 -0.003324 0.000000
# 4 0.000000 0.000000 0.000000 0.050368 0.000000 0.017160
# 5 0.000724 0.001061 -0.003324 0.000000 0.020169 0.000000
# 6 0.000000 0.000000 0.000000 0.017160 0.000000 0.031204
#
#
# Mechanical properties :
#
#
# Convention : Reuss Voigt Hill
#
# Bulk Modulus (GPa) = 70.25148 81.25307 75.75227
# Shear Modulus (GPa) = 35.36515 47.17328 41.26922
#
# Velocity S-wave (km/s) = 3.61128 4.17082 3.90109
# Velocity P-wave (km/s) = 6.57985 7.29091 6.94449
#
# Compressibility (1/GPa) = 0.01423458
#
# Stress axis : x y z
#
# Youngs Moduli (GPa) = 175.97553 82.23008 148.76094
#
# Poissons Ratio (x) = 0.19138 0.19676
# Poissons Ratio (y) = 0.40955 0.22546
# Poissons Ratio (z) = 0.23276 0.12463
#
# Static dielectric constant tensor:
#      x y z
#    x 2.188170 0.000000 0.028870 
#    y 0.000000 2.128610 0.000000 
#    z 0.028870 0.000000 2.142870 
# 
# From -- ./inp_files/42370.got.cif
#   From: 2010.05.17/outbox.cif.g08.bks.cpg/sg14_22_cif.got.tgz:42370.got - 2010.06.03 17:49:19.
