data_PCOD9249470
_publ_section_title
;
Structure prediction by ZEFSAII (Michael W. Deem and Ramdas Pophale) SiO2 
 PCOD9249470
Probable space group: P 21/C
;
_chemical_formula_sum "Si O2"
_cell_formula_units_Z 20
_cell_length_a 5.029490
_cell_length_b 15.000199
_cell_length_c 10.620529
_cell_angle_alpha 90.000000
_cell_angle_beta 74.308425
_cell_angle_gamma 90.000000
_cell_volume 771.386995
_symmetry_space_group_name_H-M "P 21/C"
_symmetry_group_IT_number 14
_symmetry_cell_setting 'monoclinic'
loop_
_space_group_symop_operation_xyz
x,y,z
-x,1/2+y,1/2-z
-x,-y,-z
x,1/2-y,1/2+z
loop_
_atom_site_type_symbol
_atom_site_label
_atom_site_fract_x
_atom_site_fract_y
_atom_site_fract_z
Si Si1 0.399107 0.478235 0.709169
Si Si2 0.712757 0.327878 0.804352
Si Si3 0.190156 0.415760 0.494974
Si Si4 0.204313 0.209265 0.779413
Si Si5 0.609026 0.416988 0.067277
O O1 0.646100 0.420043 0.738891
O O2 0.244343 0.411219 0.636089
O O3 0.519030 0.556308 0.605957
O O4 0.235691 0.530754 0.838999
O O5 0.432077 0.274368 0.811202
O O6 0.958008 0.260068 0.740638
O O7 0.752247 0.354229 0.946158
O O8 0.079542 0.339478 0.418914
O O9 0.000000 0.500000 0.500000
O O10 0.367555 0.140839 0.666330
O O11 0.500000 0.500000 0.000000
#
# Coordination Sequence:
#
# PCOD9249470 Si02
#       5
#     4   4   4   4   4
#     4   9  22  45  68  99 137 193 239 286 359 436
#     4  11  26  46  71 105 145 184 237 308 365 432
#     4  10  23  41  69  97 138 188 237 290 348 434
#     4  11  27  44  71 107 145 187 240 304 369 431
#     4   9  22  50  72 105 144 197 244 300 367 450
#
# _framework density 25.927320999999999
#
# number of rings (size 3 to 8) (size 9 to 14) (size 15 to 20)
#    0.000    2.000    0.000    0.000   14.000    1.600 
#    3.600    4.000    0.000    0.000    0.000    0.000 
#    0.000    0.000    0.000    0.000    0.000    0.000 
#
# Total GULP energy -111728.688688 kJ/mol
# GULP energy per Si atom -5586.434434 kJ/mol
# Density = 2.586831 g / cm^3
# Si number density = 25.927321 Si / 1000 Ang^3
#
#
#
# Elastic Constant Matrix: (Units=GPa)
#
#
# Indices 1 2 3 4 5 6 
#
# 1 79.4398 26.0036 19.1051 0.0000 10.0137 0.0000
# 2 26.0036 104.3910 44.3653 0.0000 -4.6031 0.0000
# 3 19.1051 44.3653 133.8632 0.0000 25.1909 0.0000
# 4 0.0000 0.0000 0.0000 59.2528 0.0000 -13.0507
# 5 10.0137 -4.6031 25.1909 0.0000 21.3261 0.0000
# 6 0.0000 0.0000 0.0000 -13.0507 0.0000 42.1566
#
#
#
# Elastic Compliance Matrix: (Units=1/GPa)
#
#
# Indices 1 2 3 4 5 6 
#
# 1 0.015021 -0.004660 0.001179 0.000000 -0.009452 0.000000
# 2 -0.004660 0.014013 -0.006378 0.000000 0.012746 0.000000
# 3 0.001179 -0.006378 0.012574 0.000000 -0.016783 0.000000
# 4 0.000000 0.000000 0.000000 0.018112 0.000000 0.005607
# 5 -0.009452 0.012746 -0.016783 0.000000 0.073905 0.000000
# 6 0.000000 0.000000 0.000000 0.005607 0.000000 0.025457
#
#
# Mechanical properties :
#
#
# Convention : Reuss Voigt Hill
#
# Bulk Modulus (GPa) = 45.67972 55.18243 50.43107
# Shear Modulus (GPa) = 26.86807 39.76177 33.31492
#
# Velocity S-wave (km/s) = 3.22263 3.92035 3.58849
# Velocity P-wave (km/s) = 5.61282 6.46699 6.05498
#
# Compressibility (1/GPa) = 0.02189155
#
# Stress axis : x y z
#
# Youngs Moduli (GPa) = 66.57220 71.36463 79.52923
#
# Poissons Ratio (x) = 0.33254 -0.09378
# Poissons Ratio (y) = 0.31020 0.50721
# Poissons Ratio (z) = -0.07850 0.45514
#
# Static dielectric constant tensor:
#      x y z
#    x 2.054750 0.000000 -0.026520 
#    y 0.000000 2.046800 0.000000 
#    z -0.026520 0.000000 2.135390 
# 
# From -- ./inp_files/20747.got.cif
#   From: 2010.05.17/outbox.cif.g08.bks.cpg/sg14_11_cif.got.tgz:20747.got - 2010.06.03 17:49:19.
