data_PCOD9249399
_publ_section_title
;
Structure prediction by ZEFSAII (Michael W. Deem and Ramdas Pophale) SiO2 
 PCOD9249399
Probable space group: P 21/C
;
_chemical_formula_sum "Si O2"
_cell_formula_units_Z 24
_cell_length_a 10.550732
_cell_length_b 10.536308
_cell_length_c 18.733759
_cell_angle_alpha 90.000000
_cell_angle_beta 150.711032
_cell_angle_gamma 90.000000
_cell_volume 1018.814989
_symmetry_space_group_name_H-M "P 21/C"
_symmetry_group_IT_number 14
_symmetry_cell_setting 'monoclinic'
loop_
_space_group_symop_operation_xyz
x,y,z
-x,1/2+y,1/2-z
-x,-y,-z
x,1/2-y,1/2+z
loop_
_atom_site_type_symbol
_atom_site_label
_atom_site_fract_x
_atom_site_fract_y
_atom_site_fract_z
Si Si1 0.503821 0.986267 0.842185
Si Si2 0.829507 0.874299 0.417875
Si Si3 0.416750 0.268886 0.060470
Si Si4 0.029590 0.599154 0.335354
Si Si5 0.081399 0.841537 0.270467
Si Si6 0.827247 0.607834 0.379801
O O1 0.338671 0.104126 0.735732
O O2 0.420712 0.861815 0.844431
O O3 0.571408 0.916177 0.799900
O O4 0.730659 0.047799 0.000244
O O5 0.665759 0.848313 0.409747
O O6 0.961873 0.739274 0.468788
O O7 0.000000 0.000000 0.500000
O O8 0.625179 0.341727 0.115313
O O9 0.146613 0.217608 0.893230
O O10 0.988375 0.490522 0.255277
O O11 0.804129 0.596414 0.284208
O O12 0.072830 0.740757 0.329926
O O13 0.000000 0.500000 0.500000
#
# Coordination Sequence:
#
# PCOD9249399 Si02
#       6
#     4   4   4   4   4   4
#     4   9  20  38  63  92 125 165 212 275 340 398
#     4  11  22  37  68 101 126 168 228 284 333 406
#     4  10  23  42  64  95 136 173 214 275 346 398
#     4  10  23  41  63  90 127 174 222 271 335 400
#     4  11  24  43  65  90 130 177 220 271 331 410
#     4   9  20  40  62  89 127 165 210 277 345 394
#
# _framework density 23.556778999999999
#
# number of rings (size 3 to 8) (size 9 to 14) (size 15 to 20)
#    0.000    2.000    0.000    3.000    0.000   15.333 
#    0.000    0.000    0.000    0.000    0.000    0.000 
#    0.000    0.000    0.000    0.000    0.000    0.000 
#
# Total GULP energy -133652.416064 kJ/mol
# GULP energy per Si atom -5568.850669 kJ/mol
# Density = 2.350316 g / cm^3
# Si number density = 23.556779 Si / 1000 Ang^3
#
#
#
# Elastic Constant Matrix: (Units=GPa)
#
#
# Indices 1 2 3 4 5 6 
#
# 1 59.5094 51.7787 8.9203 0.0000 -7.0696 0.0000
# 2 51.7787 145.9727 11.2164 0.0000 -6.4627 0.0000
# 3 8.9203 11.2164 41.8833 0.0000 4.6418 0.0000
# 4 0.0000 0.0000 0.0000 34.1563 0.0000 -6.3557
# 5 -7.0696 -6.4627 4.6418 0.0000 21.7713 0.0000
# 6 0.0000 0.0000 0.0000 -6.3557 0.0000 37.8002
#
#
#
# Elastic Compliance Matrix: (Units=1/GPa)
#
#
# Indices 1 2 3 4 5 6 
#
# 1 0.025543 -0.008467 -0.003905 0.000000 0.006613 0.000000
# 2 -0.008467 0.009941 -0.000902 0.000000 0.000394 0.000000
# 3 -0.003905 -0.000902 0.025727 0.000000 -0.007021 0.000000
# 4 0.000000 0.000000 0.000000 0.030223 0.000000 0.005082
# 5 0.006613 0.000394 -0.007021 0.000000 0.049693 0.000000
# 6 0.000000 0.000000 0.000000 0.005082 0.000000 0.027309
#
#
# Mechanical properties :
#
#
# Convention : Reuss Voigt Hill
#
# Bulk Modulus (GPa) = 28.85140 43.46625 36.15882
# Shear Modulus (GPa) = 24.20834 30.44223 27.32529
#
# Velocity S-wave (km/s) = 3.20919 3.59875 3.40954
# Velocity P-wave (km/s) = 5.09961 5.97994 5.55724
#
# Compressibility (1/GPa) = 0.03466036
#
# Stress axis : x y z
#
# Youngs Moduli (GPa) = 39.15030 100.59447 38.86897
#
# Poissons Ratio (x) = 0.85178 0.15180
# Poissons Ratio (y) = 0.33150 0.03508
# Poissons Ratio (z) = 0.15290 0.09078
#
# Static dielectric constant tensor:
#      x y z
#    x 2.197140 0.000000 0.202310 
#    y 0.000000 1.926600 0.000000 
#    z 0.202310 0.000000 2.145890 
# 
# From -- ./inp_files/35034.got.cif
#   From: 2010.05.17/outbox.cif.g08.bks.cpg/sg14_18_cif.got.tgz:35034.got - 2010.06.03 17:49:19.
