data_PCOD9249002
_publ_section_title
;
Structure prediction by ZEFSAII (Michael W. Deem and Ramdas Pophale) SiO2 
 PCOD9249002
Probable space group: P 21/C
;
_chemical_formula_sum "Si O2"
_cell_formula_units_Z 16
_cell_length_a 14.232390
_cell_length_b 4.919442
_cell_length_c 26.724961
_cell_angle_alpha 90.000000
_cell_angle_beta 161.694463
_cell_angle_gamma 90.000000
_cell_volume 587.701580
_symmetry_space_group_name_H-M "P 21/C"
_symmetry_group_IT_number 14
_symmetry_cell_setting 'monoclinic'
loop_
_space_group_symop_operation_xyz
x,y,z
-x,1/2+y,1/2-z
-x,-y,-z
x,1/2-y,1/2+z
loop_
_atom_site_type_symbol
_atom_site_label
_atom_site_fract_x
_atom_site_fract_y
_atom_site_fract_z
Si Si1 0.456288 0.013386 0.892135
Si Si2 0.200848 0.698202 0.845148
Si Si3 0.498426 0.021943 0.715375
Si Si4 0.029759 0.668247 0.417143
O O1 0.591388 0.193342 0.005431
O O2 0.176763 0.159359 0.725093
O O3 0.344079 0.743636 0.863146
O O4 0.077461 0.095858 0.294093
O O5 0.725441 0.509621 0.488811
O O6 0.552416 0.823682 0.790307
O O7 0.792987 0.000288 0.830155
O O8 0.219719 0.883217 0.546180
#
# Coordination Sequence:
#
# PCOD9249002 Si02
#       4
#     4   4   4   4
#     4  10  22  45  69 106 138 186 229 288 339 403
#     4  11  24  47  70  99 146 187 236 281 342 407
#     4  11  24  47  71 100 138 180 225 288 361 411
#     4  10  22  46  70 106 138 180 236 286 338 428
#
# _framework density 27.224699999999999
#
# number of rings (size 3 to 8) (size 9 to 14) (size 15 to 20)
#    0.000    1.500    2.500    1.500    0.000    4.000 
#   18.000    0.000    0.000    0.000    0.000    0.000 
#    0.000    0.000    0.000    0.000    0.000    0.000 
#
# Total GULP energy -89964.997973 kJ/mol
# GULP energy per Si atom -5622.812373 kJ/mol
# Density = 2.716274 g / cm^3
# Si number density = 27.224700 Si / 1000 Ang^3
#
#
#
# Elastic Constant Matrix: (Units=GPa)
#
#
# Indices 1 2 3 4 5 6 
#
# 1 179.4844 33.1049 47.5795 0.0000 26.5597 0.0000
# 2 33.1049 85.3752 7.2828 0.0000 18.3704 0.0000
# 3 47.5795 7.2828 142.7402 0.0001 -7.3669 0.0000
# 4 0.0000 0.0000 0.0001 34.4021 0.0000 -6.8094
# 5 26.5597 18.3704 -7.3669 0.0000 54.8806 0.0000
# 6 0.0000 0.0000 0.0000 -6.8094 0.0000 -1.9589
#
#
#
# Elastic Compliance Matrix: (Units=1/GPa)
#
#
# Indices 1 2 3 4 5 6 
#
# 1 0.007007 -0.001846 -0.002401 0.000000 -0.003095 0.000000
# 2 -0.001846 0.013216 -0.000243 0.000000 -0.003563 0.000000
# 3 -0.002401 -0.000243 0.007938 0.000000 0.002309 0.000000
# 4 0.000000 0.000000 0.000000 0.017220 0.000000 -0.059859
# 5 -0.003095 -0.003563 0.002309 0.000000 0.021222 0.000000
# 6 0.000000 0.000000 0.000000 -0.059859 0.000000 -0.302413
#
#
# Mechanical properties :
#
#
# Convention : Reuss Voigt Hill
#
# Bulk Modulus (GPa) = 52.13625 64.83712 58.48668
# Shear Modulus (GPa) = -22.68211 38.77363 8.04576
#
# Velocity S-wave (km/s) = -2.88956 3.77796 1.72097
# Velocity P-wave (km/s) = 2.83888 6.54965 5.04763
#
# Compressibility (1/GPa) = 0.01918051
#
# Stress axis : x y z
#
# Youngs Moduli (GPa) = 142.72441 75.66464 125.98241
#
# Poissons Ratio (x) = 0.13968 0.30249
# Poissons Ratio (y) = 0.26347 0.03060
# Poissons Ratio (z) = 0.34269 0.01838
#
# Static dielectric constant tensor:
#      x y z
#    x 2.129500 0.000000 -0.007000 
#    y 0.000000 2.038200 0.000000 
#    z -0.007000 0.000000 2.099470 
# 
# From -- ./inp_files/17325.got.cif
#   From: 2010.05.17/outbox.cif.g08.bks.cpg/sg14_9_cif.got.tgz:17325.got - 2010.06.03 17:49:19.
