data_PCOD9249130
_publ_section_title
;
Structure prediction by ZEFSAII (Michael W. Deem and Ramdas Pophale) SiO2 
 PCOD9249130
Probable space group: P 21/C
;
_chemical_formula_sum "Si O2"
_cell_formula_units_Z 28
_cell_length_a 5.948370
_cell_length_b 11.380727
_cell_length_c 18.997281
_cell_angle_alpha 90.000000
_cell_angle_beta 62.559114
_cell_angle_gamma 90.000000
_cell_volume 1141.356486
_symmetry_space_group_name_H-M "P 21/C"
_symmetry_group_IT_number 14
_symmetry_cell_setting 'monoclinic'
loop_
_space_group_symop_operation_xyz
x,y,z
-x,1/2+y,1/2-z
-x,-y,-z
x,1/2-y,1/2+z
loop_
_atom_site_type_symbol
_atom_site_label
_atom_site_fract_x
_atom_site_fract_y
_atom_site_fract_z
Si Si1 0.609004 0.309463 0.906500
Si Si2 0.794897 0.847612 0.289096
Si Si3 0.467229 0.383413 0.663365
Si Si4 0.820945 0.222288 0.004397
Si Si5 0.671514 0.863895 0.139771
Si Si6 0.686516 0.032697 0.568124
Si Si7 0.103253 0.035997 0.318178
O O1 0.511602 0.243092 0.852217
O O2 0.409171 0.412792 0.953970
O O3 0.880107 0.367792 0.849774
O O4 0.628015 0.213324 0.966155
O O5 0.759386 0.711823 0.320694
O O6 0.745725 0.861743 0.212137
O O7 0.570155 0.912711 0.363174
O O8 0.034238 0.925561 0.277965
O O9 0.710381 0.319127 0.594926
O O10 0.536471 0.516982 0.632835
O O11 0.372348 0.409791 0.755993
O O12 0.823700 0.363533 0.007188
O O13 0.077003 0.161741 0.942773
O O14 0.860508 0.010857 0.609773
#
# Coordination Sequence:
#
# PCOD9249130 Si02
#       7
#     4   4   4   4   4   4   4
#     4  11  25  44  73 104 143 188 242 294 353 419
#     4  10  24  44  71 102 134 185 240 296 355 419
#     4  11  25  46  69 103 143 183 233 291 364 420
#     4  11  26  45  69 105 151 190 229 288 367 434
#     4  12  26  45  69 105 147 189 235 295 357 432
#     4  10  22  46  73 103 138 186 243 296 347 416
#     4  11  24  46  77 104 133 187 249 303 342 419
#
# _framework density 24.532211
#
# number of rings (size 3 to 8) (size 9 to 14) (size 15 to 20)
#    0.000    1.143    1.429    3.429    6.000    6.286 
#    5.143    0.000    0.000    0.000    0.000    0.000 
#    0.000    0.000    0.000    0.000    0.000    0.000 
#
# Total GULP energy -156095.426119 kJ/mol
# GULP energy per Si atom -5574.836647 kJ/mol
# Density = 2.447638 g / cm^3
# Si number density = 24.532211 Si / 1000 Ang^3
#
#
#
# Elastic Constant Matrix: (Units=GPa)
#
#
# Indices 1 2 3 4 5 6 
#
# 1 71.4745 34.1284 25.3849 0.0000 5.5399 0.0000
# 2 34.1284 135.2376 30.7982 0.0000 -8.4636 0.0000
# 3 25.3849 30.7982 111.7390 0.0000 -24.7287 0.0000
# 4 0.0000 0.0000 0.0000 34.0455 0.0000 2.5853
# 5 5.5399 -8.4636 -24.7287 0.0000 31.5497 0.0000
# 6 0.0000 0.0000 0.0000 2.5853 0.0000 20.4318
#
#
#
# Elastic Compliance Matrix: (Units=1/GPa)
#
#
# Indices 1 2 3 4 5 6 
#
# 1 0.018243 -0.004010 -0.004823 0.000000 -0.008059 0.000000
# 2 -0.004010 0.008777 -0.001006 0.000000 0.002270 0.000000
# 3 -0.004823 -0.001006 0.012643 0.000000 0.010487 0.000000
# 4 0.000000 0.000000 0.000000 0.029657 0.000000 -0.003753
# 5 -0.008059 0.002270 0.010487 0.000000 0.041940 0.000000
# 6 0.000000 0.000000 0.000000 -0.003753 0.000000 0.049418
#
#
# Mechanical properties :
#
#
# Convention : Reuss Voigt Hill
#
# Bulk Modulus (GPa) = 50.03353 55.45269 52.74311
# Shear Modulus (GPa) = 26.73531 32.41470 29.57501
#
# Velocity S-wave (km/s) = 3.30480 3.63893 3.47588
# Velocity P-wave (km/s) = 5.91621 6.34892 6.13638
#
# Compressibility (1/GPa) = 0.01998660
#
# Stress axis : x y z
#
# Youngs Moduli (GPa) = 54.81487 113.92789 79.09431
#
# Poissons Ratio (x) = 0.45684 0.38146
# Poissons Ratio (y) = 0.21980 0.07956
# Poissons Ratio (z) = 0.26436 0.11460
#
# Static dielectric constant tensor:
#      x y z
#    x 2.002230 0.000000 -0.015600 
#    y 0.000000 2.019790 0.000000 
#    z -0.015600 0.000000 1.968090 
# 
# From -- ./inp_files/63426.got.cif
#   From: 2010.05.17/outbox.cif.g08.bks.cpg/sg14_32_cif.got.tgz:63426.got - 2010.06.03 17:49:19.
