data_PCOD9249777
_publ_section_title
;
Structure prediction by ZEFSAII (Michael W. Deem and Ramdas Pophale) SiO2 
 PCOD9249777
Probable space group: P 21/C
;
_chemical_formula_sum "Si O2"
_cell_formula_units_Z 20
_cell_length_a 8.566615
_cell_length_b 9.375608
_cell_length_c 9.503362
_cell_angle_alpha 90.000000
_cell_angle_beta 78.712774
_cell_angle_gamma 90.000000
_cell_volume 748.520468
_symmetry_space_group_name_H-M "P 21/C"
_symmetry_group_IT_number 14
_symmetry_cell_setting 'monoclinic'
loop_
_space_group_symop_operation_xyz
x,y,z
-x,1/2+y,1/2-z
-x,-y,-z
x,1/2-y,1/2+z
loop_
_atom_site_type_symbol
_atom_site_label
_atom_site_fract_x
_atom_site_fract_y
_atom_site_fract_z
Si Si1 0.691039 0.659845 0.720963
Si Si2 0.751526 0.244808 0.270696
Si Si3 0.821867 0.049827 0.991548
Si Si4 0.561774 0.928202 0.656186
Si Si5 0.138353 0.497025 0.086590
O O1 0.726094 0.590073 0.562293
O O2 0.659177 0.825167 0.741354
O O3 0.533048 0.569822 0.788491
O O4 0.838812 0.618711 0.794841
O O5 0.771169 0.184661 0.106112
O O6 0.784783 0.396721 0.338921
O O7 0.580053 0.184624 0.352665
O O8 0.875339 0.143888 0.328883
O O9 0.000000 0.000000 0.000000
O O10 0.695136 0.974778 0.523561
O O11 0.000000 0.500000 0.000000
#
# Coordination Sequence:
#
# PCOD9249777 Si02
#       5
#     4   4   4   4   4
#     4  10  24  46  69 104 143 193 243 305 363 448
#     4  10  24  45  75  97 149 196 242 308 368 440
#     4  10  24  46  69 108 149 188 253 304 374 441
#     4  10  23  44  72  99 143 187 253 291 375 435
#     4  10  23  43  69  98 141 193 235 301 379 436
#
# _framework density 26.719374999999999
#
# number of rings (size 3 to 8) (size 9 to 14) (size 15 to 20)
#    0.000    2.400    0.000    2.400   14.000    4.000 
#    3.600    0.000    0.000    0.000    0.000    0.000 
#    0.000    0.000    0.000    0.000    0.000    0.000 
#
# Total GULP energy -111557.382280 kJ/mol
# GULP energy per Si atom -5577.869114 kJ/mol
# Density = 2.665856 g / cm^3
# Si number density = 26.719375 Si / 1000 Ang^3
#
#
#
# Elastic Constant Matrix: (Units=GPa)
#
#
# Indices 1 2 3 4 5 6 
#
# 1 75.9372 49.2600 41.9240 0.0000 -16.3704 0.0000
# 2 49.2600 149.0089 49.7120 0.0000 25.9043 0.0000
# 3 41.9240 49.7120 93.5249 0.0000 7.3493 0.0000
# 4 0.0000 0.0000 0.0000 53.5706 0.0000 14.1067
# 5 -16.3704 25.9043 7.3493 0.0000 50.3564 0.0000
# 6 0.0000 0.0000 0.0000 14.1067 0.0000 25.0098
#
#
#
# Elastic Compliance Matrix: (Units=1/GPa)
#
#
# Indices 1 2 3 4 5 6 
#
# 1 0.026243 -0.008293 -0.008459 0.000000 0.014032 0.000000
# 2 -0.008293 0.011481 -0.001729 0.000000 -0.008350 0.000000
# 3 -0.008459 -0.001729 0.015730 0.000000 -0.004156 0.000000
# 4 0.000000 0.000000 0.000000 0.021923 0.000000 -0.012366
# 5 0.014032 -0.008350 -0.004156 0.000000 0.029322 0.000000
# 6 0.000000 0.000000 0.000000 -0.012366 0.000000 0.046959
#
#
# Mechanical properties :
#
#
# Convention : Reuss Voigt Hill
#
# Bulk Modulus (GPa) = 60.63277 66.69589 63.66433
# Shear Modulus (GPa) = 25.75766 37.62571 31.69169
#
# Velocity S-wave (km/s) = 3.10821 3.75664 3.44771
# Velocity P-wave (km/s) = 5.96850 6.62060 6.30299
#
# Compressibility (1/GPa) = 0.01649273
#
# Stress axis : x y z
#
# Youngs Moduli (GPa) = 38.10483 87.10112 63.57442
#
# Poissons Ratio (x) = 0.72234 0.53775
# Poissons Ratio (y) = 0.31601 0.10991
# Poissons Ratio (z) = 0.32231 0.15059
#
# Static dielectric constant tensor:
#      x y z
#    x 2.145890 0.000000 0.007310 
#    y 0.000000 2.133960 0.000000 
#    z 0.007310 0.000000 2.245220 
# 
# From -- ./inp_files/7839.got.cif
#   From: 2010.05.17/outbox.cif.g08.bks.cpg/sg14_4_cif.got.tgz:7839.got - 2010.06.03 17:49:19.
