data_PCOD9249282
_publ_section_title
;
Structure prediction by ZEFSAII (Michael W. Deem and Ramdas Pophale) SiO2 
 PCOD9249282
Probable space group: P 21/C
;
_chemical_formula_sum "Si O2"
_cell_formula_units_Z 32
_cell_length_a 19.398718
_cell_length_b 15.409935
_cell_length_c 13.069362
_cell_angle_alpha 90.000000
_cell_angle_beta 159.360656
_cell_angle_gamma 90.000000
_cell_volume 1377.108162
_symmetry_space_group_name_H-M "P 21/C"
_symmetry_group_IT_number 14
_symmetry_cell_setting 'monoclinic'
loop_
_space_group_symop_operation_xyz
x,y,z
-x,1/2+y,1/2-z
-x,-y,-z
x,1/2-y,1/2+z
loop_
_atom_site_type_symbol
_atom_site_label
_atom_site_fract_x
_atom_site_fract_y
_atom_site_fract_z
Si Si1 0.663668 0.628267 0.342875
Si Si2 0.909681 0.617412 0.481476
Si Si3 0.076420 0.523505 0.218812
Si Si4 0.629024 0.344651 0.909083
Si Si5 0.732294 0.332133 0.608114
Si Si6 0.503537 0.506655 0.626657
Si Si7 0.066347 0.272655 0.682191
Si Si8 0.933917 0.950295 0.733268
O O1 0.746082 0.537726 0.501383
O O2 0.438351 0.632319 0.067000
O O3 0.776244 0.705705 0.557430
O O4 0.751730 0.636901 0.351001
O O5 0.924105 0.512489 0.504405
O O6 0.859046 0.672663 0.311902
O O7 0.145895 0.640802 0.816773
O O8 0.135664 0.622972 0.294047
O O9 0.934112 0.514644 0.117037
O O10 0.000000 0.500000 0.000000
O O11 0.489467 0.407471 0.648651
O O12 0.603440 0.241031 0.874939
O O13 0.632640 0.414546 0.524280
O O14 0.876179 0.282343 0.885668
O O15 0.500000 0.500000 0.500000
O O16 0.712956 0.536444 0.961026
O O17 0.015979 0.349675 0.690301
#
# Coordination Sequence:
#
# PCOD9249282 Si02
#       8
#     4   4   4   4   4   4   4   4
#     4  11  22  40  65  93 128 172 222 271 331 397
#     4   9  23  44  64  91 133 175 217 274 338 398
#     4  11  21  39  64  93 127 169 218 274 327 391
#     4  10  23  42  64  96 136 170 222 283 328 407
#     4  11  23  40  64  95 135 171 222 280 337 398
#     4  11  23  41  67  97 136 175 226 285 341 396
#     4  11  23  38  67  94 132 170 224 275 331 407
#     4  10  23  39  67  92 127 178 218 268 341 400
#
# _framework density 23.237100999999999
#
# number of rings (size 3 to 8) (size 9 to 14) (size 15 to 20)
#    0.000    1.500    2.500    1.875    7.000    0.000 
#    2.250    0.000    5.500    7.500    0.000    0.000 
#    0.000    0.000    0.000    0.000    0.000    0.000 
#
# Total GULP energy -178294.255762 kJ/mol
# GULP energy per Si atom -5571.695493 kJ/mol
# Density = 2.318421 g / cm^3
# Si number density = 23.237101 Si / 1000 Ang^3
#
#
#
# Elastic Constant Matrix: (Units=GPa)
#
#
# Indices 1 2 3 4 5 6 
#
# 1 124.0950 18.4661 15.2754 0.0000 3.7534 0.0000
# 2 18.4661 147.7024 30.3476 0.0000 -10.1730 0.0000
# 3 15.2754 30.3476 29.9305 0.0000 11.1224 0.0000
# 4 0.0000 0.0000 0.0000 41.9980 0.0000 -0.9814
# 5 3.7534 -10.1730 11.1224 0.0000 25.9171 0.0000
# 6 0.0000 0.0000 0.0000 -0.9814 0.0000 34.7353
#
#
#
# Elastic Compliance Matrix: (Units=1/GPa)
#
#
# Indices 1 2 3 4 5 6 
#
# 1 0.008612 -0.000097 -0.004543 0.000000 0.000664 0.000000
# 2 -0.000097 0.010438 -0.014351 0.000000 0.010270 0.000000
# 3 -0.004543 -0.014351 0.062019 0.000000 -0.031591 0.000000
# 4 0.000000 0.000000 0.000000 0.023826 0.000000 0.000673
# 5 0.000664 0.010270 -0.031591 0.000000 0.056077 0.000000
# 6 0.000000 0.000000 0.000000 0.000673 0.000000 0.028808
#
#
# Mechanical properties :
#
#
# Convention : Reuss Voigt Hill
#
# Bulk Modulus (GPa) = 23.20877 47.76733 35.48805
# Shear Modulus (GPa) = 20.65040 36.37268 28.51154
#
# Velocity S-wave (km/s) = 2.98431 3.96066 3.50663
# Velocity P-wave (km/s) = 4.67807 6.44336 5.63033
#
# Compressibility (1/GPa) = 0.04308717
#
# Stress axis : x y z
#
# Youngs Moduli (GPa) = 116.11706 95.79985 16.12402
#
# Poissons Ratio (x) = 0.00934 0.07326
# Poissons Ratio (y) = 0.01132 0.23139
# Poissons Ratio (z) = 0.52755 1.37478
#
# Static dielectric constant tensor:
#      x y z
#    x 2.087680 0.000000 0.207560 
#    y 0.000000 1.873790 0.000000 
#    z 0.207560 0.000000 2.108230 
# 
# From -- ./inp_files/50714.got.cif
#   From: 2010.05.17/outbox.cif.g08.bks.cpg/sg14_26_cif.got.tgz:50714.got - 2010.06.03 17:49:19.
