data_PCOD9249703
_publ_section_title
;
Structure prediction by ZEFSAII (Michael W. Deem and Ramdas Pophale) SiO2 
 PCOD9249703
Probable space group: P 21/C
;
_chemical_formula_sum "Si O2"
_cell_formula_units_Z 20
_cell_length_a 10.553600
_cell_length_b 8.609793
_cell_length_c 9.171487
_cell_angle_alpha 90.000000
_cell_angle_beta 89.999855
_cell_angle_gamma 90.000000
_cell_volume 833.360851
_symmetry_space_group_name_H-M "P 21/C"
_symmetry_group_IT_number 14
_symmetry_cell_setting 'monoclinic'
loop_
_space_group_symop_operation_xyz
x,y,z
-x,1/2+y,1/2-z
-x,-y,-z
x,1/2-y,1/2+z
loop_
_atom_site_type_symbol
_atom_site_label
_atom_site_fract_x
_atom_site_fract_y
_atom_site_fract_z
Si Si1 0.901240 0.600084 0.596759
Si Si2 0.401241 0.899914 0.903242
Si Si3 0.014141 0.056182 0.336833
Si Si4 0.750000 0.000001 0.854194
Si Si5 0.485858 0.943819 0.336833
O O1 0.951639 0.763093 0.654450
O O2 0.790179 0.628333 0.476867
O O3 0.000000 0.500000 0.500000
O O4 0.893104 0.489779 0.738641
O O5 0.451639 0.736906 0.845550
O O6 0.393105 0.010220 0.761360
O O7 0.500000 0.000000 0.000000
O O8 0.290180 0.871664 0.023135
O O9 0.132971 0.975613 0.253942
O O10 0.000000 0.000000 0.500000
O O11 0.632972 0.975612 0.746057
O O12 0.500000 0.000000 0.500000
#
# Coordination Sequence:
#
# PCOD9249703 Si02
#       5
#     4   4   4   4   4
#     4  10  23  43  65  94 132 171 219 273 328 390
#     4  10  23  43  65  94 132 171 219 273 328 390
#     4  11  23  42  69  98 131 175 222 273 327 390
#     4  10  24  40  62  96 132 170 212 264 332 390
#     4  11  23  42  69  98 131 175 222 273 327 390
#
# _framework density 23.999206000000001
#
# number of rings (size 3 to 8) (size 9 to 14) (size 15 to 20)
#    0.000    1.600    0.000    4.800    0.000   14.400 
#    0.000    0.000    0.000    0.000    0.000    0.000 
#    0.000    0.000    0.000    0.000    0.000    0.000 
#
# Total GULP energy -111360.302324 kJ/mol
# GULP energy per Si atom -5568.015116 kJ/mol
# Density = 2.394458 g / cm^3
# Si number density = 23.999206 Si / 1000 Ang^3
#
#
#
# Elastic Constant Matrix: (Units=GPa)
#
#
# Indices 1 2 3 4 5 6 
#
# 1 111.1959 20.3458 65.3846 0.0000 0.0003 0.0000
# 2 20.3458 119.9549 41.4536 0.0000 0.0007 0.0000
# 3 65.3846 41.4536 243.1521 0.0000 0.0003 0.0000
# 4 0.0000 0.0000 0.0000 41.1096 0.0000 -0.0001
# 5 0.0003 0.0007 0.0003 0.0000 63.4711 0.0000
# 6 0.0000 0.0000 0.0000 -0.0001 0.0000 6.5436
#
#
#
# Elastic Compliance Matrix: (Units=1/GPa)
#
#
# Indices 1 2 3 4 5 6 
#
# 1 0.010768 -0.000877 -0.002746 0.000000 0.000000 0.000000
# 2 -0.000877 0.008930 -0.001286 0.000000 0.000000 0.000000
# 3 -0.002746 -0.001286 0.005070 0.000000 0.000000 0.000000
# 4 0.000000 0.000000 0.000000 0.024325 0.000000 0.000001
# 5 0.000000 0.000000 0.000000 0.000000 0.015755 0.000000
# 6 0.000000 0.000000 0.000000 0.000001 0.000000 0.152822
#
#
# Mechanical properties :
#
#
# Convention : Reuss Voigt Hill
#
# Bulk Modulus (GPa) = 66.89547 80.96343 73.92945
# Shear Modulus (GPa) = 21.50781 45.36611 33.43696
#
# Velocity S-wave (km/s) = 2.99689 4.35249 3.73668
# Velocity P-wave (km/s) = 6.31741 7.68557 7.03483
#
# Compressibility (1/GPa) = 0.01494870
#
# Stress axis : x y z
#
# Youngs Moduli (GPa) = 92.86411 111.98378 197.22295
#
# Poissons Ratio (x) = 0.09826 0.54159
# Poissons Ratio (y) = 0.08149 0.25372
# Poissons Ratio (z) = 0.25501 0.14406
#
# Static dielectric constant tensor:
#      x y z
#    x 2.334930 0.000000 0.000000 
#    y 0.000000 1.919720 0.000000 
#    z 0.000000 0.000000 1.904340 
# 
# From -- ./inp_files/11856.got.cif
#   From: 2010.05.17/outbox.cif.g08.bks.cpg/sg14_6_cif.got.tgz:11856.got - 2010.06.03 17:49:19.
