data_PCOD9249509
_publ_section_title
;
Structure prediction by ZEFSAII (Michael W. Deem and Ramdas Pophale) SiO2 
 PCOD9249509
Probable space group: P 21/C
;
_chemical_formula_sum "Si O2"
_cell_formula_units_Z 28
_cell_length_a 9.871143
_cell_length_b 13.465810
_cell_length_c 21.439598
_cell_angle_alpha 90.000000
_cell_angle_beta 153.205455
_cell_angle_gamma 90.000000
_cell_volume 1284.675084
_symmetry_space_group_name_H-M "P 21/C"
_symmetry_group_IT_number 14
_symmetry_cell_setting 'monoclinic'
loop_
_space_group_symop_operation_xyz
x,y,z
-x,1/2+y,1/2-z
-x,-y,-z
x,1/2-y,1/2+z
loop_
_atom_site_type_symbol
_atom_site_label
_atom_site_fract_x
_atom_site_fract_y
_atom_site_fract_z
Si Si1 0.605458 0.371120 0.710038
Si Si2 0.915745 0.143382 0.969327
Si Si3 0.824547 0.365269 0.934969
Si Si4 0.469436 0.435125 0.178874
Si Si5 0.333359 0.524574 0.523250
Si Si6 0.270036 0.153043 0.901389
Si Si7 0.373976 0.803393 0.374388
O O1 0.805997 0.364032 0.852471
O O2 0.596109 0.477596 0.673924
O O3 0.701134 0.291109 0.699628
O O4 0.261531 0.347736 0.590007
O O5 0.791223 0.250814 0.939287
O O6 0.722173 0.102061 0.831435
O O7 0.888799 0.071663 0.017676
O O8 0.578042 0.447167 0.852344
O O9 0.159912 0.402415 0.085960
O O10 0.506017 0.382438 0.126888
O O11 0.469561 0.606525 0.533951
O O12 0.222430 0.430512 0.436515
O O13 0.952091 0.162403 0.735678
O O14 0.392331 0.256382 0.980692
#
# Coordination Sequence:
#
# PCOD9249509 Si02
#       7
#     4   4   4   4   4   4   4
#     4  11  21  37  68  93 124 163 208 262 323 380
#     4  12  21  40  63  97 125 169 205 261 333 378
#     4  11  22  36  55 100 130 157 195 257 336 370
#     4  11  22  36  59  95 133 159 198 265 326 373
#     4  10  23  42  63  92 127 168 219 264 295 398
#     4  10  24  44  67  88 122 177 224 251 307 372
#     4  11  20  41  66  91 122 172 213 254 311 395
#
# _framework density 21.795393000000001
#
# number of rings (size 3 to 8) (size 9 to 14) (size 15 to 20)
#    0.000    1.143    4.286    3.000    2.000    0.000 
#    5.143    1.429    0.000    9.429    0.000    0.000 
#    0.000    0.000    0.000    0.000    0.000    0.000 
#
# Total GULP energy -156337.139112 kJ/mol
# GULP energy per Si atom -5583.469254 kJ/mol
# Density = 2.174579 g / cm^3
# Si number density = 21.795393 Si / 1000 Ang^3
#
#
#
# Elastic Constant Matrix: (Units=GPa)
#
#
# Indices 1 2 3 4 5 6 
#
# 1 32.3304 7.0178 0.5890 0.0000 6.4282 0.0000
# 2 7.0178 113.6906 16.3490 0.0000 5.8182 0.0000
# 3 0.5890 16.3490 94.7953 0.0000 18.3428 0.0000
# 4 0.0000 0.0000 0.0000 13.7013 0.0000 1.2413
# 5 6.4282 5.8182 18.3428 0.0000 18.7568 0.0000
# 6 0.0000 0.0000 0.0000 1.2413 0.0000 36.9408
#
#
#
# Elastic Compliance Matrix: (Units=1/GPa)
#
#
# Indices 1 2 3 4 5 6 
#
# 1 0.034015 -0.001791 0.002770 0.000000 -0.013811 0.000000
# 2 -0.001791 0.009152 -0.001402 0.000000 -0.000854 0.000000
# 3 0.002770 -0.001402 0.013411 0.000000 -0.013629 0.000000
# 4 0.000000 0.000000 0.000000 0.073208 0.000000 -0.002460
# 5 -0.013811 -0.000854 -0.013629 0.000000 0.071641 0.000000
# 6 0.000000 0.000000 0.000000 -0.002460 0.000000 0.027153
#
#
# Mechanical properties :
#
#
# Convention : Reuss Voigt Hill
#
# Bulk Modulus (GPa) = 17.94334 32.08087 25.01210
# Shear Modulus (GPa) = 20.16105 28.33716 24.24911
#
# Velocity S-wave (km/s) = 3.04470 3.60966 3.33915
# Velocity P-wave (km/s) = 4.53991 5.66780 5.13492
#
# Compressibility (1/GPa) = 0.05573098
#
# Stress axis : x y z
#
# Youngs Moduli (GPa) = 29.39886 109.26963 74.56616
#
# Poissons Ratio (x) = 0.19572 -0.20654
# Poissons Ratio (y) = 0.05266 0.10454
# Poissons Ratio (z) = -0.08143 0.15320
#
# Static dielectric constant tensor:
#      x y z
#    x 1.784750 0.000000 0.007720 
#    y 0.000000 1.883610 0.000000 
#    z 0.007720 0.000000 1.814280 
# 
# From -- ./inp_files/65884.got.cif
#   From: 2010.05.17/outbox.cif.g08.bks.cpg/sg14_33_cif.got.tgz:65884.got - 2010.06.03 17:49:19.
