data_PCOD9249171
_publ_section_title
;
Structure prediction by ZEFSAII (Michael W. Deem and Ramdas Pophale) SiO2 
 PCOD9249171
Probable space group: P 21/C
;
_chemical_formula_sum "Si O2"
_cell_formula_units_Z 28
_cell_length_a 18.438299
_cell_length_b 5.717979
_cell_length_c 10.864899
_cell_angle_alpha 90.000000
_cell_angle_beta 74.665981
_cell_angle_gamma 90.000000
_cell_volume 1104.705621
_symmetry_space_group_name_H-M "P 21/C"
_symmetry_group_IT_number 14
_symmetry_cell_setting 'monoclinic'
loop_
_space_group_symop_operation_xyz
x,y,z
-x,1/2+y,1/2-z
-x,-y,-z
x,1/2-y,1/2+z
loop_
_atom_site_type_symbol
_atom_site_label
_atom_site_fract_x
_atom_site_fract_y
_atom_site_fract_z
Si Si1 0.477408 0.304599 0.606604
Si Si2 0.084427 0.399391 0.766962
Si Si3 0.378445 0.591785 0.831535
Si Si4 0.329872 0.193934 0.564307
Si Si5 0.950775 0.407728 0.637183
Si Si6 0.218567 0.578645 0.556499
Si Si7 0.253924 0.610934 0.266985
O O1 0.500000 0.500000 0.500000
O O2 0.422870 0.393765 0.738445
O O3 0.417741 0.153369 0.556115
O O4 0.554169 0.226826 0.633219
O O5 0.079973 0.636713 0.854482
O O6 0.148006 0.428235 0.634058
O O7 0.004437 0.390397 0.733408
O O8 0.099321 0.142886 0.818690
O O9 0.331375 0.748581 0.759294
O O10 0.320556 0.483364 0.955170
O O11 0.298458 0.441789 0.533018
O O12 0.281493 0.139867 0.707345
O O13 0.000000 0.500000 0.500000
O O14 0.211306 0.627816 0.415242
O O15 0.217926 0.776826 0.661588
#
# Coordination Sequence:
#
# PCOD9249171 Si02
#       7
#     4   4   4   4   4   4   4
#     4  12  23  40  65  96 128 179 236 301 375 442
#     4  10  25  43  73 110 147 193 251 293 373 431
#     4  12  23  43  65  96 134 182 239 305 369 449
#     4  12  25  46  68 101 138 184 239 302 372 449
#     4  10  22  47  72 111 149 195 243 304 353 439
#     4  12  28  46  74 106 144 196 238 307 371 447
#     4  12  26  49  68 102 145 184 246 301 371 449
#
# _framework density 25.346117
#
# number of rings (size 3 to 8) (size 9 to 14) (size 15 to 20)
#    0.000    0.571    2.857    5.143    4.000    0.000 
#    0.000    0.000    0.000    0.000    0.000    0.000 
#    0.000    0.000    0.000    0.000    0.000    0.000 
#
# Total GULP energy -156389.653034 kJ/mol
# GULP energy per Si atom -5585.344751 kJ/mol
# Density = 2.528843 g / cm^3
# Si number density = 25.346117 Si / 1000 Ang^3
#
#
#
# Elastic Constant Matrix: (Units=GPa)
#
#
# Indices 1 2 3 4 5 6 
#
# 1 55.9100 15.3388 6.3061 0.0000 1.4748 0.0000
# 2 15.3388 91.3762 40.5277 0.0000 11.2277 0.0000
# 3 6.3061 40.5277 154.0159 0.0000 -2.0671 0.0000
# 4 0.0000 0.0000 0.0000 52.0844 0.0000 -3.0425
# 5 1.4748 11.2277 -2.0671 0.0000 44.0039 0.0000
# 6 0.0000 0.0000 0.0000 -3.0425 0.0000 38.8122
#
#
#
# Elastic Compliance Matrix: (Units=1/GPa)
#
#
# Indices 1 2 3 4 5 6 
#
# 1 0.018752 -0.003206 0.000079 0.000000 0.000193 0.000000
# 2 -0.003206 0.013441 -0.003452 0.000000 -0.003484 0.000000
# 3 0.000079 -0.003452 0.007415 0.000000 0.001227 0.000000
# 4 0.000000 0.000000 0.000000 0.019288 0.000000 0.001512
# 5 0.000193 -0.003484 0.001227 0.000000 0.023665 0.000000
# 6 0.000000 0.000000 0.000000 0.001512 0.000000 0.025884
#
#
# Mechanical properties :
#
#
# Convention : Reuss Voigt Hill
#
# Bulk Modulus (GPa) = 37.81137 47.29415 42.55276
# Shear Modulus (GPa) = 38.33749 42.92207 40.62978
#
# Velocity S-wave (km/s) = 3.89338 4.11960 4.00809
# Velocity P-wave (km/s) = 5.92972 6.42869 6.18424
#
# Compressibility (1/GPa) = 0.02644707
#
# Stress axis : x y z
#
# Youngs Moduli (GPa) = 53.32883 74.39712 134.86978
#
# Poissons Ratio (x) = 0.23854 -0.01059
# Poissons Ratio (y) = 0.17099 0.46563
# Poissons Ratio (z) = -0.00419 0.25685
#
# Static dielectric constant tensor:
#      x y z
#    x 2.032370 0.000000 0.050460 
#    y 0.000000 2.128890 0.000000 
#    z 0.050460 0.000000 1.929690 
# 
# From -- ./inp_files/34704.got.cif
#   From: 2010.05.17/outbox.cif.g08.bks.cpg/sg14_18_cif.got.tgz:34704.got - 2010.06.03 17:49:19.
