data_PCOD9249829
_publ_section_title
;
Structure prediction by ZEFSAII (Michael W. Deem and Ramdas Pophale) SiO2 
 PCOD9249829
Probable space group: P 21/C
;
_chemical_formula_sum "Si O2"
_cell_formula_units_Z 32
_cell_length_a 14.326610
_cell_length_b 19.315473
_cell_length_c 9.238801
_cell_angle_alpha 90.000000
_cell_angle_beta 149.254591
_cell_angle_gamma 90.000000
_cell_volume 1307.000704
_symmetry_space_group_name_H-M "P 21/C"
_symmetry_group_IT_number 14
_symmetry_cell_setting 'monoclinic'
loop_
_space_group_symop_operation_xyz
x,y,z
-x,1/2+y,1/2-z
-x,-y,-z
x,1/2-y,1/2+z
loop_
_atom_site_type_symbol
_atom_site_label
_atom_site_fract_x
_atom_site_fract_y
_atom_site_fract_z
Si Si1 0.273876 0.662258 0.697354
Si Si2 0.926016 0.655402 0.694063
Si Si3 0.686293 0.884368 0.268470
Si Si4 0.555619 0.070215 0.323522
Si Si5 0.866820 0.020847 0.514190
Si Si6 0.043587 0.274708 0.564067
Si Si7 0.372540 0.565368 0.570051
Si Si8 0.630543 0.770859 0.659952
O O1 0.356483 0.617864 0.938858
O O2 0.414490 0.726943 0.868721
O O3 0.072997 0.683004 0.476409
O O4 0.297281 0.619441 0.583246
O O5 0.015945 0.696546 0.674785
O O6 0.714945 0.697002 0.810356
O O7 0.714779 0.672876 0.381676
O O8 0.982719 0.695662 0.915935
O O9 0.533945 0.903957 0.184830
O O10 0.966866 0.925839 0.244495
O O11 0.855956 0.937540 0.508872
O O12 0.587826 0.898198 0.982636
O O13 0.721208 0.044942 0.440803
O O14 0.459511 0.002152 0.259985
O O15 0.783094 0.040106 0.247041
O O16 0.261211 0.288971 0.843502
#
# Coordination Sequence:
#
# PCOD9249829 Si02
#       8
#     4   4   4   4   4   4   4   4
#     4  12  23  37  71  95 129 174 211 263 348 371
#     4  10  23  44  62  89 139 161 212 274 313 382
#     4   9  20  37  68  92 130 176 216 271 316 388
#     4   9  18  38  61  98 130 164 221 270 312 390
#     4   9  18  42  66  92 131 177 217 259 331 379
#     4  10  26  41  60  95 135 166 211 274 314 391
#     4   9  21  34  66 100 125 169 224 261 316 404
#     4  10  26  41  67  99 131 162 225 268 326 377
#
# _framework density 24.483537999999999
#
# number of rings (size 3 to 8) (size 9 to 14) (size 15 to 20)
#    0.750    1.500    1.250    1.875    8.750    0.000 
#    0.000    0.625    5.500    5.250    0.000    0.000 
#    0.000    0.000    0.000    0.000    0.000    0.000 
#
# Total GULP energy -178660.394497 kJ/mol
# GULP energy per Si atom -5583.137328 kJ/mol
# Density = 2.442781 g / cm^3
# Si number density = 24.483538 Si / 1000 Ang^3
#
#
#
# Elastic Constant Matrix: (Units=GPa)
#
#
# Indices 1 2 3 4 5 6 
#
# 1 135.6435 31.5622 22.7858 0.0000 -4.9479 0.0000
# 2 31.5622 74.0127 28.1977 0.0000 3.7419 0.0000
# 3 22.7858 28.1977 43.0685 0.0000 -0.0718 0.0000
# 4 0.0000 0.0000 0.0000 34.6432 0.0000 -1.9129
# 5 -4.9479 3.7419 -0.0718 0.0000 26.5541 0.0000
# 6 0.0000 0.0000 0.0000 -1.9129 0.0000 32.0803
#
#
#
# Elastic Compliance Matrix: (Units=1/GPa)
#
#
# Indices 1 2 3 4 5 6 
#
# 1 0.008532 -0.002690 -0.002749 0.000000 0.001961 0.000000
# 2 -0.002690 0.019026 -0.011039 0.000000 -0.003212 0.000000
# 3 -0.002749 -0.011039 0.031903 0.000000 0.001130 0.000000
# 4 0.000000 0.000000 0.000000 0.028961 0.000000 0.001727
# 5 0.001961 -0.003212 0.001130 0.000000 0.038480 0.000000
# 6 0.000000 0.000000 0.000000 0.001727 0.000000 0.031275
#
#
# Mechanical properties :
#
#
# Convention : Reuss Voigt Hill
#
# Bulk Modulus (GPa) = 37.73015 46.42401 42.07708
# Shear Modulus (GPa) = 25.00402 30.00081 27.50241
#
# Velocity S-wave (km/s) = 3.19918 3.50429 3.35521
# Velocity P-wave (km/s) = 5.39353 5.94776 5.67742
#
# Compressibility (1/GPa) = 0.02650400
#
# Stress axis : x y z
#
# Youngs Moduli (GPa) = 117.21195 52.55844 31.34533
#
# Poissons Ratio (x) = 0.14138 0.08618
# Poissons Ratio (y) = 0.31530 0.34602
# Poissons Ratio (z) = 0.32225 0.58020
#
# Static dielectric constant tensor:
#      x y z
#    x 1.968960 0.000000 0.017220 
#    y 0.000000 1.956050 0.000000 
#    z 0.017220 0.000000 1.947370 
# 
# From -- ./inp_files/14625.got.cif
#   From: 2010.05.17/outbox.cif.g08.bks.cpg/sg14_8_cif.got.tgz:14625.got - 2010.06.03 17:49:19.
