data_PCOD9249750
_publ_section_title
;
Structure prediction by ZEFSAII (Michael W. Deem and Ramdas Pophale) SiO2 
 PCOD9249750
Probable space group: P 21/C
;
_chemical_formula_sum "Si O2"
_cell_formula_units_Z 28
_cell_length_a 8.325061
_cell_length_b 20.936526
_cell_length_c 9.353945
_cell_angle_alpha 90.000000
_cell_angle_beta 129.414124
_cell_angle_gamma 90.000000
_cell_volume 1259.588475
_symmetry_space_group_name_H-M "P 21/C"
_symmetry_group_IT_number 14
_symmetry_cell_setting 'monoclinic'
loop_
_space_group_symop_operation_xyz
x,y,z
-x,1/2+y,1/2-z
-x,-y,-z
x,1/2-y,1/2+z
loop_
_atom_site_type_symbol
_atom_site_label
_atom_site_fract_x
_atom_site_fract_y
_atom_site_fract_z
Si Si1 0.636684 0.467177 0.455176
Si Si2 0.181365 0.782278 0.793804
Si Si3 0.699845 0.634015 0.837933
Si Si4 0.870924 0.078263 0.337162
Si Si5 0.530919 0.820716 0.544441
Si Si6 0.456519 0.957641 0.615848
Si Si7 0.105956 0.261347 0.612403
O O1 0.500000 0.500000 0.500000
O O2 0.501533 0.404706 0.330702
O O3 0.843089 0.450910 0.662021
O O4 0.639166 0.517052 0.325965
O O5 0.220940 0.849494 0.737585
O O6 0.061501 0.790246 0.873958
O O7 0.015854 0.744932 0.602754
O O8 0.376351 0.737836 0.934284
O O9 0.801514 0.690380 0.799807
O O10 0.639898 0.667318 0.953712
O O11 0.892532 0.587876 0.982187
O O12 0.741275 0.042143 0.386994
O O13 0.436539 0.887107 0.540324
O O14 0.693688 0.804677 0.760835
O O15 0.500000 0.000000 0.500000
#
# Coordination Sequence:
#
# PCOD9249750 Si02
#       7
#     4   4   4   4   4   4   4
#     4  10  23  43  68  93 128 177 230 266 329 390
#     4  11  25  41  69 102 135 172 214 278 346 400
#     4  11  23  42  68  99 133 174 219 278 334 400
#     4  10  23  45  70  96 132 173 224 276 338 398
#     4  12  24  41  69  95 141 171 217 281 336 394
#     4  11  24  44  66  97 132 181 226 274 330 388
#     4  11  24  42  64 104 129 170 225 265 344 412
#
# _framework density 22.229483999999999
#
# number of rings (size 3 to 8) (size 9 to 14) (size 15 to 20)
#    0.000    1.143    4.286    2.571    6.000    4.571 
#    0.000    2.143    0.000    0.000    0.000    0.000 
#    0.000    0.000    0.000    0.000    0.000    0.000 
#
# Total GULP energy -156146.243009 kJ/mol
# GULP energy per Si atom -5576.651536 kJ/mol
# Density = 2.217889 g / cm^3
# Si number density = 22.229484 Si / 1000 Ang^3
#
#
#
# Elastic Constant Matrix: (Units=GPa)
#
#
# Indices 1 2 3 4 5 6 
#
# 1 36.3940 11.2753 7.0542 0.0000 2.2077 0.0000
# 2 11.2753 67.3482 -12.3963 0.0000 0.0071 0.0000
# 3 7.0542 -12.3963 64.6297 0.0000 -7.2305 0.0000
# 4 0.0000 0.0000 0.0000 43.5664 0.0000 -18.0657
# 5 2.2077 0.0071 -7.2305 0.0000 31.3027 0.0000
# 6 0.0000 0.0000 0.0000 -18.0657 0.0000 5.1647
#
#
#
# Elastic Compliance Matrix: (Units=1/GPa)
#
#
# Indices 1 2 3 4 5 6 
#
# 1 0.030470 -0.005992 -0.004840 0.000000 -0.003266 0.000000
# 2 -0.005992 0.016585 0.003985 0.000000 0.001339 0.000000
# 3 -0.004840 0.003985 0.017249 0.000000 0.004325 0.000000
# 4 0.000000 0.000000 0.000000 -0.050952 0.000000 -0.178226
# 5 -0.003266 0.001339 0.004325 0.000000 0.033175 0.000000
# 6 0.000000 0.000000 0.000000 -0.178226 0.000000 -0.429800
#
#
# Mechanical properties :
#
#
# Convention : Reuss Voigt Hill
#
# Bulk Modulus (GPa) = 19.75927 20.02647 19.89287
# Shear Modulus (GPa) = -14.17599 26.83600 6.33001
#
# Velocity S-wave (km/s) = -2.52803 3.47828 1.68931
# Velocity P-wave (km/s) = 0.62192 5.01596 3.57398
#
# Compressibility (1/GPa) = 0.05060916
#
# Stress axis : x y z
#
# Youngs Moduli (GPa) = 32.81954 60.29681 57.97369
#
# Poissons Ratio (x) = 0.36128 0.28061
# Poissons Ratio (y) = 0.19665 -0.23101
# Poissons Ratio (z) = 0.15886 -0.24027
#
# Static dielectric constant tensor:
#      x y z
#    x 1.479620 0.000000 0.250300 
#    y 0.000000 1.904340 0.000000 
#    z 0.250300 0.000000 1.671770 
# 
# From -- ./inp_files/10435.got.cif
#   From: 2010.05.17/outbox.cif.g08.bks.cpg/sg14_6_cif.got.tgz:10435.got - 2010.06.03 17:49:19.
