data_PCOD9249422
_publ_section_title
;
Structure prediction by ZEFSAII (Michael W. Deem and Ramdas Pophale) SiO2 
 PCOD9249422
Probable space group: P 21/C
;
_chemical_formula_sum "Si O2"
_cell_formula_units_Z 16
_cell_length_a 9.647353
_cell_length_b 5.166485
_cell_length_c 11.328345
_cell_angle_alpha 90.000000
_cell_angle_beta 109.889437
_cell_angle_gamma 90.000000
_cell_volume 530.957472
_symmetry_space_group_name_H-M "P 21/C"
_symmetry_group_IT_number 14
_symmetry_cell_setting 'monoclinic'
loop_
_space_group_symop_operation_xyz
x,y,z
-x,1/2+y,1/2-z
-x,-y,-z
x,1/2-y,1/2+z
loop_
_atom_site_type_symbol
_atom_site_label
_atom_site_fract_x
_atom_site_fract_y
_atom_site_fract_z
Si Si1 0.185095 0.195653 0.547392
Si Si2 0.310408 0.635705 0.809463
Si Si3 0.935271 0.192516 0.120363
Si Si4 0.427595 0.663764 0.095710
O O1 0.124228 0.421326 0.445426
O O2 0.110141 0.270993 0.650165
O O3 0.124731 0.921682 0.482086
O O4 0.356772 0.127540 0.592114
O O5 0.140630 0.724042 0.779709
O O6 0.396193 0.361918 0.849694
O O7 0.361595 0.704931 0.692847
O O8 0.376930 0.761417 0.951888
#
# Coordination Sequence:
#
# PCOD9249422 Si02
#       4
#     4   4   4   4
#     4   9  19  39  66  95 129 170 220 273 331 397
#     4  10  23  42  65  97 136 178 229 282 341 405
#     4   9  19  39  66  96 129 171 220 273 331 398
#     4  10  23  41  65  97 136 181 229 282 341 406
#
# _framework density 30.134239999999998
#
# number of rings (size 3 to 8) (size 9 to 14) (size 15 to 20)
#    0.000    2.500    0.000    0.000    0.000   12.000 
#    0.000   15.000    0.000    0.000    0.000    0.000 
#    0.000    0.000    0.000    0.000    0.000    0.000 
#
# Total GULP energy -89309.983256 kJ/mol
# GULP energy per Si atom -5581.873953 kJ/mol
# Density = 3.006565 g / cm^3
# Si number density = 30.134240 Si / 1000 Ang^3
#
#
#
# Elastic Constant Matrix: (Units=GPa)
#
#
# Indices 1 2 3 4 5 6 
#
# 1 142.9941 1.8773 11.1798 0.0000 -2.1452 0.0000
# 2 1.8773 127.7288 46.5549 0.0000 15.8599 0.0000
# 3 11.1798 46.5549 170.7593 0.0000 -25.8622 0.0000
# 4 0.0000 0.0000 0.0000 75.5566 0.0000 -2.8674
# 5 -2.1452 15.8599 -25.8622 0.0000 51.6583 0.0000
# 6 0.0000 0.0000 0.0000 -2.8674 0.0000 41.9525
#
#
#
# Elastic Compliance Matrix: (Units=1/GPa)
#
#
# Indices 1 2 3 4 5 6 
#
# 1 0.007030 0.000064 -0.000472 0.000000 0.000036 0.000000
# 2 0.000064 0.009612 -0.003323 0.000000 -0.004612 0.000000
# 3 -0.000472 -0.003323 0.007515 0.000000 0.004763 0.000000
# 4 0.000000 0.000000 0.000000 0.013270 0.000000 0.000907
# 5 0.000036 -0.004612 0.004763 0.000000 0.023160 0.000000
# 6 0.000000 0.000000 0.000000 0.000907 0.000000 0.023898
#
#
# Mechanical properties :
#
#
# Convention : Reuss Voigt Hill
#
# Bulk Modulus (GPa) = 59.90210 62.30069 61.10139
# Shear Modulus (GPa) = 51.27584 59.29150 55.28367
#
# Velocity S-wave (km/s) = 4.12950 4.44055 4.28785
# Velocity P-wave (km/s) = 6.53135 6.85643 6.69586
#
# Compressibility (1/GPa) = 0.01669391
#
# Stress axis : x y z
#
# Youngs Moduli (GPa) = 142.24913 104.03506 133.07546
#
# Poissons Ratio (x) = -0.00670 0.06287
# Poissons Ratio (y) = -0.00917 0.44226
# Poissons Ratio (z) = 0.06720 0.34575
#
# Static dielectric constant tensor:
#      x y z
#    x 2.722350 0.000000 0.058540 
#    y 0.000000 2.356960 0.000000 
#    z 0.058540 0.000000 2.308760 
# 
# From -- ./inp_files/14807.got.cif
#   From: 2010.05.17/outbox.cif.g08.bks.cpg/sg14_8_cif.got.tgz:14807.got - 2010.06.03 17:49:19.
