data_PCOD9249954
_publ_section_title
;
Structure prediction by ZEFSAII (Michael W. Deem and Ramdas Pophale) SiO2 
 PCOD9249954
Probable space group: P 21/C
;
_chemical_formula_sum "Si O2"
_cell_formula_units_Z 20
_cell_length_a 9.354391
_cell_length_b 10.001859
_cell_length_c 11.329065
_cell_angle_alpha 90.000000
_cell_angle_beta 53.011889
_cell_angle_gamma 90.000000
_cell_volume 846.655678
_symmetry_space_group_name_H-M "P 21/C"
_symmetry_group_IT_number 14
_symmetry_cell_setting 'monoclinic'
loop_
_space_group_symop_operation_xyz
x,y,z
-x,1/2+y,1/2-z
-x,-y,-z
x,1/2-y,1/2+z
loop_
_atom_site_type_symbol
_atom_site_label
_atom_site_fract_x
_atom_site_fract_y
_atom_site_fract_z
Si Si1 0.988774 0.451932 0.220517
Si Si2 0.226756 0.150537 0.318856
Si Si3 0.027902 0.681441 0.380915
Si Si4 0.410885 0.593917 0.228053
Si Si5 0.357522 0.360478 0.094630
O O1 0.890864 0.525117 0.161871
O O2 0.931992 0.296767 0.237768
O O3 0.965824 0.542762 0.349456
O O4 0.205633 0.446773 0.102471
O O5 0.424135 0.116622 0.268006
O O6 0.265897 0.225839 0.177402
O O7 0.115309 0.249471 0.460423
O O8 0.215017 0.648545 0.353714
O O9 0.399881 0.439242 0.193725
O O10 0.475891 0.659044 0.071918
#
# Coordination Sequence:
#
# PCOD9249954 Si02
#       5
#     4   4   4   4   4
#     4  11  22  45  67  95 134 176 212 275 333 381
#     4  12  23  43  70  98 129 175 229 263 328 399
#     4  11  25  43  70  97 133 175 219 272 330 390
#     4  10  24  41  67  95 135 175 215 271 334 384
#     4  10  23  45  62  97 137 171 217 277 324 389
#
# _framework density 23.622354000000001
#
# number of rings (size 3 to 8) (size 9 to 14) (size 15 to 20)
#    0.000    1.200    4.000    0.600    2.800    6.400 
#    3.600    2.000    0.000    0.000    0.000    0.000 
#    0.000    0.000    0.000    0.000    0.000    0.000 
#
# Total GULP energy -111619.052506 kJ/mol
# GULP energy per Si atom -5580.952625 kJ/mol
# Density = 2.356859 g / cm^3
# Si number density = 23.622354 Si / 1000 Ang^3
#
#
#
# Elastic Constant Matrix: (Units=GPa)
#
#
# Indices 1 2 3 4 5 6 
#
# 1 177.7580 34.5796 22.0133 0.0000 -30.2270 0.0000
# 2 34.5796 67.9292 20.7935 0.0000 -1.0361 0.0000
# 3 22.0133 20.7935 35.2856 0.0000 -15.2702 0.0000
# 4 0.0000 0.0000 0.0000 36.1479 0.0000 4.9800
# 5 -30.2270 -1.0361 -15.2702 0.0000 17.4283 0.0000
# 6 0.0000 0.0000 0.0000 4.9800 0.0000 38.8883
#
#
#
# Elastic Compliance Matrix: (Units=1/GPa)
#
#
# Indices 1 2 3 4 5 6 
#
# 1 0.010291 -0.007610 0.009009 0.000000 0.025289 0.000000
# 2 -0.007610 0.025702 -0.024885 0.000000 -0.033475 0.000000
# 3 0.009009 -0.024885 0.070077 0.000000 0.075545 0.000000
# 4 0.000000 0.000000 0.000000 0.028161 0.000000 -0.003606
# 5 0.025289 -0.033475 0.075545 0.000000 0.165439 0.000000
# 6 0.000000 0.000000 0.000000 -0.003606 0.000000 0.026176
#
#
# Mechanical properties :
#
#
# Convention : Reuss Voigt Hill
#
# Bulk Modulus (GPa) = 16.92123 48.41617 32.66870
# Shear Modulus (GPa) = 12.73826 32.06534 22.40180
#
# Velocity S-wave (km/s) = 2.32469 3.68831 3.08284
# Velocity P-wave (km/s) = 3.79267 6.21921 5.15087
#
# Compressibility (1/GPa) = 0.05909737
#
# Stress axis : x y z
#
# Youngs Moduli (GPa) = 97.17512 38.90731 14.26992
#
# Poissons Ratio (x) = 0.29610 -0.12855
# Poissons Ratio (y) = 0.73954 0.35510
# Poissons Ratio (z) = -0.87543 0.96820
#
# Static dielectric constant tensor:
#      x y z
#    x 1.967980 0.000000 0.060520 
#    y 0.000000 1.924430 0.000000 
#    z 0.060520 0.000000 1.906450 
# 
# From -- ./inp_files/24007.got.cif
#   From: 2010.05.17/outbox.cif.g08.bks.cpg/sg14_13_cif.got.tgz:24007.got - 2010.06.03 17:49:19.
