data_PCOD9249815
_publ_section_title
;
Structure prediction by ZEFSAII (Michael W. Deem and Ramdas Pophale) SiO2 
 PCOD9249815
Probable space group: P 21/C
;
_chemical_formula_sum "Si O2"
_cell_formula_units_Z 20
_cell_length_a 8.877800
_cell_length_b 9.512512
_cell_length_c 9.034470
_cell_angle_alpha 90.000000
_cell_angle_beta 100.967246
_cell_angle_gamma 90.000000
_cell_volume 749.027938
_symmetry_space_group_name_H-M "P 21/C"
_symmetry_group_IT_number 14
_symmetry_cell_setting 'monoclinic'
loop_
_space_group_symop_operation_xyz
x,y,z
-x,1/2+y,1/2-z
-x,-y,-z
x,1/2-y,1/2+z
loop_
_atom_site_type_symbol
_atom_site_label
_atom_site_fract_x
_atom_site_fract_y
_atom_site_fract_z
Si Si1 0.187485 0.833334 0.043619
Si Si2 0.958241 0.111195 0.284738
Si Si3 0.511780 0.312696 0.952288
Si Si4 0.773777 0.897387 0.447594
Si Si5 0.646999 0.882236 0.876910
O O1 0.093996 0.759921 0.155805
O O2 0.307909 0.716896 0.000483
O O3 0.287226 0.963608 0.117253
O O4 0.079136 0.887388 0.893298
O O5 0.125144 0.084370 0.385505
O O6 0.845629 0.996534 0.338824
O O7 0.470362 0.348061 0.776604
O O8 0.405330 0.408853 0.041120
O O9 0.434259 0.161421 0.984031
O O10 0.778645 0.737269 0.391247
#
# Coordination Sequence:
#
# PCOD9249815 Si02
#       5
#     4   4   4   4   4
#     4  12  26  43  70 104 134 176 236 284 335 406
#     4  11  26  45  68 104 141 175 229 288 335 412
#     4  10  23  44  68  95 135 180 222 278 338 405
#     4   9  25  46  70  93 145 181 222 277 346 406
#     4  10  23  43  73  95 134 178 233 271 346 404
#
# _framework density 26.701274999999999
#
# number of rings (size 3 to 8) (size 9 to 14) (size 15 to 20)
#    1.200    0.400    0.000    3.000    5.600    4.800 
#    0.000    0.000    0.000    0.000    0.000    0.000 
#    0.000    0.000    0.000    0.000    0.000    0.000 
#
# Total GULP energy -112032.689976 kJ/mol
# GULP energy per Si atom -5601.634499 kJ/mol
# Density = 2.664050 g / cm^3
# Si number density = 26.701275 Si / 1000 Ang^3
#
#
#
# Elastic Constant Matrix: (Units=GPa)
#
#
# Indices 1 2 3 4 5 6 
#
# 1 89.8099 41.7523 13.9019 0.0000 7.1459 0.0000
# 2 41.7523 87.9649 42.4057 0.0000 3.3494 0.0000
# 3 13.9019 42.4057 120.4974 0.0000 15.7035 0.0000
# 4 0.0000 0.0000 0.0000 46.4240 0.0000 2.5188
# 5 7.1459 3.3494 15.7035 0.0000 29.0083 0.0000
# 6 0.0000 0.0000 0.0000 2.5188 0.0000 32.2613
#
#
#
# Elastic Compliance Matrix: (Units=1/GPa)
#
#
# Indices 1 2 3 4 5 6 
#
# 1 0.014692 -0.007519 0.001409 0.000000 -0.003514 0.000000
# 2 -0.007519 0.017572 -0.005695 0.000000 0.002906 0.000000
# 3 0.001409 -0.005695 0.010867 0.000000 -0.005572 0.000000
# 4 0.000000 0.000000 0.000000 0.021632 0.000000 -0.001689
# 5 -0.003514 0.002906 -0.005572 0.000000 0.038019 0.000000
# 6 0.000000 0.000000 0.000000 -0.001689 0.000000 0.031129
#
#
# Mechanical properties :
#
#
# Convention : Reuss Voigt Hill
#
# Bulk Modulus (GPa) = 51.22911 54.93245 53.08078
# Shear Modulus (GPa) = 30.48275 34.88622 32.68448
#
# Velocity S-wave (km/s) = 3.38245 3.61853 3.50248
# Velocity P-wave (km/s) = 5.87217 6.17057 6.02322
#
# Compressibility (1/GPa) = 0.01952015
#
# Stress axis : x y z
#
# Youngs Moduli (GPa) = 68.06638 56.90944 92.02308
#
# Poissons Ratio (x) = 0.42789 -0.12966
# Poissons Ratio (y) = 0.51177 0.52409
# Poissons Ratio (z) = -0.09590 0.32411
#
# Static dielectric constant tensor:
#      x y z
#    x 2.124300 0.000000 -0.079490 
#    y 0.000000 2.245240 0.000000 
#    z -0.079490 0.000000 1.989550 
# 
# From -- ./inp_files/11900.got.cif
#   From: 2010.05.17/outbox.cif.g08.bks.cpg/sg14_6_cif.got.tgz:11900.got - 2010.06.03 17:49:19.
