data_PCOD9249084
_publ_section_title
;
Structure prediction by ZEFSAII (Michael W. Deem and Ramdas Pophale) SiO2 
 PCOD9249084
Probable space group: P 21/C
;
_chemical_formula_sum "Si O2"
_cell_formula_units_Z 32
_cell_length_a 9.144158
_cell_length_b 22.672923
_cell_length_c 14.693705
_cell_angle_alpha 90.000000
_cell_angle_beta 29.668389
_cell_angle_gamma 90.000000
_cell_volume 1507.889915
_symmetry_space_group_name_H-M "P 21/C"
_symmetry_group_IT_number 14
_symmetry_cell_setting 'monoclinic'
loop_
_space_group_symop_operation_xyz
x,y,z
-x,1/2+y,1/2-z
-x,-y,-z
x,1/2-y,1/2+z
loop_
_atom_site_type_symbol
_atom_site_label
_atom_site_fract_x
_atom_site_fract_y
_atom_site_fract_z
Si Si1 0.273904 0.887477 0.032224
Si Si2 0.677803 0.582951 0.486353
Si Si3 0.421718 0.363000 0.814785
Si Si4 0.074942 0.546476 0.883780
Si Si5 0.079019 0.818149 0.843496
Si Si6 0.190987 0.249581 0.840498
Si Si7 0.254178 0.754251 0.567504
Si Si8 0.848045 0.986111 0.311325
O O1 0.508470 0.910898 0.980818
O O2 0.238899 0.817269 0.068646
O O3 0.969836 0.924228 0.204119
O O4 0.412405 0.895381 0.857691
O O5 0.418986 0.561015 0.692127
O O6 0.811572 0.644775 0.445854
O O7 0.949128 0.537614 0.340131
O O8 0.637876 0.357833 0.783569
O O9 0.352308 0.297953 0.814924
O O10 0.115609 0.394482 0.001134
O O11 0.959528 0.517950 0.853856
O O12 0.000000 0.500000 0.000000
O O13 0.179192 0.773278 0.710240
O O14 0.973501 0.791350 0.997425
O O15 0.432625 0.223286 0.640514
O O16 0.968654 0.278664 0.888592
O O17 0.500000 0.000000 0.500000
#
# Coordination Sequence:
#
# PCOD9249084 Si02
#       8
#     4   4   4   4   4   4   4   4
#     4  10  22  46  67  96 140 181 231 291 347 417
#     4  11  25  43  68 101 135 183 231 288 355 417
#     4  11  24  43  68 101 137 177 235 287 344 420
#     4  11  24  43  72  99 134 185 231 289 352 414
#     4  12  26  44  71 103 144 183 236 290 356 430
#     4  11  25  44  64 103 138 183 231 281 352 428
#     4  11  26  43  69  99 142 186 225 290 352 415
#     4  11  24  44  69  98 135 180 234 286 351 417
#
# _framework density 21.221706999999999
#
# number of rings (size 3 to 8) (size 9 to 14) (size 15 to 20)
#    0.000    1.000    2.500    5.250    8.750    2.000 
#    0.000    2.500    0.000    0.000    0.000    0.000 
#    0.000    0.000    0.000    0.000    0.000    0.000 
#
# Total GULP energy -178767.304187 kJ/mol
# GULP energy per Si atom -5586.478256 kJ/mol
# Density = 2.117341 g / cm^3
# Si number density = 21.221707 Si / 1000 Ang^3
#
#
#
# Elastic Constant Matrix: (Units=GPa)
#
#
# Indices 1 2 3 4 5 6 
#
# 1 57.8983 15.2939 41.4704 0.0000 -4.6364 0.0000
# 2 15.2939 60.8769 49.1861 0.0000 1.2811 0.0000
# 3 41.4704 49.1861 171.2505 0.0000 -8.6481 0.0000
# 4 0.0000 0.0000 0.0000 42.7353 0.0000 -3.2241
# 5 -4.6364 1.2811 -8.6481 0.0000 41.7486 0.0000
# 6 0.0000 0.0000 0.0000 -3.2241 0.0000 24.6925
#
#
#
# Elastic Compliance Matrix: (Units=1/GPa)
#
#
# Indices 1 2 3 4 5 6 
#
# 1 0.021089 -0.001643 -0.004562 0.000000 0.001447 0.000000
# 2 -0.001643 0.021677 -0.005933 0.000000 -0.002077 0.000000
# 3 -0.004562 -0.005933 0.008723 0.000000 0.001482 0.000000
# 4 0.000000 0.000000 0.000000 0.023633 0.000000 0.003086
# 5 0.001447 -0.002077 0.001482 0.000000 0.024484 0.000000
# 6 0.000000 0.000000 0.000000 0.003086 0.000000 0.040901
#
#
# Mechanical properties :
#
#
# Convention : Reuss Voigt Hill
#
# Bulk Modulus (GPa) = 36.74658 55.76960 46.25809
# Shear Modulus (GPa) = 28.75986 34.10697 31.43341
#
# Velocity S-wave (km/s) = 3.68531 4.01331 3.85280
# Velocity P-wave (km/s) = 5.95498 6.91463 6.45267
#
# Compressibility (1/GPa) = 0.02721342
#
# Stress axis : x y z
#
# Youngs Moduli (GPa) = 47.41782 46.13272 114.63837
#
# Poissons Ratio (x) = 0.07578 0.52299
# Poissons Ratio (y) = 0.07789 0.68015
# Poissons Ratio (z) = 0.21632 0.27370
#
# Static dielectric constant tensor:
#      x y z
#    x 1.760370 0.000000 -0.043310 
#    y 0.000000 1.810720 0.000000 
#    z -0.043310 0.000000 1.812130 
# 
# From -- ./inp_files/42215.got.cif
#   From: 2010.05.17/outbox.cif.g08.bks.cpg/sg14_22_cif.got.tgz:42215.got - 2010.06.03 17:49:19.
