data_PCOD9249218
_publ_section_title
;
Structure prediction by ZEFSAII (Michael W. Deem and Ramdas Pophale) SiO2 
 PCOD9249218
Probable space group: P 21/C
;
_chemical_formula_sum "Si O2"
_cell_formula_units_Z 28
_cell_length_a 9.169783
_cell_length_b 15.484024
_cell_length_c 10.084739
_cell_angle_alpha 90.000000
_cell_angle_beta 91.744199
_cell_angle_gamma 90.000000
_cell_volume 1431.219656
_symmetry_space_group_name_H-M "P 21/C"
_symmetry_group_IT_number 14
_symmetry_cell_setting 'monoclinic'
loop_
_space_group_symop_operation_xyz
x,y,z
-x,1/2+y,1/2-z
-x,-y,-z
x,1/2-y,1/2+z
loop_
_atom_site_type_symbol
_atom_site_label
_atom_site_fract_x
_atom_site_fract_y
_atom_site_fract_z
Si Si1 0.884812 0.770008 0.708959
Si Si2 0.677898 0.751010 0.953537
Si Si3 0.515397 0.909365 0.845680
Si Si4 0.005811 0.594013 0.637780
Si Si5 0.251268 0.513366 0.488464
Si Si6 0.924815 0.960404 0.627686
Si Si7 0.593279 0.920904 0.552549
O O1 0.802992 0.769069 0.847606
O O2 0.758040 0.752654 0.597050
O O3 0.990615 0.688616 0.697875
O O4 0.958113 0.861540 0.673754
O O5 0.556857 0.824149 0.930319
O O6 0.607788 0.655651 0.945659
O O7 0.527611 0.889388 0.690931
O O8 0.642136 0.976896 0.893792
O O9 0.360660 0.949394 0.881667
O O10 0.854135 0.563133 0.566089
O O11 0.138059 0.584474 0.538311
O O12 0.038609 0.523717 0.751358
O O13 0.754379 0.954681 0.589881
O O14 0.000000 0.000000 0.500000
O O15 0.500000 0.000000 0.500000
#
# Coordination Sequence:
#
# PCOD9249218 Si02
#       7
#     4   4   4   4   4   4   4
#     4  11  23  40  71  96 129 185 224 266 342 417
#     4  11  21  42  67  97 128 175 227 269 326 421
#     4  11  21  44  63  98 128 173 224 284 333 401
#     4  11  21  42  64  99 127 174 220 274 335 404
#     4  10  23  36  69  90 132 167 219 282 339 389
#     4  11  24  45  65  97 137 174 221 279 337 406
#     4  11  25  43  66  95 133 176 223 276 344 400
#
# _framework density 19.563732000000002
#
# number of rings (size 3 to 8) (size 9 to 14) (size 15 to 20)
#    0.000    1.143    5.714    1.714    6.000    0.000 
#    2.571    0.000    0.000    0.000    0.000    0.000 
#    0.000    0.000    0.000    0.000    0.000    0.000 
#
# Total GULP energy -156346.808411 kJ/mol
# GULP energy per Si atom -5583.814586 kJ/mol
# Density = 1.951920 g / cm^3
# Si number density = 19.563732 Si / 1000 Ang^3
#
#
#
# Elastic Constant Matrix: (Units=GPa)
#
#
# Indices 1 2 3 4 5 6 
#
# 1 94.2577 42.2255 21.1197 0.0000 -22.0306 0.0000
# 2 42.2255 134.8264 13.7962 0.0000 -10.7474 0.0000
# 3 21.1197 13.7962 71.7342 0.0000 -19.4414 0.0000
# 4 0.0000 0.0000 0.0000 35.5256 0.0000 -0.1337
# 5 -22.0306 -10.7474 -19.4414 0.0000 30.8847 0.0000
# 6 0.0000 0.0000 0.0000 -0.1337 0.0000 29.1960
#
#
#
# Elastic Compliance Matrix: (Units=1/GPa)
#
#
# Indices 1 2 3 4 5 6 
#
# 1 0.014506 -0.003753 -0.001325 0.000000 0.008207 0.000000
# 2 -0.003753 0.008648 -0.000565 0.000000 -0.000023 0.000000
# 3 -0.001325 -0.000565 0.017036 0.000000 0.009583 0.000000
# 4 0.000000 0.000000 0.000000 0.028149 0.000000 0.000129
# 5 0.008207 -0.000023 0.009583 0.000000 0.044257 0.000000
# 6 0.000000 0.000000 0.000000 0.000129 0.000000 0.034252
#
#
# Mechanical properties :
#
#
# Convention : Reuss Voigt Hill
#
# Bulk Modulus (GPa) = 34.59555 50.56677 42.58116
# Shear Modulus (GPa) = 29.80315 34.03306 31.91811
#
# Velocity S-wave (km/s) = 3.90729 4.17538 4.04356
# Velocity P-wave (km/s) = 6.17072 7.01059 6.60402
#
# Compressibility (1/GPa) = 0.02890545
#
# Stress axis : x y z
#
# Youngs Moduli (GPa) = 68.93884 115.62965 58.69934
#
# Poissons Ratio (x) = 0.43398 0.07775
# Poissons Ratio (y) = 0.25874 0.03314
# Poissons Ratio (z) = 0.09131 0.06528
#
# Static dielectric constant tensor:
#      x y z
#    x 1.672050 0.000000 -0.006190 
#    y 0.000000 1.726820 0.000000 
#    z -0.006190 0.000000 1.712170 
# 
# From -- ./inp_files/24936.got.cif
#   From: 2010.05.17/outbox.cif.g08.bks.cpg/sg14_13_cif.got.tgz:24936.got - 2010.06.03 17:49:19.
