data_PCOD9249193
_publ_section_title
;
Structure prediction by ZEFSAII (Michael W. Deem and Ramdas Pophale) SiO2 
 PCOD9249193
Probable space group: P 21/C
;
_chemical_formula_sum "Si O2"
_cell_formula_units_Z 16
_cell_length_a 21.634583
_cell_length_b 4.908726
_cell_length_c 13.845585
_cell_angle_alpha 90.000000
_cell_angle_beta 23.418400
_cell_angle_gamma 90.000000
_cell_volume 584.390360
_symmetry_space_group_name_H-M "P 21/C"
_symmetry_group_IT_number 14
_symmetry_cell_setting 'monoclinic'
loop_
_space_group_symop_operation_xyz
x,y,z
-x,1/2+y,1/2-z
-x,-y,-z
x,1/2-y,1/2+z
loop_
_atom_site_type_symbol
_atom_site_label
_atom_site_fract_x
_atom_site_fract_y
_atom_site_fract_z
Si Si1 0.060548 0.967889 0.212138
Si Si2 0.873546 0.792759 0.142196
Si Si3 0.411331 0.997462 0.916014
Si Si4 0.344260 0.645995 0.189593
O O1 0.951774 0.784466 0.296010
O O2 0.972177 0.918582 0.437973
O O3 0.227982 0.839317 0.947387
O O4 0.750785 0.632979 0.384747
O O5 0.758203 0.964662 0.237778
O O6 0.000000 0.000000 0.000000
O O7 0.460946 0.727150 0.788081
O O8 0.389557 0.907071 0.059206
O O9 0.500000 0.500000 0.000000
#
# Coordination Sequence:
#
# PCOD9249193 Si02
#       4
#     4   4   4   4
#     4  10  22  48  78 116 156 208 274 336 394 480
#     4  11  26  51  82 115 161 213 274 335 408 483
#     4  12  26  52  78 126 168 214 268 344 416 496
#     4  11  26  51  82 115 161 213 274 335 408 483
#
# _framework density 27.378955999999999
#
# number of rings (size 3 to 8) (size 9 to 14) (size 15 to 20)
#    0.000    1.000    5.000    0.000    0.000    6.000 
#   18.000    0.000    0.000    0.000    0.000    0.000 
#    0.000    0.000    0.000    0.000    0.000    0.000 
#
# Total GULP energy -89718.956145 kJ/mol
# GULP energy per Si atom -5607.434759 kJ/mol
# Density = 2.731664 g / cm^3
# Si number density = 27.378956 Si / 1000 Ang^3
#
#
#
# Elastic Constant Matrix: (Units=GPa)
#
#
# Indices 1 2 3 4 5 6 
#
# 1 96.7615 45.2215 60.1482 0.0000 -23.8604 0.0000
# 2 45.2215 164.9367 72.6802 0.0000 -4.3889 0.0000
# 3 60.1482 72.6802 236.8931 0.0000 3.6914 0.0000
# 4 0.0000 0.0000 0.0000 79.7130 0.0000 2.5734
# 5 -23.8604 -4.3889 3.6914 0.0000 61.3032 0.0000
# 6 0.0000 0.0000 0.0000 2.5734 0.0000 45.9027
#
#
#
# Elastic Compliance Matrix: (Units=1/GPa)
#
#
# Indices 1 2 3 4 5 6 
#
# 1 0.014878 -0.002568 -0.003080 0.000000 0.005792 0.000000
# 2 -0.002568 0.007478 -0.001637 0.000000 -0.000365 0.000000
# 3 -0.003080 -0.001637 0.005531 0.000000 -0.001649 0.000000
# 4 0.000000 0.000000 0.000000 0.012568 0.000000 -0.000705
# 5 0.005792 -0.000365 -0.001649 0.000000 0.018640 0.000000
# 6 0.000000 0.000000 0.000000 -0.000705 0.000000 0.021825
#
#
# Mechanical properties :
#
#
# Convention : Reuss Voigt Hill
#
# Bulk Modulus (GPa) = 75.08460 94.96568 85.02514
# Shear Modulus (GPa) = 50.03603 58.75320 54.39462
#
# Velocity S-wave (km/s) = 4.27961 4.63744 4.46211
# Velocity P-wave (km/s) = 7.20443 7.96463 7.59405
#
# Compressibility (1/GPa) = 0.01331831
#
# Stress axis : x y z
#
# Youngs Moduli (GPa) = 67.21535 133.71704 180.79280
#
# Poissons Ratio (x) = 0.34335 0.55683
# Poissons Ratio (y) = 0.17259 0.29592
# Poissons Ratio (z) = 0.20702 0.21887
#
# Static dielectric constant tensor:
#      x y z
#    x 2.350910 0.000000 0.033370 
#    y 0.000000 2.118080 0.000000 
#    z 0.033370 0.000000 2.105450 
# 
# From -- ./inp_files/50936.got.cif
#   From: 2010.05.17/outbox.cif.g08.bks.cpg/sg14_26_cif.got.tgz:50936.got - 2010.06.03 17:49:19.
