data_PCOD9249592
_publ_section_title
;
Structure prediction by ZEFSAII (Michael W. Deem and Ramdas Pophale) SiO2 
 PCOD9249592
Probable space group: P 21/C
;
_chemical_formula_sum "Si O2"
_cell_formula_units_Z 30
_cell_length_a 9.457707
_cell_length_b 8.482131
_cell_length_c 28.497133
_cell_angle_alpha 90.000000
_cell_angle_beta 32.356370
_cell_angle_gamma 90.000000
_cell_volume 1223.474364
_symmetry_space_group_name_H-M "P 21/C"
_symmetry_group_IT_number 14
_symmetry_cell_setting 'monoclinic'
loop_
_space_group_symop_operation_xyz
x,y,z
-x,1/2+y,1/2-z
-x,-y,-z
x,1/2-y,1/2+z
loop_
_atom_site_type_symbol
_atom_site_label
_atom_site_fract_x
_atom_site_fract_y
_atom_site_fract_z
Si Si1 0.810578 0.492407 0.871890
Si Si2 0.416678 0.081376 0.769820
Si Si3 0.115188 0.396845 0.877563
Si Si4 0.594117 0.498449 0.324864
Si Si5 0.514026 0.684518 0.433376
Si Si6 0.000000 0.500000 0.000000
Si Si7 0.621126 0.729147 0.048141
Si Si8 0.133860 0.029340 0.092744
O O1 0.636127 0.648157 0.912773
O O2 0.632512 0.348994 0.904890
O O3 0.911070 0.459504 0.896429
O O4 0.088621 0.506703 0.767022
O O5 0.304466 0.258155 0.805132
O O6 0.479661 0.020453 0.804670
O O7 0.684221 0.044338 0.666356
O O8 0.176919 0.984349 0.814751
O O9 0.998005 0.356786 0.960537
O O10 0.512938 0.650851 0.378243
O O11 0.481194 0.352860 0.385272
O O12 0.721119 0.559192 0.398978
O O13 0.248933 0.626503 0.534423
O O14 0.791699 0.597779 0.025827
O O15 0.789009 0.826794 0.962867
#
# Coordination Sequence:
#
# PCOD9249592 Si02
#       8
#     4   4   4   4   4   2   4   4
#     4  11  25  44  72 103 145 182 245 294 363 437
#     4  11  26  49  71 103 144 191 249 296 372 437
#     4  11  28  48  74 105 145 199 240 309 368 437
#     4  10  23  46  67 101 142 188 241 298 357 428
#     4  10  23  42  67  99 133 187 232 288 361 420
#     4  12  26  46  74 106 150 186 244 306 366 434
#     4  11  25  44  70 108 144 189 243 300 368 435
#     4  10  25  43  70  97 142 187 234 297 362 438
#
# _framework density 24.520333000000001
#
# number of rings (size 3 to 8) (size 9 to 14) (size 15 to 20)
#    0.000    1.333    1.333    1.600   13.067    5.333 
#    2.400    0.000    0.000    0.000    0.000    0.000 
#    0.000    0.000    0.000    0.000    0.000    0.000 
#
# Total GULP energy -167565.869425 kJ/mol
# GULP energy per Si atom -5585.528981 kJ/mol
# Density = 2.446452 g / cm^3
# Si number density = 24.520333 Si / 1000 Ang^3
#
#
#
# Elastic Constant Matrix: (Units=GPa)
#
#
# Indices 1 2 3 4 5 6 
#
# 1 96.8699 21.8700 4.8719 0.0000 -14.0969 0.0000
# 2 21.8700 88.2238 10.2892 0.0000 -9.6132 0.0000
# 3 4.8719 10.2892 67.9429 0.0000 -25.8988 0.0000
# 4 0.0000 0.0000 0.0000 31.5063 0.0000 -7.6547
# 5 -14.0969 -9.6132 -25.8988 0.0000 38.4312 0.0000
# 6 0.0000 0.0000 0.0000 -7.6547 0.0000 37.2909
#
#
#
# Elastic Compliance Matrix: (Units=1/GPa)
#
#
# Indices 1 2 3 4 5 6 
#
# 1 0.011469 -0.002507 0.001240 0.000000 0.004416 0.000000
# 2 -0.002507 0.012239 -0.001154 0.000000 0.001365 0.000000
# 3 0.001240 -0.001154 0.020007 0.000000 0.013649 0.000000
# 4 0.000000 0.000000 0.000000 0.033406 0.000000 0.006857
# 5 0.004416 0.001365 0.013649 0.000000 0.037180 0.000000
# 6 0.000000 0.000000 0.000000 0.006857 0.000000 0.028224
#
#
# Mechanical properties :
#
#
# Convention : Reuss Voigt Hill
#
# Bulk Modulus (GPa) = 25.72276 36.34433 31.03354
# Shear Modulus (GPa) = 31.18703 35.84604 33.51654
#
# Velocity S-wave (km/s) = 3.57022 3.82762 3.70116
# Velocity P-wave (km/s) = 5.24485 5.86417 5.56313
#
# Compressibility (1/GPa) = 0.03887607
#
# Stress axis : x y z
#
# Youngs Moduli (GPa) = 87.18943 81.70318 49.98293
#
# Poissons Ratio (x) = 0.20480 -0.06200
# Poissons Ratio (y) = 0.21855 0.05766
# Poissons Ratio (z) = -0.10816 0.09425
#
# Static dielectric constant tensor:
#      x y z
#    x 1.945150 0.000000 0.048830 
#    y 0.000000 1.930740 0.000000 
#    z 0.048830 0.000000 2.068200 
# 
# From -- ./inp_files/79477.got.cif
#   From: 2010.05.17/outbox.cif.g08.bks.cpg/sg14_40_cif.got.tgz:79477.got - 2010.06.03 17:49:19.
