data_PCOD9249712
_publ_section_title
;
Structure prediction by ZEFSAII (Michael W. Deem and Ramdas Pophale) SiO2 
 PCOD9249712
Probable space group: P 21/C
;
_chemical_formula_sum "Si O2"
_cell_formula_units_Z 30
_cell_length_a 7.418768
_cell_length_b 16.183153
_cell_length_c 11.866960
_cell_angle_alpha 90.000000
_cell_angle_beta 118.524418
_cell_angle_gamma 90.000000
_cell_volume 1251.792570
_symmetry_space_group_name_H-M "P 21/C"
_symmetry_group_IT_number 14
_symmetry_cell_setting 'monoclinic'
loop_
_space_group_symop_operation_xyz
x,y,z
-x,1/2+y,1/2-z
-x,-y,-z
x,1/2-y,1/2+z
loop_
_atom_site_type_symbol
_atom_site_label
_atom_site_fract_x
_atom_site_fract_y
_atom_site_fract_z
Si Si1 0.399987 0.416022 0.518248
Si Si2 0.000000 0.000000 0.500000
Si Si3 0.530518 0.737609 0.912484
Si Si4 0.250276 0.764048 0.149189
Si Si5 0.348409 0.067945 0.271928
Si Si6 0.732556 0.123336 0.522830
Si Si7 0.918894 0.840773 0.635253
Si Si8 0.055919 0.564044 0.616421
O O1 0.500000 0.500000 0.500000
O O2 0.500581 0.325495 0.533086
O O3 0.392644 0.421545 0.652820
O O4 0.166934 0.412679 0.402839
O O5 0.982400 0.923863 0.588595
O O6 0.068095 0.932172 0.423278
O O7 0.480066 0.742896 0.765264
O O8 0.384200 0.662288 0.907009
O O9 0.757741 0.708649 0.009525
O O10 0.226167 0.705305 0.036893
O O11 0.113270 0.718768 0.205025
O O12 0.166486 0.854658 0.103851
O O13 0.562695 0.068387 0.403193
O O14 0.201809 0.135414 0.287089
O O15 0.218346 0.984092 0.241300
O O16 0.000000 0.500000 0.500000
#
# Coordination Sequence:
#
# PCOD9249712 Si02
#       8
#     4   2   4   4   4   4   4   4
#     4  11  24  44  67 101 138 183 225 287 348 416
#     4  10  24  44  64  94 128 178 228 278 334 396
#     4  11  24  43  68 102 138 177 232 284 346 418
#     4  11  23  44  68  99 134 186 222 284 358 404
#     4  10  23  43  66  95 134 182 218 283 349 400
#     4  10  24  43  68  97 136 178 227 287 335 423
#     4  10  24  46  68  96 139 175 235 285 339 421
#     4  10  24  41  68 100 137 179 231 287 343 414
#
# _framework density 23.965629
#
# number of rings (size 3 to 8) (size 9 to 14) (size 15 to 20)
#    0.000    1.600    2.667    0.000    9.333    2.133 
#    0.000    1.333    0.000    0.000    0.000    0.000 
#    0.000    0.000    0.000    0.000    0.000    0.000 
#
# Total GULP energy -167044.913094 kJ/mol
# GULP energy per Si atom -5568.163770 kJ/mol
# Density = 2.391108 g / cm^3
# Si number density = 23.965629 Si / 1000 Ang^3
#
#
#
# Elastic Constant Matrix: (Units=GPa)
#
#
# Indices 1 2 3 4 5 6 
#
# 1 48.4537 23.1557 15.4192 0.0000 -8.6922 0.0000
# 2 23.1557 164.3983 43.6461 0.0000 18.4757 0.0000
# 3 15.4192 43.6461 53.1782 0.0000 -1.6255 0.0000
# 4 0.0000 0.0000 0.0000 37.8098 0.0000 9.3348
# 5 -8.6922 18.4757 -1.6255 0.0000 30.3750 0.0000
# 6 0.0000 0.0000 0.0000 9.3348 0.0000 33.9571
#
#
#
# Elastic Compliance Matrix: (Units=1/GPa)
#
#
# Indices 1 2 3 4 5 6 
#
# 1 0.025268 -0.003468 -0.004202 0.000000 0.009115 0.000000
# 2 -0.003468 0.009124 -0.006694 0.000000 -0.006900 0.000000
# 3 -0.004202 -0.006694 0.025647 0.000000 0.004242 0.000000
# 4 0.000000 0.000000 0.000000 0.028374 0.000000 -0.007800
# 5 0.009115 -0.006900 0.004242 0.000000 0.039954 0.000000
# 6 0.000000 0.000000 0.000000 -0.007800 0.000000 0.031593
#
#
# Mechanical properties :
#
#
# Convention : Reuss Voigt Hill
#
# Bulk Modulus (GPa) = 31.93699 47.83024 39.88361
# Shear Modulus (GPa) = 25.11003 32.68231 28.89617
#
# Velocity S-wave (km/s) = 3.24041 3.69686 3.47613
# Velocity P-wave (km/s) = 5.23024 6.18252 5.72621
#
# Compressibility (1/GPa) = 0.03131165
#
# Stress axis : x y z
#
# Youngs Moduli (GPa) = 39.57602 109.60261 38.99156
#
# Poissons Ratio (x) = 0.38010 0.16383
# Poissons Ratio (y) = 0.13725 0.26100
# Poissons Ratio (z) = 0.16628 0.73366
#
# Static dielectric constant tensor:
#      x y z
#    x 1.996730 0.000000 -0.063140 
#    y 0.000000 1.923250 0.000000 
#    z -0.063140 0.000000 2.035100 
# 
# From -- ./inp_files/25613.got.cif
#   From: 2010.05.17/outbox.cif.g08.bks.cpg/sg14_13_cif.got.tgz:25613.got - 2010.06.03 17:49:19.
