data_PCOD9249310
_publ_section_title
;
Structure prediction by ZEFSAII (Michael W. Deem and Ramdas Pophale) SiO2 
 PCOD9249310
Probable space group: P 21/C
;
_chemical_formula_sum "Si O2"
_cell_formula_units_Z 28
_cell_length_a 19.751769
_cell_length_b 8.947815
_cell_length_c 11.029186
_cell_angle_alpha 90.000000
_cell_angle_beta 39.689747
_cell_angle_gamma 90.000000
_cell_volume 1244.846651
_symmetry_space_group_name_H-M "P 21/C"
_symmetry_group_IT_number 14
_symmetry_cell_setting 'monoclinic'
loop_
_space_group_symop_operation_xyz
x,y,z
-x,1/2+y,1/2-z
-x,-y,-z
x,1/2-y,1/2+z
loop_
_atom_site_type_symbol
_atom_site_label
_atom_site_fract_x
_atom_site_fract_y
_atom_site_fract_z
Si Si1 0.274617 0.423986 0.612883
Si Si2 0.383566 0.140695 0.529268
Si Si3 0.967295 0.932919 0.913768
Si Si4 0.940246 0.929678 0.462725
Si Si5 0.579713 0.220371 0.882053
Si Si6 0.485289 0.468730 0.679786
Si Si7 0.253447 0.962832 0.880075
O O1 0.298078 0.246786 0.582655
O O2 0.185038 0.449679 0.836801
O O3 0.394574 0.479840 0.464158
O O4 0.234003 0.502528 0.547006
O O5 0.498942 0.207515 0.397891
O O6 0.413369 0.012171 0.395833
O O7 0.338541 0.082799 0.716272
O O8 0.030541 0.990664 0.705745
O O9 0.964527 0.750257 0.921211
O O10 0.851326 0.002095 0.049165
O O11 0.000000 0.000000 0.000000
O O12 0.000000 0.000000 0.500000
O O13 0.689430 0.306360 0.728360
O O14 0.584056 0.051808 0.826439
O O15 0.510058 0.199751 0.099761
#
# Coordination Sequence:
#
# PCOD9249310 Si02
#       7
#     4   4   4   4   4   4   4
#     4  11  24  44  72 102 143 200 242 310 391 451
#     4  11  22  39  70 101 143 189 243 298 368 460
#     4  12  29  52  79 115 150 206 269 341 407 472
#     4  12  26  54  81 109 156 199 266 337 403 485
#     4  10  23  40  63 102 146 191 239 299 367 451
#     4  10  23  42  62 105 153 189 242 306 365 458
#     4  12  24  44  72 103 142 197 252 308 390 460
#
# _framework density 22.492730000000002
#
# number of rings (size 3 to 8) (size 9 to 14) (size 15 to 20)
#    0.000    0.857    4.286    2.143    4.000    2.286 
#   10.286    0.000    0.000    0.000    0.000    0.000 
#    0.000    0.000    0.000    0.000    0.000    0.000 
#
# Total GULP energy -156002.043527 kJ/mol
# GULP energy per Si atom -5571.501555 kJ/mol
# Density = 2.244154 g / cm^3
# Si number density = 22.492730 Si / 1000 Ang^3
#
#
#
# Elastic Constant Matrix: (Units=GPa)
#
#
# Indices 1 2 3 4 5 6 
#
# 1 113.9941 42.5543 42.4580 0.0000 -1.3604 0.0000
# 2 42.5543 105.1681 50.3921 0.0000 -0.2254 0.0000
# 3 42.4580 50.3921 150.8733 0.0000 7.4118 0.0000
# 4 0.0000 0.0000 0.0000 26.6326 0.0000 6.2326
# 5 -1.3604 -0.2254 7.4118 0.0000 38.0713 0.0000
# 6 0.0000 0.0000 0.0000 6.2326 0.0000 33.2234
#
#
#
# Elastic Compliance Matrix: (Units=1/GPa)
#
#
# Indices 1 2 3 4 5 6 
#
# 1 0.010781 -0.003440 -0.001921 0.000000 0.000739 0.000000
# 2 -0.003440 0.012443 -0.003216 0.000000 0.000577 0.000000
# 3 -0.001921 -0.003216 0.008327 0.000000 -0.001709 0.000000
# 4 0.000000 0.000000 0.000000 0.039272 0.000000 -0.007367
# 5 0.000739 0.000577 -0.001709 0.000000 0.026629 0.000000
# 6 0.000000 0.000000 0.000000 -0.007367 0.000000 0.031481
#
#
# Mechanical properties :
#
#
# Convention : Reuss Voigt Hill
#
# Bulk Modulus (GPa) = 69.46547 71.20493 70.33520
# Shear Modulus (GPa) = 33.13738 35.22751 34.18245
#
# Velocity S-wave (km/s) = 3.84246 3.96178 3.90258
# Velocity P-wave (km/s) = 7.11593 7.25625 7.18644
#
# Compressibility (1/GPa) = 0.01439564
#
# Stress axis : x y z
#
# Youngs Moduli (GPa) = 92.75582 80.36712 120.09284
#
# Poissons Ratio (x) = 0.27648 0.23072
# Poissons Ratio (y) = 0.31910 0.38624
# Poissons Ratio (z) = 0.17820 0.25848
#
# Static dielectric constant tensor:
#      x y z
#    x 1.839770 0.000000 0.064880 
#    y 0.000000 1.998590 0.000000 
#    z 0.064880 0.000000 1.897280 
# 
# From -- ./inp_files/34931.got.cif
#   From: 2010.05.17/outbox.cif.g08.bks.cpg/sg14_18_cif.got.tgz:34931.got - 2010.06.03 17:49:19.
