data_PCOD9249987
_publ_section_title
;
Structure prediction by ZEFSAII (Michael W. Deem and Ramdas Pophale) SiO2 
 PCOD9249987
Probable space group: P 21/C
;
_chemical_formula_sum "Si O2"
_cell_formula_units_Z 32
_cell_length_a 5.620064
_cell_length_b 19.530041
_cell_length_c 13.285899
_cell_angle_alpha 90.000000
_cell_angle_beta 72.300540
_cell_angle_gamma 90.000000
_cell_volume 1389.233588
_symmetry_space_group_name_H-M "P 21/C"
_symmetry_group_IT_number 14
_symmetry_cell_setting 'monoclinic'
loop_
_space_group_symop_operation_xyz
x,y,z
-x,1/2+y,1/2-z
-x,-y,-z
x,1/2-y,1/2+z
loop_
_atom_site_type_symbol
_atom_site_label
_atom_site_fract_x
_atom_site_fract_y
_atom_site_fract_z
Si Si1 0.016027 0.561192 0.419284
Si Si2 0.889894 0.057303 0.659394
Si Si3 0.734584 0.449556 0.950290
Si Si4 0.826448 0.292532 0.555807
Si Si5 0.397389 0.450126 0.703297
Si Si6 0.438499 0.802940 0.548761
Si Si7 0.128899 0.195507 0.658499
Si Si8 0.647892 0.696131 0.232384
O O1 0.019005 0.637371 0.467209
O O2 0.303027 0.556236 0.342759
O O3 0.000000 0.500000 0.500000
O O4 0.778259 0.554408 0.374353
O O5 0.853233 0.067317 0.544519
O O6 0.986357 0.125628 0.699188
O O7 0.649955 0.023259 0.739366
O O8 0.089703 0.996319 0.640218
O O9 0.683797 0.375829 0.908760
O O10 0.500000 0.500000 0.000000
O O11 0.731616 0.259630 0.464992
O O12 0.586497 0.302137 0.660096
O O13 0.983823 0.234430 0.589698
O O14 0.293093 0.384602 0.779223
O O15 0.607879 0.821414 0.429295
O O16 0.584416 0.780678 0.628989
O O17 0.161158 0.251090 0.741787
#
# Coordination Sequence:
#
# PCOD9249987 Si02
#       8
#     4   4   4   4   4   4   4   4
#     4  11  25  51  76 101 141 190 247 306 359 420
#     4  11  25  39  65 105 139 181 227 286 356 434
#     4  11  22  38  64  96 145 180 223 278 348 436
#     4  10  23  45  68  95 139 183 236 300 354 422
#     4  11  25  45  76 105 141 190 240 295 364 433
#     4  11  23  41  71  98 134 195 236 289 364 432
#     4  11  22  45  64  98 142 177 230 301 351 423
#     4  10  24  43  69  98 137 184 243 291 357 430
#
# _framework density 23.034285000000001
#
# number of rings (size 3 to 8) (size 9 to 14) (size 15 to 20)
#    0.000    1.250    3.750    1.125    7.000    1.000 
#    4.500    0.000    0.000    0.000    0.000    0.000 
#    0.000    0.000    0.000    0.000    0.000    0.000 
#
# Total GULP energy -178809.002725 kJ/mol
# GULP energy per Si atom -5587.781335 kJ/mol
# Density = 2.298186 g / cm^3
# Si number density = 23.034285 Si / 1000 Ang^3
#
#
#
# Elastic Constant Matrix: (Units=GPa)
#
#
# Indices 1 2 3 4 5 6 
#
# 1 50.3679 -2.6463 6.3369 0.0000 6.1824 0.0000
# 2 -2.6463 106.3313 14.5762 0.0000 -1.6666 0.0000
# 3 6.3369 14.5762 59.2523 0.0000 31.7586 0.0000
# 4 0.0000 0.0000 0.0000 31.9543 0.0000 6.6754
# 5 6.1824 -1.6666 31.7586 0.0000 42.6289 0.0000
# 6 0.0000 0.0000 0.0000 6.6754 0.0000 30.6925
#
#
#
# Elastic Compliance Matrix: (Units=1/GPa)
#
#
# Indices 1 2 3 4 5 6 
#
# 1 0.020290 0.000649 -0.001275 0.000000 -0.001967 0.000000
# 2 0.000649 0.010098 -0.004519 0.000000 0.003667 0.000000
# 3 -0.001275 -0.004519 0.030167 0.000000 -0.022466 0.000000
# 4 0.000000 0.000000 0.000000 0.032784 0.000000 -0.007130
# 5 -0.001967 0.003667 -0.022466 0.000000 0.040624 0.000000
# 6 0.000000 0.000000 0.000000 -0.007130 0.000000 0.034132
#
#
# Mechanical properties :
#
#
# Convention : Reuss Voigt Hill
#
# Bulk Modulus (GPa) = 19.89520 28.05390 23.97455
# Shear Modulus (GPa) = 25.62259 34.23409 29.92834
#
# Velocity S-wave (km/s) = 3.33884 3.85934 3.60848
# Velocity P-wave (km/s) = 4.84971 5.66259 5.27184
#
# Compressibility (1/GPa) = 0.05026339
#
# Stress axis : x y z
#
# Youngs Moduli (GPa) = 49.28557 99.03240 33.14918
#
# Poissons Ratio (x) = -0.06427 0.04227
# Poissons Ratio (y) = -0.03198 0.14981
# Poissons Ratio (z) = 0.06285 0.44755
#
# Static dielectric constant tensor:
#      x y z
#    x 2.021550 0.000000 -0.108280 
#    y 0.000000 1.816860 0.000000 
#    z -0.108280 0.000000 1.930020 
# 
# From -- ./inp_files/37704.got.cif
#   From: 2010.05.17/outbox.cif.g08.bks.cpg/sg14_19_cif.got.tgz:37704.got - 2010.06.03 17:49:19.
