data_PCOD9249412
_publ_section_title
;
Structure prediction by ZEFSAII (Michael W. Deem and Ramdas Pophale) SiO2 
 PCOD9249412
Probable space group: P 21/C
;
_chemical_formula_sum "Si O2"
_cell_formula_units_Z 28
_cell_length_a 5.264267
_cell_length_b 18.930169
_cell_length_c 12.627091
_cell_angle_alpha 90.000000
_cell_angle_beta 75.299865
_cell_angle_gamma 90.000000
_cell_volume 1217.144527
_symmetry_space_group_name_H-M "P 21/C"
_symmetry_group_IT_number 14
_symmetry_cell_setting 'monoclinic'
loop_
_space_group_symop_operation_xyz
x,y,z
-x,1/2+y,1/2-z
-x,-y,-z
x,1/2-y,1/2+z
loop_
_atom_site_type_symbol
_atom_site_label
_atom_site_fract_x
_atom_site_fract_y
_atom_site_fract_z
Si Si1 0.297495 0.492614 0.426639
Si Si2 0.958560 0.328798 0.247001
Si Si3 0.695597 0.125737 0.218487
Si Si4 0.375185 0.167092 0.875547
Si Si5 0.747885 0.801053 0.871884
Si Si6 0.980322 0.422496 0.061116
Si Si7 0.463653 0.915717 0.532203
O O1 0.500000 0.500000 0.500000
O O2 0.350933 0.553480 0.338329
O O3 0.359440 0.417370 0.371405
O O4 0.000000 0.500000 0.500000
O O5 0.652729 0.311263 0.295192
O O6 0.980084 0.406383 0.187386
O O7 0.108680 0.314968 0.341549
O O8 0.121186 0.275201 0.156950
O O9 0.475344 0.177925 0.190790
O O10 0.667222 0.105961 0.344548
O O11 0.994543 0.149409 0.166639
O O12 0.367484 0.189604 0.998556
O O13 0.716088 0.388543 0.043945
O O14 0.000000 0.500000 0.000000
O O15 0.244389 0.386883 0.992509
O O16 0.500000 0.000000 0.500000
#
# Coordination Sequence:
#
# PCOD9249412 Si02
#       7
#     4   4   4   4   4   4   4
#     4  12  23  43  73 112 139 185 236 304 366 418
#     4  12  28  46  75 101 145 198 237 300 365 431
#     4  12  24  44  73 104 148 189 237 298 365 432
#     4  12  26  47  75 108 143 187 248 297 358 442
#     4  12  27  49  69 108 145 194 248 292 359 444
#     4  10  23  42  64 102 138 179 237 295 355 424
#     4  10  23  41  65 101 140 179 226 293 358 429
#
# _framework density 23.004663000000001
#
# number of rings (size 3 to 8) (size 9 to 14) (size 15 to 20)
#    0.000    0.571    2.857    4.286    8.000    3.429 
#    0.000    0.000    0.000    0.000    0.000    0.000 
#    0.000    0.000    0.000    0.000    0.000    0.000 
#
# Total GULP energy -156274.377830 kJ/mol
# GULP energy per Si atom -5581.227780 kJ/mol
# Density = 2.295230 g / cm^3
# Si number density = 23.004663 Si / 1000 Ang^3
#
#
#
# Elastic Constant Matrix: (Units=GPa)
#
#
# Indices 1 2 3 4 5 6 
#
# 1 147.9728 7.4643 20.9453 0.0000 1.1815 0.0000
# 2 7.4643 79.1834 20.1606 0.0000 -4.4194 0.0000
# 3 20.9453 20.1606 97.2067 0.0000 1.7703 0.0000
# 4 0.0000 0.0000 0.0000 20.1735 0.0000 6.0896
# 5 1.1815 -4.4194 1.7703 0.0000 38.0865 0.0000
# 6 0.0000 0.0000 0.0000 6.0896 0.0000 22.2298
#
#
#
# Elastic Compliance Matrix: (Units=1/GPa)
#
#
# Indices 1 2 3 4 5 6 
#
# 1 0.006978 -0.000302 -0.001438 0.000000 -0.000185 0.000000
# 2 -0.000302 0.013454 -0.002756 0.000000 0.001699 0.000000
# 3 -0.001438 -0.002756 0.011183 0.000000 -0.000795 0.000000
# 4 0.000000 0.000000 0.000000 0.054039 0.000000 -0.014803
# 5 -0.000185 0.001699 -0.000795 0.000000 0.026496 0.000000
# 6 0.000000 0.000000 0.000000 -0.014803 0.000000 0.049040
#
#
# Mechanical properties :
#
#
# Convention : Reuss Voigt Hill
#
# Bulk Modulus (GPa) = 44.20155 46.83369 45.51762
# Shear Modulus (GPa) = 28.13374 34.48412 31.30893
#
# Velocity S-wave (km/s) = 3.50088 3.87590 3.69315
# Velocity P-wave (km/s) = 5.96635 6.35867 6.16563
#
# Compressibility (1/GPa) = 0.02262364
#
# Stress axis : x y z
#
# Youngs Moduli (GPa) = 143.30341 74.32766 89.41960
#
# Poissons Ratio (x) = 0.02245 0.12855
# Poissons Ratio (y) = 0.04329 0.24646
# Poissons Ratio (z) = 0.20601 0.20486
#
# Static dielectric constant tensor:
#      x y z
#    x 1.704220 0.000000 -0.286840 
#    y 0.000000 1.925360 0.000000 
#    z -0.286840 0.000000 1.216860 
# 
# From -- ./inp_files/21744.got.cif
#   From: 2010.05.17/outbox.cif.g08.bks.cpg/sg14_11_cif.got.tgz:21744.got - 2010.06.03 17:49:19.
