data_PCOD9249740
_publ_section_title
;
Structure prediction by ZEFSAII (Michael W. Deem and Ramdas Pophale) SiO2 
 PCOD9249740
Probable space group: P 21/C
;
_chemical_formula_sum "Si O2"
_cell_formula_units_Z 20
_cell_length_a 11.368152
_cell_length_b 7.462392
_cell_length_c 8.781200
_cell_angle_alpha 90.000000
_cell_angle_beta 87.214357
_cell_angle_gamma 90.000000
_cell_volume 744.060604
_symmetry_space_group_name_H-M "P 21/C"
_symmetry_group_IT_number 14
_symmetry_cell_setting 'monoclinic'
loop_
_space_group_symop_operation_xyz
x,y,z
-x,1/2+y,1/2-z
-x,-y,-z
x,1/2-y,1/2+z
loop_
_atom_site_type_symbol
_atom_site_label
_atom_site_fract_x
_atom_site_fract_y
_atom_site_fract_z
Si Si1 0.738107 0.294116 0.639924
Si Si2 0.374086 0.087145 0.364041
Si Si3 0.580111 0.331698 0.397266
Si Si4 0.131000 0.335468 0.920702
Si Si5 0.055255 0.019854 0.755176
O O1 0.669175 0.405246 0.517399
O O2 0.659989 0.301102 0.794133
O O3 0.865541 0.359213 0.681091
O O4 0.705864 0.089329 0.587417
O O5 0.470013 0.204957 0.449478
O O6 0.261778 0.215633 0.355824
O O7 0.441508 0.999989 0.214663
O O8 0.052085 0.161523 0.891344
O O9 0.071977 0.467764 0.800688
O O10 0.115680 0.400119 0.095599
#
# Coordination Sequence:
#
# PCOD9249740 Si02
#       5
#     4   4   4   4   4
#     4  10  23  43  68 100 143 185 233 298 344 421
#     4  10  24  42  69 103 143 189 234 295 347 427
#     4  10  24  41  68  99 143 189 236 287 353 414
#     4  11  26  46  74 105 143 189 233 297 354 426
#     4  11  26  47  72 107 142 184 240 294 356 426
#
# _framework density 26.879529999999999
#
# number of rings (size 3 to 8) (size 9 to 14) (size 15 to 20)
#    1.200    0.400    0.000    3.000    5.600    4.800 
#    0.000    0.000    0.000    0.000    0.000    0.000 
#    0.000    0.000    0.000    0.000    0.000    0.000 
#
# Total GULP energy -111362.393208 kJ/mol
# GULP energy per Si atom -5568.119660 kJ/mol
# Density = 2.681835 g / cm^3
# Si number density = 26.879530 Si / 1000 Ang^3
#
#
#
# Elastic Constant Matrix: (Units=GPa)
#
#
# Indices 1 2 3 4 5 6 
#
# 1 125.8494 20.0524 46.3095 0.0000 27.9302 0.0000
# 2 20.0524 99.5673 38.4242 0.0000 22.3247 0.0000
# 3 46.3095 38.4242 109.9564 0.0000 39.1036 0.0000
# 4 0.0000 0.0000 0.0000 40.5872 0.0000 9.0135
# 5 27.9302 22.3247 39.1036 0.0000 38.6504 0.0000
# 6 0.0000 0.0000 0.0000 9.0135 0.0000 36.8046
#
#
#
# Elastic Compliance Matrix: (Units=1/GPa)
#
#
# Indices 1 2 3 4 5 6 
#
# 1 0.009897 0.000017 -0.002542 0.000000 -0.004590 0.000000
# 2 0.000017 0.012032 -0.002711 0.000000 -0.004219 0.000000
# 3 -0.002542 -0.002711 0.015468 0.000000 -0.012246 0.000000
# 4 0.000000 0.000000 0.000000 0.026055 0.000000 -0.006381
# 5 -0.004590 -0.004219 -0.012246 0.000000 0.044016 0.000000
# 6 0.000000 0.000000 0.000000 -0.006381 0.000000 0.028733
#
#
# Mechanical properties :
#
#
# Convention : Reuss Voigt Hill
#
# Bulk Modulus (GPa) = 37.14096 60.54948 48.84522
# Shear Modulus (GPa) = 32.12333 38.58091 35.35212
#
# Velocity S-wave (km/s) = 3.46075 3.79268 3.63051
# Velocity P-wave (km/s) = 5.46046 6.46176 5.98210
#
# Compressibility (1/GPa) = 0.02692445
#
# Stress axis : x y z
#
# Youngs Moduli (GPa) = 101.03666 83.10896 64.65139
#
# Poissons Ratio (x) = -0.00140 0.16434
# Poissons Ratio (y) = -0.00170 0.17530
# Poissons Ratio (z) = 0.25682 0.22535
#
# Static dielectric constant tensor:
#      x y z
#    x 2.135100 0.000000 0.024140 
#    y 0.000000 2.416900 0.000000 
#    z 0.024140 0.000000 2.091430 
# 
# From -- ./inp_files/11912.got.cif
#   From: 2010.05.17/outbox.cif.g08.bks.cpg/sg14_6_cif.got.tgz:11912.got - 2010.06.03 17:49:19.
