data_PCOD9249568
_publ_section_title
;
Structure prediction by ZEFSAII (Michael W. Deem and Ramdas Pophale) SiO2 
 PCOD9249568
Probable space group: P 21/C
;
_chemical_formula_sum "Si O2"
_cell_formula_units_Z 28
_cell_length_a 16.356541
_cell_length_b 12.134123
_cell_length_c 7.988469
_cell_angle_alpha 90.000000
_cell_angle_beta 55.621719
_cell_angle_gamma 90.000000
_cell_volume 1308.548375
_symmetry_space_group_name_H-M "P 21/C"
_symmetry_group_IT_number 14
_symmetry_cell_setting 'monoclinic'
loop_
_space_group_symop_operation_xyz
x,y,z
-x,1/2+y,1/2-z
-x,-y,-z
x,1/2-y,1/2+z
loop_
_atom_site_type_symbol
_atom_site_label
_atom_site_fract_x
_atom_site_fract_y
_atom_site_fract_z
Si Si1 0.009974 0.879217 0.061528
Si Si2 0.167034 0.539920 0.813835
Si Si3 0.961269 0.653295 0.996916
Si Si4 0.525809 0.612710 0.372228
Si Si5 0.310992 0.523549 0.962622
Si Si6 0.764406 0.115090 0.125813
Si Si7 0.584714 0.245437 0.752523
O O1 0.965970 0.877896 0.297518
O O2 0.126183 0.850208 0.942755
O O3 0.957281 0.783595 0.019321
O O4 0.000000 0.000000 0.000000
O O5 0.230174 0.542831 0.910250
O O6 0.223645 0.579765 0.581732
O O7 0.065519 0.609677 0.951880
O O8 0.127990 0.416119 0.823119
O O9 0.500000 0.500000 0.500000
O O10 0.628252 0.584231 0.163451
O O11 0.508617 0.710956 0.524550
O O12 0.448100 0.651864 0.322242
O O13 0.383435 0.630873 0.871646
O O14 0.268635 0.524149 0.199310
O O15 0.684649 0.213152 0.226975
#
# Coordination Sequence:
#
# PCOD9249568 Si02
#       7
#     4   4   4   4   4   4   4
#     4  11  25  41  68 103 138 190 233 278 350 415
#     4  10  23  44  66 104 135 185 233 294 348 403
#     4  10  24  42  70  97 149 179 230 291 344 408
#     4  10  23  42  66  97 135 172 220 289 353 408
#     4  11  23  42  69  99 136 172 234 292 339 420
#     4  11  23  38  73  99 128 177 237 283 342 409
#     4  11  21  43  67 100 132 172 231 290 346 412
#
# _framework density 21.397756999999999
#
# number of rings (size 3 to 8) (size 9 to 14) (size 15 to 20)
#    0.000    1.429    1.429    3.429   12.000    0.571 
#    2.571    2.857    0.000    0.000    0.000    0.000 
#    0.000    0.000    0.000    0.000    0.000    0.000 
#
# Total GULP energy -156254.652217 kJ/mol
# GULP energy per Si atom -5580.523293 kJ/mol
# Density = 2.134905 g / cm^3
# Si number density = 21.397757 Si / 1000 Ang^3
#
#
#
# Elastic Constant Matrix: (Units=GPa)
#
#
# Indices 1 2 3 4 5 6 
#
# 1 52.3996 26.6544 5.2206 0.0000 5.7883 0.0000
# 2 26.6544 119.9255 14.1492 0.0000 -1.9903 0.0000
# 3 5.2206 14.1492 68.3018 0.0000 -14.2449 0.0000
# 4 0.0000 0.0000 0.0000 12.8450 0.0000 6.3683
# 5 5.7883 -1.9903 -14.2449 0.0000 9.1267 0.0000
# 6 0.0000 0.0000 0.0000 6.3683 0.0000 27.5018
#
#
#
# Elastic Compliance Matrix: (Units=1/GPa)
#
#
# Indices 1 2 3 4 5 6 
#
# 1 0.025523 -0.005352 -0.006615 0.000000 -0.027678 0.000000
# 2 -0.005352 0.009680 -0.000664 0.000000 0.004468 0.000000
# 3 -0.006615 -0.000664 0.023913 0.000000 0.041373 0.000000
# 4 0.000000 0.000000 0.000000 0.087948 0.000000 -0.020365
# 5 -0.027678 0.004468 0.041373 0.000000 0.192672 0.000000
# 6 0.000000 0.000000 0.000000 -0.020365 0.000000 0.041077
#
#
# Mechanical properties :
#
#
# Convention : Reuss Voigt Hill
#
# Bulk Modulus (GPa) = 29.53810 36.96393 33.25102
# Shear Modulus (GPa) = 11.98006 22.86821 17.42413
#
# Velocity S-wave (km/s) = 2.36873 3.27267 2.85669
# Velocity P-wave (km/s) = 4.61687 5.62074 5.14335
#
# Compressibility (1/GPa) = 0.03385458
#
# Stress axis : x y z
#
# Youngs Moduli (GPa) = 39.18067 103.30058 41.81841
#
# Poissons Ratio (x) = 0.55282 0.27662
# Poissons Ratio (y) = 0.20968 0.02779
# Poissons Ratio (z) = 0.25917 0.06864
#
# Static dielectric constant tensor:
#      x y z
#    x 1.786120 0.000000 0.027180 
#    y 0.000000 1.893430 0.000000 
#    z 0.027180 0.000000 1.847750 
# 
# From -- ./inp_files/15659.got.cif
#   From: 2010.05.17/outbox.cif.g08.bks.cpg/sg14_8_cif.got.tgz:15659.got - 2010.06.03 17:49:19.
