data_PCOD9249192
_publ_section_title
;
Structure prediction by ZEFSAII (Michael W. Deem and Ramdas Pophale) SiO2 
 PCOD9249192
Probable space group: P 21/C
;
_chemical_formula_sum "Si O2"
_cell_formula_units_Z 26
_cell_length_a 21.665149
_cell_length_b 4.748665
_cell_length_c 21.269661
_cell_angle_alpha 90.000000
_cell_angle_beta 153.018531
_cell_angle_gamma 90.000000
_cell_volume 992.806844
_symmetry_space_group_name_H-M "P 21/C"
_symmetry_group_IT_number 14
_symmetry_cell_setting 'monoclinic'
loop_
_space_group_symop_operation_xyz
x,y,z
-x,1/2+y,1/2-z
-x,-y,-z
x,1/2-y,1/2+z
loop_
_atom_site_type_symbol
_atom_site_label
_atom_site_fract_x
_atom_site_fract_y
_atom_site_fract_z
Si Si1 0.570816 0.533636 0.661772
Si Si2 0.826686 0.308183 0.739570
Si Si3 0.203077 0.656687 0.576110
Si Si4 0.986157 0.983942 0.779667
Si Si5 0.458388 0.354329 0.751153
Si Si6 0.349431 0.186322 0.395338
Si Si7 0.000000 0.500000 0.500000
O O1 0.705078 0.416622 0.817994
O O2 0.485392 0.703207 0.636012
O O3 0.475843 0.281492 0.551845
O O4 0.616202 0.716335 0.643685
O O5 0.692174 0.135832 0.637926
O O6 0.938128 0.238078 0.893508
O O7 0.783655 0.633383 0.703640
O O8 0.878300 0.168315 0.721866
O O9 0.082390 0.682962 0.416233
O O10 0.312510 0.464895 0.639837
O O11 0.131806 0.542047 0.573754
O O12 0.937054 0.731997 0.689679
O O13 0.543572 0.617998 0.804143
#
# Coordination Sequence:
#
# PCOD9249192 Si02
#       7
#     4   4   4   4   4   4   2
#     4  11  26  46  74 110 148 193 244 309 377 448
#     4  11  24  46  71 107 139 199 233 314 371 447
#     4  11  25  49  78 110 149 198 254 317 375 460
#     4  11  27  48  70 103 146 195 253 309 366 448
#     4  12  27  47  73 110 150 201 251 304 370 458
#     4  11  26  44  74 107 152 179 244 311 377 443
#     4  10  22  48  78 108 144 192 258 308 384 440
#
# _framework density 26.188376999999999
#
# number of rings (size 3 to 8) (size 9 to 14) (size 15 to 20)
#    0.000    0.923    3.077    1.846    4.308    5.538 
#    2.769    0.000    0.000    0.000    0.000    0.000 
#    0.000    0.000    0.000    0.000    0.000    0.000 
#
# Total GULP energy -145263.086643 kJ/mol
# GULP energy per Si atom -5587.041794 kJ/mol
# Density = 2.612877 g / cm^3
# Si number density = 26.188377 Si / 1000 Ang^3
#
#
#
# Elastic Constant Matrix: (Units=GPa)
#
#
# Indices 1 2 3 4 5 6 
#
# 1 171.5055 50.7123 26.2569 0.0000 7.5874 0.0000
# 2 50.7123 104.8263 8.8291 0.0000 0.3794 0.0000
# 3 26.2569 8.8291 48.2115 0.0000 -3.1586 0.0000
# 4 0.0000 0.0000 0.0000 33.2165 0.0000 13.0419
# 5 7.5874 0.3794 -3.1586 0.0000 25.2656 0.0000
# 6 0.0000 0.0000 0.0000 13.0419 0.0000 41.5357
#
#
#
# Elastic Compliance Matrix: (Units=1/GPa)
#
#
# Indices 1 2 3 4 5 6 
#
# 1 0.007483 -0.003303 -0.003644 0.000000 -0.002653 0.000000
# 2 -0.003303 0.011151 -0.000191 0.000000 0.000801 0.000000
# 3 -0.003644 -0.000191 0.023022 0.000000 0.003975 0.000000
# 4 0.000000 0.000000 0.000000 0.034339 0.000000 -0.010782
# 5 -0.002653 0.000801 0.003975 0.000000 0.040861 0.000000
# 6 0.000000 0.000000 0.000000 -0.010782 0.000000 0.027461
#
#
# Mechanical properties :
#
#
# Convention : Reuss Voigt Hill
#
# Bulk Modulus (GPa) = 36.52380 55.12669 45.82524
# Shear Modulus (GPa) = 29.81166 35.91987 32.86576
#
# Velocity S-wave (km/s) = 3.37761 3.70752 3.54641
# Velocity P-wave (km/s) = 5.40258 6.27881 5.85710
#
# Compressibility (1/GPa) = 0.02737941
#
# Stress axis : x y z
#
# Youngs Moduli (GPa) = 133.64004 89.67910 43.43690
#
# Poissons Ratio (x) = 0.29625 0.15829
# Poissons Ratio (y) = 0.44147 0.00828
# Poissons Ratio (z) = 0.48700 0.01708
#
# Static dielectric constant tensor:
#      x y z
#    x 2.026680 0.000000 -0.034970 
#    y 0.000000 2.039000 0.000000 
#    z -0.034970 0.000000 2.081220 
# 
# From -- ./inp_files/69565.got.cif
#   From: 2010.05.17/outbox.cif.g08.bks.cpg/sg14_35_cif.got.tgz:69565.got - 2010.06.03 17:49:19.
