data_PCOD9249508
_publ_section_title
;
Structure prediction by ZEFSAII (Michael W. Deem and Ramdas Pophale) SiO2 
 PCOD9249508
Probable space group: P 21/C
;
_chemical_formula_sum "Si O2"
_cell_formula_units_Z 24
_cell_length_a 8.102590
_cell_length_b 7.215734
_cell_length_c 14.519019
_cell_angle_alpha 90.000000
_cell_angle_beta 103.583456
_cell_angle_gamma 90.000000
_cell_volume 825.127023
_symmetry_space_group_name_H-M "P 21/C"
_symmetry_group_IT_number 14
_symmetry_cell_setting 'monoclinic'
loop_
_space_group_symop_operation_xyz
x,y,z
-x,1/2+y,1/2-z
-x,-y,-z
x,1/2-y,1/2+z
loop_
_atom_site_type_symbol
_atom_site_label
_atom_site_fract_x
_atom_site_fract_y
_atom_site_fract_z
Si Si1 0.408591 0.286487 0.834875
Si Si2 0.535760 0.276112 0.169610
Si Si3 0.164624 0.359329 0.959718
Si Si4 0.960279 0.852660 0.880343
Si Si5 0.892876 0.244730 0.294636
Si Si6 0.318873 0.727027 0.496887
O O1 0.432951 0.506735 0.838144
O O2 0.388819 0.242225 0.725359
O O3 0.265688 0.252630 0.891855
O O4 0.578875 0.192786 0.896855
O O5 0.704329 0.188557 0.238872
O O6 0.544061 0.202040 0.067347
O O7 0.256655 0.556553 0.986665
O O8 0.982887 0.380039 0.884173
O O9 0.140370 0.252370 0.051847
O O10 0.003831 0.752987 0.788472
O O11 0.147113 0.879390 0.951910
O O12 0.891915 0.050717 0.838270
#
# Coordination Sequence:
#
# PCOD9249508 Si02
#       6
#     4   4   4   4   4   4
#     4  11  24  43  66  94 128 171 213 262 324 379
#     4  10  23  42  63  91 128 166 215 263 314 385
#     4  11  23  41  66  94 126 168 213 263 317 375
#     4  11  23  42  66  95 130 168 214 268 317 379
#     4  11  24  42  65  97 129 167 217 265 316 376
#     4  10  23  42  65  93 127 172 213 259 322 382
#
# _framework density 29.086431000000001
#
# number of rings (size 3 to 8) (size 9 to 14) (size 15 to 20)
#    0.000    1.333    0.000    7.000    0.000   10.667 
#    0.000    2.500    0.000    0.000    0.000    0.000 
#    0.000    0.000    0.000    0.000    0.000    0.000 
#
# Total GULP energy -134664.204783 kJ/mol
# GULP energy per Si atom -5611.008533 kJ/mol
# Density = 2.902023 g / cm^3
# Si number density = 29.086431 Si / 1000 Ang^3
#
#
#
# Elastic Constant Matrix: (Units=GPa)
#
#
# Indices 1 2 3 4 5 6 
#
# 1 92.6453 18.7085 45.6000 0.0000 -26.9222 0.0000
# 2 18.7085 95.9504 13.9730 0.0000 -33.4951 0.0000
# 3 45.6000 13.9730 195.9758 0.0000 -18.0772 0.0000
# 4 0.0000 0.0000 0.0000 40.7024 0.0000 -9.3933
# 5 -26.9222 -33.4951 -18.0772 0.0000 87.8967 0.0000
# 6 0.0000 0.0000 0.0000 -9.3933 0.0000 43.7609
#
#
#
# Elastic Compliance Matrix: (Units=1/GPa)
#
#
# Indices 1 2 3 4 5 6 
#
# 1 0.013251 -0.001114 -0.002720 0.000000 0.003075 0.000000
# 2 -0.001114 0.012153 -0.000216 0.000000 0.004245 0.000000
# 3 -0.002720 -0.000216 0.005776 0.000000 0.000273 0.000000
# 4 0.000000 0.000000 0.000000 0.025849 0.000000 0.005548
# 5 0.003075 0.004245 0.000273 0.000000 0.013993 0.000000
# 6 0.000000 0.000000 0.000000 0.005548 0.000000 0.024042
#
#
# Mechanical properties :
#
#
# Convention : Reuss Voigt Hill
#
# Bulk Modulus (GPa) = 43.32771 60.12604 51.72687
# Shear Modulus (GPa) = 45.10280 54.89134 49.99707
#
# Velocity S-wave (km/s) = 3.94210 4.34888 4.15048
# Velocity P-wave (km/s) = 5.97065 6.77742 6.38679
#
# Compressibility (1/GPa) = 0.02307992
#
# Stress axis : x y z
#
# Youngs Moduli (GPa) = 75.46441 82.28588 173.12583
#
# Poissons Ratio (x) = 0.09169 0.47095
# Poissons Ratio (y) = 0.08409 0.03733
# Poissons Ratio (z) = 0.20528 0.01774
#
# Static dielectric constant tensor:
#      x y z
#    x 2.382060 0.000000 -0.002580 
#    y 0.000000 2.245660 0.000000 
#    z -0.002580 0.000000 2.162960 
# 
# From -- ./inp_files/39043.got.cif
#   From: 2010.05.17/outbox.cif.g08.bks.cpg/sg14_20_cif.got.tgz:39043.got - 2010.06.03 17:49:19.
