data_PCOD9249791
_publ_section_title
;
Structure prediction by ZEFSAII (Michael W. Deem and Ramdas Pophale) SiO2 
 PCOD9249791
Probable space group: P 21/C
;
_chemical_formula_sum "Si O2"
_cell_formula_units_Z 20
_cell_length_a 8.880614
_cell_length_b 10.956358
_cell_length_c 9.150913
_cell_angle_alpha 90.000000
_cell_angle_beta 88.739599
_cell_angle_gamma 90.000000
_cell_volume 890.160962
_symmetry_space_group_name_H-M "P 21/C"
_symmetry_group_IT_number 14
_symmetry_cell_setting 'monoclinic'
loop_
_space_group_symop_operation_xyz
x,y,z
-x,1/2+y,1/2-z
-x,-y,-z
x,1/2-y,1/2+z
loop_
_atom_site_type_symbol
_atom_site_label
_atom_site_fract_x
_atom_site_fract_y
_atom_site_fract_z
Si Si1 0.195716 0.999893 0.853647
Si Si2 0.634048 0.551718 0.392529
Si Si3 0.808604 0.258661 0.979231
Si Si4 0.441926 0.916084 0.632948
Si Si5 0.107740 0.897530 0.258685
O O1 0.197872 0.866304 0.928774
O O2 0.316689 0.995202 0.722247
O O3 0.033049 0.026289 0.792624
O O4 0.246978 0.091824 0.983869
O O5 0.500000 0.500000 0.500000
O O6 0.555655 0.624308 0.261113
O O7 0.734120 0.456256 0.295766
O O8 0.882654 0.364098 0.073420
O O9 0.643002 0.301445 0.935706
O O10 0.900764 0.227995 0.832758
O O11 0.500000 0.000000 0.500000
#
# Coordination Sequence:
#
# PCOD9249791 Si02
#       5
#     4   4   4   4   4
#     4  10  23  43  71  91 134 179 217 277 340 390
#     4   9  19  37  65  89 125 171 210 265 335 383
#     4  11  21  40  69  95 128 174 223 263 339 392
#     4  11  21  39  68  96 128 173 225 271 328 399
#     4  11  22  42  71  93 133 175 225 272 337 396
#
# _framework density 22.467846999999999
#
# number of rings (size 3 to 8) (size 9 to 14) (size 15 to 20)
#    0.000    1.600    4.000    2.400    0.000    0.800 
#    0.000    0.000   83.600    0.000    0.000    0.000 
#    0.000    0.000    0.000    0.000    0.000    0.000 
#
# Total GULP energy -111479.697469 kJ/mol
# GULP energy per Si atom -5573.984873 kJ/mol
# Density = 2.241671 g / cm^3
# Si number density = 22.467847 Si / 1000 Ang^3
#
#
#
# Elastic Constant Matrix: (Units=GPa)
#
#
# Indices 1 2 3 4 5 6 
#
# 1 90.8237 36.3972 42.3039 0.0000 33.9642 0.0000
# 2 36.3972 47.1063 34.1088 0.0000 21.9947 0.0000
# 3 42.3039 34.1088 121.8125 0.0000 29.9017 0.0000
# 4 0.0000 0.0000 0.0000 29.1067 0.0000 9.8007
# 5 33.9642 21.9947 29.9017 0.0000 47.0061 0.0000
# 6 0.0000 0.0000 0.0000 9.8007 0.0000 37.4789
#
#
#
# Elastic Compliance Matrix: (Units=1/GPa)
#
#
# Indices 1 2 3 4 5 6 
#
# 1 0.018560 -0.009288 -0.001919 0.000000 -0.007843 0.000000
# 2 -0.009288 0.035064 -0.004992 0.000000 -0.006520 0.000000
# 3 -0.001919 -0.004992 0.011092 0.000000 -0.003333 0.000000
# 4 0.000000 0.000000 0.000000 0.037673 0.000000 -0.009852
# 5 -0.007843 -0.006520 -0.003333 0.000000 0.032112 0.000000
# 6 0.000000 0.000000 0.000000 -0.009852 0.000000 0.029258
#
#
# Mechanical properties :
#
#
# Convention : Reuss Voigt Hill
#
# Bulk Modulus (GPa) = 30.94430 53.92914 42.43672
# Shear Modulus (GPa) = 24.16259 32.51385 28.33822
#
# Velocity S-wave (km/s) = 3.28293 3.80824 3.55530
# Velocity P-wave (km/s) = 5.30781 6.58725 5.98183
#
# Compressibility (1/GPa) = 0.03231613
#
# Stress axis : x y z
#
# Youngs Moduli (GPa) = 53.88035 28.51889 90.15539
#
# Poissons Ratio (x) = 0.26490 0.17304
# Poissons Ratio (y) = 0.50046 0.45007
# Poissons Ratio (z) = 0.10342 0.14237
#
# Static dielectric constant tensor:
#      x y z
#    x 1.880240 0.000000 0.057810 
#    y 0.000000 1.887920 0.000000 
#    z 0.057810 0.000000 1.899480 
# 
# From -- ./inp_files/7918.got.cif
#   From: 2010.05.17/outbox.cif.g08.bks.cpg/sg14_4_cif.got.tgz:7918.got - 2010.06.03 17:49:19.
