data_PCOD9249832
_publ_section_title
;
Structure prediction by ZEFSAII (Michael W. Deem and Ramdas Pophale) SiO2 
 PCOD9249832
Probable space group: P 21/C
;
_chemical_formula_sum "Si O2"
_cell_formula_units_Z 20
_cell_length_a 7.455262
_cell_length_b 10.995845
_cell_length_c 11.436654
_cell_angle_alpha 90.000000
_cell_angle_beta 55.007246
_cell_angle_gamma 90.000000
_cell_volume 768.057040
_symmetry_space_group_name_H-M "P 21/C"
_symmetry_group_IT_number 14
_symmetry_cell_setting 'monoclinic'
loop_
_space_group_symop_operation_xyz
x,y,z
-x,1/2+y,1/2-z
-x,-y,-z
x,1/2-y,1/2+z
loop_
_atom_site_type_symbol
_atom_site_label
_atom_site_fract_x
_atom_site_fract_y
_atom_site_fract_z
Si Si1 0.263175 0.927925 0.794533
Si Si2 0.668868 0.631454 0.292445
Si Si3 0.064584 0.918283 0.201315
Si Si4 0.363343 0.811477 0.517235
Si Si5 0.975929 0.183600 0.536481
O O1 0.455266 0.932632 0.816753
O O2 0.367579 0.893799 0.629566
O O3 0.105542 0.816382 0.891365
O O4 0.117179 0.044875 0.824347
O O5 0.788801 0.538079 0.332784
O O6 0.585825 0.749330 0.393197
O O7 0.827390 0.672279 0.128269
O O8 0.977303 0.889524 0.363371
O O9 0.207636 0.803109 0.110838
O O10 0.238055 0.867985 0.452854
#
# Coordination Sequence:
#
# PCOD9249832 Si02
#       5
#     4   4   4   4   4
#     4  10  24  42  65  96 127 171 210 261 321 374
#     4  11  23  40  66  95 124 171 212 259 313 381
#     4  11  23  45  65  92 133 167 212 264 315 376
#     4  10  23  44  64  95 131 166 213 263 319 372
#     4  10  23  44  63  95 133 161 215 269 306 381
#
# _framework density 26.039731
#
# number of rings (size 3 to 8) (size 9 to 14) (size 15 to 20)
#    0.000    1.600    2.000    1.200    2.800    4.000 
#   14.400    0.000    0.000    0.000    0.000    0.000 
#    0.000    0.000    0.000    0.000    0.000    0.000 
#
# Total GULP energy -112225.554278 kJ/mol
# GULP energy per Si atom -5611.277714 kJ/mol
# Density = 2.598046 g / cm^3
# Si number density = 26.039731 Si / 1000 Ang^3
#
#
#
# Elastic Constant Matrix: (Units=GPa)
#
#
# Indices 1 2 3 4 5 6 
#
# 1 119.1822 32.0511 6.4101 0.0000 6.8543 0.0000
# 2 32.0511 56.8710 19.7248 0.0000 -10.6466 0.0000
# 3 6.4101 19.7248 97.1774 0.0000 3.9430 0.0000
# 4 0.0000 0.0000 0.0000 45.3910 0.0000 3.9616
# 5 6.8543 -10.6466 3.9430 0.0000 39.9614 0.0000
# 6 0.0000 0.0000 0.0000 3.9616 0.0000 41.0501
#
#
#
# Elastic Compliance Matrix: (Units=1/GPa)
#
#
# Indices 1 2 3 4 5 6 
#
# 1 0.010398 -0.006848 0.000854 0.000000 -0.003692 0.000000
# 2 -0.006848 0.024681 -0.004892 0.000000 0.008233 0.000000
# 3 0.000854 -0.004892 0.011331 0.000000 -0.002568 0.000000
# 4 0.000000 0.000000 0.000000 0.022218 0.000000 -0.002144
# 5 -0.003692 0.008233 -0.002568 0.000000 0.028104 0.000000
# 6 0.000000 0.000000 0.000000 -0.002144 0.000000 0.024567
#
#
# Mechanical properties :
#
#
# Convention : Reuss Voigt Hill
#
# Bulk Modulus (GPa) = 40.58627 43.28916 41.93771
# Shear Modulus (GPa) = 33.05030 39.61681 36.33356
#
# Velocity S-wave (km/s) = 3.56648 3.90474 3.73944
# Velocity P-wave (km/s) = 5.70788 6.08192 5.89786
#
# Compressibility (1/GPa) = 0.02463888
#
# Stress axis : x y z
#
# Youngs Moduli (GPa) = 96.16831 40.51741 88.25125
#
# Poissons Ratio (x) = 0.27745 -0.07535
# Poissons Ratio (y) = 0.65853 0.43172
# Poissons Ratio (z) = -0.08211 0.19821
#
# Static dielectric constant tensor:
#      x y z
#    x 2.032010 0.000000 -0.023180 
#    y 0.000000 2.026450 0.000000 
#    z -0.023180 0.000000 2.048340 
# 
# From -- ./inp_files/23764.got.cif
#   From: 2010.05.17/outbox.cif.g08.bks.cpg/sg14_12_cif.got.tgz:23764.got - 2010.06.03 17:49:19.
