data_PCOD9249725
_publ_section_title
;
Structure prediction by ZEFSAII (Michael W. Deem and Ramdas Pophale) SiO2 
 PCOD9249725
Probable space group: P 21/C
;
_chemical_formula_sum "Si O2"
_cell_formula_units_Z 20
_cell_length_a 21.118874
_cell_length_b 5.297075
_cell_length_c 13.255381
_cell_angle_alpha 90.000000
_cell_angle_beta 147.869048
_cell_angle_gamma 90.000000
_cell_volume 788.666266
_symmetry_space_group_name_H-M "P 21/C"
_symmetry_group_IT_number 14
_symmetry_cell_setting 'monoclinic'
loop_
_space_group_symop_operation_xyz
x,y,z
-x,1/2+y,1/2-z
-x,-y,-z
x,1/2-y,1/2+z
loop_
_atom_site_type_symbol
_atom_site_label
_atom_site_fract_x
_atom_site_fract_y
_atom_site_fract_z
Si Si1 0.378840 0.621090 0.465927
Si Si2 0.208067 0.512119 0.689047
Si Si3 0.020241 0.818335 0.214892
Si Si4 0.716437 0.392611 0.999682
Si Si5 0.394034 0.247051 0.316382
O O1 0.244662 0.692838 0.247763
O O2 0.414828 0.377794 0.453256
O O3 0.477432 0.820510 0.556150
O O4 0.367274 0.668567 0.568970
O O5 0.075823 0.417831 0.495689
O O6 0.259361 0.432306 0.868024
O O7 0.283551 0.431522 0.692814
O O8 0.017854 0.047560 0.292711
O O9 0.153707 0.797488 0.354852
O O10 0.655887 0.548979 0.830650
#
# Coordination Sequence:
#
# PCOD9249725 Si02
#       5
#     4   4   4   4   4
#     4   9  24  40  68  97 137 176 238 286 355 427
#     4  10  23  43  67 100 137 178 240 286 359 422
#     4  12  25  46  75 101 145 194 238 304 361 423
#     4  10  24  43  65 106 131 185 235 292 357 427
#     4  11  20  46  66  97 140 182 227 299 355 422
#
# _framework density 25.359269000000001
#
# number of rings (size 3 to 8) (size 9 to 14) (size 15 to 20)
#    1.200    0.400    2.000    2.400    0.000    4.800 
#    7.200    3.000    0.000    0.000    0.000    0.000 
#    0.000    0.000    0.000    0.000    0.000    0.000 
#
# Total GULP energy -111511.116730 kJ/mol
# GULP energy per Si atom -5575.555836 kJ/mol
# Density = 2.530155 g / cm^3
# Si number density = 25.359269 Si / 1000 Ang^3
#
#
#
# Elastic Constant Matrix: (Units=GPa)
#
#
# Indices 1 2 3 4 5 6 
#
# 1 173.7207 28.8527 17.8739 0.0000 11.0856 0.0000
# 2 28.8527 48.4485 8.9497 0.0000 -3.4540 0.0000
# 3 17.8739 8.9497 112.2965 0.0000 -3.4444 0.0000
# 4 0.0000 0.0000 0.0000 29.7972 0.0000 -3.0242
# 5 11.0856 -3.4540 -3.4444 0.0000 29.6338 0.0000
# 6 0.0000 0.0000 0.0000 -3.0242 0.0000 41.9093
#
#
#
# Elastic Compliance Matrix: (Units=1/GPa)
#
#
# Indices 1 2 3 4 5 6 
#
# 1 0.006714 -0.004063 -0.000839 0.000000 -0.003083 0.000000
# 2 -0.004063 0.023559 -0.001104 0.000000 0.004138 0.000000
# 3 -0.000839 -0.001104 0.009165 0.000000 0.001251 0.000000
# 4 0.000000 0.000000 0.000000 0.033808 0.000000 0.002440
# 5 -0.003083 0.004138 0.001251 0.000000 0.035526 0.000000
# 6 0.000000 0.000000 0.000000 0.002440 0.000000 0.024037
#
#
# Mechanical properties :
#
#
# Convention : Reuss Voigt Hill
#
# Bulk Modulus (GPa) = 36.46291 49.53536 42.99914
# Shear Modulus (GPa) = 32.47496 38.85401 35.66448
#
# Velocity S-wave (km/s) = 3.58242 3.91851 3.75423
# Velocity P-wave (km/s) = 5.61439 6.32841 5.98206
#
# Compressibility (1/GPa) = 0.02742513
#
# Stress axis : x y z
#
# Youngs Moduli (GPa) = 148.93521 42.44617 109.11137
#
# Poissons Ratio (x) = 0.17247 0.09159
# Poissons Ratio (y) = 0.60517 0.12045
# Poissons Ratio (z) = 0.12502 0.04686
#
# Static dielectric constant tensor:
#      x y z
#    x 2.020270 0.000000 -0.012970 
#    y 0.000000 2.213330 0.000000 
#    z -0.012970 0.000000 2.025550 
# 
# From -- ./inp_files/34635.got.cif
#   From: 2010.05.17/outbox.cif.g08.bks.cpg/sg14_18_cif.got.tgz:34635.got - 2010.06.03 17:49:19.
