data_PCOD9249982
_publ_section_title
;
Structure prediction by ZEFSAII (Michael W. Deem and Ramdas Pophale) SiO2 
 PCOD9249982
Probable space group: P 21/C
;
_chemical_formula_sum "Si O2"
_cell_formula_units_Z 16
_cell_length_a 7.398130
_cell_length_b 7.656177
_cell_length_c 22.507416
_cell_angle_alpha 90.000000
_cell_angle_beta 144.067626
_cell_angle_gamma 90.000000
_cell_volume 748.120994
_symmetry_space_group_name_H-M "P 21/C"
_symmetry_group_IT_number 14
_symmetry_cell_setting 'monoclinic'
loop_
_space_group_symop_operation_xyz
x,y,z
-x,1/2+y,1/2-z
-x,-y,-z
x,1/2-y,1/2+z
loop_
_atom_site_type_symbol
_atom_site_label
_atom_site_fract_x
_atom_site_fract_y
_atom_site_fract_z
Si Si1 0.818450 0.054179 0.246172
Si Si2 0.118544 0.404608 0.590784
Si Si3 0.187553 0.104440 0.883379
Si Si4 0.259358 0.839309 0.441503
O O1 0.484903 0.097836 0.184050
O O2 0.024981 0.221719 0.314442
O O3 0.777004 0.011937 0.166031
O O4 0.995796 0.890987 0.324149
O O5 0.000000 0.500000 0.500000
O O6 0.026177 0.517842 0.623790
O O7 0.943828 0.218564 0.554731
O O8 0.502064 0.177273 0.996686
O O9 0.500000 0.000000 0.500000
#
# Coordination Sequence:
#
# PCOD9249982 Si02
#       4
#     4   4   4   4
#     4  11  24  43  70 100 140 187 237 294 356 426
#     4  12  24  42  70 100 138 184 237 288 357 427
#     4  11  24  43  69 100 140 188 234 294 358 425
#     4  10  23  45  68 100 139 180 234 292 354 421
#
# _framework density 21.386914000000001
#
# number of rings (size 3 to 8) (size 9 to 14) (size 15 to 20)
#    0.000    1.000    2.500    3.750    3.500    0.000 
#    0.000    2.500    0.000    0.000    0.000    0.000 
#    0.000    0.000    0.000    0.000    0.000    0.000 
#
# Total GULP energy -89200.733655 kJ/mol
# GULP energy per Si atom -5575.045853 kJ/mol
# Density = 2.133824 g / cm^3
# Si number density = 21.386914 Si / 1000 Ang^3
#
#
#
# Elastic Constant Matrix: (Units=GPa)
#
#
# Indices 1 2 3 4 5 6 
#
# 1 160.2592 56.3244 71.7344 0.0000 -1.0822 0.0000
# 2 56.3244 96.9466 33.5616 0.0000 -0.7067 0.0000
# 3 71.7344 33.5616 142.9421 0.0000 11.9815 0.0000
# 4 0.0000 0.0000 0.0000 42.7447 0.0000 2.2954
# 5 -1.0822 -0.7067 11.9815 0.0000 44.2312 0.0000
# 6 0.0000 0.0000 0.0000 2.2954 0.0000 46.0401
#
#
#
# Elastic Compliance Matrix: (Units=1/GPa)
#
#
# Indices 1 2 3 4 5 6 
#
# 1 0.009430 -0.004132 -0.003864 0.000000 0.001211 0.000000
# 2 -0.004132 0.013075 -0.001028 0.000000 0.000386 0.000000
# 3 -0.003864 -0.001028 0.009399 0.000000 -0.002657 0.000000
# 4 0.000000 0.000000 0.000000 0.023458 0.000000 -0.001170
# 5 0.001211 0.000386 -0.002657 0.000000 0.023364 0.000000
# 6 0.000000 0.000000 0.000000 -0.001170 0.000000 0.021779
#
#
# Mechanical properties :
#
#
# Convention : Reuss Voigt Hill
#
# Bulk Modulus (GPa) = 72.17735 80.37652 76.27694
# Shear Modulus (GPa) = 40.59427 42.50501 41.54964
#
# Velocity S-wave (km/s) = 4.36143 4.46290 4.41246
# Velocity P-wave (km/s) = 7.69314 8.01376 7.85509
#
# Compressibility (1/GPa) = 0.01385476
#
# Stress axis : x y z
#
# Youngs Moduli (GPa) = 106.04719 76.48445 106.39496
#
# Poissons Ratio (x) = 0.31605 0.41107
# Poissons Ratio (y) = 0.43821 0.10942
# Poissons Ratio (z) = 0.40972 0.07866
#
# Static dielectric constant tensor:
#      x y z
#    x 1.724350 0.000000 0.022370 
#    y 0.000000 1.874420 0.000000 
#    z 0.022370 0.000000 1.837160 
# 
# From -- ./inp_files/36659.got.cif
#   From: 2010.05.17/outbox.cif.g08.bks.cpg/sg14_19_cif.got.tgz:36659.got - 2010.06.03 17:49:19.
