data_PCOD9249576
_publ_section_title
;
Structure prediction by ZEFSAII (Michael W. Deem and Ramdas Pophale) SiO2 
 PCOD9249576
Probable space group: P 21/C
;
_chemical_formula_sum "Si O2"
_cell_formula_units_Z 28
_cell_length_a 8.264806
_cell_length_b 19.343024
_cell_length_c 11.114247
_cell_angle_alpha 90.000000
_cell_angle_beta 135.786078
_cell_angle_gamma 90.000000
_cell_volume 1239.028249
_symmetry_space_group_name_H-M "P 21/C"
_symmetry_group_IT_number 14
_symmetry_cell_setting 'monoclinic'
loop_
_space_group_symop_operation_xyz
x,y,z
-x,1/2+y,1/2-z
-x,-y,-z
x,1/2-y,1/2+z
loop_
_atom_site_type_symbol
_atom_site_label
_atom_site_fract_x
_atom_site_fract_y
_atom_site_fract_z
Si Si1 0.354358 0.825252 0.044186
Si Si2 0.509323 0.463912 0.638066
Si Si3 0.663814 0.017681 0.474618
Si Si4 0.253492 0.162903 0.956076
Si Si5 0.746327 0.174602 0.573392
Si Si6 0.038872 0.903817 0.710065
Si Si7 0.372586 0.307730 0.081549
O O1 0.562098 0.831576 0.056284
O O2 0.258461 0.746777 0.001193
O O3 0.147375 0.876060 0.892891
O O4 0.478135 0.840415 0.233830
O O5 0.500000 0.500000 0.500000
O O6 0.292500 0.412458 0.532714
O O7 0.736576 0.415970 0.750222
O O8 0.552641 0.503577 0.786197
O O9 0.710871 0.099720 0.495924
O O10 0.500000 0.000000 0.500000
O O11 0.896524 0.974783 0.627156
O O12 0.320805 0.226990 0.076757
O O13 0.993294 0.172268 0.771959
O O14 0.530071 0.183489 0.548169
O O15 0.868756 0.845981 0.568150
#
# Coordination Sequence:
#
# PCOD9249576 Si02
#       7
#     4   4   4   4   4   4   4
#     4  10  24  42  71  97 136 183 236 287 350 422
#     4  11  26  46  72 103 139 194 242 287 352 434
#     4  12  26  43  70 103 147 183 233 296 358 417
#     4  10  23  42  67 102 134 180 240 286 348 424
#     4  11  23  44  64 102 140 180 229 293 356 415
#     4  11  24  45  69 103 137 181 239 284 354 421
#     4  11  23  43  68 101 140 181 230 297 355 417
#
# _framework density 22.598355999999999
#
# number of rings (size 3 to 8) (size 9 to 14) (size 15 to 20)
#    0.000    1.143    2.857    2.143    6.000    2.286 
#    0.000    2.143    0.000    0.000    0.000    0.000 
#    0.000    0.000    0.000    0.000    0.000    0.000 
#
# Total GULP energy -156391.199981 kJ/mol
# GULP energy per Si atom -5585.399999 kJ/mol
# Density = 2.254692 g / cm^3
# Si number density = 22.598356 Si / 1000 Ang^3
#
#
#
# Elastic Constant Matrix: (Units=GPa)
#
#
# Indices 1 2 3 4 5 6 
#
# 1 23.7088 21.6929 27.3055 0.0000 -7.2155 0.0000
# 2 21.6929 114.8633 44.7350 0.0000 -4.4117 0.0000
# 3 27.3055 44.7350 148.2083 0.0000 -11.1838 0.0000
# 4 0.0000 0.0000 0.0000 3.1285 0.0000 70.2267
# 5 -7.2155 -4.4117 -11.1838 0.0000 35.5001 0.0000
# 6 0.0000 0.0000 0.0000 70.2267 0.0000 -73.3705
#
#
#
# Elastic Compliance Matrix: (Units=1/GPa)
#
#
# Indices 1 2 3 4 5 6 
#
# 1 0.061857 -0.008117 -0.008270 0.000000 0.008958 0.000000
# 2 -0.008117 0.010934 -0.001871 0.000000 -0.000881 0.000000
# 3 -0.008270 -0.001871 0.008903 0.000000 0.000891 0.000000
# 4 0.000000 0.000000 0.000000 0.014215 0.000000 0.013606
# 5 0.008958 -0.000881 0.000891 0.000000 0.030161 0.000000
# 6 0.000000 0.000000 0.000000 0.013606 0.000000 -0.000606
#
#
# Mechanical properties :
#
#
# Convention : Reuss Voigt Hill
#
# Bulk Modulus (GPa) = 22.13549 52.69415 37.41482
# Shear Modulus (GPa) = 28.24221 5.92142 17.08181
#
# Velocity S-wave (km/s) = 3.53901 1.62049 2.75232
# Velocity P-wave (km/s) = 5.14936 5.18359 5.16650
#
# Compressibility (1/GPa) = 0.04517633
#
# Stress axis : x y z
#
# Youngs Moduli (GPa) = 16.16643 91.45821 112.32149
#
# Poissons Ratio (x) = 0.74238 0.92892
# Poissons Ratio (y) = 0.13123 0.21018
# Poissons Ratio (z) = 0.13370 0.17114
#
# Static dielectric constant tensor:
#      x y z
#    x 1.836620 0.000000 -0.020460 
#    y 0.000000 2.185250 0.000000 
#    z -0.020460 0.000000 1.888470 
# 
# From -- ./inp_files/26840.got.cif
#   From: 2010.05.17/outbox.cif.g08.bks.cpg/sg14_14_cif.got.tgz:26840.got - 2010.06.03 17:49:19.
