data_PCOD9249208
_publ_section_title
;
Structure prediction by ZEFSAII (Michael W. Deem and Ramdas Pophale) SiO2 
 PCOD9249208
Probable space group: P 21/C
;
_chemical_formula_sum "Si O2"
_cell_formula_units_Z 20
_cell_length_a 9.972964
_cell_length_b 18.004351
_cell_length_c 8.862076
_cell_angle_alpha 90.000000
_cell_angle_beta 29.419474
_cell_angle_gamma 90.000000
_cell_volume 781.619539
_symmetry_space_group_name_H-M "P 21/C"
_symmetry_group_IT_number 14
_symmetry_cell_setting 'monoclinic'
loop_
_space_group_symop_operation_xyz
x,y,z
-x,1/2+y,1/2-z
-x,-y,-z
x,1/2-y,1/2+z
loop_
_atom_site_type_symbol
_atom_site_label
_atom_site_fract_x
_atom_site_fract_y
_atom_site_fract_z
Si Si1 0.335656 0.675454 0.957788
Si Si2 0.914091 0.891443 0.634153
Si Si3 0.952856 0.931917 0.271277
Si Si4 0.420276 0.468983 0.278016
Si Si5 0.159422 0.277966 0.029256
O O1 0.160252 0.637319 0.996142
O O2 0.471598 0.605292 0.911335
O O3 0.586914 0.728597 0.671328
O O4 0.102044 0.728031 0.255381
O O5 0.764234 0.823991 0.695038
O O6 0.036224 0.932131 0.367683
O O7 0.702655 0.933560 0.947860
O O8 0.921224 0.843821 0.273963
O O9 0.170563 0.980305 0.967248
O O10 0.668321 0.974684 0.549628
#
# Coordination Sequence:
#
# PCOD9249208 Si02
#       5
#     4   4   4   4   4
#     4  12  22  38  54  87 123 156 191 227 290 357
#     4  10  24  35  62  84 129 145 190 238 297 344
#     4  10  23  34  59  88 123 145 185 239 308 347
#     4  12  20  36  59  91 118 151 180 244 303 353
#     4  10  25  36  54  86 124 155 191 226 291 357
#
# _framework density 25.587897999999999
#
# number of rings (size 3 to 8) (size 9 to 14) (size 15 to 20)
#    1.200    0.000    4.000    2.400    5.600    0.000 
#    0.000    0.000    0.000    0.000    0.000   28.000 
#    0.000    0.000    0.000    0.000    0.000    0.000 
#
# Total GULP energy -111663.733540 kJ/mol
# GULP energy per Si atom -5583.186677 kJ/mol
# Density = 2.552966 g / cm^3
# Si number density = 25.587898 Si / 1000 Ang^3
#
#
#
# Elastic Constant Matrix: (Units=GPa)
#
#
# Indices 1 2 3 4 5 6 
#
# 1 80.7358 9.6584 66.1547 0.0000 45.0164 0.0000
# 2 9.6584 192.5778 55.0622 0.0000 -53.5279 0.0000
# 3 66.1547 55.0622 199.1608 0.0000 45.6725 0.0000
# 4 0.0000 0.0000 0.0000 59.7850 0.0000 -4.5462
# 5 45.0164 -53.5279 45.6725 0.0000 98.9989 0.0000
# 6 0.0000 0.0000 0.0000 -4.5462 0.0000 12.8128
#
#
#
# Elastic Compliance Matrix: (Units=1/GPa)
#
#
# Indices 1 2 3 4 5 6 
#
# 1 0.021169 -0.002263 -0.004382 0.000000 -0.008828 0.000000
# 2 -0.002263 0.008059 -0.003033 0.000000 0.006786 0.000000
# 3 -0.004382 -0.003033 0.008090 0.000000 -0.003380 0.000000
# 4 0.000000 0.000000 0.000000 0.017190 0.000000 0.006099
# 5 -0.008828 0.006786 -0.003380 0.000000 0.019344 0.000000
# 6 0.000000 0.000000 0.000000 0.006099 0.000000 0.080211
#
#
# Mechanical properties :
#
#
# Convention : Reuss Voigt Hill
#
# Bulk Modulus (GPa) = 55.66507 81.58057 68.62282
# Shear Modulus (GPa) = 27.86965 57.09259 42.48112
#
# Velocity S-wave (km/s) = 3.30384 4.72872 4.07898
# Velocity P-wave (km/s) = 6.02955 7.85914 7.00434
#
# Compressibility (1/GPa) = 0.01796459
#
# Stress axis : x y z
#
# Youngs Moduli (GPa) = 47.23787 124.07833 123.60882
#
# Poissons Ratio (x) = 0.28075 0.54162
# Poissons Ratio (y) = 0.10688 0.37487
# Poissons Ratio (z) = 0.20698 0.37630
#
# Static dielectric constant tensor:
#      x y z
#    x 2.060270 0.000000 0.025690 
#    y 0.000000 2.154800 0.000000 
#    z 0.025690 0.000000 1.959130 
# 
# From -- ./inp_files/47461.got.cif
#   From: 2010.05.17/outbox.cif.g08.bks.cpg/sg14_24_cif.got.tgz:47461.got - 2010.06.03 17:49:19.
