data_PCOD9249905
_publ_section_title
;
Structure prediction by ZEFSAII (Michael W. Deem and Ramdas Pophale) SiO2 
 PCOD9249905
Probable space group: P 21/C
;
_chemical_formula_sum "Si O2"
_cell_formula_units_Z 28
_cell_length_a 9.323848
_cell_length_b 8.954213
_cell_length_c 19.636438
_cell_angle_alpha 90.000000
_cell_angle_beta 141.891585
_cell_angle_gamma 90.000000
_cell_volume 1011.758978
_symmetry_space_group_name_H-M "P 21/C"
_symmetry_group_IT_number 14
_symmetry_cell_setting 'monoclinic'
loop_
_space_group_symop_operation_xyz
x,y,z
-x,1/2+y,1/2-z
-x,-y,-z
x,1/2-y,1/2+z
loop_
_atom_site_type_symbol
_atom_site_label
_atom_site_fract_x
_atom_site_fract_y
_atom_site_fract_z
Si Si1 0.790383 0.372148 0.462063
Si Si2 0.031819 0.631257 0.081482
Si Si3 0.612829 0.217827 0.532785
Si Si4 0.108028 0.418012 0.831530
Si Si5 0.498510 0.814259 0.362341
Si Si6 0.116003 0.437902 0.688155
Si Si7 0.651848 0.649976 0.781443
O O1 0.705465 0.306839 0.503041
O O2 0.557821 0.424287 0.338357
O O3 0.889910 0.244931 0.448424
O O4 0.984502 0.480562 0.568352
O O5 0.753115 0.619076 0.974960
O O6 0.825430 0.521488 0.870862
O O7 0.049473 0.662858 0.170042
O O8 0.351903 0.168376 0.413890
O O9 0.568355 0.272036 0.593999
O O10 0.795111 0.080483 0.609732
O O11 0.987237 0.435251 0.712946
O O12 0.543880 0.754372 0.303614
O O13 0.325178 0.949995 0.281810
O O14 0.215245 0.273146 0.712233
#
# Coordination Sequence:
#
# PCOD9249905 Si02
#       7
#     4   4   4   4   4   4   4
#     4  12  25  42  69 102 132 178 226 270 330 396
#     4  11  24  42  72  96 130 181 223 270 332 398
#     4   9  19  36  65  91 121 161 221 268 323 382
#     4   9  19  37  64  91 120 164 217 273 320 383
#     4  10  23  44  69  97 131 176 220 277 331 390
#     4  11  23  39  67 101 133 168 224 276 327 396
#     4  12  24  38  66 102 135 171 222 277 326 394
#
# _framework density 27.674575999999998
#
# number of rings (size 3 to 8) (size 9 to 14) (size 15 to 20)
#    0.000    1.429    2.857    3.000    8.000    1.714 
#    0.000    0.714    0.000    0.000    0.000    0.000 
#    0.000    0.000    0.000    0.000    0.000    0.000 
#
# Total GULP energy -156653.445388 kJ/mol
# GULP energy per Si atom -5594.765907 kJ/mol
# Density = 2.761159 g / cm^3
# Si number density = 27.674576 Si / 1000 Ang^3
#
#
#
# Elastic Constant Matrix: (Units=GPa)
#
#
# Indices 1 2 3 4 5 6 
#
# 1 182.2927 46.2352 40.3725 0.0000 -25.1204 0.0000
# 2 46.2352 76.2025 30.3657 0.0000 2.0790 0.0000
# 3 40.3725 30.3657 137.7495 0.0000 -21.8918 0.0000
# 4 0.0000 0.0000 0.0000 34.1284 0.0000 -8.9785
# 5 -25.1204 2.0790 -21.8918 0.0000 61.2146 0.0000
# 6 0.0000 0.0000 0.0000 -8.9785 0.0000 22.4461
#
#
#
# Elastic Compliance Matrix: (Units=1/GPa)
#
#
# Indices 1 2 3 4 5 6 
#
# 1 0.007062 -0.004069 -0.000732 0.000000 0.002774 0.000000
# 2 -0.004069 0.016904 -0.003065 0.000000 -0.003340 0.000000
# 3 -0.000732 -0.003065 0.008608 0.000000 0.002882 0.000000
# 4 0.000000 0.000000 0.000000 0.032747 0.000000 0.013099
# 5 0.002774 -0.003340 0.002882 0.000000 0.018619 0.000000
# 6 0.000000 0.000000 0.000000 0.013099 0.000000 0.049791
#
#
# Mechanical properties :
#
#
# Convention : Reuss Voigt Hill
#
# Bulk Modulus (GPa) = 59.37197 70.02129 64.69663
# Shear Modulus (GPa) = 32.24237 42.17592 37.20915
#
# Velocity S-wave (km/s) = 3.41699 3.90807 3.67075
# Velocity P-wave (km/s) = 6.08835 6.76170 6.43384
#
# Compressibility (1/GPa) = 0.01684296
#
# Stress axis : x y z
#
# Youngs Moduli (GPa) = 141.60047 59.15750 116.17567
#
# Poissons Ratio (x) = 0.24071 0.08503
# Poissons Ratio (y) = 0.57616 0.35603
# Poissons Ratio (z) = 0.10364 0.18129
#
# Static dielectric constant tensor:
#      x y z
#    x 2.284140 0.000000 0.068120 
#    y 0.000000 2.163070 0.000000 
#    z 0.068120 0.000000 2.379520 
# 
# From -- ./inp_files/41520.got.cif
#   From: 2010.05.17/outbox.cif.g08.bks.cpg/sg14_21_cif.got.tgz:41520.got - 2010.06.03 17:49:19.
