data_PCOD9249015
_publ_section_title
;
Structure prediction by ZEFSAII (Michael W. Deem and Ramdas Pophale) SiO2 
 PCOD9249015
Probable space group: P 21/C
;
_chemical_formula_sum "Si O2"
_cell_formula_units_Z 20
_cell_length_a 21.433329
_cell_length_b 5.172652
_cell_length_c 16.756017
_cell_angle_alpha 90.000000
_cell_angle_beta 27.093902
_cell_angle_gamma 90.000000
_cell_volume 846.086065
_symmetry_space_group_name_H-M "P 21/C"
_symmetry_group_IT_number 14
_symmetry_cell_setting 'monoclinic'
loop_
_space_group_symop_operation_xyz
x,y,z
-x,1/2+y,1/2-z
-x,-y,-z
x,1/2-y,1/2+z
loop_
_atom_site_type_symbol
_atom_site_label
_atom_site_fract_x
_atom_site_fract_y
_atom_site_fract_z
Si Si1 0.008789 0.187720 0.295862
Si Si2 0.882583 0.202508 0.608241
Si Si3 0.588783 0.944797 0.975039
Si Si4 0.774568 0.933839 0.350814
Si Si5 0.436210 0.830710 0.300326
O O1 0.152494 0.212960 0.179973
O O2 0.003791 0.419870 0.237134
O O3 0.899738 0.230216 0.492718
O O4 0.886925 0.434719 0.667547
O O5 0.727511 0.109222 0.805079
O O6 0.000000 0.000000 0.500000
O O7 0.660155 0.676953 0.921186
O O8 0.473324 0.969092 0.175307
O O9 0.500000 0.000000 0.000000
O O10 0.706662 0.118679 0.494015
O O11 0.463722 0.525336 0.262812
#
# Coordination Sequence:
#
# PCOD9249015 Si02
#       5
#     4   4   4   4   4
#     4  12  29  46  75 113 150 201 259 322 391 465
#     4  12  25  50  78 108 155 204 261 319 398 462
#     4  11  26  46  74 112 148 203 253 317 386 471
#     4  11  25  48  77 105 156 202 257 326 389 464
#     4  10  22  45  70 102 143 191 245 303 380 445
#
# _framework density 23.638255000000001
#
# number of rings (size 3 to 8) (size 9 to 14) (size 15 to 20)
#    0.000    0.800    4.000    1.800    5.600    0.800 
#    7.200    0.000    0.000    0.000    0.000    0.000 
#    0.000    0.000    0.000    0.000    0.000    0.000 
#
# Total GULP energy -111373.587020 kJ/mol
# GULP energy per Si atom -5568.679351 kJ/mol
# Density = 2.358445 g / cm^3
# Si number density = 23.638255 Si / 1000 Ang^3
#
#
#
# Elastic Constant Matrix: (Units=GPa)
#
#
# Indices 1 2 3 4 5 6 
#
# 1 123.0152 36.8761 51.1302 0.0000 8.5850 0.0000
# 2 36.8761 96.6866 27.9062 0.0000 7.1809 0.0000
# 3 51.1302 27.9062 185.9548 0.0000 37.4780 0.0000
# 4 0.0000 0.0000 0.0000 27.3487 0.0000 13.3442
# 5 8.5850 7.1809 37.4780 0.0000 50.4126 0.0000
# 6 0.0000 0.0000 0.0000 13.3442 0.0000 26.2867
#
#
#
# Elastic Compliance Matrix: (Units=1/GPa)
#
#
# Indices 1 2 3 4 5 6 
#
# 1 0.010038 -0.003178 -0.002388 0.000000 0.000518 0.000000
# 2 -0.003178 0.011824 -0.000788 0.000000 -0.000557 0.000000
# 3 -0.002388 -0.000788 0.007114 0.000000 -0.004770 0.000000
# 4 0.000000 0.000000 0.000000 0.048603 0.000000 -0.024673
# 5 0.000518 -0.000557 -0.004770 0.000000 0.023373 0.000000
# 6 0.000000 0.000000 0.000000 -0.024673 0.000000 0.050567
#
#
# Mechanical properties :
#
#
# Convention : Reuss Voigt Hill
#
# Bulk Modulus (GPa) = 61.47122 70.83128 66.15125
# Shear Modulus (GPa) = 29.47265 40.12589 34.79927
#
# Velocity S-wave (km/s) = 3.53486 4.12454 3.84103
# Velocity P-wave (km/s) = 6.53619 7.26032 6.90775
#
# Compressibility (1/GPa) = 0.01626778
#
# Stress axis : x y z
#
# Youngs Moduli (GPa) = 99.62252 84.57663 140.57306
#
# Poissons Ratio (x) = 0.26877 0.33563
# Poissons Ratio (y) = 0.31658 0.11082
# Poissons Ratio (z) = 0.23786 0.06668
#
# Static dielectric constant tensor:
#      x y z
#    x 1.939940 0.000000 -0.030060 
#    y 0.000000 2.124960 0.000000 
#    z -0.030060 0.000000 1.879170 
# 
# From -- ./inp_files/42643.got.cif
#   From: 2010.05.17/outbox.cif.g08.bks.cpg/sg14_22_cif.got.tgz:42643.got - 2010.06.03 17:49:19.
