data_PCOD9249311
_publ_section_title
;
Structure prediction by ZEFSAII (Michael W. Deem and Ramdas Pophale) SiO2 
 PCOD9249311
Probable space group: P 21/C
;
_chemical_formula_sum "Si O2"
_cell_formula_units_Z 24
_cell_length_a 5.650274
_cell_length_b 14.125545
_cell_length_c 13.924642
_cell_angle_alpha 90.000000
_cell_angle_beta 118.648695
_cell_angle_gamma 90.000000
_cell_volume 975.311647
_symmetry_space_group_name_H-M "P 21/C"
_symmetry_group_IT_number 14
_symmetry_cell_setting 'monoclinic'
loop_
_space_group_symop_operation_xyz
x,y,z
-x,1/2+y,1/2-z
-x,-y,-z
x,1/2-y,1/2+z
loop_
_atom_site_type_symbol
_atom_site_label
_atom_site_fract_x
_atom_site_fract_y
_atom_site_fract_z
Si Si1 0.307802 0.696702 0.586322
Si Si2 0.242313 0.564389 0.420237
Si Si3 0.859296 0.270812 0.738351
Si Si4 0.150844 0.091667 0.768847
Si Si5 0.292622 0.036075 0.588030
Si Si6 0.602575 0.637842 0.069763
O O1 0.129781 0.620704 0.492163
O O2 0.256555 0.728047 0.684997
O O3 0.600345 0.648505 0.637538
O O4 0.351036 0.794442 0.540120
O O5 0.500000 0.500000 0.500000
O O6 0.298342 0.651080 0.355596
O O7 0.060717 0.488151 0.327181
O O8 0.941640 0.173481 0.701573
O O9 0.131395 0.325301 0.824828
O O10 0.273569 0.046142 0.697449
O O11 0.339765 0.128459 0.532136
O O12 0.519460 0.962462 0.598746
O O13 0.000000 0.000000 0.500000
#
# Coordination Sequence:
#
# PCOD9249311 Si02
#       6
#     4   4   4   4   4   4
#     4  10  23  42  66  97 137 186 233 295 347 427
#     4  10  23  45  69 100 144 187 238 294 363 428
#     4  11  24  43  71 101 143 183 241 294 358 428
#     4  10  24  42  64 104 134 186 239 291 358 423
#     4  11  23  40  68  97 139 180 235 292 350 422
#     4  10  23  40  63 103 134 182 236 284 358 419
#
# _framework density 24.607517999999999
#
# number of rings (size 3 to 8) (size 9 to 14) (size 15 to 20)
#    0.000    1.667    0.000    3.000    7.000    3.333 
#    0.000    3.333    0.000    0.000    0.000    0.000 
#    0.000    0.000    0.000    0.000    0.000    0.000 
#
# Total GULP energy -133967.785892 kJ/mol
# GULP energy per Si atom -5581.991079 kJ/mol
# Density = 2.455151 g / cm^3
# Si number density = 24.607518 Si / 1000 Ang^3
#
#
#
# Elastic Constant Matrix: (Units=GPa)
#
#
# Indices 1 2 3 4 5 6 
#
# 1 47.5848 17.1366 12.1599 0.0000 -13.7883 0.0000
# 2 17.1366 128.7245 54.2230 0.0000 -12.6261 0.0000
# 3 12.1599 54.2230 98.6158 0.0000 -15.7834 0.0000
# 4 0.0000 0.0000 0.0000 59.0596 0.0000 -10.6076
# 5 -13.7883 -12.6261 -15.7834 0.0000 37.2373 0.0000
# 6 0.0000 0.0000 0.0000 -10.6076 0.0000 33.7571
#
#
#
# Elastic Compliance Matrix: (Units=1/GPa)
#
#
# Indices 1 2 3 4 5 6 
#
# 1 0.024270 -0.002244 -0.000474 0.000000 0.008025 0.000000
# 2 -0.002244 0.010364 -0.005356 0.000000 0.000413 0.000000
# 3 -0.000474 -0.005356 0.013758 0.000000 0.003840 0.000000
# 4 0.000000 0.000000 0.000000 0.017945 0.000000 0.005639
# 5 0.008025 0.000413 0.003840 0.000000 0.031594 0.000000
# 6 0.000000 0.000000 0.000000 0.005639 0.000000 0.031395
#
#
# Mechanical properties :
#
#
# Convention : Reuss Voigt Hill
#
# Bulk Modulus (GPa) = 31.01390 49.10712 40.06051
# Shear Modulus (GPa) = 32.00585 38.77116 35.38850
#
# Velocity S-wave (km/s) = 3.61037 3.97367 3.79637
# Velocity P-wave (km/s) = 5.47818 6.40725 5.96084
#
# Compressibility (1/GPa) = 0.03224361
#
# Stress axis : x y z
#
# Youngs Moduli (GPa) = 41.20361 96.49032 72.68418
#
# Poissons Ratio (x) = 0.21652 0.03448
# Poissons Ratio (y) = 0.09246 0.38927
# Poissons Ratio (z) = 0.01955 0.51676
#
# Static dielectric constant tensor:
#      x y z
#    x 1.891290 0.000000 0.049670 
#    y 0.000000 1.832270 0.000000 
#    z 0.049670 0.000000 1.980570 
# 
# From -- ./inp_files/37394.got.cif
#   From: 2010.05.17/outbox.cif.g08.bks.cpg/sg14_19_cif.got.tgz:37394.got - 2010.06.03 17:49:19.
