data_PCOD9249431
_publ_section_title
;
Structure prediction by ZEFSAII (Michael W. Deem and Ramdas Pophale) SiO2 
 PCOD9249431
Probable space group: P 21/C
;
_chemical_formula_sum "Si O2"
_cell_formula_units_Z 28
_cell_length_a 16.514780
_cell_length_b 8.315327
_cell_length_c 20.891589
_cell_angle_alpha 90.000000
_cell_angle_beta 21.109788
_cell_angle_gamma 90.000000
_cell_volume 1033.271551
_symmetry_space_group_name_H-M "P 21/C"
_symmetry_group_IT_number 14
_symmetry_cell_setting 'monoclinic'
loop_
_space_group_symop_operation_xyz
x,y,z
-x,1/2+y,1/2-z
-x,-y,-z
x,1/2-y,1/2+z
loop_
_atom_site_type_symbol
_atom_site_label
_atom_site_fract_x
_atom_site_fract_y
_atom_site_fract_z
Si Si1 0.689281 0.888943 0.511731
Si Si2 0.934116 0.927288 0.807637
Si Si3 0.751090 0.440481 0.319508
Si Si4 0.328537 0.910806 0.674305
Si Si5 0.886392 0.140838 0.532921
Si Si6 0.153044 0.979612 0.982663
Si Si7 0.760995 0.821562 0.611809
O O1 0.833900 0.747877 0.371648
O O2 0.455996 0.876126 0.646196
O O3 0.726078 0.860975 0.560604
O O4 0.805371 0.054334 0.403280
O O5 0.816858 0.044017 0.844053
O O6 0.877052 0.981150 0.920718
O O7 0.500000 0.500000 0.500000
O O8 0.752652 0.255220 0.297958
O O9 0.925187 0.554234 0.151761
O O10 0.500000 0.000000 0.500000
O O11 0.104626 0.011526 0.851975
O O12 0.785564 0.294509 0.571937
O O13 0.022839 0.186311 0.496904
O O14 0.695566 0.002662 0.685035
O O15 0.295320 0.130219 0.848879
#
# Coordination Sequence:
#
# PCOD9249431 Si02
#       7
#     4   4   4   4   4   4   4
#     4  11  22  38  59  91 127 165 209 265 319 373
#     4  11  21  37  62  92 120 160 212 258 315 382
#     4  12  22  39  63  95 127 161 206 265 323 375
#     4  12  23  37  57  95 136 159 203 271 330 372
#     4  11  22  42  66  90 122 171 217 253 319 383
#     4  11  22  40  65  95 125 162 211 268 317 378
#     4  10  23  41  66  89 123 169 218 261 302 392
#
# _framework density 27.098393000000002
#
# number of rings (size 3 to 8) (size 9 to 14) (size 15 to 20)
#    0.000    0.857    5.714    3.000    0.000    0.000 
#    0.000    1.429    3.143    0.000    0.000    0.000 
#    0.000    0.000    0.000    0.000    0.000    0.000 
#
# Total GULP energy -156357.237510 kJ/mol
# GULP energy per Si atom -5584.187054 kJ/mol
# Density = 2.703672 g / cm^3
# Si number density = 27.098393 Si / 1000 Ang^3
#
#
#
# Elastic Constant Matrix: (Units=GPa)
#
#
# Indices 1 2 3 4 5 6 
#
# 1 169.8335 35.7727 27.7207 0.0000 -6.7678 0.0000
# 2 35.7727 165.3176 22.0315 0.0000 21.4237 0.0000
# 3 27.7207 22.0315 87.9253 0.0000 -1.0614 0.0000
# 4 0.0000 0.0000 0.0000 33.6930 0.0000 5.1860
# 5 -6.7678 21.4237 -1.0614 0.0000 36.1870 0.0000
# 6 0.0000 0.0000 0.0000 5.1860 0.0000 48.0208
#
#
#
# Elastic Compliance Matrix: (Units=1/GPa)
#
#
# Indices 1 2 3 4 5 6 
#
# 1 0.006550 -0.001458 -0.001675 0.000000 0.002039 0.000000
# 2 -0.001458 0.007137 -0.001383 0.000000 -0.004539 0.000000
# 3 -0.001675 -0.001383 0.012258 0.000000 0.000865 0.000000
# 4 0.000000 0.000000 0.000000 0.030181 0.000000 -0.003259
# 5 0.002039 -0.004539 0.000865 0.000000 0.030728 0.000000
# 6 0.000000 0.000000 0.000000 -0.003259 0.000000 0.021176
#
#
# Mechanical properties :
#
#
# Convention : Reuss Voigt Hill
#
# Bulk Modulus (GPa) = 59.12948 66.01402 62.57175
# Shear Modulus (GPa) = 40.74912 46.08359 43.41636
#
# Velocity S-wave (km/s) = 3.88202 4.12831 4.00706
# Velocity P-wave (km/s) = 6.47774 6.86569 6.67453
#
# Compressibility (1/GPa) = 0.01691204
#
# Stress axis : x y z
#
# Youngs Moduli (GPa) = 152.67248 140.11369 81.57644
#
# Poissons Ratio (x) = 0.20434 0.13664
# Poissons Ratio (y) = 0.22265 0.11285
# Poissons Ratio (z) = 0.25573 0.19382
#
# Static dielectric constant tensor:
#      x y z
#    x 2.097690 0.000000 -0.040360 
#    y 0.000000 2.163860 0.000000 
#    z -0.040360 0.000000 2.357290 
# 
# From -- ./inp_files/68157.got.cif
#   From: 2010.05.17/outbox.cif.g08.bks.cpg/sg14_35_cif.got.tgz:68157.got - 2010.06.03 17:49:19.
