data_PCOD9249506
_publ_section_title
;
Structure prediction by ZEFSAII (Michael W. Deem and Ramdas Pophale) SiO2 
 PCOD9249506
Probable space group: P 21/C
;
_chemical_formula_sum "Si O2"
_cell_formula_units_Z 20
_cell_length_a 8.731105
_cell_length_b 6.535567
_cell_length_c 13.375435
_cell_angle_alpha 90.000000
_cell_angle_beta 83.979109
_cell_angle_gamma 90.000000
_cell_volume 759.028484
_symmetry_space_group_name_H-M "P 21/C"
_symmetry_group_IT_number 14
_symmetry_cell_setting 'monoclinic'
loop_
_space_group_symop_operation_xyz
x,y,z
-x,1/2+y,1/2-z
-x,-y,-z
x,1/2-y,1/2+z
loop_
_atom_site_type_symbol
_atom_site_label
_atom_site_fract_x
_atom_site_fract_y
_atom_site_fract_z
Si Si1 0.854708 0.180596 0.667337
Si Si2 0.680758 0.777294 0.688945
Si Si3 0.176946 0.986113 0.654314
Si Si4 0.177427 0.474311 0.481593
Si Si5 0.397483 0.650178 0.583436
O O1 0.886563 0.312336 0.764851
O O2 0.777649 0.336792 0.594214
O O3 0.728208 0.009933 0.700031
O O4 0.020951 0.088918 0.622066
O O5 0.734637 0.642395 0.778485
O O6 0.776627 0.722847 0.582069
O O7 0.511032 0.709685 0.665214
O O8 0.304743 0.870170 0.577121
O O9 0.250447 0.501638 0.584498
O O10 0.000000 0.500000 0.500000
O O11 0.500000 0.500000 0.500000
#
# Coordination Sequence:
#
# PCOD9249506 Si02
#       5
#     4   4   4   4   4
#     4  11  23  42  68 101 132 177 236 287 341 406
#     4  10  23  42  63 100 135 177 230 280 345 410
#     4  11  23  41  69  98 135 181 232 289 343 408
#     4  10  23  43  68  99 136 177 227 281 343 412
#     4  10  24  44  66 100 142 182 226 285 346 414
#
# _framework density 26.349473
#
# number of rings (size 3 to 8) (size 9 to 14) (size 15 to 20)
#    0.000    1.600    2.000    1.200    5.600    4.000 
#    0.000    4.000    0.000    0.000    0.000    0.000 
#    0.000    0.000    0.000    0.000    0.000    0.000 
#
# Total GULP energy -111494.449204 kJ/mol
# GULP energy per Si atom -5574.722460 kJ/mol
# Density = 2.628950 g / cm^3
# Si number density = 26.349473 Si / 1000 Ang^3
#
#
#
# Elastic Constant Matrix: (Units=GPa)
#
#
# Indices 1 2 3 4 5 6 
#
# 1 153.4634 34.5823 16.1548 0.0000 12.4918 0.0000
# 2 34.5823 121.8389 45.9354 0.0000 -6.1262 0.0000
# 3 16.1548 45.9354 71.9257 0.0000 3.2207 0.0000
# 4 0.0000 0.0000 0.0000 45.6097 0.0000 -5.0053
# 5 12.4918 -6.1262 3.2207 0.0000 32.5599 0.0000
# 6 0.0000 0.0000 0.0000 -5.0053 0.0000 51.9573
#
#
#
# Elastic Compliance Matrix: (Units=1/GPa)
#
#
# Indices 1 2 3 4 5 6 
#
# 1 0.007280 -0.002192 -0.000092 0.000000 -0.003197 0.000000
# 2 -0.002192 0.011718 -0.007159 0.000000 0.003754 0.000000
# 3 -0.000092 -0.007159 0.018637 0.000000 -0.003155 0.000000
# 4 0.000000 0.000000 0.000000 0.022159 0.000000 0.002135
# 5 -0.003197 0.003754 -0.003155 0.000000 0.032957 0.000000
# 6 0.000000 0.000000 0.000000 0.002135 0.000000 0.019452
#
#
# Mechanical properties :
#
#
# Convention : Reuss Voigt Hill
#
# Bulk Modulus (GPa) = 53.33815 60.06368 56.70091
# Shear Modulus (GPa) = 36.40580 42.72909 39.56744
#
# Velocity S-wave (km/s) = 3.72109 4.03131 3.87930
# Velocity P-wave (km/s) = 6.22483 6.67182 6.45220
#
# Compressibility (1/GPa) = 0.01874831
#
# Stress axis : x y z
#
# Youngs Moduli (GPa) = 137.36006 85.34040 53.65561
#
# Poissons Ratio (x) = 0.18711 0.00492
# Poissons Ratio (y) = 0.30116 0.38413
# Poissons Ratio (z) = 0.01261 0.61097
#
# Static dielectric constant tensor:
#      x y z
#    x 0.735070 0.000000 3.884830 
#    y 0.000000 2.298320 0.000000 
#    z 3.884830 0.000000 -9.308820 
# 
# From -- ./inp_files/54008.got.cif
#   From: 2010.05.17/outbox.cif.g08.bks.cpg/sg14_28_cif.got.tgz:54008.got - 2010.06.03 17:49:19.
