data_PCOD9249057
_publ_section_title
;
Structure prediction by ZEFSAII (Michael W. Deem and Ramdas Pophale) SiO2 
 PCOD9249057
Probable space group: P 21/C
;
_chemical_formula_sum "Si O2"
_cell_formula_units_Z 26
_cell_length_a 9.147131
_cell_length_b 9.331994
_cell_length_c 12.723871
_cell_angle_alpha 90.000000
_cell_angle_beta 70.415290
_cell_angle_gamma 90.000000
_cell_volume 1023.286508
_symmetry_space_group_name_H-M "P 21/C"
_symmetry_group_IT_number 14
_symmetry_cell_setting 'monoclinic'
loop_
_space_group_symop_operation_xyz
x,y,z
-x,1/2+y,1/2-z
-x,-y,-z
x,1/2-y,1/2+z
loop_
_atom_site_type_symbol
_atom_site_label
_atom_site_fract_x
_atom_site_fract_y
_atom_site_fract_z
Si Si1 0.573136 0.487367 0.867105
Si Si2 0.083903 0.434125 0.236614
Si Si3 0.137308 0.881010 0.393536
Si Si4 0.500000 0.500000 0.500000
Si Si5 0.885079 0.707720 0.088951
Si Si6 0.451003 0.811989 0.222278
Si Si7 0.855966 0.542069 0.456146
O O1 0.759477 0.481106 0.824931
O O2 0.536750 0.625147 0.803715
O O3 0.500000 0.500000 0.000000
O O4 0.180051 0.452236 0.893956
O O5 0.007643 0.379630 0.149375
O O6 0.122782 0.301429 0.304269
O O7 0.948486 0.527332 0.324953
O O8 0.068022 0.814981 0.516134
O O9 0.275735 0.800148 0.306369
O O10 0.529436 0.422396 0.378322
O O11 0.688351 0.468109 0.486845
O O12 0.492439 0.654453 0.172856
O O13 0.811032 0.804172 0.015391
O O14 0.000000 0.500000 0.500000
#
# Coordination Sequence:
#
# PCOD9249057 Si02
#       7
#     4   4   4   2   4   4   4
#     4  12  33  54  84 119 177 218 289 362 444 519
#     4  11  25  49  78 112 155 218 272 340 422 511
#     4  11  26  44  80 114 158 209 274 343 415 515
#     4  12  26  46  86 120 164 220 292 346 428 518
#     4  10  25  44  77 112 158 210 273 339 421 504
#     4  12  30  53  79 126 166 224 282 364 431 525
#     4  10  22  45  76 111 157 211 269 347 414 502
#
# _framework density 25.408331
#
# number of rings (size 3 to 8) (size 9 to 14) (size 15 to 20)
#    0.000    0.923    1.538    2.769   15.077    1.231 
#    0.000    0.000    0.000    0.000    0.000    0.000 
#    0.000    0.000    0.000    0.000    0.000    0.000 
#
# Total GULP energy -144985.261819 kJ/mol
# GULP energy per Si atom -5576.356224 kJ/mol
# Density = 2.535050 g / cm^3
# Si number density = 25.408331 Si / 1000 Ang^3
#
#
#
# Elastic Constant Matrix: (Units=GPa)
#
#
# Indices 1 2 3 4 5 6 
#
# 1 145.6452 16.1604 65.0950 0.0000 -21.6538 0.0000
# 2 16.1604 93.6333 56.1549 0.0000 5.5905 0.0000
# 3 65.0950 56.1549 149.3179 0.0000 -14.8679 0.0000
# 4 0.0000 0.0000 0.0000 52.6006 0.0000 -2.4491
# 5 -21.6538 5.5905 -14.8679 0.0000 43.0350 0.0000
# 6 0.0000 0.0000 0.0000 -2.4491 0.0000 -9.4934
#
#
#
# Elastic Compliance Matrix: (Units=1/GPa)
#
#
# Indices 1 2 3 4 5 6 
#
# 1 0.008971 0.000547 -0.003805 0.000000 0.003128 0.000000
# 2 0.000547 0.014421 -0.006028 0.000000 -0.003681 0.000000
# 3 -0.003805 -0.006028 0.010885 0.000000 0.002629 0.000000
# 4 0.000000 0.000000 0.000000 0.018786 0.000000 -0.004846
# 5 0.003128 -0.003681 0.002629 0.000000 0.026197 0.000000
# 6 0.000000 0.000000 0.000000 -0.004846 0.000000 -0.104086
#
#
# Mechanical properties :
#
#
# Convention : Reuss Voigt Hill
#
# Bulk Modulus (GPa) = 63.67909 73.71299 68.69604
# Shear Modulus (GPa) = -4905.93911 33.97417 -2435.98247
#
# Velocity S-wave (km/s) = -43.98898 3.66064 -30.99702
# Velocity P-wave (km/s) = 50.54626 6.85138 35.41174
#
# Compressibility (1/GPa) = 0.01570374
#
# Stress axis : x y z
#
# Youngs Moduli (GPa) = 111.46909 69.34511 91.87121
#
# Poissons Ratio (x) = -0.03793 0.34958
# Poissons Ratio (y) = -0.06097 0.55382
# Poissons Ratio (z) = 0.42416 0.41803
#
# Static dielectric constant tensor:
#      x y z
#    x 2.028160 0.000000 0.030900 
#    y 0.000000 2.107730 0.000000 
#    z 0.030900 0.000000 2.062600 
# 
# From -- ./inp_files/40622.got.cif
#   From: 2010.05.17/outbox.cif.g08.bks.cpg/sg14_21_cif.got.tgz:40622.got - 2010.06.03 17:49:19.
