data_PCOD9249329
_publ_section_title
;
Structure prediction by ZEFSAII (Michael W. Deem and Ramdas Pophale) SiO2 
 PCOD9249329
Probable space group: P 21/C
;
_chemical_formula_sum "Si O2"
_cell_formula_units_Z 32
_cell_length_a 11.433691
_cell_length_b 25.059327
_cell_length_c 8.284385
_cell_angle_alpha 90.000000
_cell_angle_beta 146.698010
_cell_angle_gamma 90.000000
_cell_volume 1303.255255
_symmetry_space_group_name_H-M "P 21/C"
_symmetry_group_IT_number 14
_symmetry_cell_setting 'monoclinic'
loop_
_space_group_symop_operation_xyz
x,y,z
-x,1/2+y,1/2-z
-x,-y,-z
x,1/2-y,1/2+z
loop_
_atom_site_type_symbol
_atom_site_label
_atom_site_fract_x
_atom_site_fract_y
_atom_site_fract_z
Si Si1 0.509360 0.059353 0.584666
Si Si2 0.356550 0.404753 0.439270
Si Si3 0.520252 0.761759 0.707435
Si Si4 0.889774 0.914139 0.681616
Si Si5 0.216316 0.849663 0.229438
Si Si6 0.078301 0.321397 0.310586
Si Si7 0.349152 0.820797 0.822191
Si Si8 0.173000 0.989100 0.842117
O O1 0.278730 0.080015 0.369638
O O2 0.626125 0.099619 0.597801
O O3 0.500000 0.000000 0.500000
O O4 0.648889 0.056132 0.912642
O O5 0.585258 0.380126 0.656899
O O6 0.329187 0.461163 0.492998
O O7 0.235389 0.364985 0.419541
O O8 0.227142 0.405747 0.122528
O O9 0.369175 0.798551 0.418601
O O10 0.462887 0.784246 0.816995
O O11 0.454430 0.700609 0.606694
O O12 0.768427 0.772991 0.963058
O O13 0.016690 0.970799 0.808299
O O14 0.049596 0.864882 0.897015
O O15 0.063526 0.843416 0.207520
O O16 0.900097 0.309446 0.970824
O O17 0.000000 0.000000 0.500000
#
# Coordination Sequence:
#
# PCOD9249329 Si02
#       8
#     4   4   4   4   4   4   4   4
#     4  11  25  37  65  98 131 170 226 267 324 387
#     4  10  23  40  65  93 130 170 218 264 327 387
#     4  10  23  42  62  95 126 165 214 263 327 393
#     4  10  23  41  62  96 131 174 216 270 322 383
#     4  10  23  41  64  90 128 169 210 264 325 385
#     4  10  23  41  65  91 128 165 213 264 326 384
#     4  10  24  40  65  95 124 166 212 267 328 384
#     4   9  22  40  60  91 132 174 217 265 327 389
#
# _framework density 24.553899999999999
#
# number of rings (size 3 to 8) (size 9 to 14) (size 15 to 20)
#    0.000    2.000    0.000    0.750    8.750   14.000 
#    0.000    0.000    0.000    0.000    0.000    0.000 
#    0.000    0.000    0.000    0.000    0.000    0.000 
#
# Total GULP energy -178445.276280 kJ/mol
# GULP energy per Si atom -5576.414884 kJ/mol
# Density = 2.449801 g / cm^3
# Si number density = 24.553900 Si / 1000 Ang^3
#
#
#
# Elastic Constant Matrix: (Units=GPa)
#
#
# Indices 1 2 3 4 5 6 
#
# 1 59.8973 10.7547 21.8427 0.0000 8.3799 0.0000
# 2 10.7547 41.4978 8.1964 0.0000 6.9310 0.0000
# 3 21.8427 8.1964 109.9875 0.0000 20.9973 0.0000
# 4 0.0000 0.0000 0.0000 42.9964 0.0000 -2.5574
# 5 8.3799 6.9310 20.9973 0.0000 35.5182 0.0000
# 6 0.0000 0.0000 0.0000 -2.5574 0.0000 16.2358
#
#
#
# Elastic Compliance Matrix: (Units=1/GPa)
#
#
# Indices 1 2 3 4 5 6 
#
# 1 0.018787 -0.003953 -0.003086 0.000000 -0.001837 0.000000
# 2 -0.003953 0.025848 -0.000402 0.000000 -0.003874 0.000000
# 3 -0.003086 -0.000402 0.010800 0.000000 -0.005578 0.000000
# 4 0.000000 0.000000 0.000000 0.023478 0.000000 0.003698
# 5 -0.001837 -0.003874 -0.005578 0.000000 0.032642 0.000000
# 6 0.000000 0.000000 0.000000 0.003698 0.000000 0.062175
#
#
# Mechanical properties :
#
#
# Convention : Reuss Voigt Hill
#
# Bulk Modulus (GPa) = 24.65790 32.55223 28.60507
# Shear Modulus (GPa) = 24.73682 30.32266 27.52974
#
# Velocity S-wave (km/s) = 3.17748 3.51799 3.35206
# Velocity P-wave (km/s) = 4.85036 5.45783 5.16304
#
# Compressibility (1/GPa) = 0.04055496
#
# Stress axis : x y z
#
# Youngs Moduli (GPa) = 53.22760 38.68704 92.59647
#
# Poissons Ratio (x) = 0.15292 0.28573
# Poissons Ratio (y) = 0.21039 0.03720
# Poissons Ratio (z) = 0.16425 0.01554
#
# Static dielectric constant tensor:
#      x y z
#    x 1.939450 0.000000 -0.048020 
#    y 0.000000 1.975020 0.000000 
#    z -0.048020 0.000000 2.067130 
# 
# From -- ./inp_files/14687.got.cif
#   From: 2010.05.17/outbox.cif.g08.bks.cpg/sg14_8_cif.got.tgz:14687.got - 2010.06.03 17:49:19.
