data_PCOD9249126
_publ_section_title
;
Structure prediction by ZEFSAII (Michael W. Deem and Ramdas Pophale) SiO2 
 PCOD9249126
Probable space group: P 21/C
;
_chemical_formula_sum "Si O2"
_cell_formula_units_Z 18
_cell_length_a 23.782751
_cell_length_b 4.917929
_cell_length_c 10.438007
_cell_angle_alpha 90.000000
_cell_angle_beta 147.729185
_cell_angle_gamma 90.000000
_cell_volume 651.837768
_symmetry_space_group_name_H-M "P 21/C"
_symmetry_group_IT_number 14
_symmetry_cell_setting 'monoclinic'
loop_
_space_group_symop_operation_xyz
x,y,z
-x,1/2+y,1/2-z
-x,-y,-z
x,1/2-y,1/2+z
loop_
_atom_site_type_symbol
_atom_site_label
_atom_site_fract_x
_atom_site_fract_y
_atom_site_fract_z
Si Si1 0.716349 0.952580 0.220535
Si Si2 0.000000 0.000000 0.500000
Si Si3 0.250367 0.056157 0.985089
Si Si4 0.038450 0.955148 0.308853
Si Si5 0.571019 0.245092 0.096693
O O1 0.712711 0.728277 0.323325
O O2 0.717580 0.808387 0.086157
O O3 0.835203 0.073382 0.457615
O O4 0.619899 0.161927 0.052351
O O5 0.871453 0.004648 0.242775
O O6 0.001260 0.724633 0.357640
O O7 0.318097 0.782242 0.117222
O O8 0.988699 0.699892 0.124642
O O9 0.500000 0.500000 0.000000
O O10 0.500000 0.000000 0.000000
#
# Coordination Sequence:
#
# PCOD9249126 Si02
#       5
#     4   2   4   4   4
#     4  11  26  48  81 122 165 216 282 343 420 500
#     4  10  22  46  72 118 162 212 260 332 400 510
#     4  11  25  51  81 126 163 223 273 347 424 498
#     4  11  23  42  69 106 157 207 262 313 402 477
#     4  12  27  53  80 113 159 213 278 343 411 488
#
# _framework density 27.614232000000001
#
# number of rings (size 3 to 8) (size 9 to 14) (size 15 to 20)
#    0.000    0.889    4.444    1.333    0.000    4.444 
#   12.000    0.000    0.000    0.000    0.000    0.000 
#    0.000    0.000    0.000    0.000    0.000    0.000 
#
# Total GULP energy -100415.418933 kJ/mol
# GULP energy per Si atom -5578.634385 kJ/mol
# Density = 2.755138 g / cm^3
# Si number density = 27.614232 Si / 1000 Ang^3
#
#
#
# Elastic Constant Matrix: (Units=GPa)
#
#
# Indices 1 2 3 4 5 6 
#
# 1 263.1040 69.3511 80.2636 0.0000 18.7367 0.0000
# 2 69.3511 240.3720 51.0885 0.0000 26.0186 0.0000
# 3 80.2636 51.0885 102.2521 0.0000 29.6747 0.0000
# 4 0.0000 0.0000 0.0000 43.3365 0.0000 -1.9334
# 5 18.7367 26.0186 29.6747 0.0000 84.7753 0.0000
# 6 0.0000 0.0000 0.0000 -1.9334 0.0000 35.8459
#
#
#
# Elastic Compliance Matrix: (Units=1/GPa)
#
#
# Indices 1 2 3 4 5 6 
#
# 1 0.005112 -0.000717 -0.003773 0.000000 0.000411 0.000000
# 2 -0.000717 0.004791 -0.001614 0.000000 -0.000747 0.000000
# 3 -0.003773 -0.001614 0.014651 0.000000 -0.003799 0.000000
# 4 0.000000 0.000000 0.000000 0.023131 0.000000 0.001248
# 5 0.000411 -0.000747 -0.003799 0.000000 0.013264 0.000000
# 6 0.000000 0.000000 0.000000 0.001248 0.000000 0.027964
#
#
# Mechanical properties :
#
#
# Convention : Reuss Voigt Hill
#
# Bulk Modulus (GPa) = 81.01084 111.90385 96.45735
# Shear Modulus (GPa) = 47.51191 59.79322 53.65257
#
# Velocity S-wave (km/s) = 4.15246 4.65833 4.41265
# Velocity P-wave (km/s) = 7.23816 8.33939 7.80821
#
# Compressibility (1/GPa) = 0.01234403
#
# Stress axis : x y z
#
# Youngs Moduli (GPa) = 195.62937 208.72245 68.25653
#
# Poissons Ratio (x) = 0.14972 0.25756
# Poissons Ratio (y) = 0.14033 0.11016
# Poissons Ratio (z) = 0.73819 0.33686
#
# Static dielectric constant tensor:
#      x y z
#    x -3.432670 0.000000 2.395530 
#    y 0.000000 1.597690 0.000000 
#    z 2.395530 0.000000 0.895480 
# 
# From -- ./inp_files/36044.got.cif
#   From: 2010.05.17/outbox.cif.g08.bks.cpg/sg14_19_cif.got.tgz:36044.got - 2010.06.03 17:49:19.
