data_PCOD9249937
_publ_section_title
;
Structure prediction by ZEFSAII (Michael W. Deem and Ramdas Pophale) SiO2 
 PCOD9249937
Probable space group: P 21/C
;
_chemical_formula_sum "Si O2"
_cell_formula_units_Z 32
_cell_length_a 14.223362
_cell_length_b 18.669215
_cell_length_c 14.930524
_cell_angle_alpha 90.000000
_cell_angle_beta 19.218198
_cell_angle_gamma 90.000000
_cell_volume 1305.025818
_symmetry_space_group_name_H-M "P 21/C"
_symmetry_group_IT_number 14
_symmetry_cell_setting 'monoclinic'
loop_
_space_group_symop_operation_xyz
x,y,z
-x,1/2+y,1/2-z
-x,-y,-z
x,1/2-y,1/2+z
loop_
_atom_site_type_symbol
_atom_site_label
_atom_site_fract_x
_atom_site_fract_y
_atom_site_fract_z
Si Si1 0.640316 0.235596 0.567965
Si Si2 0.625396 0.560464 0.949225
Si Si3 0.161435 0.363296 0.549190
Si Si4 0.947785 0.366717 0.248953
Si Si5 0.218235 0.523646 0.458509
Si Si6 0.906950 0.582006 0.073146
Si Si7 0.498109 0.642226 0.577037
Si Si8 0.440095 0.204485 0.430274
O O1 0.336992 0.195517 0.833970
O O2 0.645059 0.269136 0.664942
O O3 0.717907 0.303765 0.437526
O O4 0.874187 0.174542 0.340191
O O5 0.526895 0.534685 0.137258
O O6 0.488352 0.639038 0.068734
O O7 0.500000 0.500000 0.000000
O O8 0.964341 0.562319 0.631463
O O9 0.130467 0.440879 0.534437
O O10 0.357536 0.379845 0.459322
O O11 0.804985 0.434466 0.427009
O O12 0.101972 0.393726 0.021600
O O13 0.173565 0.327042 0.112434
O O14 0.622461 0.595665 0.384769
O O15 0.000000 0.500000 0.000000
O O16 0.161579 0.630128 0.885705
O O17 0.595971 0.724429 0.480145
#
# Coordination Sequence:
#
# PCOD9249937 Si02
#       8
#     4   4   4   4   4   4   4   4
#     4  11  20  41  67  93 130 169 229 273 320 402
#     4  11  24  44  67  98 136 171 219 282 345 399
#     4  11  23  41  71  98 131 173 227 277 335 400
#     4  11  24  44  74  95 135 181 238 269 340 425
#     4  11  24  43  69  98 129 177 227 274 335 412
#     4  12  28  45  67 102 145 180 225 287 349 406
#     4  11  24  44  67  98 139 175 221 278 347 393
#     4  10  23  44  72  95 133 182 228 273 342 413
#
# _framework density 24.520589000000001
#
# number of rings (size 3 to 8) (size 9 to 14) (size 15 to 20)
#    0.000    1.000    3.750    3.750    1.750    2.000 
#    6.750    0.000    0.000    0.000    0.000    0.000 
#    0.000    0.000    0.000    0.000    0.000    0.000 
#
# Total GULP energy -178974.473141 kJ/mol
# GULP energy per Si atom -5592.952286 kJ/mol
# Density = 2.446478 g / cm^3
# Si number density = 24.520589 Si / 1000 Ang^3
#
#
#
# Elastic Constant Matrix: (Units=GPa)
#
#
# Indices 1 2 3 4 5 6 
#
# 1 32.0155 3.1985 -0.8010 0.0000 -0.7516 0.0000
# 2 3.1985 162.8614 23.3889 0.0000 3.6471 0.0000
# 3 -0.8010 23.3889 108.0738 0.0000 0.8841 0.0000
# 4 0.0000 0.0000 0.0000 41.5214 0.0000 1.9781
# 5 -0.7516 3.6471 0.8841 0.0000 24.8166 0.0000
# 6 0.0000 0.0000 0.0000 1.9781 0.0000 32.1169
#
#
#
# Elastic Compliance Matrix: (Units=1/GPa)
#
#
# Indices 1 2 3 4 5 6 
#
# 1 0.031338 -0.000692 0.000374 0.000000 0.001038 0.000000
# 2 -0.000692 0.006372 -0.001377 0.000000 -0.000908 0.000000
# 3 0.000374 -0.001377 0.009555 0.000000 -0.000127 0.000000
# 4 0.000000 0.000000 0.000000 0.024155 0.000000 -0.001488
# 5 0.001038 -0.000908 -0.000127 0.000000 0.040465 0.000000
# 6 0.000000 0.000000 0.000000 -0.001488 0.000000 0.031228
#
#
# Mechanical properties :
#
#
# Convention : Reuss Voigt Hill
#
# Bulk Modulus (GPa) = 22.79282 39.39151 31.09216
# Shear Modulus (GPa) = 31.03137 38.16861 34.59999
#
# Velocity S-wave (km/s) = 3.56128 3.94965 3.76048
# Velocity P-wave (km/s) = 5.12112 6.07447 5.61805
#
# Compressibility (1/GPa) = 0.04387347
#
# Stress axis : x y z
#
# Youngs Moduli (GPa) = 31.91038 156.94067 104.66082
#
# Poissons Ratio (x) = 0.10866 -0.03910
# Poissons Ratio (y) = 0.02209 0.14408
# Poissons Ratio (z) = -0.01192 0.21606
#
# Static dielectric constant tensor:
#      x y z
#    x 2.025120 0.000000 -0.011740 
#    y 0.000000 1.955900 0.000000 
#    z -0.011740 0.000000 1.911540 
# 
# From -- ./inp_files/47644.got.cif
#   From: 2010.05.17/outbox.cif.g08.bks.cpg/sg14_24_cif.got.tgz:47644.got - 2010.06.03 17:49:19.
