data_PCOD9249144
_publ_section_title
;
Structure prediction by ZEFSAII (Michael W. Deem and Ramdas Pophale) SiO2 
 PCOD9249144
Probable space group: P 21/C
;
_chemical_formula_sum "Si O2"
_cell_formula_units_Z 22
_cell_length_a 5.057909
_cell_length_b 11.333784
_cell_length_c 14.832383
_cell_angle_alpha 90.000000
_cell_angle_beta 95.123183
_cell_angle_gamma 90.000000
_cell_volume 846.873220
_symmetry_space_group_name_H-M "P 21/C"
_symmetry_group_IT_number 14
_symmetry_cell_setting 'monoclinic'
loop_
_space_group_symop_operation_xyz
x,y,z
-x,1/2+y,1/2-z
-x,-y,-z
x,1/2-y,1/2+z
loop_
_atom_site_type_symbol
_atom_site_label
_atom_site_fract_x
_atom_site_fract_y
_atom_site_fract_z
Si Si1 0.610160 0.981084 0.681495
Si Si2 0.318008 0.238115 0.190181
Si Si3 0.010596 0.860923 0.188008
Si Si4 0.903474 0.386138 0.903021
Si Si5 0.000000 0.500000 0.500000
Si Si6 0.221706 0.729905 0.434157
O O1 0.592879 0.879479 0.756731
O O2 0.316013 0.982118 0.631376
O O3 0.804866 0.934528 0.608235
O O4 0.779833 0.080893 0.737396
O O5 0.514468 0.256792 0.113022
O O6 0.259892 0.335245 0.264972
O O7 0.029996 0.216231 0.138494
O O8 0.110978 0.732352 0.159109
O O9 0.957302 0.941860 0.100008
O O10 0.845931 0.334710 0.999311
O O11 0.224412 0.605136 0.485897
#
# Coordination Sequence:
#
# PCOD9249144 Si02
#       6
#     4   4   4   4   2   4
#     4  11  22  43  67  99 140 183 237 288 363 437
#     4  11  23  42  68 100 147 180 231 298 370 422
#     4  10  23  44  73 105 140 192 238 304 368 430
#     4  10  24  42  67 100 138 181 233 300 350 430
#     4  10  22  46  76 110 138 188 260 304 364 424
#     4  11  23  45  67 104 141 183 235 304 356 430
#
# _framework density 25.977913000000001
#
# number of rings (size 3 to 8) (size 9 to 14) (size 15 to 20)
#    0.000    1.455    1.818    3.273    0.000    5.091 
#    3.273    5.455    0.000    0.000    0.000    0.000 
#    0.000    0.000    0.000    0.000    0.000    0.000 
#
# Total GULP energy -122762.532000 kJ/mol
# GULP energy per Si atom -5580.115091 kJ/mol
# Density = 2.591879 g / cm^3
# Si number density = 25.977913 Si / 1000 Ang^3
#
#
#
# Elastic Constant Matrix: (Units=GPa)
#
#
# Indices 1 2 3 4 5 6 
#
# 1 79.5734 -7.6622 16.5558 0.0000 -25.9586 0.0000
# 2 -7.6622 90.6977 37.5605 0.0000 -11.8482 0.0000
# 3 16.5558 37.5605 105.5727 0.0000 -49.5029 0.0000
# 4 0.0000 0.0000 0.0000 44.0901 0.0000 4.6345
# 5 -25.9586 -11.8482 -49.5029 0.0000 45.6214 0.0000
# 6 0.0000 0.0000 0.0000 4.6345 0.0000 25.9080
#
#
#
# Elastic Compliance Matrix: (Units=1/GPa)
#
#
# Indices 1 2 3 4 5 6 
#
# 1 0.016349 0.001912 0.002750 0.000000 0.012783 0.000000
# 2 0.001912 0.013407 -0.005959 0.000000 -0.001896 0.000000
# 3 0.002750 -0.005959 0.022738 0.000000 0.024689 0.000000
# 4 0.000000 0.000000 0.000000 0.023115 0.000000 -0.004135
# 5 0.012783 -0.001896 0.024689 0.000000 0.055490 0.000000
# 6 0.000000 0.000000 0.000000 -0.004135 0.000000 0.039338
#
#
# Mechanical properties :
#
#
# Convention : Reuss Voigt Hill
#
# Bulk Modulus (GPa) = 20.03986 40.97243 30.50615
# Shear Modulus (GPa) = 26.36231 38.41656 32.38944
#
# Velocity S-wave (km/s) = 3.18904 3.84971 3.53485
# Velocity P-wave (km/s) = 4.61421 5.96378 5.33186
#
# Compressibility (1/GPa) = 0.04990054
#
# Stress axis : x y z
#
# Youngs Moduli (GPa) = 61.16534 74.58652 43.97989
#
# Poissons Ratio (x) = -0.14264 -0.12093
# Poissons Ratio (y) = -0.11697 0.26207
# Poissons Ratio (z) = -0.16818 0.44444
#
# Static dielectric constant tensor:
#      x y z
#    x 1.998360 0.000000 0.004730 
#    y 0.000000 2.152010 0.000000 
#    z 0.004730 0.000000 2.015180 
# 
# From -- ./inp_files/36979.got.cif
#   From: 2010.05.17/outbox.cif.g08.bks.cpg/sg14_19_cif.got.tgz:36979.got - 2010.06.03 17:49:19.
