data_PCOD9249668
_publ_section_title
;
Structure prediction by ZEFSAII (Michael W. Deem and Ramdas Pophale) SiO2 
 PCOD9249668
Probable space group: P 21/C
;
_chemical_formula_sum "Si O2"
_cell_formula_units_Z 20
_cell_length_a 20.477950
_cell_length_b 8.532626
_cell_length_c 9.135686
_cell_angle_alpha 90.000000
_cell_angle_beta 150.982085
_cell_angle_gamma 90.000000
_cell_volume 774.330684
_symmetry_space_group_name_H-M "P 21/C"
_symmetry_group_IT_number 14
_symmetry_cell_setting 'monoclinic'
loop_
_space_group_symop_operation_xyz
x,y,z
-x,1/2+y,1/2-z
-x,-y,-z
x,1/2-y,1/2+z
loop_
_atom_site_type_symbol
_atom_site_label
_atom_site_fract_x
_atom_site_fract_y
_atom_site_fract_z
Si Si1 0.614597 0.441598 0.118033
Si Si2 0.540627 0.417277 0.429495
Si Si3 0.105574 0.133516 0.122452
Si Si4 0.814676 0.578312 0.881968
Si Si5 0.088237 0.906017 0.835600
O O1 0.771673 0.446357 0.466770
O O2 0.500000 0.500000 0.000000
O O3 0.583417 0.545725 0.917094
O O4 0.576954 0.262623 0.015231
O O5 0.500000 0.500000 0.500000
O O6 0.676400 0.489980 0.626966
O O7 0.963793 0.229983 0.807829
O O8 0.120100 0.967832 0.065364
O O9 0.204004 0.259493 0.240937
O O10 0.863252 0.883098 0.644627
O O11 0.942936 0.505521 0.042918
#
# Coordination Sequence:
#
# PCOD9249668 Si02
#       5
#     4   4   4   4   4
#     4  12  29  50  77 113 151 201 257 311 382 454
#     4  12  28  49  76 109 157 203 250 314 381 457
#     4  10  23  42  77 103 143 190 251 309 372 445
#     4  10  25  45  76 103 148 193 253 306 377 432
#     4  10  24  45  73 104 146 188 253 304 378 442
#
# _framework density 25.828758000000001
#
# number of rings (size 3 to 8) (size 9 to 14) (size 15 to 20)
#    1.200    0.000    0.000    4.200    8.400    4.000 
#    0.000    0.000    0.000    0.000    0.000    0.000 
#    0.000    0.000    0.000    0.000    0.000    0.000 
#
# Total GULP energy -111553.494104 kJ/mol
# GULP energy per Si atom -5577.674705 kJ/mol
# Density = 2.576997 g / cm^3
# Si number density = 25.828758 Si / 1000 Ang^3
#
#
#
# Elastic Constant Matrix: (Units=GPa)
#
#
# Indices 1 2 3 4 5 6 
#
# 1 134.1549 58.6076 94.9911 0.0000 35.2859 0.0000
# 2 58.6076 107.0865 67.0590 0.0000 24.2935 0.0000
# 3 94.9911 67.0590 197.7444 0.0000 42.1621 0.0000
# 4 0.0000 0.0000 0.0000 38.5101 0.0000 17.7751
# 5 35.2859 24.2935 42.1621 0.0000 62.7766 0.0000
# 6 0.0000 0.0000 0.0000 17.7751 0.0000 53.8393
#
#
#
# Elastic Compliance Matrix: (Units=1/GPa)
#
#
# Indices 1 2 3 4 5 6 
#
# 1 0.012892 -0.003688 -0.004320 0.000000 -0.002918 0.000000
# 2 -0.003688 0.013178 -0.002395 0.000000 -0.001418 0.000000
# 3 -0.004320 -0.002395 0.008437 0.000000 -0.002312 0.000000
# 4 0.000000 0.000000 0.000000 0.030636 0.000000 -0.010114
# 5 -0.002918 -0.001418 -0.002312 0.000000 0.019671 0.000000
# 6 0.000000 0.000000 0.000000 -0.010114 0.000000 0.021913
#
#
# Mechanical properties :
#
#
# Convention : Reuss Voigt Hill
#
# Bulk Modulus (GPa) = 72.98847 97.81125 85.39986
# Shear Modulus (GPa) = 37.85014 45.58040 41.71527
#
# Velocity S-wave (km/s) = 3.83224 4.20541 4.02315
# Velocity P-wave (km/s) = 6.92108 7.84423 7.39707
#
# Compressibility (1/GPa) = 0.01370079
#
# Stress axis : x y z
#
# Youngs Moduli (GPa) = 77.57004 75.88247 118.52251
#
# Poissons Ratio (x) = 0.27989 0.51201
# Poissons Ratio (y) = 0.28611 0.28384
# Poissons Ratio (z) = 0.33509 0.18172
#
# Static dielectric constant tensor:
#      x y z
#    x 2.092360 0.000000 -0.027790 
#    y 0.000000 2.017310 0.000000 
#    z -0.027790 0.000000 2.052130 
# 
# From -- ./inp_files/36224.got.cif
#   From: 2010.05.17/outbox.cif.g08.bks.cpg/sg14_19_cif.got.tgz:36224.got - 2010.06.03 17:49:19.
