data_PCOD9249503
_publ_section_title
;
Structure prediction by ZEFSAII (Michael W. Deem and Ramdas Pophale) SiO2 
 PCOD9249503
Probable space group: P 21/C
;
_chemical_formula_sum "Si O2"
_cell_formula_units_Z 20
_cell_length_a 19.469736
_cell_length_b 11.849181
_cell_length_c 14.383652
_cell_angle_alpha 90.000000
_cell_angle_beta 161.447796
_cell_angle_gamma 90.000000
_cell_volume 1055.783432
_symmetry_space_group_name_H-M "P 21/C"
_symmetry_group_IT_number 14
_symmetry_cell_setting 'monoclinic'
loop_
_space_group_symop_operation_xyz
x,y,z
-x,1/2+y,1/2-z
-x,-y,-z
x,1/2-y,1/2+z
loop_
_atom_site_type_symbol
_atom_site_label
_atom_site_fract_x
_atom_site_fract_y
_atom_site_fract_z
Si Si1 0.767832 0.008427 0.750842
Si Si2 0.108372 0.009558 0.876183
Si Si3 0.433277 0.199128 0.267616
Si Si4 0.550333 0.120012 0.783713
Si Si5 0.615455 0.554977 0.736168
O O1 0.628824 0.121791 0.554732
O O2 0.618221 0.912997 0.512420
O O3 0.807193 0.996566 0.910132
O O4 0.000000 0.000000 0.000000
O O5 0.779851 0.623532 0.517919
O O6 0.853581 0.996930 0.547726
O O7 0.215695 0.908658 0.954859
O O8 0.510286 0.255587 0.270252
O O9 0.382050 0.307677 0.266559
O O10 0.499617 0.042732 0.810245
O O11 0.500000 0.500000 0.500000
#
# Coordination Sequence:
#
# PCOD9249503 Si02
#       5
#     4   4   4   4   4
#     4  11  20  41  67  95 126 168 219 266 312 393
#     4  11  22  43  68  92 132 170 216 267 319 384
#     4   9  22  41  59 102 123 170 212 255 333 368
#     4   9  21  42  58  98 129 159 220 256 319 382
#     4  10  23  42  62  95 133 165 217 268 317 384
#
# _framework density 18.943280000000001
#
# number of rings (size 3 to 8) (size 9 to 14) (size 15 to 20)
#    1.200    0.800    2.000    2.400    0.000    5.600 
#   14.400    0.000    0.000    0.000    0.000    0.000 
#    0.000    0.000    0.000    0.000    0.000    0.000 
#
# Total GULP energy -111407.845884 kJ/mol
# GULP energy per Si atom -5570.392294 kJ/mol
# Density = 1.890016 g / cm^3
# Si number density = 18.943280 Si / 1000 Ang^3
#
#
#
# Elastic Constant Matrix: (Units=GPa)
#
#
# Indices 1 2 3 4 5 6 
#
# 1 108.4139 8.8605 31.4143 0.0000 -5.9223 0.0000
# 2 8.8605 85.5039 18.4927 0.0000 -14.2407 0.0000
# 3 31.4143 18.4927 100.7557 0.0000 -21.9055 0.0000
# 4 0.0000 0.0000 0.0000 10.3332 0.0000 1.7829
# 5 -5.9223 -14.2407 -21.9055 0.0000 23.4959 0.0000
# 6 0.0000 0.0000 0.0000 1.7829 0.0000 42.9740
#
#
#
# Elastic Compliance Matrix: (Units=1/GPa)
#
#
# Indices 1 2 3 4 5 6 
#
# 1 0.010162 -0.000477 -0.003244 0.000000 -0.000752 0.000000
# 2 -0.000477 0.013088 -0.000696 0.000000 0.007164 0.000000
# 3 -0.003244 -0.000696 0.013539 0.000000 0.011383 0.000000
# 4 0.000000 0.000000 0.000000 0.097473 0.000000 -0.004044
# 5 -0.000752 0.007164 0.011383 0.000000 0.057325 0.000000
# 6 0.000000 0.000000 0.000000 -0.004044 0.000000 0.023438
#
#
# Mechanical properties :
#
#
# Convention : Reuss Voigt Hill
#
# Bulk Modulus (GPa) = 35.77185 45.80095 40.78640
# Shear Modulus (GPa) = 21.44283 31.08769 26.26526
#
# Velocity S-wave (km/s) = 3.36810 4.05544 3.72764
# Velocity P-wave (km/s) = 5.83524 6.79405 6.33282
#
# Compressibility (1/GPa) = 0.02795494
#
# Stress axis : x y z
#
# Youngs Moduli (GPa) = 98.40694 76.40330 73.85999
#
# Poissons Ratio (x) = 0.03642 0.23963
# Poissons Ratio (y) = 0.04691 0.05142
# Poissons Ratio (z) = 0.31927 0.05319
#
# Static dielectric constant tensor:
#      x y z
#    x 1.693410 0.000000 0.010500 
#    y 0.000000 1.691670 0.000000 
#    z 0.010500 0.000000 1.615560 
# 
# From -- ./inp_files/34133.got.cif
#   From: 2010.05.17/outbox.cif.g08.bks.cpg/sg14_18_cif.got.tgz:34133.got - 2010.06.03 17:49:19.
