data_PCOD9249417
_publ_section_title
;
Structure prediction by ZEFSAII (Michael W. Deem and Ramdas Pophale) SiO2 
 PCOD9249417
Probable space group: P 21/C
;
_chemical_formula_sum "Si O2"
_cell_formula_units_Z 32
_cell_length_a 14.064206
_cell_length_b 17.761577
_cell_length_c 12.332193
_cell_angle_alpha 90.000000
_cell_angle_beta 149.861471
_cell_angle_gamma 90.000000
_cell_volume 1546.752062
_symmetry_space_group_name_H-M "P 21/C"
_symmetry_group_IT_number 14
_symmetry_cell_setting 'monoclinic'
loop_
_space_group_symop_operation_xyz
x,y,z
-x,1/2+y,1/2-z
-x,-y,-z
x,1/2-y,1/2+z
loop_
_atom_site_type_symbol
_atom_site_label
_atom_site_fract_x
_atom_site_fract_y
_atom_site_fract_z
Si Si1 0.441757 0.197110 0.416203
Si Si2 0.276893 0.474718 0.079658
Si Si3 0.606785 0.679351 0.885966
Si Si4 0.784614 0.486457 0.745822
Si Si5 0.897632 0.721406 0.569938
Si Si6 0.456745 0.461610 0.843072
Si Si7 0.109887 0.445731 0.363684
Si Si8 0.275470 0.814643 0.894047
O O1 0.423159 0.165285 0.518002
O O2 0.234961 0.220122 0.168068
O O3 0.499034 0.127206 0.396433
O O4 0.594195 0.264088 0.558128
O O5 0.286925 0.385658 0.075636
O O6 0.326024 0.496685 0.251575
O O7 0.421817 0.505502 0.134355
O O8 0.073620 0.504825 0.841322
O O9 0.747271 0.749078 0.010443
O O10 0.404427 0.686474 0.629107
O O11 0.767733 0.542647 0.626346
O O12 0.754453 0.400294 0.676594
O O13 0.000000 0.500000 0.000000
O O14 0.951657 0.638456 0.665201
O O15 0.078573 0.773058 0.725378
O O16 0.239588 0.471910 0.591720
O O17 0.500000 0.500000 0.000000
#
# Coordination Sequence:
#
# PCOD9249417 Si02
#       8
#     4   4   4   4   4   4   4   4
#     4  10  24  42  61  98 129 172 221 276 331 398
#     4  11  23  42  65  95 133 174 222 276 337 388
#     4  11  24  41  65  96 131 167 223 276 332 400
#     4  10  23  41  67  98 130 170 229 275 329 402
#     4  10  23  43  64  94 134 173 219 274 334 402
#     4  11  22  41  64  92 134 168 225 270 325 405
#     4  10  23  41  65  95 129 172 219 271 332 394
#     4  11  24  44  67  95 134 178 221 273 344 397
#
# _framework density 20.688514000000001
#
# number of rings (size 3 to 8) (size 9 to 14) (size 15 to 20)
#    0.000    1.500    1.250    3.000    0.000   12.500 
#    2.250    0.000    0.000    0.000    0.000    0.000 
#    0.000    0.000    0.000    0.000    0.000    0.000 
#
# Total GULP energy -178623.088886 kJ/mol
# GULP energy per Si atom -5581.971528 kJ/mol
# Density = 2.064143 g / cm^3
# Si number density = 20.688514 Si / 1000 Ang^3
#
#
#
# Elastic Constant Matrix: (Units=GPa)
#
#
# Indices 1 2 3 4 5 6 
#
# 1 71.2431 26.4495 30.1268 0.0000 -10.7883 0.0000
# 2 26.4495 80.5533 35.7494 0.0000 2.5933 0.0000
# 3 30.1268 35.7494 88.7769 0.0000 1.4497 0.0000
# 4 0.0000 0.0000 0.0000 30.3835 0.0000 9.4259
# 5 -10.7883 2.5933 1.4497 0.0000 29.1328 0.0000
# 6 0.0000 0.0000 0.0000 9.4259 0.0000 36.0179
#
#
#
# Elastic Compliance Matrix: (Units=1/GPa)
#
#
# Indices 1 2 3 4 5 6 
#
# 1 0.018798 -0.004299 -0.004772 0.000000 0.007581 0.000000
# 2 -0.004299 0.016130 -0.004991 0.000000 -0.002779 0.000000
# 3 -0.004772 -0.004991 0.014927 0.000000 -0.002066 0.000000
# 4 0.000000 0.000000 0.000000 0.035821 0.000000 -0.009374
# 5 0.007581 -0.002779 -0.002066 0.000000 0.037483 0.000000
# 6 0.000000 0.000000 0.000000 -0.009374 0.000000 0.030217
#
#
# Mechanical properties :
#
#
# Convention : Reuss Voigt Hill
#
# Bulk Modulus (GPa) = 46.01547 47.24717 46.63132
# Shear Modulus (GPa) = 26.49075 28.99002 27.74038
#
# Velocity S-wave (km/s) = 3.58223 3.74740 3.66575
# Velocity P-wave (km/s) = 6.27695 6.45066 6.36440
#
# Compressibility (1/GPa) = 0.02173182
#
# Stress axis : x y z
#
# Youngs Moduli (GPa) = 53.19611 61.99560 66.99142
#
# Poissons Ratio (x) = 0.26650 0.31969
# Poissons Ratio (y) = 0.22867 0.33437
# Poissons Ratio (z) = 0.25386 0.30944
#
# Static dielectric constant tensor:
#      x y z
#    x 1.750960 0.000000 0.026240 
#    y 0.000000 2.027610 0.000000 
#    z 0.026240 0.000000 1.744770 
# 
# From -- ./inp_files/33055.got.cif
#   From: 2010.05.17/outbox.cif.g08.bks.cpg/sg14_17_cif.got.tgz:33055.got - 2010.06.03 17:49:19.
