data_PCOD9249324
_publ_section_title
;
Structure prediction by ZEFSAII (Michael W. Deem and Ramdas Pophale) SiO2 
 PCOD9249324
Probable space group: P 21/C
;
_chemical_formula_sum "Si O2"
_cell_formula_units_Z 28
_cell_length_a 16.058421
_cell_length_b 11.099287
_cell_length_c 10.710851
_cell_angle_alpha 90.000000
_cell_angle_beta 39.451874
_cell_angle_gamma 90.000000
_cell_volume 1213.080219
_symmetry_space_group_name_H-M "P 21/C"
_symmetry_group_IT_number 14
_symmetry_cell_setting 'monoclinic'
loop_
_space_group_symop_operation_xyz
x,y,z
-x,1/2+y,1/2-z
-x,-y,-z
x,1/2-y,1/2+z
loop_
_atom_site_type_symbol
_atom_site_label
_atom_site_fract_x
_atom_site_fract_y
_atom_site_fract_z
Si Si1 0.689645 0.564966 0.853683
Si Si2 0.029095 0.878055 0.199160
Si Si3 0.257576 0.782979 0.383585
Si Si4 0.093104 0.897071 0.788365
Si Si5 0.201072 0.962324 0.220745
Si Si6 0.417657 0.566146 0.261737
Si Si7 0.123516 0.239990 0.313457
O O1 0.817855 0.487505 0.735148
O O2 0.633899 0.524259 0.785531
O O3 0.740111 0.700143 0.804236
O O4 0.572793 0.546506 0.088439
O O5 0.088524 0.898801 0.267494
O O6 0.986117 0.010148 0.207319
O O7 0.915807 0.784781 0.283005
O O8 0.151958 0.822285 0.982648
O O9 0.202668 0.832119 0.577747
O O10 0.237012 0.884885 0.302561
O O11 0.388897 0.704552 0.248745
O O12 0.987124 0.809323 0.975030
O O13 0.853023 0.902160 0.699016
O O14 0.331497 0.958527 0.983636
#
# Coordination Sequence:
#
# PCOD9249324 Si02
#       7
#     4   4   4   4   4   4   4
#     4  10  23  48  72  96 132 189 227 290 342 417
#     4  10  23  40  64  99 138 178 219 273 348 423
#     4  11  25  41  70 101 138 183 223 291 339 416
#     4  11  23  41  70 102 142 175 232 279 361 415
#     4  11  25  45  68 106 140 180 228 292 344 409
#     4  10  24  48  72  96 133 185 243 278 344 413
#     4  11  23  43  71 103 141 175 225 290 351 423
#
# _framework density 23.081738999999999
#
# number of rings (size 3 to 8) (size 9 to 14) (size 15 to 20)
#    0.000    1.429    0.000    6.000   10.000    2.286 
#   10.286    1.429    0.000    0.000    0.000    0.000 
#    0.000    0.000    0.000    0.000    0.000    0.000 
#
# Total GULP energy -156171.133011 kJ/mol
# GULP energy per Si atom -5577.540465 kJ/mol
# Density = 2.302920 g / cm^3
# Si number density = 23.081739 Si / 1000 Ang^3
#
#
#
# Elastic Constant Matrix: (Units=GPa)
#
#
# Indices 1 2 3 4 5 6 
#
# 1 27.7316 25.5406 21.8383 0.0000 3.3040 0.0000
# 2 25.5406 156.8544 43.9350 0.0000 5.0588 0.0000
# 3 21.8383 43.9350 115.5990 0.0000 -1.3313 0.0000
# 4 0.0000 0.0000 0.0000 27.7070 0.0000 9.7817
# 5 3.3040 5.0588 -1.3313 0.0000 25.3952 0.0000
# 6 0.0000 0.0000 0.0000 9.7817 0.0000 35.5253
#
#
#
# Elastic Compliance Matrix: (Units=1/GPa)
#
#
# Indices 1 2 3 4 5 6 
#
# 1 0.047264 -0.005600 -0.006863 0.000000 -0.005393 0.000000
# 2 -0.005600 0.007861 -0.001941 0.000000 -0.000939 0.000000
# 3 -0.006863 -0.001941 0.010706 0.000000 0.001841 0.000000
# 4 0.000000 0.000000 0.000000 0.039978 0.000000 -0.011008
# 5 -0.005393 -0.000939 0.001841 0.000000 0.040363 0.000000
# 6 0.000000 0.000000 0.000000 -0.011008 0.000000 0.031180
#
#
# Mechanical properties :
#
#
# Convention : Reuss Voigt Hill
#
# Bulk Modulus (GPa) = 27.00897 53.64588 40.32742
# Shear Modulus (GPa) = 22.88331 31.65023 27.26677
#
# Velocity S-wave (km/s) = 3.15207 3.70702 3.44075
# Velocity P-wave (km/s) = 4.99742 6.45096 5.77014
#
# Compressibility (1/GPa) = 0.03702474
#
# Stress axis : x y z
#
# Youngs Moduli (GPa) = 21.15765 127.20996 93.40719
#
# Poissons Ratio (x) = 0.71236 0.64103
# Poissons Ratio (y) = 0.11848 0.18127
# Poissons Ratio (z) = 0.14520 0.24687
#
# Static dielectric constant tensor:
#      x y z
#    x 1.988660 0.000000 0.083100 
#    y 0.000000 2.005140 0.000000 
#    z 0.083100 0.000000 1.904180 
# 
# From -- ./inp_files/34082.got.cif
#   From: 2010.05.17/outbox.cif.g08.bks.cpg/sg14_18_cif.got.tgz:34082.got - 2010.06.03 17:49:19.
