data_PCOD9249607
_publ_section_title
;
Structure prediction by ZEFSAII (Michael W. Deem and Ramdas Pophale) SiO2 
 PCOD9249607
Probable space group: P 21/C
;
_chemical_formula_sum "Si O2"
_cell_formula_units_Z 32
_cell_length_a 14.626753
_cell_length_b 8.481356
_cell_length_c 11.731909
_cell_angle_alpha 90.000000
_cell_angle_beta 112.536664
_cell_angle_gamma 90.000000
_cell_volume 1344.256157
_symmetry_space_group_name_H-M "P 21/C"
_symmetry_group_IT_number 14
_symmetry_cell_setting 'monoclinic'
loop_
_space_group_symop_operation_xyz
x,y,z
-x,1/2+y,1/2-z
-x,-y,-z
x,1/2-y,1/2+z
loop_
_atom_site_type_symbol
_atom_site_label
_atom_site_fract_x
_atom_site_fract_y
_atom_site_fract_z
Si Si1 0.734217 0.147914 0.893345
Si Si2 0.598048 0.543268 0.478276
Si Si3 0.702358 0.857929 0.244094
Si Si4 0.427252 0.401464 0.111891
Si Si5 0.351869 0.494898 0.842748
Si Si6 0.013306 0.354821 0.837462
Si Si7 0.070852 0.490323 0.424217
Si Si8 0.146592 0.951574 0.552378
O O1 0.771567 0.321624 0.933881
O O2 0.714903 0.125820 0.749264
O O3 0.635478 0.091171 0.910736
O O4 0.821118 0.034439 0.979055
O O5 0.500000 0.500000 0.500000
O O6 0.685233 0.568359 0.612523
O O7 0.577216 0.712937 0.411494
O O8 0.616091 0.925879 0.284346
O O9 0.686438 0.671757 0.223784
O O10 0.803603 0.905588 0.353501
O O11 0.535560 0.470896 0.142661
O O12 0.358339 0.476866 0.980924
O O13 0.062349 0.183818 0.867562
O O14 0.966061 0.392517 0.692998
O O15 0.931894 0.370606 0.899348
O O16 0.094483 0.483568 0.914705
O O17 0.000000 0.500000 0.500000
#
# Coordination Sequence:
#
# PCOD9249607 Si02
#       8
#     4   4   4   4   4   4   4   4
#     4  12  24  47  73 109 140 195 249 304 368 450
#     4  11  25  43  70 101 146 187 243 304 368 427
#     4  11  23  43  66  99 136 188 235 301 355 435
#     4  10  23  43  65  99 135 193 235 301 369 435
#     4  10  23  42  68  95 140 180 249 296 363 430
#     4  11  26  50  74 109 153 196 245 311 379 457
#     4  12  26  49  80 110 151 197 252 309 387 451
#     4  11  26  46  75 105 150 196 250 304 377 445
#
# _framework density 23.804988000000002
#
# number of rings (size 3 to 8) (size 9 to 14) (size 15 to 20)
#    0.000    1.000    2.500    3.000    3.500    4.000 
#    4.500    0.000    0.000    0.000    0.000    0.000 
#    0.000    0.000    0.000    0.000    0.000    0.000 
#
# Total GULP energy -179291.992810 kJ/mol
# GULP energy per Si atom -5602.874775 kJ/mol
# Density = 2.375081 g / cm^3
# Si number density = 23.804988 Si / 1000 Ang^3
#
#
#
# Elastic Constant Matrix: (Units=GPa)
#
#
# Indices 1 2 3 4 5 6 
#
# 1 64.8830 34.8338 8.9179 0.0000 5.0178 0.0000
# 2 34.8338 93.3098 24.9499 0.0000 3.3509 0.0000
# 3 8.9179 24.9499 98.5227 0.0000 13.5647 0.0000
# 4 0.0000 0.0000 0.0000 21.9863 0.0000 11.6852
# 5 5.0178 3.3509 13.5647 0.0000 38.8419 0.0000
# 6 0.0000 0.0000 0.0000 11.6852 0.0000 41.1033
#
#
#
# Elastic Compliance Matrix: (Units=1/GPa)
#
#
# Indices 1 2 3 4 5 6 
#
# 1 0.019424 -0.007276 0.000361 0.000000 -0.002008 0.000000
# 2 -0.007276 0.014221 -0.003050 0.000000 0.000778 0.000000
# 3 0.000361 -0.003050 0.011408 0.000000 -0.003768 0.000000
# 4 0.000000 0.000000 0.000000 0.053578 0.000000 -0.015232
# 5 -0.002008 0.000778 -0.003768 0.000000 0.027253 0.000000
# 6 0.000000 0.000000 0.000000 -0.015232 0.000000 0.028659
#
#
# Mechanical properties :
#
#
# Convention : Reuss Voigt Hill
#
# Bulk Modulus (GPa) = 39.80319 43.79095 41.79707
# Shear Modulus (GPa) = 27.34517 32.92057 30.13287
#
# Velocity S-wave (km/s) = 3.39295 3.72281 3.56170
# Velocity P-wave (km/s) = 5.66624 6.07575 5.87456
#
# Compressibility (1/GPa) = 0.02512361
#
# Stress axis : x y z
#
# Youngs Moduli (GPa) = 51.48239 70.32045 87.65504
#
# Poissons Ratio (x) = 0.51163 -0.03162
# Poissons Ratio (y) = 0.37457 0.26733
# Poissons Ratio (z) = -0.01857 0.21446
#
# Static dielectric constant tensor:
#      x y z
#    x 1.899860 0.000000 -0.006780 
#    y 0.000000 1.886290 0.000000 
#    z -0.006780 0.000000 1.899300 
# 
# From -- ./inp_files/31855.got.cif
#   From: 2010.05.17/outbox.cif.g08.bks.cpg/sg14_16_cif.got.tgz:31855.got - 2010.06.03 17:49:19.
