data_PCOD9249658
_publ_section_title
;
Structure prediction by ZEFSAII (Michael W. Deem and Ramdas Pophale) SiO2 
 PCOD9249658
Probable space group: P 21/C
;
_chemical_formula_sum "Si O2"
_cell_formula_units_Z 20
_cell_length_a 7.035796
_cell_length_b 7.687361
_cell_length_c 22.481298
_cell_angle_alpha 90.000000
_cell_angle_beta 38.569548
_cell_angle_gamma 90.000000
_cell_volume 758.094553
_symmetry_space_group_name_H-M "P 21/C"
_symmetry_group_IT_number 14
_symmetry_cell_setting 'monoclinic'
loop_
_space_group_symop_operation_xyz
x,y,z
-x,1/2+y,1/2-z
-x,-y,-z
x,1/2-y,1/2+z
loop_
_atom_site_type_symbol
_atom_site_label
_atom_site_fract_x
_atom_site_fract_y
_atom_site_fract_z
Si Si1 0.513419 0.180799 0.422798
Si Si2 0.435786 0.975678 0.254774
Si Si3 0.106779 0.634789 0.049456
Si Si4 0.102683 0.860567 0.790046
Si Si5 0.566249 0.433344 0.587337
O O1 0.700178 0.160804 0.437552
O O2 0.748941 0.152386 0.311333
O O3 0.383063 0.374120 0.449882
O O4 0.255388 0.034674 0.483096
O O5 0.224508 0.806698 0.296605
O O6 0.499306 0.050814 0.173789
O O7 0.758217 0.971342 0.210416
O O8 0.235198 0.099619 0.346432
O O9 0.167638 0.801468 0.994107
O O10 0.743227 0.865136 0.868665
#
# Coordination Sequence:
#
# PCOD9249658 Si02
#       5
#     4   4   4   4   4
#     4  10  23  42  72 104 133 189 235 290 355 421
#     4  11  27  46  71 110 144 192 238 298 362 424
#     4  11  23  46  75 105 142 188 243 293 361 424
#     4  11  25  45  73 104 151 190 237 292 363 428
#     4  11  25  48  74 104 144 191 241 295 359 425
#
# _framework density 26.381936
#
# number of rings (size 3 to 8) (size 9 to 14) (size 15 to 20)
#    0.000    1.200    2.000    3.000    8.400    0.800 
#    3.600    2.000    0.000    0.000    0.000    0.000 
#    0.000    0.000    0.000    0.000    0.000    0.000 
#
# Total GULP energy -112400.891327 kJ/mol
# GULP energy per Si atom -5620.044566 kJ/mol
# Density = 2.632189 g / cm^3
# Si number density = 26.381936 Si / 1000 Ang^3
#
#
#
# Elastic Constant Matrix: (Units=GPa)
#
#
# Indices 1 2 3 4 5 6 
#
# 1 102.5107 26.3945 19.3529 0.0000 -9.2031 0.0000
# 2 26.3945 133.8716 60.2114 0.0000 8.8788 0.0000
# 3 19.3529 60.2114 94.7171 0.0000 -3.4956 0.0000
# 4 0.0000 0.0000 0.0000 46.0853 0.0000 3.5522
# 5 -9.2031 8.8788 -3.4956 0.0000 33.3310 0.0000
# 6 0.0000 0.0000 0.0000 3.5522 0.0000 30.3814
#
#
#
# Elastic Compliance Matrix: (Units=1/GPa)
#
#
# Indices 1 2 3 4 5 6 
#
# 1 0.010722 -0.001976 -0.000809 0.000000 0.003402 0.000000
# 2 -0.001976 0.011247 -0.006904 0.000000 -0.004266 0.000000
# 3 -0.000809 -0.006904 0.015230 0.000000 0.003213 0.000000
# 4 0.000000 0.000000 0.000000 0.021896 0.000000 -0.002560
# 5 0.003402 -0.004266 0.003213 0.000000 0.032415 0.000000
# 6 0.000000 0.000000 0.000000 -0.002560 0.000000 0.033214
#
#
# Mechanical properties :
#
#
# Convention : Reuss Voigt Hill
#
# Bulk Modulus (GPa) = 56.10892 60.33521 58.22207
# Shear Modulus (GPa) = 33.32387 36.96892 35.14640
#
# Velocity S-wave (km/s) = 3.55791 3.74745 3.65391
# Velocity P-wave (km/s) = 6.18000 6.45322 6.31809
#
# Compressibility (1/GPa) = 0.01782248
#
# Stress axis : x y z
#
# Youngs Moduli (GPa) = 93.26663 88.91010 65.65846
#
# Poissons Ratio (x) = 0.17565 0.05314
# Poissons Ratio (y) = 0.18426 0.45328
# Poissons Ratio (z) = 0.07548 0.61380
#
# Static dielectric constant tensor:
#      x y z
#    x 1.995730 0.000000 -0.005390 
#    y 0.000000 2.129500 0.000000 
#    z -0.005390 0.000000 2.000960 
# 
# From -- ./inp_files/72048.got.cif
#   From: 2010.05.17/outbox.cif.g08.bks.cpg/sg14_37_cif.got.tgz:72048.got - 2010.06.03 17:49:19.
