data_PCOD9249558
_publ_section_title
;
Structure prediction by ZEFSAII (Michael W. Deem and Ramdas Pophale) SiO2 
 PCOD9249558
Probable space group: P 21/C
;
_chemical_formula_sum "Si O2"
_cell_formula_units_Z 30
_cell_length_a 14.798340
_cell_length_b 12.380897
_cell_length_c 9.135080
_cell_angle_alpha 90.000000
_cell_angle_beta 62.351433
_cell_angle_gamma 90.000000
_cell_volume 1482.580602
_symmetry_space_group_name_H-M "P 21/C"
_symmetry_group_IT_number 14
_symmetry_cell_setting 'monoclinic'
loop_
_space_group_symop_operation_xyz
x,y,z
-x,1/2+y,1/2-z
-x,-y,-z
x,1/2-y,1/2+z
loop_
_atom_site_type_symbol
_atom_site_label
_atom_site_fract_x
_atom_site_fract_y
_atom_site_fract_z
Si Si1 0.268341 0.750115 0.470107
Si Si2 0.619626 0.120134 0.867692
Si Si3 0.727021 0.731309 0.088428
Si Si4 0.136001 0.421490 0.164799
Si Si5 0.000000 0.000000 0.500000
Si Si6 0.857849 0.366923 0.681088
Si Si7 0.946367 0.752794 0.074228
Si Si8 0.621334 0.873724 0.932166
O O1 0.347277 0.685964 0.512936
O O2 0.323418 0.830046 0.315042
O O3 0.197281 0.813205 0.637890
O O4 0.202727 0.669053 0.418963
O O5 0.650440 0.996155 0.870508
O O6 0.498116 0.127422 0.940209
O O7 0.833494 0.756405 0.089022
O O8 0.645788 0.698383 0.271844
O O9 0.756246 0.627599 0.966581
O O10 0.687037 0.826024 0.015557
O O11 0.143030 0.505601 0.291699
O O12 0.067223 0.319948 0.265810
O O13 0.081049 0.481553 0.073013
O O14 0.981383 0.870787 0.562466
O O15 0.969965 0.318351 0.579770
#
# Coordination Sequence:
#
# PCOD9249558 Si02
#       8
#     4   4   4   4   2   4   4   4
#     4  10  23  42  66  93 134 168 227 277 339 389
#     4  10  23  44  68  99 125 174 219 284 339 412
#     4  11  24  42  66  98 136 171 217 282 330 402
#     4  11  24  43  64  96 135 179 231 273 329 391
#     4  10  26  40  66  88 136 178 224 282 318 380
#     4  11  24  42  64  96 132 181 225 276 325 401
#     4  11  25  44  63  99 137 179 228 269 331 397
#     4  11  23  42  70  95 132 169 222 276 353 395
#
# _framework density 20.234988000000001
#
# number of rings (size 3 to 8) (size 9 to 14) (size 15 to 20)
#    0.000    1.333    1.333    2.800    9.333    3.200 
#    0.000    0.000    0.000    8.800    0.000    0.000 
#    0.000    0.000    0.000    0.000    0.000    0.000 
#
# Total GULP energy -167186.868155 kJ/mol
# GULP energy per Si atom -5572.895605 kJ/mol
# Density = 2.018893 g / cm^3
# Si number density = 20.234988 Si / 1000 Ang^3
#
#
#
# Elastic Constant Matrix: (Units=GPa)
#
#
# Indices 1 2 3 4 5 6 
#
# 1 64.7870 30.3393 11.8510 0.0000 12.6673 0.0000
# 2 30.3393 38.6710 -1.2888 0.0000 9.6225 0.0000
# 3 11.8510 -1.2888 69.2470 0.0000 0.9458 0.0000
# 4 0.0000 0.0000 0.0000 25.3402 0.0000 5.8066
# 5 12.6673 9.6225 0.9458 0.0000 25.6817 0.0000
# 6 0.0000 0.0000 0.0000 5.8066 0.0000 26.8449
#
#
#
# Elastic Compliance Matrix: (Units=1/GPa)
#
#
# Indices 1 2 3 4 5 6 
#
# 1 0.026618 -0.019654 -0.004845 0.000000 -0.005586 0.000000
# 2 -0.019654 0.043062 0.004255 0.000000 -0.006597 0.000000
# 3 -0.004845 0.004255 0.015346 0.000000 0.000230 0.000000
# 4 0.000000 0.000000 0.000000 0.041521 0.000000 -0.008981
# 5 -0.005586 -0.006597 0.000230 0.000000 0.044157 0.000000
# 6 0.000000 0.000000 0.000000 -0.008981 0.000000 0.039194
#
#
# Mechanical properties :
#
#
# Convention : Reuss Voigt Hill
#
# Bulk Modulus (GPa) = 22.45256 28.27867 25.36562
# Shear Modulus (GPa) = 18.85146 24.36028 21.60587
#
# Velocity S-wave (km/s) = 3.05557 3.47345 3.27119
# Velocity P-wave (km/s) = 4.85476 5.48561 5.17980
#
# Compressibility (1/GPa) = 0.04453835
#
# Stress axis : x y z
#
# Youngs Moduli (GPa) = 37.56912 23.22222 65.16244
#
# Poissons Ratio (x) = 0.45641 0.31570
# Poissons Ratio (y) = 0.73839 -0.27728
# Poissons Ratio (z) = 0.18202 -0.09882
#
# Static dielectric constant tensor:
#      x y z
#    x 1.696160 0.000000 0.011420 
#    y 0.000000 1.727260 0.000000 
#    z 0.011420 0.000000 1.751110 
# 
# From -- ./inp_files/15765.got.cif
#   From: 2010.05.17/outbox.cif.g08.bks.cpg/sg14_8_cif.got.tgz:15765.got - 2010.06.03 17:49:19.
