data_PCOD9249030
_publ_section_title
;
Structure prediction by ZEFSAII (Michael W. Deem and Ramdas Pophale) SiO2 
 PCOD9249030
Probable space group: P 21/C
;
_chemical_formula_sum "Si O2"
_cell_formula_units_Z 32
_cell_length_a 11.307584
_cell_length_b 11.699752
_cell_length_c 19.447531
_cell_angle_alpha 90.000000
_cell_angle_beta 33.111191
_cell_angle_gamma 90.000000
_cell_volume 1405.448003
_symmetry_space_group_name_H-M "P 21/C"
_symmetry_group_IT_number 14
_symmetry_cell_setting 'monoclinic'
loop_
_space_group_symop_operation_xyz
x,y,z
-x,1/2+y,1/2-z
-x,-y,-z
x,1/2-y,1/2+z
loop_
_atom_site_type_symbol
_atom_site_label
_atom_site_fract_x
_atom_site_fract_y
_atom_site_fract_z
Si Si1 0.649173 0.234301 0.784687
Si Si2 0.177784 0.675493 0.945988
Si Si3 0.048418 0.643638 0.250750
Si Si4 0.436675 0.044288 0.341528
Si Si5 0.148131 0.284395 0.783225
Si Si6 0.667502 0.552370 0.861526
Si Si7 0.437821 0.614900 0.367239
Si Si8 0.621042 0.945890 0.005605
O O1 0.798008 0.203485 0.646527
O O2 0.456256 0.322490 0.855568
O O3 0.543410 0.121855 0.866231
O O4 0.792478 0.289942 0.775763
O O5 0.230056 0.541325 0.935758
O O6 0.363480 0.756381 0.888430
O O7 0.961168 0.722832 0.087980
O O8 0.046944 0.681852 0.172703
O O9 0.802396 0.643956 0.395232
O O10 0.116140 0.511973 0.221528
O O11 0.540412 0.049755 0.215424
O O12 0.583709 0.987760 0.328184
O O13 0.269664 0.182411 0.683920
O O14 0.332272 0.378101 0.706550
O O15 0.500000 0.500000 0.000000
O O16 0.282497 0.547084 0.494088
O O17 0.500000 0.000000 0.000000
#
# Coordination Sequence:
#
# PCOD9249030 Si02
#       8
#     4   4   4   4   4   4   4   4
#     4  10  26  45  71 106 140 197 237 300 367 434
#     4  11  23  46  70 103 144 185 245 295 361 439
#     4  11  27  42  70 105 136 190 235 301 361 438
#     4  10  22  45  71  98 143 184 240 296 357 427
#     4  12  26  42  72 107 138 189 239 297 365 442
#     4  11  25  47  71 104 145 192 245 301 372 434
#     4  11  24  43  71 103 137 190 235 298 365 421
#     4  12  25  47  69 102 150 184 239 301 367 438
#
# _framework density 22.768540999999999
#
# number of rings (size 3 to 8) (size 9 to 14) (size 15 to 20)
#    0.000    1.000    3.750    1.500    7.000    3.500 
#    2.250    3.750    0.000    0.000    0.000    0.000 
#    0.000    0.000    0.000    0.000    0.000    0.000 
#
# Total GULP energy -178443.338836 kJ/mol
# GULP energy per Si atom -5576.354339 kJ/mol
# Density = 2.271672 g / cm^3
# Si number density = 22.768541 Si / 1000 Ang^3
#
#
#
# Elastic Constant Matrix: (Units=GPa)
#
#
# Indices 1 2 3 4 5 6 
#
# 1 88.0520 27.2503 21.5616 0.0000 25.7513 0.0000
# 2 27.2503 99.1314 36.4882 0.0000 20.2980 0.0000
# 3 21.5616 36.4882 100.4216 0.0000 25.7902 0.0000
# 4 0.0000 0.0000 0.0000 27.9406 0.0000 2.8697
# 5 25.7513 20.2980 25.7902 0.0000 30.5603 0.0000
# 6 0.0000 0.0000 0.0000 2.8697 0.0000 28.4900
#
#
#
# Elastic Compliance Matrix: (Units=1/GPa)
#
#
# Indices 1 2 3 4 5 6 
#
# 1 0.015368 -0.001936 0.000510 0.000000 -0.012094 0.000000
# 2 -0.001936 0.012607 -0.003107 0.000000 -0.004120 0.000000
# 3 0.000510 -0.003107 0.013479 0.000000 -0.009741 0.000000
# 4 0.000000 0.000000 0.000000 0.036164 0.000000 -0.003643
# 5 -0.012094 -0.004120 -0.009741 0.000000 0.053871 0.000000
# 6 0.000000 0.000000 0.000000 -0.003643 0.000000 0.035467
#
#
# Mechanical properties :
#
#
# Convention : Reuss Voigt Hill
#
# Bulk Modulus (GPa) = 30.87525 50.91169 40.89347
# Shear Modulus (GPa) = 26.76392 30.88518 28.82455
#
# Velocity S-wave (km/s) = 3.43224 3.68704 3.56192
# Velocity P-wave (km/s) = 5.41267 6.36670 5.90897
#
# Compressibility (1/GPa) = 0.03238840
#
# Stress axis : x y z
#
# Youngs Moduli (GPa) = 65.06921 79.32088 74.18835
#
# Poissons Ratio (x) = 0.15355 -0.03781
# Poissons Ratio (y) = 0.12596 0.23050
# Poissons Ratio (z) = -0.03316 0.24644
#
# Static dielectric constant tensor:
#      x y z
#    x 1.838400 0.000000 0.021750 
#    y 0.000000 1.906910 0.000000 
#    z 0.021750 0.000000 1.945310 
# 
# From -- ./inp_files/67398.got.cif
#   From: 2010.05.17/outbox.cif.g08.bks.cpg/sg14_34_cif.got.tgz:67398.got - 2010.06.03 17:49:19.
