data_PCOD9249935
_publ_section_title
;
Structure prediction by ZEFSAII (Michael W. Deem and Ramdas Pophale) SiO2 
 PCOD9249935
Probable space group: P 21/C
;
_chemical_formula_sum "Si O2"
_cell_formula_units_Z 28
_cell_length_a 4.886693
_cell_length_b 14.052850
_cell_length_c 16.138319
_cell_angle_alpha 90.000000
_cell_angle_beta 80.459088
_cell_angle_gamma 90.000000
_cell_volume 1092.920186
_symmetry_space_group_name_H-M "P 21/C"
_symmetry_group_IT_number 14
_symmetry_cell_setting 'monoclinic'
loop_
_space_group_symop_operation_xyz
x,y,z
-x,1/2+y,1/2-z
-x,-y,-z
x,1/2-y,1/2+z
loop_
_atom_site_type_symbol
_atom_site_label
_atom_site_fract_x
_atom_site_fract_y
_atom_site_fract_z
Si Si1 0.764568 0.321507 0.062692
Si Si2 0.741560 0.554324 0.935793
Si Si3 0.092368 0.507080 0.252801
Si Si4 0.745233 0.981901 0.920073
Si Si5 0.044139 0.339570 0.477782
Si Si6 0.365206 0.187469 0.806156
Si Si7 0.098841 0.775392 0.771596
O O1 0.000184 0.399663 0.027704
O O2 0.457777 0.360571 0.086175
O O3 0.865048 0.279085 0.144296
O O4 0.795665 0.233393 0.000136
O O5 0.880478 0.504226 0.848260
O O6 0.500000 0.500000 0.000000
O O7 0.272272 0.417692 0.278655
O O8 0.191030 0.614550 0.267944
O O9 0.794123 0.507716 0.318090
O O10 0.838777 0.875928 0.940391
O O11 0.952034 0.063588 0.939478
O O12 0.500000 0.000000 0.000000
O O13 0.263174 0.297155 0.404496
O O14 0.686307 0.212593 0.792572
O O15 0.200159 0.260650 0.754943
#
# Coordination Sequence:
#
# PCOD9249935 Si02
#       7
#     4   4   4   4   4   4   4
#     4  12  25  49  73 103 144 187 250 302 355 434
#     4  12  29  49  74 104 147 196 244 298 356 435
#     4  11  25  48  73 107 148 192 243 302 368 433
#     4  10  23  44  72 105 143 184 231 297 370 430
#     4  10  25  42  67 108 136 184 235 301 362 425
#     4  11  27  45  72 106 145 183 249 298 357 443
#     4  12  25  47  72 107 140 201 237 303 362 428
#
# _framework density 25.619434999999999
#
# number of rings (size 3 to 8) (size 9 to 14) (size 15 to 20)
#    0.000    0.857    4.286    0.429   10.000    3.429 
#    2.571    0.000    0.000    0.000    0.000    0.000 
#    0.000    0.000    0.000    0.000    0.000    0.000 
#
# Total GULP energy -156241.629889 kJ/mol
# GULP energy per Si atom -5580.058210 kJ/mol
# Density = 2.556112 g / cm^3
# Si number density = 25.619435 Si / 1000 Ang^3
#
#
#
# Elastic Constant Matrix: (Units=GPa)
#
#
# Indices 1 2 3 4 5 6 
#
# 1 79.4904 4.4718 2.0735 0.0000 -4.9912 0.0000
# 2 4.4718 95.6761 7.1314 0.0000 -10.7746 0.0000
# 3 2.0735 7.1314 137.5212 0.0000 -30.2998 0.0000
# 4 0.0000 0.0000 0.0000 35.4605 0.0000 -11.1459
# 5 -4.9912 -10.7746 -30.2998 0.0000 29.2485 0.0000
# 6 0.0000 0.0000 0.0000 -11.1459 0.0000 20.1149
#
#
#
# Elastic Compliance Matrix: (Units=1/GPa)
#
#
# Indices 1 2 3 4 5 6 
#
# 1 0.012742 -0.000350 0.000359 0.000000 0.002417 0.000000
# 2 -0.000350 0.010932 0.000405 0.000000 0.004387 0.000000
# 3 0.000359 0.000405 0.009448 0.000000 0.009998 0.000000
# 4 0.000000 0.000000 0.000000 0.034148 0.000000 0.018922
# 5 0.002417 0.004387 0.009998 0.000000 0.046576 0.000000
# 6 0.000000 0.000000 0.000000 0.018922 0.000000 0.060199
#
#
# Mechanical properties :
#
#
# Convention : Reuss Voigt Hill
#
# Bulk Modulus (GPa) = 29.45579 37.78236 33.61907
# Shear Modulus (GPa) = 27.09519 36.89885 31.99702
#
# Velocity S-wave (km/s) = 3.25561 3.79920 3.53786
# Velocity P-wave (km/s) = 5.06502 5.83308 5.46256
#
# Compressibility (1/GPa) = 0.03394918
#
# Stress axis : x y z
#
# Youngs Moduli (GPa) = 78.47918 91.47330 105.84208
#
# Poissons Ratio (x) = 0.03202 -0.03795
# Poissons Ratio (y) = 0.02748 -0.04286
# Poissons Ratio (z) = -0.02814 -0.03704
#
# Static dielectric constant tensor:
#      x y z
#    x 2.038860 0.000000 -0.096280 
#    y 0.000000 2.077340 0.000000 
#    z -0.096280 0.000000 2.556040 
# 
# From -- ./inp_files/53290.got.cif
#   From: 2010.05.17/outbox.cif.g08.bks.cpg/sg14_27_cif.got.tgz:53290.got - 2010.06.03 17:49:19.
