data_PCOD9249087
_publ_section_title
;
Structure prediction by ZEFSAII (Michael W. Deem and Ramdas Pophale) SiO2 
 PCOD9249087
Probable space group: P 21/C
;
_chemical_formula_sum "Si O2"
_cell_formula_units_Z 26
_cell_length_a 20.589964
_cell_length_b 7.869728
_cell_length_c 8.548088
_cell_angle_alpha 90.000000
_cell_angle_beta 51.949554
_cell_angle_gamma 90.000000
_cell_volume 1090.730415
_symmetry_space_group_name_H-M "P 21/C"
_symmetry_group_IT_number 14
_symmetry_cell_setting 'monoclinic'
loop_
_space_group_symop_operation_xyz
x,y,z
-x,1/2+y,1/2-z
-x,-y,-z
x,1/2-y,1/2+z
loop_
_atom_site_type_symbol
_atom_site_label
_atom_site_fract_x
_atom_site_fract_y
_atom_site_fract_z
Si Si1 0.951763 0.906540 0.210176
Si Si2 0.262367 0.302169 0.308070
Si Si3 0.150019 0.405155 0.730995
Si Si4 0.765637 0.466239 0.034256
Si Si5 0.404462 0.540331 0.136426
Si Si6 0.000000 0.500000 0.000000
Si Si7 0.678326 0.304821 0.447310
O O1 0.935529 0.706215 0.182185
O O2 0.859260 0.983921 0.359214
O O3 0.990867 0.920421 0.322839
O O4 0.000000 0.000000 0.000000
O O5 0.203625 0.426305 0.496866
O O6 0.201484 0.212617 0.273414
O O7 0.346047 0.397163 0.145496
O O8 0.283275 0.145053 0.390650
O O9 0.098142 0.563529 0.863898
O O10 0.742962 0.394728 0.238323
O O11 0.728118 0.335338 0.969463
O O12 0.387792 0.711000 0.063508
O O13 0.367089 0.570859 0.364892
O O14 0.500000 0.500000 0.000000
#
# Coordination Sequence:
#
# PCOD9249087 Si02
#       7
#     4   4   4   4   4   2   4
#     4  11  25  43  63  97 138 187 244 308 368 429
#     4  11  22  43  72  94 137 194 246 288 377 454
#     4  11  22  43  64  93 131 185 244 294 360 443
#     4  10  22  46  68 100 141 195 245 296 374 451
#     4  11  25  44  73 109 143 187 239 307 375 453
#     4  12  24  42  64  98 134 174 246 306 358 418
#     4  10  24  44  68 105 144 181 241 298 374 444
#
# _framework density 23.837239
#
# number of rings (size 3 to 8) (size 9 to 14) (size 15 to 20)
#    0.000    1.231    3.077    3.692    0.000    4.923 
#    5.538    3.077    0.000    0.000    0.000    0.000 
#    0.000    0.000    0.000    0.000    0.000    0.000 
#
# Total GULP energy -144926.988313 kJ/mol
# GULP energy per Si atom -5574.114935 kJ/mol
# Density = 2.378298 g / cm^3
# Si number density = 23.837239 Si / 1000 Ang^3
#
#
#
# Elastic Constant Matrix: (Units=GPa)
#
#
# Indices 1 2 3 4 5 6 
#
# 1 136.1345 22.0898 89.9037 0.0000 -26.0488 0.0000
# 2 22.0898 56.1849 38.6113 0.0000 -15.0801 0.0000
# 3 89.9037 38.6113 127.0895 0.0000 2.7865 0.0000
# 4 0.0000 0.0000 0.0000 36.9033 0.0000 -6.9926
# 5 -26.0488 -15.0801 2.7865 0.0000 47.0323 0.0000
# 6 0.0000 0.0000 0.0000 -6.9926 0.0000 30.1605
#
#
#
# Elastic Compliance Matrix: (Units=1/GPa)
#
#
# Indices 1 2 3 4 5 6 
#
# 1 0.019893 0.007500 -0.016667 0.000000 0.014410 0.000000
# 2 0.007500 0.028433 -0.014254 0.000000 0.014115 0.000000
# 3 -0.016667 -0.014254 0.024323 0.000000 -0.015242 0.000000
# 4 0.000000 0.000000 0.000000 0.028343 0.000000 0.006571
# 5 0.014410 0.014115 -0.015242 0.000000 0.034672 0.000000
# 6 0.000000 0.000000 0.000000 0.006571 0.000000 0.034679
#
#
# Mechanical properties :
#
#
# Convention : Reuss Voigt Hill
#
# Bulk Modulus (GPa) = 38.74603 68.95762 53.85182
# Shear Modulus (GPa) = 22.14473 34.07282 28.10877
#
# Velocity S-wave (km/s) = 3.05125 3.78483 3.43767
# Velocity P-wave (km/s) = 5.35754 6.93479 6.19655
#
# Compressibility (1/GPa) = 0.02580910
#
# Stress axis : x y z
#
# Youngs Moduli (GPa) = 50.26940 35.16989 41.11279
#
# Poissons Ratio (x) = -0.26379 0.68522
# Poissons Ratio (y) = -0.37704 0.58601
# Poissons Ratio (z) = 0.83784 0.50130
#
# Static dielectric constant tensor:
#      x y z
#    x 1.995970 0.000000 0.258810 
#    y 0.000000 1.593040 0.000000 
#    z 0.258810 0.000000 1.654530 
# 
# From -- ./inp_files/18584.got.cif
#   From: 2010.05.17/outbox.cif.g08.bks.cpg/sg14_10_cif.got.tgz:18584.got - 2010.06.03 17:49:19.
