data_PCOD9249381
_publ_section_title
;
Structure prediction by ZEFSAII (Michael W. Deem and Ramdas Pophale) SiO2 
 PCOD9249381
Probable space group: P 21/C
;
_chemical_formula_sum "Si O2"
_cell_formula_units_Z 20
_cell_length_a 7.044451
_cell_length_b 24.092906
_cell_length_c 4.978093
_cell_angle_alpha 90.000000
_cell_angle_beta 67.266509
_cell_angle_gamma 90.000000
_cell_volume 779.251008
_symmetry_space_group_name_H-M "P 21/C"
_symmetry_group_IT_number 14
_symmetry_cell_setting 'monoclinic'
loop_
_space_group_symop_operation_xyz
x,y,z
-x,1/2+y,1/2-z
-x,-y,-z
x,1/2-y,1/2+z
loop_
_atom_site_type_symbol
_atom_site_label
_atom_site_fract_x
_atom_site_fract_y
_atom_site_fract_z
Si Si1 0.971818 0.870022 0.651613
Si Si2 0.576984 0.926321 0.689657
Si Si3 0.315955 0.947675 0.320106
Si Si4 0.770970 0.790404 0.123171
Si Si5 0.307706 0.713959 0.750787
O O1 0.102616 0.926264 0.559280
O O2 0.130448 0.827492 0.431130
O O3 0.751691 0.880414 0.632159
O O4 0.912225 0.842428 0.968351
O O5 0.491393 0.931257 0.438220
O O6 0.676356 0.985968 0.709724
O O7 0.384650 0.920974 0.999335
O O8 0.802614 0.742277 0.880707
O O9 0.533319 0.807498 0.209831
O O10 0.292579 0.731569 0.449925
#
# Coordination Sequence:
#
# PCOD9249381 Si02
#       5
#     4   4   4   4   4
#     4  12  23  40  70  96 120 168 215 254 308 372
#     4  10  24  44  64  93 130 163 204 259 314 371
#     4  10  24  44  64  93 130 163 204 259 314 371
#     4  10  23  41  60  89 128 164 204 256 309 365
#     4  10  23  41  60  89 128 164 204 256 309 365
#
# _framework density 25.665666999999999
#
# number of rings (size 3 to 8) (size 9 to 14) (size 15 to 20)
#    0.000    1.600    0.000    3.000    0.000   12.800 
#    0.000    6.000    0.000    0.000    0.000    0.000 
#    0.000    0.000    0.000    0.000    0.000    0.000 
#
# Total GULP energy -112118.610966 kJ/mol
# GULP energy per Si atom -5605.930548 kJ/mol
# Density = 2.560725 g / cm^3
# Si number density = 25.665667 Si / 1000 Ang^3
#
#
#
# Elastic Constant Matrix: (Units=GPa)
#
#
# Indices 1 2 3 4 5 6 
#
# 1 67.0131 4.5840 20.5004 0.0000 -19.2008 0.0000
# 2 4.5840 55.8773 31.0637 0.0000 -17.5240 0.0000
# 3 20.5004 31.0637 110.4527 0.0000 -10.2716 0.0000
# 4 0.0000 0.0000 0.0000 45.5734 0.0000 -20.5677
# 5 -19.2008 -17.5240 -10.2716 0.0000 43.1773 0.0000
# 6 0.0000 0.0000 0.0000 -20.5677 0.0000 51.8894
#
#
#
# Elastic Compliance Matrix: (Units=1/GPa)
#
#
# Indices 1 2 3 4 5 6 
#
# 1 0.018215 0.003107 -0.003461 0.000000 0.008538 0.000000
# 2 0.003107 0.024301 -0.006509 0.000000 0.009696 0.000000
# 3 -0.003461 -0.006509 0.011390 0.000000 -0.001471 0.000000
# 4 0.000000 0.000000 0.000000 0.026723 0.000000 0.010592
# 5 0.008538 0.009696 -0.001471 0.000000 0.030542 0.000000
# 6 0.000000 0.000000 0.000000 0.010592 0.000000 0.023470
#
#
# Mechanical properties :
#
#
# Convention : Reuss Voigt Hill
#
# Bulk Modulus (GPa) = 24.88797 38.40435 31.64616
# Shear Modulus (GPa) = 30.90989 39.94104 35.42546
#
# Velocity S-wave (km/s) = 3.47411 3.94916 3.71922
# Velocity P-wave (km/s) = 5.08041 5.98249 5.54981
#
# Compressibility (1/GPa) = 0.04018006
#
# Stress axis : x y z
#
# Youngs Moduli (GPa) = 54.90021 41.15047 87.79750
#
# Poissons Ratio (x) = -0.12786 0.30383
# Poissons Ratio (y) = -0.17059 0.57151
# Poissons Ratio (z) = 0.18999 0.26787
#
# Static dielectric constant tensor:
#      x y z
#    x 2.000120 0.000000 -0.027370 
#    y 0.000000 2.051540 0.000000 
#    z -0.027370 0.000000 1.994810 
# 
# From -- ./inp_files/1528.got.cif
#   From: 2010.05.17/outbox.cif.g08.bks.cpg/sg14_1_cif.got.tgz:1528.got - 2010.06.03 17:49:19.
