data_PCOD9249053
_publ_section_title
;
Structure prediction by ZEFSAII (Michael W. Deem and Ramdas Pophale) SiO2 
 PCOD9249053
Probable space group: P 21/C
;
_chemical_formula_sum "Si O2"
_cell_formula_units_Z 24
_cell_length_a 12.471936
_cell_length_b 11.232184
_cell_length_c 14.355987
_cell_angle_alpha 90.000000
_cell_angle_beta 150.167393
_cell_angle_gamma 90.000000
_cell_volume 1000.451522
_symmetry_space_group_name_H-M "P 21/C"
_symmetry_group_IT_number 14
_symmetry_cell_setting 'monoclinic'
loop_
_space_group_symop_operation_xyz
x,y,z
-x,1/2+y,1/2-z
-x,-y,-z
x,1/2-y,1/2+z
loop_
_atom_site_type_symbol
_atom_site_label
_atom_site_fract_x
_atom_site_fract_y
_atom_site_fract_z
Si Si1 0.785999 0.619229 0.860398
Si Si2 0.499777 0.837024 0.673319
Si Si3 0.174831 0.954759 0.770314
Si Si4 0.134208 0.027184 0.943732
Si Si5 0.157687 0.769626 0.038937
Si Si6 0.712760 0.315842 0.166445
O O1 0.604699 0.705783 0.760121
O O2 0.710558 0.521103 0.729530
O O3 0.928654 0.561575 0.048864
O O4 0.954948 0.703469 0.932074
O O5 0.275519 0.819205 0.557385
O O6 0.463124 0.867180 0.537168
O O7 0.659465 0.926821 0.844086
O O8 0.258468 0.820897 0.845071
O O9 0.182090 0.027607 0.870267
O O10 0.932594 0.110555 0.816930
O O11 0.087764 0.891218 0.937175
O O12 0.315638 0.804683 0.244186
#
# Coordination Sequence:
#
# PCOD9249053 Si02
#       6
#     4   4   4   4   4   4
#     4  10  24  46  73 104 144 189 238 294 353 421
#     4  12  26  45  71 111 137 191 246 279 361 427
#     4  10  22  45  74  99 144 186 230 298 349 415
#     4  12  25  47  74 104 148 187 235 302 355 424
#     4  11  25  47  71 106 147 181 239 299 351 429
#     4  11  25  48  68 107 143 184 237 292 365 418
#
# _framework density 23.989167999999999
#
# number of rings (size 3 to 8) (size 9 to 14) (size 15 to 20)
#    0.000    1.000    5.000    1.500    2.333    6.667 
#    0.000    0.000    0.000    0.000    0.000    0.000 
#    0.000    0.000    0.000    0.000    0.000    0.000 
#
# Total GULP energy -134475.992631 kJ/mol
# GULP energy per Si atom -5603.166360 kJ/mol
# Density = 2.393457 g / cm^3
# Si number density = 23.989168 Si / 1000 Ang^3
#
#
#
# Elastic Constant Matrix: (Units=GPa)
#
#
# Indices 1 2 3 4 5 6 
#
# 1 43.5686 7.2675 15.3458 0.0000 -5.5714 0.0000
# 2 7.2675 96.5792 18.5460 0.0000 13.0981 0.0000
# 3 15.3458 18.5460 87.0312 0.0000 -22.2571 0.0000
# 4 0.0000 0.0000 0.0000 33.8267 0.0000 -17.1304
# 5 -5.5714 13.0981 -22.2571 0.0000 39.2019 0.0000
# 6 0.0000 0.0000 0.0000 -17.1304 0.0000 26.4047
#
#
#
# Elastic Compliance Matrix: (Units=1/GPa)
#
#
# Indices 1 2 3 4 5 6 
#
# 1 0.024694 -0.001448 -0.003538 0.000000 0.001984 0.000000
# 2 -0.001448 0.012114 -0.003994 0.000000 -0.006521 0.000000
# 3 -0.003538 -0.003994 0.015416 0.000000 0.009584 0.000000
# 4 0.000000 0.000000 0.000000 0.044027 0.000000 0.028563
# 5 0.001984 -0.006521 0.009584 0.000000 0.033411 0.000000
# 6 0.000000 0.000000 0.000000 0.028563 0.000000 0.056403
#
#
# Mechanical properties :
#
#
# Convention : Reuss Voigt Hill
#
# Bulk Modulus (GPa) = 29.18468 34.38863 31.78666
# Shear Modulus (GPa) = 23.20752 32.28799 27.74775
#
# Velocity S-wave (km/s) = 3.11371 3.67269 3.40469
# Velocity P-wave (km/s) = 5.01189 5.68780 5.36051
#
# Compressibility (1/GPa) = 0.03426455
#
# Stress axis : x y z
#
# Youngs Moduli (GPa) = 40.49602 82.54590 64.86717
#
# Poissons Ratio (x) = 0.11952 0.22951
# Poissons Ratio (y) = 0.05863 0.25907
# Poissons Ratio (z) = 0.14328 0.32968
#
# Static dielectric constant tensor:
#      x y z
#    x 1.868540 0.000000 -0.010540 
#    y 0.000000 1.894060 0.000000 
#    z -0.010540 0.000000 1.925560 
# 
# From -- ./inp_files/47184.got.cif
#   From: 2010.05.17/outbox.cif.g08.bks.cpg/sg14_24_cif.got.tgz:47184.got - 2010.06.03 17:49:19.
