data_PCOD9249360
_publ_section_title
;
Structure prediction by ZEFSAII (Michael W. Deem and Ramdas Pophale) SiO2 
 PCOD9249360
Probable space group: P 21/C
;
_chemical_formula_sum "Si O2"
_cell_formula_units_Z 20
_cell_length_a 8.764381
_cell_length_b 15.376915
_cell_length_c 11.587027
_cell_angle_alpha 90.000000
_cell_angle_beta 147.006074
_cell_angle_gamma 90.000000
_cell_volume 850.355142
_symmetry_space_group_name_H-M "P 21/C"
_symmetry_group_IT_number 14
_symmetry_cell_setting 'monoclinic'
loop_
_space_group_symop_operation_xyz
x,y,z
-x,1/2+y,1/2-z
-x,-y,-z
x,1/2-y,1/2+z
loop_
_atom_site_type_symbol
_atom_site_label
_atom_site_fract_x
_atom_site_fract_y
_atom_site_fract_z
Si Si1 0.342335 0.125590 0.969637
Si Si2 0.669626 0.236068 0.790309
Si Si3 0.290711 0.245673 0.230931
Si Si4 0.596304 0.597104 0.033180
Si Si5 0.930755 0.027941 0.322559
O O1 0.264263 0.200811 0.832683
O O2 0.111743 0.052755 0.794506
O O3 0.435557 0.185529 0.137199
O O4 0.636628 0.077479 0.135829
O O5 0.568567 0.208715 0.852799
O O6 0.626167 0.160863 0.669547
O O7 0.988355 0.263996 0.982395
O O8 0.314103 0.146920 0.293513
O O9 0.834756 0.587079 0.087177
O O10 0.500000 0.500000 0.000000
O O11 0.000000 0.000000 0.500000
#
# Coordination Sequence:
#
# PCOD9249360 Si02
#       5
#     4   4   4   4   4
#     4  10  23  40  70  95 129 179 230 271 335 418
#     4  11  24  44  69  97 132 186 222 281 345 407
#     4  11  25  45  69  96 143 179 233 275 348 402
#     4  11  27  42  67 105 140 171 233 286 337 406
#     4  11  23  43  68 100 137 177 224 281 347 405
#
# _framework density 23.519586
#
# number of rings (size 3 to 8) (size 9 to 14) (size 15 to 20)
#    0.000    1.200    0.000    4.800    8.400    5.600 
#    0.000    0.000    0.000    0.000    0.000    0.000 
#    0.000    0.000    0.000    0.000    0.000    0.000 
#
# Total GULP energy -111399.268182 kJ/mol
# GULP energy per Si atom -5569.963409 kJ/mol
# Density = 2.346605 g / cm^3
# Si number density = 23.519586 Si / 1000 Ang^3
#
#
#
# Elastic Constant Matrix: (Units=GPa)
#
#
# Indices 1 2 3 4 5 6 
#
# 1 70.9400 -3.0485 21.9607 0.0000 11.8761 0.0000
# 2 -3.0485 85.3002 36.9340 0.0000 -10.1061 0.0000
# 3 21.9607 36.9340 89.4688 0.0000 8.5154 0.0000
# 4 0.0000 0.0000 0.0000 26.9692 0.0000 6.1446
# 5 11.8761 -10.1061 8.5154 0.0000 25.2914 0.0000
# 6 0.0000 0.0000 0.0000 6.1446 0.0000 30.1515
#
#
#
# Elastic Compliance Matrix: (Units=1/GPa)
#
#
# Indices 1 2 3 4 5 6 
#
# 1 0.016413 0.001752 -0.004220 0.000000 -0.005586 0.000000
# 2 0.001752 0.016194 -0.007906 0.000000 0.008310 0.000000
# 3 -0.004220 -0.007906 0.016105 0.000000 -0.006600 0.000000
# 4 0.000000 0.000000 0.000000 0.038885 0.000000 -0.007924
# 5 -0.005586 0.008310 -0.006600 0.000000 0.047705 0.000000
# 6 0.000000 0.000000 0.000000 -0.007924 0.000000 0.034781
#
#
# Mechanical properties :
#
#
# Convention : Reuss Voigt Hill
#
# Bulk Modulus (GPa) = 35.76099 39.71128 37.73614
# Shear Modulus (GPa) = 24.98105 29.13995 27.06050
#
# Velocity S-wave (km/s) = 3.26258 3.52371 3.39566
# Velocity P-wave (km/s) = 5.42498 5.78588 5.60833
#
# Compressibility (1/GPa) = 0.02796343
#
# Stress axis : x y z
#
# Youngs Moduli (GPa) = 60.92588 61.75261 62.09310
#
# Poissons Ratio (x) = -0.10820 0.26206
# Poissons Ratio (y) = -0.10675 0.49091
# Poissons Ratio (z) = 0.25713 0.48821
#
# Static dielectric constant tensor:
#      x y z
#    x 0.769380 0.000000 0.653910 
#    y 0.000000 1.934950 0.000000 
#    z 0.653910 0.000000 1.503550 
# 
# From -- ./inp_files/26302.got.cif
#   From: 2010.05.17/outbox.cif.g08.bks.cpg/sg14_14_cif.got.tgz:26302.got - 2010.06.03 17:49:19.
