data_PCOD9249408
_publ_section_title
;
Structure prediction by ZEFSAII (Michael W. Deem and Ramdas Pophale) SiO2 
 PCOD9249408
Probable space group: P 21/C
;
_chemical_formula_sum "Si O2"
_cell_formula_units_Z 32
_cell_length_a 11.832850
_cell_length_b 14.642986
_cell_length_c 23.488266
_cell_angle_alpha 90.000000
_cell_angle_beta 23.397474
_cell_angle_gamma 90.000000
_cell_volume 1616.136262
_symmetry_space_group_name_H-M "P 21/C"
_symmetry_group_IT_number 14
_symmetry_cell_setting 'monoclinic'
loop_
_space_group_symop_operation_xyz
x,y,z
-x,1/2+y,1/2-z
-x,-y,-z
x,1/2-y,1/2+z
loop_
_atom_site_type_symbol
_atom_site_label
_atom_site_fract_x
_atom_site_fract_y
_atom_site_fract_z
Si Si1 0.008551 0.892276 0.124631
Si Si2 0.730014 0.555930 0.643034
Si Si3 0.543500 0.443115 0.058959
Si Si4 0.806552 0.270656 0.880786
Si Si5 0.084669 0.104325 0.613889
Si Si6 0.569664 0.556873 0.591006
Si Si7 0.745001 0.799974 0.919014
Si Si8 0.763549 0.979235 0.564182
O O1 0.083593 0.798590 0.121645
O O2 0.839209 0.878008 0.143110
O O3 0.783850 0.944844 0.270174
O O4 0.281614 0.957480 0.986247
O O5 0.596943 0.588200 0.644767
O O6 0.525940 0.482214 0.767616
O O7 0.000000 0.500000 0.500000
O O8 0.725902 0.442259 0.033874
O O9 0.320818 0.465329 0.030838
O O10 0.617880 0.351862 0.992757
O O11 0.061530 0.315140 0.726245
O O12 0.584059 0.213718 0.945611
O O13 0.130957 0.204373 0.615711
O O14 0.767340 0.063668 0.767219
O O15 0.162939 0.104940 0.510269
O O16 0.742225 0.623669 0.469001
O O17 0.000000 0.000000 0.500000
#
# Coordination Sequence:
#
# PCOD9249408 Si02
#       8
#     4   4   4   4   4   4   4   4
#     4  10  23  41  66  96 122 168 210 259 325 373
#     4   9  18  38  65  94 127 158 201 261 315 381
#     4   9  22  40  64  89 125 162 211 257 319 369
#     4  12  25  44  61  91 131 168 218 268 307 375
#     4  10  23  41  64  94 124 168 213 253 324 368
#     4  11  23  42  66  96 129 165 211 263 321 378
#     4  12  27  42  62  92 132 169 219 263 308 379
#     4   9  17  37  67  90 123 161 204 257 315 380
#
# _framework density 19.800311000000001
#
# number of rings (size 3 to 8) (size 9 to 14) (size 15 to 20)
#    0.750    1.000    3.750    0.000    3.500    2.000 
#    2.250    0.000    2.750    0.000    0.000    0.000 
#    0.000    0.000    0.000    0.000    0.000    0.000 
#
# Total GULP energy -178143.224525 kJ/mol
# GULP energy per Si atom -5566.975766 kJ/mol
# Density = 1.975524 g / cm^3
# Si number density = 19.800311 Si / 1000 Ang^3
#
#
#
# Elastic Constant Matrix: (Units=GPa)
#
#
# Indices 1 2 3 4 5 6 
#
# 1 59.5890 21.5107 24.4574 0.0000 9.6794 0.0000
# 2 21.5107 44.9957 13.8996 0.0000 11.5502 0.0000
# 3 24.4574 13.8996 112.6671 0.0000 11.1732 0.0000
# 4 0.0000 0.0000 0.0000 27.8637 0.0000 3.7649
# 5 9.6794 11.5502 11.1732 0.0000 30.3130 0.0000
# 6 0.0000 0.0000 0.0000 3.7649 0.0000 30.4565
#
#
#
# Elastic Compliance Matrix: (Units=1/GPa)
#
#
# Indices 1 2 3 4 5 6 
#
# 1 0.021710 -0.008723 -0.003403 0.000000 -0.002354 0.000000
# 2 -0.008723 0.028670 -0.000868 0.000000 -0.007819 0.000000
# 3 -0.003403 -0.000868 0.009944 0.000000 -0.002248 0.000000
# 4 0.000000 0.000000 0.000000 0.036499 0.000000 -0.004512
# 5 -0.002354 -0.007819 -0.002248 0.000000 0.037549 0.000000
# 6 0.000000 0.000000 0.000000 -0.004512 0.000000 0.033391
#
#
# Mechanical properties :
#
#
# Convention : Reuss Voigt Hill
#
# Bulk Modulus (GPa) = 29.12430 37.44303 33.28367
# Shear Modulus (GPa) = 24.36697 28.21890 26.29293
#
# Velocity S-wave (km/s) = 3.51185 3.77924 3.64800
# Velocity P-wave (km/s) = 5.58436 6.16401 5.88133
#
# Compressibility (1/GPa) = 0.03433559
#
# Stress axis : x y z
#
# Youngs Moduli (GPa) = 46.06248 34.88010 100.55857
#
# Poissons Ratio (x) = 0.30426 0.34221
# Poissons Ratio (y) = 0.40180 0.08729
# Poissons Ratio (z) = 0.15675 0.03028
#
# Static dielectric constant tensor:
#      x y z
#    x 1.788630 0.000000 0.013110 
#    y 0.000000 1.679030 0.000000 
#    z 0.013110 0.000000 1.725980 
# 
# From -- ./inp_files/73366.got.cif
#   From: 2010.05.17/outbox.cif.g08.bks.cpg/sg14_37_cif.got.tgz:73366.got - 2010.06.03 17:49:19.
