data_PCOD9249012
_publ_section_title
;
Structure prediction by ZEFSAII (Michael W. Deem and Ramdas Pophale) SiO2 
 PCOD9249012
Probable space group: P 21/C
;
_chemical_formula_sum "Si O2"
_cell_formula_units_Z 18
_cell_length_a 9.233565
_cell_length_b 7.536373
_cell_length_c 11.841750
_cell_angle_alpha 90.000000
_cell_angle_beta 125.678353
_cell_angle_gamma 90.000000
_cell_volume 669.369997
_symmetry_space_group_name_H-M "P 21/C"
_symmetry_group_IT_number 14
_symmetry_cell_setting 'monoclinic'
loop_
_space_group_symop_operation_xyz
x,y,z
-x,1/2+y,1/2-z
-x,-y,-z
x,1/2-y,1/2+z
loop_
_atom_site_type_symbol
_atom_site_label
_atom_site_fract_x
_atom_site_fract_y
_atom_site_fract_z
Si Si1 0.804711 0.974114 0.358910
Si Si2 0.635629 0.120980 0.495842
Si Si3 0.747654 0.894162 0.914855
Si Si4 0.500000 0.000000 0.000000
Si Si5 0.124689 0.675816 0.703309
O O1 0.666184 0.048262 0.386111
O O2 0.811651 0.116602 0.261957
O O3 0.762113 0.767623 0.330376
O O4 0.000000 0.000000 0.500000
O O5 0.565400 0.318868 0.468076
O O6 0.821749 0.106175 0.649976
O O7 0.500000 0.000000 0.500000
O O8 0.587297 0.887382 0.929885
O O9 0.772970 0.070562 0.850617
O O10 0.921413 0.858455 0.074670
#
# Coordination Sequence:
#
# PCOD9249012 Si02
#       5
#     4   4   4   2   4
#     4  10  22  46  67  98 136 179 231 276 338 409
#     4  12  26  45  68 103 140 182 233 280 341 411
#     4  10  22  45  70 101 137 181 230 279 347 406
#     4  12  24  44  66 100 142 176 228 284 340 402
#     4  10  24  45  71  97 141 185 228 282 335 415
#
# _framework density 26.890958999999999
#
# number of rings (size 3 to 8) (size 9 to 14) (size 15 to 20)
#    0.000    1.333    4.444    0.000    0.000    7.111 
#    0.000    0.000    0.000    0.000    0.000    0.000 
#    0.000    0.000    0.000    0.000    0.000    0.000 
#
# Total GULP energy -100375.889797 kJ/mol
# GULP energy per Si atom -5576.438322 kJ/mol
# Density = 2.682975 g / cm^3
# Si number density = 26.890959 Si / 1000 Ang^3
#
#
#
# Elastic Constant Matrix: (Units=GPa)
#
#
# Indices 1 2 3 4 5 6 
#
# 1 100.0861 9.8335 14.5701 0.0000 -6.7510 0.0000
# 2 9.8335 150.1337 -19.9369 0.0000 1.9207 0.0000
# 3 14.5701 -19.9369 99.9922 0.0000 16.5473 0.0000
# 4 0.0000 0.0000 0.0000 0.1575 0.0000 -0.5101
# 5 -6.7510 1.9207 16.5473 0.0000 26.5716 0.0000
# 6 0.0000 0.0000 0.0000 -0.5101 0.0000 36.9629
#
#
#
# Elastic Compliance Matrix: (Units=1/GPa)
#
#
# Indices 1 2 3 4 5 6 
#
# 1 0.010759 -0.001094 -0.002510 0.000000 0.004376 0.000000
# 2 -0.001094 0.007007 0.001880 0.000000 -0.001955 0.000000
# 3 -0.002510 0.001880 0.012118 0.000000 -0.008320 0.000000
# 4 0.000000 0.000000 0.000000 6.645538 0.000000 0.091707
# 5 0.004376 -0.001955 -0.008320 0.000000 0.044069 0.000000
# 6 0.000000 0.000000 0.000000 0.091707 0.000000 0.028320
#
#
# Mechanical properties :
#
#
# Convention : Reuss Voigt Hill
#
# Bulk Modulus (GPa) = 37.82611 39.90505 38.86558
# Shear Modulus (GPa) = 0.73964 35.78809 18.26386
#
# Velocity S-wave (km/s) = 0.52502 3.65205 2.60894
# Velocity P-wave (km/s) = 3.80323 5.71446 4.85385
#
# Compressibility (1/GPa) = 0.02643677
#
# Stress axis : x y z
#
# Youngs Moduli (GPa) = 92.94155 142.71314 82.52012
#
# Poissons Ratio (x) = 0.15613 0.20713
# Poissons Ratio (y) = 0.10168 -0.15514
# Poissons Ratio (z) = 0.23329 -0.26831
#
# Static dielectric constant tensor:
#      x y z
#    x 2.057510 0.000000 0.118840 
#    y 0.000000 2.254640 0.000000 
#    z 0.118840 0.000000 2.281120 
# 
# From -- ./inp_files/23181.got.cif
#   From: 2010.05.17/outbox.cif.g08.bks.cpg/sg14_12_cif.got.tgz:23181.got - 2010.06.03 17:49:19.
