data_PCOD9249841
_publ_section_title
;
Structure prediction by ZEFSAII (Michael W. Deem and Ramdas Pophale) SiO2 
 PCOD9249841
Probable space group: P 21/C
;
_chemical_formula_sum "Si O2"
_cell_formula_units_Z 20
_cell_length_a 10.579376
_cell_length_b 7.354031
_cell_length_c 25.000620
_cell_angle_alpha 90.000000
_cell_angle_beta 28.456974
_cell_angle_gamma 90.000000
_cell_volume 926.825538
_symmetry_space_group_name_H-M "P 21/C"
_symmetry_group_IT_number 14
_symmetry_cell_setting 'monoclinic'
loop_
_space_group_symop_operation_xyz
x,y,z
-x,1/2+y,1/2-z
-x,-y,-z
x,1/2-y,1/2+z
loop_
_atom_site_type_symbol
_atom_site_label
_atom_site_fract_x
_atom_site_fract_y
_atom_site_fract_z
Si Si1 0.970830 0.016181 0.817706
Si Si2 0.767942 0.961809 0.172424
Si Si3 0.844780 0.935807 0.610561
Si Si4 0.656271 0.362233 0.903501
Si Si5 0.139935 0.227746 0.557312
O O1 0.191996 0.073811 0.778962
O O2 0.761518 0.178156 0.891329
O O3 0.098743 0.966927 0.714005
O O4 0.863804 0.829607 0.883992
O O5 0.855927 0.779945 0.110722
O O6 0.464721 0.010841 0.274493
O O7 0.971112 0.127761 0.085300
O O8 0.000000 0.000000 0.500000
O O9 0.987487 0.039094 0.606682
O O10 0.500000 0.500000 0.000000
O O11 0.449984 0.305861 0.932854
#
# Coordination Sequence:
#
# PCOD9249841 Si02
#       5
#     4   4   4   4   4
#     4  10  24  43  64 101 134 179 220 285 333 403
#     4  10  23  44  64  99 137 176 222 277 331 406
#     4  12  23  45  68 101 135 177 226 276 339 395
#     4  12  23  44  70  99 136 181 229 279 341 402
#     4  10  24  43  66  98 136 176 226 271 339 398
#
# _framework density 21.579035000000001
#
# number of rings (size 3 to 8) (size 9 to 14) (size 15 to 20)
#    1.200    0.000    2.000    4.200    0.000    0.800 
#    7.200    0.000    0.000    0.000    0.000    0.000 
#    0.000    0.000    0.000    0.000    0.000    0.000 
#
# Total GULP energy -111566.586776 kJ/mol
# GULP energy per Si atom -5578.329339 kJ/mol
# Density = 2.152992 g / cm^3
# Si number density = 21.579035 Si / 1000 Ang^3
#
#
#
# Elastic Constant Matrix: (Units=GPa)
#
#
# Indices 1 2 3 4 5 6 
#
# 1 58.9472 11.6619 14.1699 0.0000 -24.0291 0.0000
# 2 11.6619 107.3711 49.9009 0.0000 -5.9619 0.0000
# 3 14.1699 49.9009 66.9741 0.0000 2.2151 0.0000
# 4 0.0000 0.0000 0.0000 38.4826 0.0000 -4.8897
# 5 -24.0291 -5.9619 2.2151 0.0000 42.0042 0.0000
# 6 0.0000 0.0000 0.0000 -4.8897 0.0000 50.4340
#
#
#
# Elastic Compliance Matrix: (Units=1/GPa)
#
#
# Indices 1 2 3 4 5 6 
#
# 1 0.024111 0.001172 -0.006447 0.000000 0.014300 0.000000
# 2 0.001172 0.014590 -0.011229 0.000000 0.003333 0.000000
# 3 -0.006447 -0.011229 0.024880 0.000000 -0.006594 0.000000
# 4 0.000000 0.000000 0.000000 0.026310 0.000000 0.002551
# 5 0.014300 0.003333 -0.006594 0.000000 0.032808 0.000000
# 6 0.000000 0.000000 0.000000 0.002551 0.000000 0.020075
#
#
# Mechanical properties :
#
#
# Convention : Reuss Voigt Hill
#
# Bulk Modulus (GPa) = 32.70949 42.75087 37.73018
# Shear Modulus (GPa) = 26.88553 36.68812 31.78683
#
# Velocity S-wave (km/s) = 3.53357 4.12779 3.84219
# Velocity P-wave (km/s) = 5.64261 6.52476 6.09966
#
# Compressibility (1/GPa) = 0.03057217
#
# Stress axis : x y z
#
# Youngs Moduli (GPa) = 41.47414 68.54059 40.19363
#
# Poissons Ratio (x) = -0.08030 0.25913
# Poissons Ratio (y) = -0.04859 0.45132
# Poissons Ratio (z) = 0.26739 0.76962
#
# Static dielectric constant tensor:
#      x y z
#    x 1.843260 0.000000 0.009940 
#    y 0.000000 1.786620 0.000000 
#    z 0.009940 0.000000 1.757780 
# 
# From -- ./inp_files/76889.got.cif
#   From: 2010.05.17/outbox.cif.g08.bks.cpg/sg14_39_cif.got.tgz:76889.got - 2010.06.03 17:49:19.
