data_PCOD9249671
_publ_section_title
;
Structure prediction by ZEFSAII (Michael W. Deem and Ramdas Pophale) SiO2 
 PCOD9249671
Probable space group: P 21/C
;
_chemical_formula_sum "Si O2"
_cell_formula_units_Z 20
_cell_length_a 13.861152
_cell_length_b 7.296849
_cell_length_c 18.943541
_cell_angle_alpha 90.000000
_cell_angle_beta 152.097227
_cell_angle_gamma 90.000000
_cell_volume 896.636182
_symmetry_space_group_name_H-M "P 21/C"
_symmetry_group_IT_number 14
_symmetry_cell_setting 'monoclinic'
loop_
_space_group_symop_operation_xyz
x,y,z
-x,1/2+y,1/2-z
-x,-y,-z
x,1/2-y,1/2+z
loop_
_atom_site_type_symbol
_atom_site_label
_atom_site_fract_x
_atom_site_fract_y
_atom_site_fract_z
Si Si1 0.790629 0.756261 0.387961
Si Si2 0.432056 0.927912 0.321270
Si Si3 0.067429 0.679208 0.689194
Si Si4 0.207728 0.676175 0.071066
Si Si5 0.886453 0.024470 0.628968
O O1 0.624893 0.633340 0.241015
O O2 0.879270 0.648336 0.513413
O O3 0.991717 0.775208 0.468422
O O4 0.739025 0.963629 0.376704
O O5 0.276138 0.873603 0.283409
O O6 0.376512 0.798052 0.219271
O O7 0.669312 0.917091 0.495975
O O8 0.046974 0.584084 0.751055
O O9 0.052240 0.895558 0.697442
O O10 0.166884 0.684884 0.961190
#
# Coordination Sequence:
#
# PCOD9249671 Si02
#       5
#     4   4   4   4   4
#     4   9  20  41  69  88 127 169 210 268 325 374
#     4  11  23  43  69  93 128 172 220 261 325 384
#     4  10  23  43  60  96 130 169 205 268 328 375
#     4   9  20  39  64  97 122 161 221 264 309 381
#     4  11  25  40  67  96 133 168 219 265 322 389
#
# _framework density 22.305589000000001
#
# number of rings (size 3 to 8) (size 9 to 14) (size 15 to 20)
#    0.000    2.000    0.000    4.200   11.200    0.000 
#    3.600    1.000    0.000    0.000    0.000    0.000 
#    0.000    0.000    0.000    0.000    0.000    0.000 
#
# Total GULP energy -111804.054788 kJ/mol
# GULP energy per Si atom -5590.202739 kJ/mol
# Density = 2.225482 g / cm^3
# Si number density = 22.305589 Si / 1000 Ang^3
#
#
#
# Elastic Constant Matrix: (Units=GPa)
#
#
# Indices 1 2 3 4 5 6 
#
# 1 84.8024 18.3687 38.9591 0.0000 -30.3337 0.0000
# 2 18.3687 78.7950 32.2161 0.0000 -6.1386 0.0000
# 3 38.9591 32.2161 66.5119 0.0000 -10.3063 0.0000
# 4 0.0000 0.0000 0.0000 28.2072 0.0000 -12.9747
# 5 -30.3337 -6.1386 -10.3063 0.0000 35.3604 0.0000
# 6 0.0000 0.0000 0.0000 -12.9747 0.0000 41.2613
#
#
#
# Elastic Compliance Matrix: (Units=1/GPa)
#
#
# Indices 1 2 3 4 5 6 
#
# 1 0.022487 0.000472 -0.010891 0.000000 0.016198 0.000000
# 2 0.000472 0.015845 -0.007815 0.000000 0.000878 0.000000
# 3 -0.010891 -0.007815 0.024655 0.000000 -0.003513 0.000000
# 4 0.000000 0.000000 0.000000 0.041447 0.000000 0.013033
# 5 0.016198 0.000878 -0.003513 0.000000 0.041304 0.000000
# 6 0.000000 0.000000 0.000000 0.013033 0.000000 0.028334
#
#
# Mechanical properties :
#
#
# Convention : Reuss Voigt Hill
#
# Bulk Modulus (GPa) = 37.70726 45.46634 41.58680
# Shear Modulus (GPa) = 22.79160 30.33681 26.56420
#
# Velocity S-wave (km/s) = 3.20001 3.69189 3.45472
# Velocity P-wave (km/s) = 5.53127 6.21297 5.88201
#
# Compressibility (1/GPa) = 0.02652009
#
# Stress axis : x y z
#
# Youngs Moduli (GPa) = 44.46996 63.11210 40.55946
#
# Poissons Ratio (x) = -0.02982 0.44172
# Poissons Ratio (y) = -0.02101 0.31699
# Poissons Ratio (z) = 0.48430 0.49325
#
# Static dielectric constant tensor:
#      x y z
#    x 1.865180 0.000000 0.009820 
#    y 0.000000 1.870060 0.000000 
#    z 0.009820 0.000000 1.787460 
# 
# From -- ./inp_files/58915.got.cif
#   From: 2010.05.17/outbox.cif.g08.bks.cpg/sg14_30_cif.got.tgz:58915.got - 2010.06.03 17:49:19.
