data_PCOD9249146
_publ_section_title
;
Structure prediction by ZEFSAII (Michael W. Deem and Ramdas Pophale) SiO2 
 PCOD9249146
Probable space group: P 21/C
;
_chemical_formula_sum "Si O2"
_cell_formula_units_Z 22
_cell_length_a 7.039215
_cell_length_b 6.712647
_cell_length_c 14.980770
_cell_angle_alpha 90.000000
_cell_angle_beta 66.296877
_cell_angle_gamma 90.000000
_cell_volume 648.152584
_symmetry_space_group_name_H-M "P 21/C"
_symmetry_group_IT_number 14
_symmetry_cell_setting 'monoclinic'
loop_
_space_group_symop_operation_xyz
x,y,z
-x,1/2+y,1/2-z
-x,-y,-z
x,1/2-y,1/2+z
loop_
_atom_site_type_symbol
_atom_site_label
_atom_site_fract_x
_atom_site_fract_y
_atom_site_fract_z
Si Si1 0.692051 0.277756 0.789568
Si Si2 0.500000 0.500000 0.000000
Si Si3 0.296447 0.251262 0.482945
Si Si4 0.909386 0.742593 0.184634
Si Si5 0.000000 0.500000 0.000000
Si Si6 0.000000 0.000000 0.000000
Si Si7 0.518996 0.651664 0.355430
O O1 0.918158 0.328489 0.779842
O O2 0.631614 0.314185 0.700797
O O3 0.659664 0.044934 0.816997
O O4 0.517516 0.357151 0.896827
O O5 0.248870 0.506358 0.013479
O O6 0.434138 0.241452 0.552707
O O7 0.039086 0.254639 0.527535
O O8 0.301112 0.479916 0.447102
O O9 0.864943 0.577299 0.116448
O O10 0.702819 0.806147 0.273062
O O11 0.001703 0.915533 0.104826
#
# Coordination Sequence:
#
# PCOD9249146 Si02
#       7
#     4   2   4   4   2   2   4
#     4  12  27  54  86 121 180 232 303 372 459 543
#     4  12  28  52  86 120 174 228 302 354 460 530
#     4  11  24  48  74 123 159 232 283 369 440 547
#     4  11  26  52  82 125 171 232 291 379 449 545
#     4  10  22  46  76 116 166 208 294 360 448 524
#     4  10  22  48  76 118 170 210 292 366 452 528
#     4  12  29  54  81 133 175 238 301 377 445 555
#
# _framework density 33.942625999999997
#
# number of rings (size 3 to 8) (size 9 to 14) (size 15 to 20)
#    0.000    0.727    3.636    3.273    0.000   10.182 
#    3.273    0.000    0.000    0.000    0.000    0.000 
#    0.000    0.000    0.000    0.000    0.000    0.000 
#
# Total GULP energy -122626.585720 kJ/mol
# GULP energy per Si atom -5573.935715 kJ/mol
# Density = 3.386537 g / cm^3
# Si number density = 33.942626 Si / 1000 Ang^3
#
#
#
# Elastic Constant Matrix: (Units=GPa)
#
#
# Indices 1 2 3 4 5 6 
#
# 1 319.3519 93.3885 125.8313 0.0000 44.0007 0.0000
# 2 93.3885 242.4148 94.5130 0.0000 37.9024 0.0000
# 3 125.8313 94.5130 329.9190 0.0000 24.0821 0.0000
# 4 0.0000 0.0000 0.0000 91.3895 0.0000 19.0697
# 5 44.0007 37.9024 24.0821 0.0000 80.7781 0.0000
# 6 0.0000 0.0000 0.0000 19.0697 0.0000 117.8253
#
#
#
# Elastic Compliance Matrix: (Units=1/GPa)
#
#
# Indices 1 2 3 4 5 6 
#
# 1 0.004055 -0.000872 -0.001191 0.000000 -0.001444 0.000000
# 2 -0.000872 0.005109 -0.001013 0.000000 -0.001621 0.000000
# 3 -0.001191 -0.001013 0.003776 0.000000 -0.000001 0.000000
# 4 0.000000 0.000000 0.000000 0.011325 0.000000 -0.001833
# 5 -0.001444 -0.001621 -0.000001 0.000000 0.013927 0.000000
# 6 0.000000 0.000000 0.000000 -0.001833 0.000000 0.008784
#
#
# Mechanical properties :
#
#
# Convention : Reuss Voigt Hill
#
# Bulk Modulus (GPa) = 147.32346 168.79459 158.05902
# Shear Modulus (GPa) = 90.26949 96.52878 93.39913
#
# Velocity S-wave (km/s) = 5.16260 5.33859 5.25133
# Velocity P-wave (km/s) = 8.89014 9.37220 9.13435
#
# Compressibility (1/GPa) = 0.00678779
#
# Stress axis : x y z
#
# Youngs Moduli (GPa) = 246.62904 195.72237 264.85276
#
# Poissons Ratio (x) = 0.17062 0.31552
# Poissons Ratio (y) = 0.21499 0.26827
# Poissons Ratio (z) = 0.29381 0.19825
#
# Static dielectric constant tensor:
#      x y z
#    x 10.153870 0.000000 -3.932790 
#    y 0.000000 3.713140 0.000000 
#    z -3.932790 0.000000 4.891220 
# 
# From -- ./inp_files/38786.got.cif
#   From: 2010.05.17/outbox.cif.g08.bks.cpg/sg14_20_cif.got.tgz:38786.got - 2010.06.03 17:49:19.
