data_PCOD9249169
_publ_section_title
;
Structure prediction by ZEFSAII (Michael W. Deem and Ramdas Pophale) SiO2 
 PCOD9249169
Probable space group: P 21/C
;
_chemical_formula_sum "Si O2"
_cell_formula_units_Z 24
_cell_length_a 9.478200
_cell_length_b 13.531310
_cell_length_c 8.056869
_cell_angle_alpha 90.000000
_cell_angle_beta 110.447167
_cell_angle_gamma 90.000000
_cell_volume 968.209096
_symmetry_space_group_name_H-M "P 21/C"
_symmetry_group_IT_number 14
_symmetry_cell_setting 'monoclinic'
loop_
_space_group_symop_operation_xyz
x,y,z
-x,1/2+y,1/2-z
-x,-y,-z
x,1/2-y,1/2+z
loop_
_atom_site_type_symbol
_atom_site_label
_atom_site_fract_x
_atom_site_fract_y
_atom_site_fract_z
Si Si1 0.677237 0.641333 0.695714
Si Si2 0.005959 0.048038 0.730160
Si Si3 0.748332 0.341309 0.997829
Si Si4 0.564707 0.848147 0.775651
Si Si5 0.598688 0.059923 0.740470
Si Si6 0.120267 0.873629 0.970296
O O1 0.845065 0.601995 0.769786
O O2 0.650976 0.753710 0.741501
O O3 0.615250 0.634912 0.483692
O O4 0.568069 0.577970 0.766637
O O5 0.868480 0.070007 0.550067
O O6 0.034873 0.934545 0.793075
O O7 0.961459 0.101904 0.888106
O O8 0.390056 0.053628 0.307145
O O9 0.650492 0.363096 0.122874
O O10 0.845877 0.241190 0.044017
O O11 0.383593 0.834907 0.691370
O O12 0.715047 0.077751 0.938354
#
# Coordination Sequence:
#
# PCOD9249169 Si02
#       6
#     4   4   4   4   4   4
#     4  12  26  44  75 109 145 191 242 303 365 429
#     4  10  25  43  71 106 144 197 236 305 358 437
#     4  11  25  46  77 107 145 193 245 296 363 438
#     4  12  26  45  75 112 145 190 246 302 361 434
#     4  11  24  47  78 104 145 196 242 299 358 445
#     4  10  22  47  72 101 149 198 235 290 383 420
#
# _framework density 24.788034
#
# number of rings (size 3 to 8) (size 9 to 14) (size 15 to 20)
#    0.000    1.000    3.333    2.000    4.667    0.000 
#    0.000    0.833    0.000    0.000    0.000    0.000 
#    0.000    0.000    0.000    0.000    0.000    0.000 
#
# Total GULP energy -134510.844614 kJ/mol
# GULP energy per Si atom -5604.618526 kJ/mol
# Density = 2.473162 g / cm^3
# Si number density = 24.788034 Si / 1000 Ang^3
#
#
#
# Elastic Constant Matrix: (Units=GPa)
#
#
# Indices 1 2 3 4 5 6 
#
# 1 140.0259 15.3971 26.6660 0.0000 4.4752 0.0000
# 2 15.3971 133.0679 19.7956 0.0000 -0.1399 0.0000
# 3 26.6660 19.7956 86.5598 0.0000 0.5157 0.0000
# 4 0.0000 0.0000 0.0000 25.6760 0.0000 9.4368
# 5 4.4752 -0.1399 0.5157 0.0000 34.6896 0.0000
# 6 0.0000 0.0000 0.0000 9.4368 0.0000 31.4214
#
#
#
# Elastic Compliance Matrix: (Units=1/GPa)
#
#
# Indices 1 2 3 4 5 6 
#
# 1 0.007657 -0.000556 -0.002226 0.000000 -0.000957 0.000000
# 2 -0.000556 0.007820 -0.001618 0.000000 0.000127 0.000000
# 3 -0.002226 -0.001618 0.012608 0.000000 0.000093 0.000000
# 4 0.000000 0.000000 0.000000 0.043779 0.000000 -0.013148
# 5 -0.000957 0.000127 0.000093 0.000000 0.028950 0.000000
# 6 0.000000 0.000000 0.000000 -0.013148 0.000000 0.035774
#
#
# Mechanical properties :
#
#
# Convention : Reuss Voigt Hill
#
# Bulk Modulus (GPa) = 51.85244 53.70790 52.78017
# Shear Modulus (GPa) = 32.93446 38.21040 35.57243
#
# Velocity S-wave (km/s) = 3.64901 3.93044 3.79233
# Velocity P-wave (km/s) = 6.22234 6.50474 6.36510
#
# Compressibility (1/GPa) = 0.01928549
#
# Stress axis : x y z
#
# Youngs Moduli (GPa) = 130.59663 127.87558 79.31517
#
# Poissons Ratio (x) = 0.07108 0.17656
# Poissons Ratio (y) = 0.07259 0.12833
# Poissons Ratio (z) = 0.29072 0.20689
#
# Static dielectric constant tensor:
#      x y z
#    x 1.931670 0.000000 -0.010290 
#    y 0.000000 1.983450 0.000000 
#    z -0.010290 0.000000 2.023130 
# 
# From -- ./inp_files/24593.got.cif
#   From: 2010.05.17/outbox.cif.g08.bks.cpg/sg14_13_cif.got.tgz:24593.got - 2010.06.03 17:49:19.
