data_PCOD9249912
_publ_section_title
;
Structure prediction by ZEFSAII (Michael W. Deem and Ramdas Pophale) SiO2 
 PCOD9249912
Probable space group: P 21/C
;
_chemical_formula_sum "Si O2"
_cell_formula_units_Z 16
_cell_length_a 20.233586
_cell_length_b 4.971583
_cell_length_c 21.929242
_cell_angle_alpha 90.000000
_cell_angle_beta 15.011201
_cell_angle_gamma 90.000000
_cell_volume 571.352510
_symmetry_space_group_name_H-M "P 21/C"
_symmetry_group_IT_number 14
_symmetry_cell_setting 'monoclinic'
loop_
_space_group_symop_operation_xyz
x,y,z
-x,1/2+y,1/2-z
-x,-y,-z
x,1/2-y,1/2+z
loop_
_atom_site_type_symbol
_atom_site_label
_atom_site_fract_x
_atom_site_fract_y
_atom_site_fract_z
Si Si1 0.224851 0.634980 0.256510
Si Si2 0.155307 0.299432 0.615663
Si Si3 0.594433 0.466342 0.300873
Si Si4 0.209508 0.039322 0.936645
O O1 0.299268 0.905048 0.226896
O O2 0.000000 0.500000 0.500000
O O3 0.074030 0.644901 0.327278
O O4 0.500000 0.500000 0.000000
O O5 0.315333 0.359031 0.533272
O O6 0.285514 0.406500 0.437975
O O7 0.907603 0.489192 0.837091
O O8 0.618820 0.771874 0.259326
O O9 0.760633 0.269777 0.108744
#
# Coordination Sequence:
#
# PCOD9249912 Si02
#       4
#     4   4   4   4
#     4  10  23  44  70 102 140 182 230 284 344 410
#     4  12  24  40  64  98 134 180 230 288 348 414
#     4  11  23  43  66  96 134 182 230 285 345 413
#     4  11  23  43  66  96 134 182 230 285 345 413
#
# _framework density 28.003730000000001
#
# number of rings (size 3 to 8) (size 9 to 14) (size 15 to 20)
#    0.000    1.000    0.000    6.750    0.000    4.000 
#    0.000   11.250    0.000    0.000    0.000    0.000 
#    0.000    0.000    0.000    0.000    0.000    0.000 
#
# Total GULP energy -89607.903337 kJ/mol
# GULP energy per Si atom -5600.493959 kJ/mol
# Density = 2.793999 g / cm^3
# Si number density = 28.003730 Si / 1000 Ang^3
#
#
#
# Elastic Constant Matrix: (Units=GPa)
#
#
# Indices 1 2 3 4 5 6 
#
# 1 70.1753 35.4665 36.7868 0.0000 -5.4416 0.0000
# 2 35.4665 91.0324 41.6821 0.0000 8.5364 0.0000
# 3 36.7868 41.6821 139.0248 0.0000 -19.5009 0.0000
# 4 0.0000 0.0000 0.0000 45.9272 0.0000 4.4966
# 5 -5.4416 8.5364 -19.5009 0.0000 65.3728 0.0000
# 6 0.0000 0.0000 0.0000 4.4966 0.0000 46.6133
#
#
#
# Elastic Compliance Matrix: (Units=1/GPa)
#
#
# Indices 1 2 3 4 5 6 
#
# 1 0.019062 -0.006208 -0.002971 0.000000 0.001511 0.000000
# 2 -0.006208 0.015314 -0.003446 0.000000 -0.003544 0.000000
# 3 -0.002971 -0.003446 0.009435 0.000000 0.003017 0.000000
# 4 0.000000 0.000000 0.000000 0.021981 0.000000 -0.002120
# 5 0.001511 -0.003544 0.003017 0.000000 0.016786 0.000000
# 6 0.000000 0.000000 0.000000 -0.002120 0.000000 0.021658
#
#
# Mechanical properties :
#
#
# Convention : Reuss Voigt Hill
#
# Bulk Modulus (GPa) = 53.87320 58.67817 56.27569
# Shear Modulus (GPa) = 36.85344 44.00245 40.42795
#
# Velocity S-wave (km/s) = 3.63163 3.96827 3.80368
# Velocity P-wave (km/s) = 6.07163 6.48039 6.27933
#
# Compressibility (1/GPa) = 0.01856210
#
# Stress axis : x y z
#
# Youngs Moduli (GPa) = 52.46026 65.29979 105.98405
#
# Poissons Ratio (x) = 0.40539 0.31484
# Poissons Ratio (y) = 0.32568 0.36521
# Poissons Ratio (z) = 0.15584 0.22501
#
# Static dielectric constant tensor:
#      x y z
#    x 2.202420 0.000000 0.033600 
#    y 0.000000 2.075190 0.000000 
#    z 0.033600 0.000000 2.243980 
# 
# From -- ./inp_files/75366.got.cif
#   From: 2010.05.17/outbox.cif.g08.bks.cpg/sg14_38_cif.got.tgz:75366.got - 2010.06.03 17:49:19.
