data_PCOD9249251
_publ_section_title
;
Structure prediction by ZEFSAII (Michael W. Deem and Ramdas Pophale) SiO2 
 PCOD9249251
Probable space group: P 21/C
;
_chemical_formula_sum "Si O2"
_cell_formula_units_Z 20
_cell_length_a 10.340664
_cell_length_b 17.766439
_cell_length_c 7.877316
_cell_angle_alpha 90.000000
_cell_angle_beta 38.628198
_cell_angle_gamma 90.000000
_cell_volume 903.432012
_symmetry_space_group_name_H-M "P 21/C"
_symmetry_group_IT_number 14
_symmetry_cell_setting 'monoclinic'
loop_
_space_group_symop_operation_xyz
x,y,z
-x,1/2+y,1/2-z
-x,-y,-z
x,1/2-y,1/2+z
loop_
_atom_site_type_symbol
_atom_site_label
_atom_site_fract_x
_atom_site_fract_y
_atom_site_fract_z
Si Si1 0.236792 0.513182 0.785101
Si Si2 0.870695 0.775288 0.991266
Si Si3 0.546153 0.693731 0.080349
Si Si4 0.489205 0.529773 0.205110
Si Si5 0.184897 0.816363 0.400715
O O1 0.345772 0.489368 0.495430
O O2 0.302084 0.473926 0.894861
O O3 0.273263 0.602353 0.768442
O O4 0.000000 0.500000 0.000000
O O5 0.707930 0.727146 0.048964
O O6 0.708905 0.824810 0.263568
O O7 0.044134 0.821903 0.713735
O O8 0.013486 0.716713 0.948093
O O9 0.432280 0.617565 0.247663
O O10 0.372976 0.756826 0.220481
O O11 0.500000 0.500000 0.000000
#
# Coordination Sequence:
#
# PCOD9249251 Si02
#       5
#     4   4   4   4   4
#     4  11  26  47  69  99 145 183 229 286 350 414
#     4  10  23  38  69  98 132 174 235 279 340 402
#     4  11  23  43  66  99 139 174 229 290 335 413
#     4  11  27  44  70 102 139 184 230 280 356 411
#     4  11  23  42  69  99 133 183 229 281 347 408
#
# _framework density 22.137801
#
# number of rings (size 3 to 8) (size 9 to 14) (size 15 to 20)
#    0.000    1.200    0.000    4.800    8.400    5.600 
#    0.000    0.000    0.000    0.000    0.000    0.000 
#    0.000    0.000    0.000    0.000    0.000    0.000 
#
# Total GULP energy -111492.563070 kJ/mol
# GULP energy per Si atom -5574.628154 kJ/mol
# Density = 2.208741 g / cm^3
# Si number density = 22.137801 Si / 1000 Ang^3
#
#
#
# Elastic Constant Matrix: (Units=GPa)
#
#
# Indices 1 2 3 4 5 6 
#
# 1 133.2525 26.4135 40.0722 0.0000 -10.6029 0.0000
# 2 26.4135 80.1561 0.7720 0.0000 -3.6315 0.0000
# 3 40.0722 0.7720 115.3660 0.0000 11.1436 0.0000
# 4 0.0000 0.0000 0.0000 20.4438 0.0000 -5.4673
# 5 -10.6029 -3.6315 11.1436 0.0000 54.2877 0.0000
# 6 0.0000 0.0000 0.0000 -5.4673 0.0000 15.9570
#
#
#
# Elastic Compliance Matrix: (Units=1/GPa)
#
#
# Indices 1 2 3 4 5 6 
#
# 1 0.009303 -0.002927 -0.003437 0.000000 0.002327 0.000000
# 2 -0.002927 0.013438 0.000913 0.000000 0.000140 0.000000
# 3 -0.003437 0.000913 0.010115 0.000000 -0.002686 0.000000
# 4 0.000000 0.000000 0.000000 0.053849 0.000000 0.018450
# 5 0.002327 0.000140 -0.002686 0.000000 0.019436 0.000000
# 6 0.000000 0.000000 0.000000 0.018450 0.000000 0.068990
#
#
# Mechanical properties :
#
#
# Convention : Reuss Voigt Hill
#
# Bulk Modulus (GPa) = 45.54713 51.47666 48.51190
# Shear Modulus (GPa) = 25.85984 35.57217 30.71600
#
# Velocity S-wave (km/s) = 3.42150 4.01290 3.72895
# Velocity P-wave (km/s) = 6.01896 6.69138 6.36406
#
# Compressibility (1/GPa) = 0.02195528
#
# Stress axis : x y z
#
# Youngs Moduli (GPa) = 107.48746 74.41706 98.86144
#
# Poissons Ratio (x) = 0.21783 0.33975
# Poissons Ratio (y) = 0.31464 -0.09029
# Poissons Ratio (z) = 0.36940 -0.06797
#
# Static dielectric constant tensor:
#      x y z
#    x 1.892320 0.000000 0.132030 
#    y 0.000000 1.742710 0.000000 
#    z 0.132030 0.000000 1.938400 
# 
# From -- ./inp_files/13861.got.cif
#   From: 2010.05.17/outbox.cif.g08.bks.cpg/sg14_7_cif.got.tgz:13861.got - 2010.06.03 17:49:19.
