data_PCOD9249034
_publ_section_title
;
Structure prediction by ZEFSAII (Michael W. Deem and Ramdas Pophale) SiO2 
 PCOD9249034
Probable space group: P 21/C
;
_chemical_formula_sum "Si O2"
_cell_formula_units_Z 24
_cell_length_a 22.298604
_cell_length_b 7.548843
_cell_length_c 10.006841
_cell_angle_alpha 90.000000
_cell_angle_beta 39.354618
_cell_angle_gamma 90.000000
_cell_volume 1068.132982
_symmetry_space_group_name_H-M "P 21/C"
_symmetry_group_IT_number 14
_symmetry_cell_setting 'monoclinic'
loop_
_space_group_symop_operation_xyz
x,y,z
-x,1/2+y,1/2-z
-x,-y,-z
x,1/2-y,1/2+z
loop_
_atom_site_type_symbol
_atom_site_label
_atom_site_fract_x
_atom_site_fract_y
_atom_site_fract_z
Si Si1 0.113494 0.869758 0.644410
Si Si2 0.694292 0.098278 0.745620
Si Si3 0.370620 0.292421 0.501032
Si Si4 0.058231 0.376350 0.000147
Si Si5 0.210397 0.105098 0.653795
Si Si6 0.499329 0.290750 0.024221
O O1 0.211437 0.781413 0.424008
O O2 0.019357 0.759611 0.811579
O O3 0.098296 0.022598 0.560337
O O4 0.137193 0.943174 0.753601
O O5 0.725169 0.942501 0.586997
O O6 0.602539 0.205632 0.860808
O O7 0.674672 0.989900 0.915157
O O8 0.286853 0.146243 0.637569
O O9 0.438449 0.259010 0.260569
O O10 0.441337 0.289926 0.502616
O O11 0.142099 0.274743 0.778031
O O12 0.000000 0.500000 0.000000
O O13 0.500000 0.500000 0.000000
#
# Coordination Sequence:
#
# PCOD9249034 Si02
#       6
#     4   4   4   4   4   4
#     4  10  24  45  70 107 148 188 251 310 376 446
#     4  10  24  48  68 103 148 186 241 308 367 446
#     4  12  23  47  72 101 147 189 239 302 373 443
#     4  12  24  45  73 105 147 198 250 311 379 448
#     4  10  22  45  72 103 141 192 239 304 373 439
#     4  12  27  43  71 106 141 192 244 303 372 442
#
# _framework density 22.469113
#
# number of rings (size 3 to 8) (size 9 to 14) (size 15 to 20)
#    1.000    0.000    3.333    3.000    2.333    1.333 
#    9.000    0.000    0.000    0.000    0.000    0.000 
#    0.000    0.000    0.000    0.000    0.000    0.000 
#
# Total GULP energy -133705.329017 kJ/mol
# GULP energy per Si atom -5571.055376 kJ/mol
# Density = 2.241797 g / cm^3
# Si number density = 22.469113 Si / 1000 Ang^3
#
#
#
# Elastic Constant Matrix: (Units=GPa)
#
#
# Indices 1 2 3 4 5 6 
#
# 1 93.5878 22.7505 49.3286 0.0000 -20.7473 0.0000
# 2 22.7505 52.4510 49.9649 0.0000 -15.9960 0.0000
# 3 49.3286 49.9649 118.9926 0.0000 -22.9689 0.0000
# 4 0.0000 0.0000 0.0000 27.2772 0.0000 -18.1962
# 5 -20.7473 -15.9960 -22.9689 0.0000 40.0034 0.0000
# 6 0.0000 0.0000 0.0000 -18.1962 0.0000 41.5664
#
#
#
# Elastic Compliance Matrix: (Units=1/GPa)
#
#
# Indices 1 2 3 4 5 6 
#
# 1 0.014369 -0.000016 -0.005075 0.000000 0.004532 0.000000
# 2 -0.000016 0.032963 -0.012700 0.000000 0.005881 0.000000
# 3 -0.005075 -0.012700 0.016141 0.000000 0.001557 0.000000
# 4 0.000000 0.000000 0.000000 0.051782 0.000000 0.022668
# 5 0.004532 0.005881 0.001557 0.000000 0.030594 0.000000
# 6 0.000000 0.000000 0.000000 0.022668 0.000000 0.033981
#
#
# Mechanical properties :
#
#
# Convention : Reuss Voigt Hill
#
# Bulk Modulus (GPa) = 35.85245 56.56883 46.21064
# Shear Modulus (GPa) = 22.25099 31.30190 26.77644
#
# Velocity S-wave (km/s) = 3.15031 3.73649 3.45585
# Velocity P-wave (km/s) = 5.40588 6.62163 6.04440
#
# Compressibility (1/GPa) = 0.02789210
#
# Stress axis : x y z
#
# Youngs Moduli (GPa) = 69.59590 30.33670 61.95408
#
# Poissons Ratio (x) = 0.00048 0.31443
# Poissons Ratio (y) = 0.00109 0.78679
# Poissons Ratio (z) = 0.35321 0.38526
#
# Static dielectric constant tensor:
#      x y z
#    x 1.831290 0.000000 -0.002710 
#    y 0.000000 1.666640 0.000000 
#    z -0.002710 0.000000 1.882220 
# 
# From -- ./inp_files/36085.got.cif
#   From: 2010.05.17/outbox.cif.g08.bks.cpg/sg14_19_cif.got.tgz:36085.got - 2010.06.03 17:49:19.
