data_PCOD9249837
_publ_section_title
;
Structure prediction by ZEFSAII (Michael W. Deem and Ramdas Pophale) SiO2 
 PCOD9249837
Probable space group: P 21/C
;
_chemical_formula_sum "Si O2"
_cell_formula_units_Z 32
_cell_length_a 6.908718
_cell_length_b 14.598679
_cell_length_c 18.823837
_cell_angle_alpha 90.000000
_cell_angle_beta 61.793832
_cell_angle_gamma 90.000000
_cell_volume 1673.091059
_symmetry_space_group_name_H-M "P 21/C"
_symmetry_group_IT_number 14
_symmetry_cell_setting 'monoclinic'
loop_
_space_group_symop_operation_xyz
x,y,z
-x,1/2+y,1/2-z
-x,-y,-z
x,1/2-y,1/2+z
loop_
_atom_site_type_symbol
_atom_site_label
_atom_site_fract_x
_atom_site_fract_y
_atom_site_fract_z
Si Si1 0.152382 0.498440 0.405174
Si Si2 0.117180 0.495802 0.691357
Si Si3 0.918133 0.907683 0.476935
Si Si4 0.538851 0.637175 0.306424
Si Si5 0.471917 0.152636 0.361581
Si Si6 0.381541 0.842824 0.347781
Si Si7 0.719035 0.977044 0.365548
Si Si8 0.533604 0.137557 0.831647
O O1 0.339960 0.576045 0.370886
O O2 0.288462 0.403399 0.378121
O O3 0.000000 0.500000 0.500000
O O4 0.005827 0.515196 0.361263
O O5 0.239445 0.404922 0.698923
O O6 0.303845 0.573132 0.652638
O O7 0.935740 0.527881 0.779458
O O8 0.130478 0.849484 0.416785
O O9 0.761212 0.856363 0.559249
O O10 0.781105 0.940895 0.432198
O O11 0.000000 0.000000 0.500000
O O12 0.543570 0.627347 0.219606
O O13 0.488537 0.742233 0.333585
O O14 0.548176 0.257356 0.351409
O O15 0.632000 0.080974 0.373036
O O16 0.527747 0.913970 0.366460
O O17 0.393956 0.870811 0.263028
#
# Coordination Sequence:
#
# PCOD9249837 Si02
#       8
#     4   4   4   4   4   4   4   4
#     4  11  24  44  65  90 125 170 217 270 320 371
#     4  11  21  43  69  90 125 172 211 262 320 379
#     4  12  25  41  66  95 135 172 211 267 318 377
#     4  10  24  43  67  93 130 167 215 263 320 384
#     4  11  23  43  64  99 131 167 212 262 318 386
#     4  11  23  42  65  96 127 169 214 260 319 382
#     4  12  22  42  67  95 131 173 211 257 323 388
#     4  10  23  44  64  93 129 164 215 265 318 383
#
# _framework density 19.126275
#
# number of rings (size 3 to 8) (size 9 to 14) (size 15 to 20)
#    0.000    1.000    5.000    1.875    1.750    4.000 
#    4.500    0.000    0.000    0.000    0.000    0.000 
#    0.000    0.000    0.000    0.000    0.000    0.000 
#
# Total GULP energy -178860.787702 kJ/mol
# GULP energy per Si atom -5589.399616 kJ/mol
# Density = 1.908274 g / cm^3
# Si number density = 19.126275 Si / 1000 Ang^3
#
#
#
# Elastic Constant Matrix: (Units=GPa)
#
#
# Indices 1 2 3 4 5 6 
#
# 1 85.5019 26.0969 15.3390 0.0000 -13.7519 0.0000
# 2 26.0969 78.0771 11.5143 0.0000 -0.8202 0.0000
# 3 15.3390 11.5143 109.5139 0.0000 -30.0203 0.0000
# 4 0.0000 0.0000 0.0000 10.9568 0.0000 -9.0035
# 5 -13.7519 -0.8202 -30.0203 0.0000 25.4070 0.0000
# 6 0.0000 0.0000 0.0000 -9.0035 0.0000 16.0313
#
#
#
# Elastic Compliance Matrix: (Units=1/GPa)
#
#
# Indices 1 2 3 4 5 6 
#
# 1 0.014417 -0.004856 0.000869 0.000000 0.008673 0.000000
# 2 -0.004856 0.014699 -0.002153 0.000000 -0.004698 0.000000
# 3 0.000869 -0.002153 0.013823 0.000000 0.016734 0.000000
# 4 0.000000 0.000000 0.000000 0.169482 0.000000 0.095184
# 5 0.008673 -0.004698 0.016734 0.000000 0.063674 0.000000
# 6 0.000000 0.000000 0.000000 0.095184 0.000000 0.115835
#
#
# Mechanical properties :
#
#
# Convention : Reuss Voigt Hill
#
# Bulk Modulus (GPa) = 32.61726 42.11038 37.36382
# Shear Modulus (GPa) = 12.06477 25.15522 18.61000
#
# Velocity S-wave (km/s) = 2.51429 3.63053 3.12269
# Velocity P-wave (km/s) = 5.05169 6.29596 5.70783
#
# Compressibility (1/GPa) = 0.03065861
#
# Stress axis : x y z
#
# Youngs Moduli (GPa) = 69.36350 68.03169 72.34298
#
# Poissons Ratio (x) = 0.33034 -0.06284
# Poissons Ratio (y) = 0.33681 0.15576
# Poissons Ratio (z) = -0.06026 0.14648
#
# Static dielectric constant tensor:
#      x y z
#    x 1.663550 0.000000 -0.005220 
#    y 0.000000 1.687830 0.000000 
#    z -0.005220 0.000000 1.658520 
# 
# From -- ./inp_files/53459.got.cif
#   From: 2010.05.17/outbox.cif.g08.bks.cpg/sg14_27_cif.got.tgz:53459.got - 2010.06.03 17:49:19.
