data_PCOD9249265
_publ_section_title
;
Structure prediction by ZEFSAII (Michael W. Deem and Ramdas Pophale) SiO2 
 PCOD9249265
Probable space group: P 21/C
;
_chemical_formula_sum "Si O2"
_cell_formula_units_Z 24
_cell_length_a 14.172828
_cell_length_b 5.184264
_cell_length_c 27.360595
_cell_angle_alpha 90.000000
_cell_angle_beta 149.695198
_cell_angle_gamma 90.000000
_cell_volume 1014.416713
_symmetry_space_group_name_H-M "P 21/C"
_symmetry_group_IT_number 14
_symmetry_cell_setting 'monoclinic'
loop_
_space_group_symop_operation_xyz
x,y,z
-x,1/2+y,1/2-z
-x,-y,-z
x,1/2-y,1/2+z
loop_
_atom_site_type_symbol
_atom_site_label
_atom_site_fract_x
_atom_site_fract_y
_atom_site_fract_z
Si Si1 0.543565 0.219679 0.067901
Si Si2 0.555543 0.643364 0.871028
Si Si3 0.856263 0.629746 0.753734
Si Si4 0.125584 0.249271 0.549345
Si Si5 0.804632 0.880841 0.634000
Si Si6 0.357558 0.160318 0.748476
O O1 0.488710 0.385294 0.091504
O O2 0.673111 0.377051 0.088481
O O3 0.666078 0.998675 0.147901
O O4 0.343858 0.172218 0.952999
O O5 0.763343 0.739138 0.951949
O O6 0.521502 0.363699 0.832505
O O7 0.421376 0.866049 0.787508
O O8 0.900099 0.824886 0.729196
O O9 0.804652 0.724628 0.784175
O O10 0.031357 0.437919 0.830623
O O11 0.281620 0.221719 0.661237
O O12 0.000000 0.500000 0.500000
O O13 0.000000 0.000000 0.500000
#
# Coordination Sequence:
#
# PCOD9249265 Si02
#       6
#     4   4   4   4   4   4
#     4  10  23  39  63  92 132 174 228 273 335 403
#     4  11  23  46  69  97 132 182 223 273 341 413
#     4  11  22  40  64  95 133 179 226 277 340 407
#     4  12  26  45  69 104 135 168 225 285 344 404
#     4  11  21  40  61  95 132 174 225 281 330 396
#     4  11  24  44  72  96 135 180 225 273 343 410
#
# _framework density 23.658915
#
# number of rings (size 3 to 8) (size 9 to 14) (size 15 to 20)
#    0.000    1.000    3.333    3.500    2.333    0.000 
#    3.000    0.000    0.000    0.000    0.000    0.000 
#    0.000    0.000    0.000    0.000    0.000    0.000 
#
# Total GULP energy -134119.253249 kJ/mol
# GULP energy per Si atom -5588.302219 kJ/mol
# Density = 2.360507 g / cm^3
# Si number density = 23.658915 Si / 1000 Ang^3
#
#
#
# Elastic Constant Matrix: (Units=GPa)
#
#
# Indices 1 2 3 4 5 6 
#
# 1 105.7169 6.5456 16.2545 0.0000 15.8561 0.0000
# 2 6.5456 81.2109 5.1020 0.0000 6.6265 0.0000
# 3 16.2545 5.1020 61.7754 0.0000 4.8395 0.0000
# 4 0.0000 0.0000 0.0000 34.7101 0.0000 3.5312
# 5 15.8561 6.6265 4.8395 0.0000 36.7820 0.0000
# 6 0.0000 0.0000 0.0000 3.5312 0.0000 29.9726
#
#
#
# Elastic Compliance Matrix: (Units=1/GPa)
#
#
# Indices 1 2 3 4 5 6 
#
# 1 0.010471 -0.000356 -0.002402 0.000000 -0.004134 0.000000
# 2 -0.000356 0.012555 -0.000786 0.000000 -0.002005 0.000000
# 3 -0.002402 -0.000786 0.016967 0.000000 -0.001055 0.000000
# 4 0.000000 0.000000 0.000000 0.029160 0.000000 -0.003435
# 5 -0.004134 -0.002005 -0.001055 0.000000 0.029469 0.000000
# 6 0.000000 0.000000 0.000000 -0.003435 0.000000 0.033769
#
#
# Mechanical properties :
#
#
# Convention : Reuss Voigt Hill
#
# Bulk Modulus (GPa) = 30.39011 33.83416 32.11213
# Shear Modulus (GPa) = 33.23440 35.01301 34.12371
#
# Velocity S-wave (km/s) = 3.75204 3.85113 3.80191
# Velocity P-wave (km/s) = 5.62525 5.84010 5.73368
#
# Compressibility (1/GPa) = 0.03290544
#
# Stress axis : x y z
#
# Youngs Moduli (GPa) = 95.50623 79.64767 58.93704
#
# Poissons Ratio (x) = 0.02833 0.14156
# Poissons Ratio (y) = 0.03398 0.04634
# Poissons Ratio (z) = 0.22939 0.06262
#
# Static dielectric constant tensor:
#      x y z
#    x 1.960560 0.000000 0.006740 
#    y 0.000000 1.983890 0.000000 
#    z 0.006740 0.000000 1.919410 
# 
# From -- ./inp_files/77441.got.cif
#   From: 2010.05.17/outbox.cif.g08.bks.cpg/sg14_39_cif.got.tgz:77441.got - 2010.06.03 17:49:19.
