data_PCOD9249532
_publ_section_title
;
Structure prediction by ZEFSAII (Michael W. Deem and Ramdas Pophale) SiO2 
 PCOD9249532
Probable space group: P 21/C
;
_chemical_formula_sum "Si O2"
_cell_formula_units_Z 28
_cell_length_a 4.996470
_cell_length_b 20.757000
_cell_length_c 10.967365
_cell_angle_alpha 90.000000
_cell_angle_beta 102.858611
_cell_angle_gamma 90.000000
_cell_volume 1108.919782
_symmetry_space_group_name_H-M "P 21/C"
_symmetry_group_IT_number 14
_symmetry_cell_setting 'monoclinic'
loop_
_space_group_symop_operation_xyz
x,y,z
-x,1/2+y,1/2-z
-x,-y,-z
x,1/2-y,1/2+z
loop_
_atom_site_type_symbol
_atom_site_label
_atom_site_fract_x
_atom_site_fract_y
_atom_site_fract_z
Si Si1 0.668947 0.893767 0.271660
Si Si2 0.086137 0.711617 0.525253
Si Si3 0.718502 0.629866 0.135995
Si Si4 0.134603 0.846504 0.464826
Si Si5 0.820281 0.579479 0.526850
Si Si6 0.285825 0.493856 0.705252
Si Si7 0.339478 0.235068 0.802063
O O1 0.978596 0.892198 0.352818
O O2 0.648031 0.895574 0.123156
O O3 0.579664 0.820049 0.288249
O O4 0.496541 0.955964 0.285859
O O5 0.048606 0.771498 0.427462
O O6 0.994634 0.638764 0.486495
O O7 0.924339 0.722536 0.637451
O O8 0.402248 0.725758 0.582089
O O9 0.978294 0.642570 0.076861
O O10 0.765808 0.561839 0.203367
O O11 0.673323 0.688894 0.226540
O O12 0.447255 0.633814 0.022575
O O13 0.627998 0.545938 0.407592
O O14 0.028350 0.531753 0.620280
#
# Coordination Sequence:
#
# PCOD9249532 Si02
#       7
#     4   4   4   4   4   4   4
#     4  11  23  40  68  95 131 174 217 271 322 395
#     4   9  18  40  62  91 123 163 213 269 312 380
#     4  10  24  44  62 100 128 177 212 274 325 394
#     4  10  24  41  69  95 134 167 223 264 334 381
#     4  10  23  42  64  97 127 175 219 273 324 388
#     4  11  24  41  67  90 139 170 224 263 332 383
#     4   9  19  38  63  88 128 161 218 259 316 380
#
# _framework density 25.249796
#
# number of rings (size 3 to 8) (size 9 to 14) (size 15 to 20)
#    0.000    2.000    1.429    0.429    6.000    1.143 
#    0.000    0.000    0.000    0.000    0.000    0.000 
#    0.000    0.000    0.000    0.000    0.000    0.000 
#
# Total GULP energy -156058.818996 kJ/mol
# GULP energy per Si atom -5573.529250 kJ/mol
# Density = 2.519233 g / cm^3
# Si number density = 25.249796 Si / 1000 Ang^3
#
#
#
# Elastic Constant Matrix: (Units=GPa)
#
#
# Indices 1 2 3 4 5 6 
#
# 1 36.7877 16.8630 0.8155 0.0000 -1.8744 0.0000
# 2 16.8630 133.2519 37.3656 0.0000 6.6511 0.0000
# 3 0.8155 37.3656 59.3628 0.0000 4.5370 0.0000
# 4 0.0000 0.0000 0.0000 46.6783 0.0000 3.0059
# 5 -1.8744 6.6511 4.5370 0.0000 30.0781 0.0000
# 6 0.0000 0.0000 0.0000 3.0059 0.0000 16.7996
#
#
#
# Elastic Compliance Matrix: (Units=1/GPa)
#
#
# Indices 1 2 3 4 5 6 
#
# 1 0.029301 -0.004451 0.002210 0.000000 0.002477 0.000000
# 2 -0.004451 0.009830 -0.006008 0.000000 -0.001545 0.000000
# 3 0.002210 -0.006008 0.020724 0.000000 -0.001660 0.000000
# 4 0.000000 0.000000 0.000000 0.021673 0.000000 -0.003878
# 5 0.002477 -0.001545 -0.001660 0.000000 0.033993 0.000000
# 6 0.000000 0.000000 0.000000 -0.003878 0.000000 0.060219
#
#
# Mechanical properties :
#
#
# Convention : Reuss Voigt Hill
#
# Bulk Modulus (GPa) = 23.06512 37.72118 30.39315
# Shear Modulus (GPa) = 24.19085 30.33511 27.26298
#
# Velocity S-wave (km/s) = 3.09861 3.46988 3.28949
# Velocity P-wave (km/s) = 4.68577 5.57002 5.14692
#
# Compressibility (1/GPa) = 0.04335551
#
# Stress axis : x y z
#
# Youngs Moduli (GPa) = 34.12889 101.73203 48.25373
#
# Poissons Ratio (x) = 0.45285 -0.10664
# Poissons Ratio (y) = 0.15192 0.28991
# Poissons Ratio (z) = -0.07543 0.61121
#
# Static dielectric constant tensor:
#      x y z
#    x 2.038580 0.000000 0.006440 
#    y 0.000000 2.205410 0.000000 
#    z 0.006440 0.000000 2.057600 
# 
# From -- ./inp_files/21674.got.cif
#   From: 2010.05.17/outbox.cif.g08.bks.cpg/sg14_11_cif.got.tgz:21674.got - 2010.06.03 17:49:19.
