data_PCOD9249277
_publ_section_title
;
Structure prediction by ZEFSAII (Michael W. Deem and Ramdas Pophale) SiO2 
 PCOD9249277
Probable space group: P 21/C
;
_chemical_formula_sum "Si O2"
_cell_formula_units_Z 32
_cell_length_a 11.363836
_cell_length_b 9.447710
_cell_length_c 27.972895
_cell_angle_alpha 90.000000
_cell_angle_beta 148.301488
_cell_angle_gamma 90.000000
_cell_volume 1578.047077
_symmetry_space_group_name_H-M "P 21/C"
_symmetry_group_IT_number 14
_symmetry_cell_setting 'monoclinic'
loop_
_space_group_symop_operation_xyz
x,y,z
-x,1/2+y,1/2-z
-x,-y,-z
x,1/2-y,1/2+z
loop_
_atom_site_type_symbol
_atom_site_label
_atom_site_fract_x
_atom_site_fract_y
_atom_site_fract_z
Si Si1 0.467323 0.407543 0.296205
Si Si2 0.674784 0.928244 0.613574
Si Si3 0.747189 0.533254 0.477086
Si Si4 0.098928 0.871707 0.698770
Si Si5 0.199975 0.341738 0.739924
Si Si6 0.402923 0.759019 0.890545
Si Si7 0.298301 0.704319 0.459169
Si Si8 0.792881 0.397275 0.325365
O O1 0.650098 0.479179 0.393811
O O2 0.244607 0.500308 0.227658
O O3 0.405035 0.253891 0.294205
O O4 0.565599 0.393719 0.277136
O O5 0.792142 0.859113 0.700597
O O6 0.449686 0.838594 0.526030
O O7 0.849872 0.912146 0.630217
O O8 0.624972 0.092119 0.608795
O O9 0.637096 0.684995 0.450879
O O10 0.672874 0.418991 0.491818
O O11 0.011691 0.545688 0.572701
O O12 0.224994 0.814197 0.790071
O O13 0.122093 0.748535 0.667829
O O14 0.223779 0.494176 0.724075
O O15 0.968078 0.275523 0.640270
O O16 0.373910 0.834800 0.931731
#
# Coordination Sequence:
#
# PCOD9249277 Si02
#       8
#     4   4   4   4   4   4   4   4
#     4  11  23  43  65  92 127 173 221 269 318 385
#     4  12  23  41  65  94 139 165 208 271 330 383
#     4  10  23  39  65  94 125 169 220 261 325 383
#     4  11  24  38  66  96 127 174 213 264 330 384
#     4  11  23  41  65  94 130 169 218 264 329 386
#     4  11  22  38  60  95 132 162 206 260 324 395
#     4  11  22  39  64  95 129 172 203 265 330 386
#     4  11  23  43  65  91 127 172 225 270 317 376
#
# _framework density 20.278230000000001
#
# number of rings (size 3 to 8) (size 9 to 14) (size 15 to 20)
#    0.000    1.000    3.750    3.375    0.000    2.000 
#    0.000    0.000    0.000    1.500    0.000    0.000 
#    0.000    0.000    0.000    0.000    0.000    0.000 
#
# Total GULP energy -178714.818179 kJ/mol
# GULP energy per Si atom -5584.838068 kJ/mol
# Density = 2.023208 g / cm^3
# Si number density = 20.278230 Si / 1000 Ang^3
#
#
#
# Elastic Constant Matrix: (Units=GPa)
#
#
# Indices 1 2 3 4 5 6 
#
# 1 101.6723 23.0588 40.5917 0.0000 11.1887 0.0000
# 2 23.0588 80.9189 31.2504 0.0000 15.9598 0.0000
# 3 40.5917 31.2504 56.6847 0.0000 -3.7404 0.0000
# 4 0.0000 0.0000 0.0000 13.3472 0.0000 -16.2623
# 5 11.1887 15.9598 -3.7404 0.0000 21.4933 0.0000
# 6 0.0000 0.0000 0.0000 -16.2623 0.0000 -32.0356
#
#
#
# Elastic Compliance Matrix: (Units=1/GPa)
#
#
# Indices 1 2 3 4 5 6 
#
# 1 0.016389 0.003752 -0.014721 0.000000 -0.013880 0.000000
# 2 0.003752 0.021519 -0.015916 0.000000 -0.020702 0.000000
# 3 -0.014721 -0.015916 0.038687 0.000000 0.026215 0.000000
# 4 0.000000 0.000000 0.000000 0.046291 0.000000 -0.023499
# 5 -0.013880 -0.020702 0.026215 0.000000 0.073686 0.000000
# 6 0.000000 0.000000 0.000000 -0.023499 0.000000 -0.019287
#
#
# Mechanical properties :
#
#
# Convention : Reuss Voigt Hill
#
# Bulk Modulus (GPa) = 43.81030 47.67530 45.74280
# Shear Modulus (GPa) = 20.95001 10.18599 15.56800
#
# Velocity S-wave (km/s) = 3.21772 2.24366 2.77378
# Velocity P-wave (km/s) = 5.95453 5.50215 5.73280
#
# Compressibility (1/GPa) = 0.02282568
#
# Stress axis : x y z
#
# Youngs Moduli (GPa) = 61.01643 46.47121 25.84819
#
# Poissons Ratio (x) = -0.17437 0.38050
# Poissons Ratio (y) = -0.22895 0.41141
# Poissons Ratio (z) = 0.89820 0.73965
#
# Static dielectric constant tensor:
#      x y z
#    x 1.711960 0.000000 -0.006690 
#    y 0.000000 1.732280 0.000000 
#    z -0.006690 0.000000 1.734360 
# 
# From -- ./inp_files/79990.got.cif
#   From: 2010.05.17/outbox.cif.g08.bks.cpg/sg14_40_cif.got.tgz:79990.got - 2010.06.03 17:49:19.
