data_PCOD9249603
_publ_section_title
;
Structure prediction by ZEFSAII (Michael W. Deem and Ramdas Pophale) SiO2 
 PCOD9249603
Probable space group: P 21/C
;
_chemical_formula_sum "Si O2"
_cell_formula_units_Z 28
_cell_length_a 10.477178
_cell_length_b 9.651463
_cell_length_c 25.847314
_cell_angle_alpha 90.000000
_cell_angle_beta 147.391984
_cell_angle_gamma 90.000000
_cell_volume 1408.484015
_symmetry_space_group_name_H-M "P 21/C"
_symmetry_group_IT_number 14
_symmetry_cell_setting 'monoclinic'
loop_
_space_group_symop_operation_xyz
x,y,z
-x,1/2+y,1/2-z
-x,-y,-z
x,1/2-y,1/2+z
loop_
_atom_site_type_symbol
_atom_site_label
_atom_site_fract_x
_atom_site_fract_y
_atom_site_fract_z
Si Si1 0.332680 0.481578 0.223299
Si Si2 0.819625 0.073755 0.584970
Si Si3 0.483878 0.398992 0.614238
Si Si4 0.625645 0.208322 0.747176
Si Si5 0.133296 0.428727 0.402845
Si Si6 0.334388 0.309239 0.906111
Si Si7 0.909844 0.320974 0.684659
O O1 0.457326 0.484529 0.322755
O O2 0.327189 0.645053 0.208175
O O3 0.481851 0.395050 0.233807
O O4 0.065928 0.428558 0.139160
O O5 0.599153 0.147424 0.482115
O O6 0.852715 0.165150 0.648098
O O7 0.748437 0.919641 0.578313
O O8 0.476617 0.258202 0.646016
O O9 0.261005 0.426445 0.501912
O O10 0.713261 0.378305 0.656718
O O11 0.878311 0.145656 0.817348
O O12 0.300416 0.340326 0.420827
O O13 0.096595 0.580918 0.367440
O O14 0.158920 0.323193 0.798462
#
# Coordination Sequence:
#
# PCOD9249603 Si02
#       7
#     4   4   4   4   4   4   4
#     4  10  23  46  65  91 132 176 227 266 315 391
#     4  11  23  38  64  97 134 163 219 268 331 387
#     4  10  23  42  68  94 134 169 217 273 321 392
#     4  10  24  45  67  91 132 176 224 272 314 383
#     4  12  23  42  68  97 134 175 212 266 337 393
#     4  11  22  38  64  96 136 168 206 272 333 383
#     4  12  23  37  67 104 134 168 212 265 343 397
#
# _framework density 19.879529999999999
#
# number of rings (size 3 to 8) (size 9 to 14) (size 15 to 20)
#    0.857    0.286    5.714    1.286    2.000    0.571 
#    0.000    2.143    3.143    0.000    0.000    0.000 
#    0.000    0.000    0.000    0.000    0.000    0.000 
#
# Total GULP energy -156346.730141 kJ/mol
# GULP energy per Si atom -5583.811791 kJ/mol
# Density = 1.983428 g / cm^3
# Si number density = 19.879530 Si / 1000 Ang^3
#
#
#
# Elastic Constant Matrix: (Units=GPa)
#
#
# Indices 1 2 3 4 5 6 
#
# 1 45.4794 22.1673 -4.9135 0.0000 -1.6018 0.0000
# 2 22.1673 53.8508 1.2576 0.0000 -0.2747 0.0000
# 3 -4.9135 1.2576 59.8331 0.0000 -5.6182 0.0000
# 4 0.0000 0.0000 0.0000 21.0180 0.0000 -4.9359
# 5 -1.6018 -0.2747 -5.6182 0.0000 12.7026 0.0000
# 6 0.0000 0.0000 0.0000 -4.9359 0.0000 44.9921
#
#
#
# Elastic Compliance Matrix: (Units=1/GPa)
#
#
# Indices 1 2 3 4 5 6 
#
# 1 0.028143 -0.011631 0.002989 0.000000 0.004619 0.000000
# 2 -0.011631 0.023387 -0.001604 0.000000 -0.001670 0.000000
# 3 0.002989 -0.001604 0.017762 0.000000 0.008198 0.000000
# 4 0.000000 0.000000 0.000000 0.048836 0.000000 0.005358
# 5 0.004619 -0.001670 0.008198 0.000000 0.082896 0.000000
# 6 0.000000 0.000000 0.000000 0.005358 0.000000 0.022814
#
#
# Mechanical properties :
#
#
# Convention : Reuss Voigt Hill
#
# Bulk Modulus (GPa) = 20.49135 21.79844 21.14490
# Shear Modulus (GPa) = 19.18680 25.11933 22.15307
#
# Velocity S-wave (km/s) = 3.11006 3.55854 3.34183
# Velocity P-wave (km/s) = 4.81942 5.27952 5.05471
#
# Compressibility (1/GPa) = 0.04880109
#
# Stress axis : x y z
#
# Youngs Moduli (GPa) = 35.53311 42.75955 56.29943
#
# Poissons Ratio (x) = 0.49734 -0.16830
# Poissons Ratio (y) = 0.41329 0.09028
# Poissons Ratio (z) = -0.10622 0.06857
#
# Static dielectric constant tensor:
#      x y z
#    x 1.660140 0.000000 -0.013110 
#    y 0.000000 1.708850 0.000000 
#    z -0.013110 0.000000 1.713910 
# 
# From -- ./inp_files/79914.got.cif
#   From: 2010.05.17/outbox.cif.g08.bks.cpg/sg14_40_cif.got.tgz:79914.got - 2010.06.03 17:49:19.
