data_PCOD9249614
_publ_section_title
;
Structure prediction by ZEFSAII (Michael W. Deem and Ramdas Pophale) SiO2 
 PCOD9249614
Probable space group: P 21/C
;
_chemical_formula_sum "Si O2"
_cell_formula_units_Z 32
_cell_length_a 5.173098
_cell_length_b 15.415928
_cell_length_c 18.440165
_cell_angle_alpha 90.000000
_cell_angle_beta 92.592780
_cell_angle_gamma 90.000000
_cell_volume 1469.062786
_symmetry_space_group_name_H-M "P 21/C"
_symmetry_group_IT_number 14
_symmetry_cell_setting 'monoclinic'
loop_
_space_group_symop_operation_xyz
x,y,z
-x,1/2+y,1/2-z
-x,-y,-z
x,1/2-y,1/2+z
loop_
_atom_site_type_symbol
_atom_site_label
_atom_site_fract_x
_atom_site_fract_y
_atom_site_fract_z
Si Si1 0.260503 0.528100 0.545927
Si Si2 0.067299 0.424905 0.100774
Si Si3 0.380566 0.707511 0.231833
Si Si4 0.339598 0.731923 0.573300
Si Si5 0.980744 0.916982 0.676039
Si Si6 0.655361 0.971261 0.789078
Si Si7 0.193095 0.337258 0.956506
Si Si8 0.556005 0.376870 0.181750
O O1 0.500000 0.500000 0.500000
O O2 0.283243 0.631547 0.557872
O O3 0.295183 0.484581 0.625842
O O4 0.000000 0.500000 0.500000
O O5 0.273748 0.365395 0.144347
O O6 0.149767 0.521843 0.126270
O O7 0.776278 0.409567 0.127316
O O8 0.120111 0.403970 0.018558
O O9 0.453281 0.753307 0.156157
O O10 0.530822 0.622017 0.264373
O O11 0.360636 0.783633 0.288672
O O12 0.103411 0.669245 0.207704
O O13 0.560585 0.776239 0.526193
O O14 0.067526 0.781334 0.558759
O O15 0.920978 0.970399 0.746982
O O16 0.756368 0.890672 0.617138
O O17 0.525858 0.053931 0.747595
#
# Coordination Sequence:
#
# PCOD9249614 Si02
#       8
#     4   4   4   4   4   4   4   4
#     4  12  29  49  74 102 143 191 237 300 361 419
#     4  11  24  42  64 105 142 176 230 292 350 416
#     4  11  23  44  72 101 137 186 240 291 354 418
#     4  11  24  46  69 101 141 187 232 284 362 420
#     4  10  23  42  69 101 138 189 232 281 360 422
#     4  11  24  47  71 103 140 180 247 289 349 427
#     4  11  23  42  71 101 144 181 227 284 353 432
#     4  11  25  42  70 100 140 184 232 292 350 413
#
# _framework density 21.782596999999999
#
# number of rings (size 3 to 8) (size 9 to 14) (size 15 to 20)
#    0.000    1.000    3.750    1.875    3.500    3.000 
#    0.000    3.750    0.000    0.000    0.000    0.000 
#    0.000    0.000    0.000    0.000    0.000    0.000 
#
# Total GULP energy -178389.392573 kJ/mol
# GULP energy per Si atom -5574.668518 kJ/mol
# Density = 2.173302 g / cm^3
# Si number density = 21.782597 Si / 1000 Ang^3
#
#
#
# Elastic Constant Matrix: (Units=GPa)
#
#
# Indices 1 2 3 4 5 6 
#
# 1 100.0460 25.6955 36.8977 0.0000 -1.3781 0.0000
# 2 25.6955 118.5660 41.5522 0.0000 0.4812 0.0000
# 3 36.8977 41.5522 139.9336 0.0000 -1.6726 0.0000
# 4 0.0000 0.0000 0.0000 32.2441 0.0000 6.4606
# 5 -1.3781 0.4812 -1.6726 0.0000 23.5237 0.0000
# 6 0.0000 0.0000 0.0000 6.4606 0.0000 33.6350
#
#
#
# Elastic Compliance Matrix: (Units=1/GPa)
#
#
# Indices 1 2 3 4 5 6 
#
# 1 0.011335 -0.001577 -0.002514 0.000000 0.000518 0.000000
# 2 -0.001577 0.009637 -0.002451 0.000000 -0.000464 0.000000
# 3 -0.002514 -0.002451 0.008543 0.000000 0.000510 0.000000
# 4 0.000000 0.000000 0.000000 0.032255 0.000000 -0.006196
# 5 0.000518 -0.000464 0.000510 0.000000 0.042586 0.000000
# 6 0.000000 0.000000 0.000000 -0.006196 0.000000 0.030921
#
#
# Mechanical properties :
#
#
# Convention : Reuss Voigt Hill
#
# Bulk Modulus (GPa) = 60.86702 62.98182 61.92442
# Shear Modulus (GPa) = 32.50144 34.84058 33.67101
#
# Velocity S-wave (km/s) = 3.86694 4.00367 3.93590
# Velocity P-wave (km/s) = 6.92396 7.09571 7.01036
#
# Compressibility (1/GPa) = 0.01642926
#
# Stress axis : x y z
#
# Youngs Moduli (GPa) = 88.22283 103.76773 117.05285
#
# Poissons Ratio (x) = 0.16369 0.29429
# Poissons Ratio (y) = 0.13917 0.28692
# Poissons Ratio (z) = 0.22181 0.25436
#
# Static dielectric constant tensor:
#      x y z
#    x 1.867820 0.000000 -0.006390 
#    y 0.000000 1.836330 0.000000 
#    z -0.006390 0.000000 1.812510 
# 
# From -- ./inp_files/53327.got.cif
#   From: 2010.05.17/outbox.cif.g08.bks.cpg/sg14_27_cif.got.tgz:53327.got - 2010.06.03 17:49:19.
