data_PCOD9249392
_publ_section_title
;
Structure prediction by ZEFSAII (Michael W. Deem and Ramdas Pophale) SiO2 
 PCOD9249392
Probable space group: P 21/C
;
_chemical_formula_sum "Si O2"
_cell_formula_units_Z 24
_cell_length_a 32.843945
_cell_length_b 8.818306
_cell_length_c 9.680419
_cell_angle_alpha 90.000000
_cell_angle_beta 26.557255
_cell_angle_gamma 90.000000
_cell_volume 1253.520458
_symmetry_space_group_name_H-M "P 21/C"
_symmetry_group_IT_number 14
_symmetry_cell_setting 'monoclinic'
loop_
_space_group_symop_operation_xyz
x,y,z
-x,1/2+y,1/2-z
-x,-y,-z
x,1/2-y,1/2+z
loop_
_atom_site_type_symbol
_atom_site_label
_atom_site_fract_x
_atom_site_fract_y
_atom_site_fract_z
Si Si1 0.062262 0.080158 0.421347
Si Si2 0.254481 0.656872 0.611946
Si Si3 0.954357 0.393597 0.748385
Si Si4 0.423007 0.082208 0.642864
Si Si5 0.433138 0.111246 0.288269
Si Si6 0.748546 0.430507 0.686136
O O1 0.019331 0.247035 0.568327
O O2 0.051793 0.988615 0.593708
O O3 0.000000 0.000000 0.500000
O O4 0.164980 0.042211 0.060592
O O5 0.331533 0.527289 0.412263
O O6 0.276601 0.817730 0.613441
O O7 0.242608 0.665701 0.482453
O O8 0.150377 0.632990 0.979766
O O9 0.000000 0.500000 0.500000
O O10 0.455469 0.121171 0.386001
O O11 0.416008 0.236485 0.752331
O O12 0.500000 0.000000 0.500000
O O13 0.336203 0.034138 0.583843
O O14 0.500000 0.000000 0.000000
#
# Coordination Sequence:
#
# PCOD9249392 Si02
#       6
#     4   4   4   4   4   4
#     4  11  22  41  63  92 128 171 216 270 326 393
#     4  10  23  41  62  92 128 167 211 265 319 390
#     4  11  24  40  63  93 127 170 219 266 332 388
#     4  11  24  43  67  96 129 169 217 266 333 396
#     4  11  24  43  66  96 129 170 216 271 328 396
#     4  10  23  41  63  93 129 166 218 264 325 387
#
# _framework density 19.146077999999999
#
# number of rings (size 3 to 8) (size 9 to 14) (size 15 to 20)
#    0.000    1.333    1.667    3.000    4.667    5.333 
#    3.000    0.000    0.000    0.000    0.000    0.000 
#    0.000    0.000    0.000    0.000    0.000    0.000 
#
# Total GULP energy -133631.892163 kJ/mol
# GULP energy per Si atom -5567.995507 kJ/mol
# Density = 1.910250 g / cm^3
# Si number density = 19.146078 Si / 1000 Ang^3
#
#
#
# Elastic Constant Matrix: (Units=GPa)
#
#
# Indices 1 2 3 4 5 6 
#
# 1 105.7879 30.5089 33.4196 0.0000 -6.5012 0.0000
# 2 30.5089 108.1302 24.7403 0.0000 2.4819 0.0000
# 3 33.4196 24.7403 74.6589 0.0000 -3.4825 0.0000
# 4 0.0000 0.0000 0.0000 26.8846 0.0000 4.8574
# 5 -6.5012 2.4819 -3.4825 0.0000 30.8125 0.0000
# 6 0.0000 0.0000 0.0000 4.8574 0.0000 34.1816
#
#
#
# Elastic Compliance Matrix: (Units=1/GPa)
#
#
# Indices 1 2 3 4 5 6 
#
# 1 0.011628 -0.002340 -0.004329 0.000000 0.002152 0.000000
# 2 -0.002340 0.010521 -0.002515 0.000000 -0.001625 0.000000
# 3 -0.004329 -0.002515 0.016218 0.000000 0.001122 0.000000
# 4 0.000000 0.000000 0.000000 0.038176 0.000000 -0.005425
# 5 0.002152 -0.001625 0.001122 0.000000 0.033166 0.000000
# 6 0.000000 0.000000 0.000000 -0.005425 0.000000 0.030026
#
#
# Mechanical properties :
#
#
# Convention : Reuss Voigt Hill
#
# Bulk Modulus (GPa) = 50.00264 51.76829 50.88546
# Shear Modulus (GPa) = 30.34552 31.70294 31.02423
#
# Velocity S-wave (km/s) = 3.98546 4.07362 4.02978
# Velocity P-wave (km/s) = 6.88125 7.01592 6.94891
#
# Compressibility (1/GPa) = 0.01999895
#
# Stress axis : x y z
#
# Youngs Moduli (GPa) = 86.00294 95.04843 61.66043
#
# Poissons Ratio (x) = 0.22237 0.26694
# Poissons Ratio (y) = 0.20121 0.15507
# Poissons Ratio (z) = 0.37232 0.23904
#
# Static dielectric constant tensor:
#      x y z
#    x 2.001900 0.000000 -0.213120 
#    y 0.000000 1.736820 0.000000 
#    z -0.213120 0.000000 1.915830 
# 
# From -- ./inp_files/15157.got.cif
#   From: 2010.05.17/outbox.cif.g08.bks.cpg/sg14_8_cif.got.tgz:15157.got - 2010.06.03 17:49:19.
