data_PCOD9249952
_publ_section_title
;
Structure prediction by ZEFSAII (Michael W. Deem and Ramdas Pophale) SiO2 
 PCOD9249952
Probable space group: P 21/C
;
_chemical_formula_sum "Si O2"
_cell_formula_units_Z 32
_cell_length_a 9.836239
_cell_length_b 10.439576
_cell_length_c 15.612697
_cell_angle_alpha 90.000000
_cell_angle_beta 112.469055
_cell_angle_gamma 90.000000
_cell_volume 1481.502175
_symmetry_space_group_name_H-M "P 21/C"
_symmetry_group_IT_number 14
_symmetry_cell_setting 'monoclinic'
loop_
_space_group_symop_operation_xyz
x,y,z
-x,1/2+y,1/2-z
-x,-y,-z
x,1/2-y,1/2+z
loop_
_atom_site_type_symbol
_atom_site_label
_atom_site_fract_x
_atom_site_fract_y
_atom_site_fract_z
Si Si1 0.159490 0.653007 0.247875
Si Si2 0.359356 0.265528 0.661577
Si Si3 0.914576 0.777869 0.291079
Si Si4 0.049205 0.020693 0.415263
Si Si5 0.623778 0.980907 0.456572
Si Si6 0.703229 0.580039 0.625257
Si Si7 0.365482 0.766457 0.663491
Si Si8 0.364466 0.971619 0.063261
O O1 0.252623 0.528804 0.296175
O O2 0.283591 0.740035 0.235770
O O3 0.050617 0.688889 0.298058
O O4 0.046444 0.636783 0.142505
O O5 0.193645 0.262670 0.658391
O O6 0.388323 0.150153 0.601630
O O7 0.466119 0.244084 0.768052
O O8 0.390051 0.404672 0.628899
O O9 0.806458 0.805215 0.183351
O O10 0.994946 0.906362 0.341659
O O11 0.222659 0.030708 0.456475
O O12 0.000000 0.000000 0.500000
O O13 0.500000 0.000000 0.500000
O O14 0.636966 0.101056 0.392282
O O15 0.732804 0.524046 0.538175
O O16 0.525599 0.587146 0.577056
O O17 0.297026 0.650895 0.593178
#
# Coordination Sequence:
#
# PCOD9249952 Si02
#       8
#     4   4   4   4   4   4   4   4
#     4  11  25  43  70  96 141 183 232 281 345 411
#     4  12  25  46  69 104 139 178 231 287 340 411
#     4  11  25  43  70  96 141 183 232 281 345 411
#     4  11  23  46  67  96 137 191 230 290 347 398
#     4  12  29  45  76 103 134 183 246 284 336 424
#     4  10  23  45  62 101 138 187 217 279 353 401
#     4  12  25  46  69 104 139 178 231 287 340 411
#     4  11  25  40  76  97 144 177 223 283 347 404
#
# _framework density 21.599698
#
# number of rings (size 3 to 8) (size 9 to 14) (size 15 to 20)
#    0.000    0.750    5.000    1.500   10.500    2.000 
#    0.000    1.250    0.000    0.000    0.000    0.000 
#    0.000    0.000    0.000    0.000    0.000    0.000 
#
# Total GULP energy -178394.323114 kJ/mol
# GULP energy per Si atom -5574.822597 kJ/mol
# Density = 2.155054 g / cm^3
# Si number density = 21.599698 Si / 1000 Ang^3
#
#
#
# Elastic Constant Matrix: (Units=GPa)
#
#
# Indices 1 2 3 4 5 6 
#
# 1 99.3875 -1.5970 -6.0530 0.0000 -1.8165 0.0000
# 2 -1.5970 55.1256 -6.9924 0.0000 -9.8504 0.0000
# 3 -6.0530 -6.9924 65.1219 0.0000 7.7143 0.0000
# 4 0.0000 0.0000 0.0000 33.8949 0.0000 -13.3935
# 5 -1.8165 -9.8504 7.7143 0.0000 38.5413 0.0000
# 6 0.0000 0.0000 0.0000 -13.3935 0.0000 1.3125
#
#
#
# Elastic Compliance Matrix: (Units=1/GPa)
#
#
# Indices 1 2 3 4 5 6 
#
# 1 0.010135 0.000487 0.000945 0.000000 0.000413 0.000000
# 2 0.000487 0.019176 0.001558 0.000000 0.004612 0.000000
# 3 0.000945 0.001558 0.015936 0.000000 -0.002747 0.000000
# 4 0.000000 0.000000 0.000000 -0.009730 0.000000 -0.099286
# 5 0.000413 0.004612 -0.002747 0.000000 0.027694 0.000000
# 6 0.000000 0.000000 0.000000 -0.099286 0.000000 -0.251263
#
#
# Mechanical properties :
#
#
# Convention : Reuss Voigt Hill
#
# Bulk Modulus (GPa) = 19.52033 21.15002 20.33517
# Shear Modulus (GPa) = -28.25556 30.36823 1.05634
#
# Velocity S-wave (km/s) = -3.62075 3.75368 0.70008
# Velocity P-wave (km/s) = 2.90222 5.34788 3.17624
#
# Compressibility (1/GPa) = 0.05122865
#
# Stress axis : x y z
#
# Youngs Moduli (GPa) = 98.67206 52.14771 62.74947
#
# Poissons Ratio (x) = -0.02541 -0.05932
# Poissons Ratio (y) = -0.04808 -0.09776
# Poissons Ratio (z) = -0.09329 -0.08124
#
# Static dielectric constant tensor:
#      x y z
#    x 1.880590 0.000000 -0.044010 
#    y 0.000000 1.830290 0.000000 
#    z -0.044010 0.000000 1.827840 
# 
# From -- ./inp_files/40364.got.cif
#   From: 2010.05.17/outbox.cif.g08.bks.cpg/sg14_21_cif.got.tgz:40364.got - 2010.06.03 17:49:19.
