data_PCOD9249291
_publ_section_title
;
Structure prediction by ZEFSAII (Michael W. Deem and Ramdas Pophale) SiO2 
 PCOD9249291
Probable space group: P 21/C
;
_chemical_formula_sum "Si O2"
_cell_formula_units_Z 24
_cell_length_a 9.409011
_cell_length_b 9.561043
_cell_length_c 14.405611
_cell_angle_alpha 90.000000
_cell_angle_beta 96.557078
_cell_angle_gamma 90.000000
_cell_volume 1287.450974
_symmetry_space_group_name_H-M "P 21/C"
_symmetry_group_IT_number 14
_symmetry_cell_setting 'monoclinic'
loop_
_space_group_symop_operation_xyz
x,y,z
-x,1/2+y,1/2-z
-x,-y,-z
x,1/2-y,1/2+z
loop_
_atom_site_type_symbol
_atom_site_label
_atom_site_fract_x
_atom_site_fract_y
_atom_site_fract_z
Si Si1 0.542423 0.638747 0.945507
Si Si2 0.731787 0.756316 0.116349
Si Si3 0.955176 0.504876 0.602317
Si Si4 0.444159 0.039415 0.765217
Si Si5 0.282786 0.795073 0.847957
Si Si6 0.767740 0.006886 0.751853
O O1 0.576863 0.593449 0.842047
O O2 0.406098 0.741088 0.926462
O O3 0.500000 0.500000 0.000000
O O4 0.666628 0.716033 0.011583
O O5 0.617170 0.847134 0.167131
O O6 0.759735 0.614880 0.174973
O O7 0.872815 0.850699 0.118595
O O8 0.840413 0.384089 0.613987
O O9 0.000000 0.500000 0.500000
O O10 0.096694 0.485181 0.673538
O O11 0.387072 0.511108 0.709608
O O12 0.359256 0.896496 0.778946
O O13 0.220600 0.657207 0.796007
#
# Coordination Sequence:
#
# PCOD9249291 Si02
#       6
#     4   4   4   4   4   4
#     4  11  22  39  69 101 124 156 222 263 322 372
#     4  11  24  43  66  96 126 171 210 268 317 378
#     4  11  27  40  61  91 128 171 210 255 317 380
#     4  10  23  39  70  96 127 164 209 274 320 368
#     4  10  23  42  64  92 127 166 207 267 314 375
#     4  11  21  43  63  88 128 166 207 255 317 379
#
# _framework density 18.641484999999999
#
# number of rings (size 3 to 8) (size 9 to 14) (size 15 to 20)
#    0.000    1.333    3.333    3.000    7.000    1.333 
#    0.000    0.833    0.000    0.000    0.000    0.000 
#    0.000    0.000    0.000    0.000    0.000    0.000 
#
# Total GULP energy -134097.557250 kJ/mol
# GULP energy per Si atom -5587.398219 kJ/mol
# Density = 1.859906 g / cm^3
# Si number density = 18.641485 Si / 1000 Ang^3
#
#
#
# Elastic Constant Matrix: (Units=GPa)
#
#
# Indices 1 2 3 4 5 6 
#
# 1 134.3165 62.2859 84.2271 0.0000 1.9047 0.0000
# 2 62.2859 135.4969 45.6853 0.0000 -1.4529 0.0000
# 3 84.2271 45.6853 98.1603 0.0000 21.2341 0.0000
# 4 0.0000 0.0000 0.0000 22.4397 0.0000 9.9536
# 5 1.9047 -1.4529 21.2341 0.0000 40.9125 0.0000
# 6 0.0000 0.0000 0.0000 9.9536 0.0000 3.0314
#
#
#
# Elastic Compliance Matrix: (Units=1/GPa)
#
#
# Indices 1 2 3 4 5 6 
#
# 1 0.019308 -0.003138 -0.016771 0.000000 0.007694 0.000000
# 2 -0.003138 0.009544 -0.002088 0.000000 0.001569 0.000000
# 3 -0.016771 -0.002088 0.028609 0.000000 -0.014142 0.000000
# 4 0.000000 0.000000 0.000000 -0.097629 0.000000 0.320564
# 5 0.007694 0.001569 -0.014142 0.000000 0.031480 0.000000
# 6 0.000000 0.000000 0.000000 0.320564 0.000000 -0.722691
#
#
# Mechanical properties :
#
#
# Convention : Reuss Voigt Hill
#
# Bulk Modulus (GPa) = 74.26482 83.59671 78.93077
# Shear Modulus (GPa) = -7.32178 24.99506 8.83664
#
# Velocity S-wave (km/s) = -1.98399 3.66571 2.17959
# Velocity P-wave (km/s) = 5.88869 7.92833 6.98337
#
# Compressibility (1/GPa) = 0.01346533
#
# Stress axis : x y z
#
# Youngs Moduli (GPa) = 51.79091 104.77930 34.95356
#
# Poissons Ratio (x) = 0.32885 0.58622
# Poissons Ratio (y) = 0.16254 0.07299
# Poissons Ratio (z) = 0.86861 0.21881
#
# Static dielectric constant tensor:
#      x y z
#    x 1.626580 0.000000 0.002400 
#    y 0.000000 1.607820 0.000000 
#    z 0.002400 0.000000 1.625550 
# 
# From -- ./inp_files/39034.got.cif
#   From: 2010.05.17/outbox.cif.g08.bks.cpg/sg14_20_cif.got.tgz:39034.got - 2010.06.03 17:49:19.
