data_PCOD9249922
_publ_section_title
;
Structure prediction by ZEFSAII (Michael W. Deem and Ramdas Pophale) SiO2 
 PCOD9249922
Probable space group: P 21/C
;
_chemical_formula_sum "Si O2"
_cell_formula_units_Z 28
_cell_length_a 15.151915
_cell_length_b 8.312322
_cell_length_c 15.299983
_cell_angle_alpha 90.000000
_cell_angle_beta 40.278168
_cell_angle_gamma 90.000000
_cell_volume 1245.801282
_symmetry_space_group_name_H-M "P 21/C"
_symmetry_group_IT_number 14
_symmetry_cell_setting 'monoclinic'
loop_
_space_group_symop_operation_xyz
x,y,z
-x,1/2+y,1/2-z
-x,-y,-z
x,1/2-y,1/2+z
loop_
_atom_site_type_symbol
_atom_site_label
_atom_site_fract_x
_atom_site_fract_y
_atom_site_fract_z
Si Si1 0.050802 0.091838 0.873588
Si Si2 0.194525 0.082846 0.432696
Si Si3 0.321012 0.849784 0.473667
Si Si4 0.184872 0.528713 0.572607
Si Si5 0.655089 0.453368 0.857665
Si Si6 0.630887 0.893295 0.202019
Si Si7 0.095950 0.030168 0.330406
O O1 0.210444 0.063388 0.732667
O O2 0.040190 0.286375 0.884995
O O3 0.958730 0.007161 0.868377
O O4 0.000000 0.000000 0.000000
O O5 0.266891 0.248324 0.352566
O O6 0.188166 0.987232 0.344998
O O7 0.269981 0.006901 0.459439
O O8 0.034389 0.087641 0.576638
O O9 0.218514 0.711917 0.524637
O O10 0.477338 0.831474 0.325564
O O11 0.318188 0.834580 0.581583
O O12 0.314946 0.439913 0.433271
O O13 0.171910 0.482346 0.682181
O O14 0.647225 0.456708 0.757559
O O15 0.500000 0.500000 0.000000
#
# Coordination Sequence:
#
# PCOD9249922 Si02
#       7
#     4   4   4   4   4   4   4
#     4  12  23  46  72 103 140 184 236 290 349 416
#     4  11  23  45  68  98 141 175 232 290 350 407
#     4  11  25  44  69 100 141 187 236 286 351 422
#     4  12  26  43  69 105 137 182 240 285 359 418
#     4  10  23  44  71 101 139 186 234 283 352 419
#     4  11  24  45  70  99 140 187 232 292 352 419
#     4  11  26  42  70 104 137 178 231 300 346 409
#
# _framework density 22.475494999999999
#
# number of rings (size 3 to 8) (size 9 to 14) (size 15 to 20)
#    0.000    0.857    4.286    1.714    4.000    3.429 
#    0.000    4.286    0.000    0.000    0.000    0.000 
#    0.000    0.000    0.000    0.000    0.000    0.000 
#
# Total GULP energy -155887.721986 kJ/mol
# GULP energy per Si atom -5567.418642 kJ/mol
# Density = 2.242434 g / cm^3
# Si number density = 22.475495 Si / 1000 Ang^3
#
#
#
# Elastic Constant Matrix: (Units=GPa)
#
#
# Indices 1 2 3 4 5 6 
#
# 1 51.9584 2.4035 39.9773 0.0000 15.3663 0.0000
# 2 2.4035 42.6445 30.5241 0.0000 -5.6177 0.0000
# 3 39.9773 30.5241 153.7201 0.0000 28.7032 0.0000
# 4 0.0000 0.0000 0.0000 9.7671 0.0000 4.8023
# 5 15.3663 -5.6177 28.7032 0.0000 41.9585 0.0000
# 6 0.0000 0.0000 0.0000 4.8023 0.0000 20.4028
#
#
#
# Elastic Compliance Matrix: (Units=1/GPa)
#
#
# Indices 1 2 3 4 5 6 
#
# 1 0.025274 0.002362 -0.006159 0.000000 -0.004726 0.000000
# 2 0.002362 0.030447 -0.008323 0.000000 0.008905 0.000000
# 3 -0.006159 -0.008323 0.010945 0.000000 -0.006346 0.000000
# 4 0.000000 0.000000 0.000000 0.115784 0.000000 -0.027253
# 5 -0.004726 0.008905 -0.006346 0.000000 0.031097 0.000000
# 6 0.000000 0.000000 0.000000 -0.027253 0.000000 0.055427
#
#
# Mechanical properties :
#
#
# Convention : Reuss Voigt Hill
#
# Bulk Modulus (GPa) = 23.57132 43.79253 33.68192
# Shear Modulus (GPa) = 16.26775 26.12022 21.19399
#
# Velocity S-wave (km/s) = 2.69327 3.41275 3.07413
# Velocity P-wave (km/s) = 4.49243 5.92081 5.25538
#
# Compressibility (1/GPa) = 0.04242444
#
# Stress axis : x y z
#
# Youngs Moduli (GPa) = 39.56690 32.84400 91.36861
#
# Poissons Ratio (x) = -0.07756 0.56276
# Poissons Ratio (y) = -0.09344 0.76044
# Poissons Ratio (z) = 0.24370 0.27335
#
# Static dielectric constant tensor:
#      x y z
#    x 1.906850 0.000000 0.018990 
#    y 0.000000 1.921900 0.000000 
#    z 0.018990 0.000000 1.820740 
# 
# From -- ./inp_files/46708.got.cif
#   From: 2010.05.17/outbox.cif.g08.bks.cpg/sg14_24_cif.got.tgz:46708.got - 2010.06.03 17:49:19.
