data_PCOD9249755
_publ_section_title
;
Structure prediction by ZEFSAII (Michael W. Deem and Ramdas Pophale) SiO2 
 PCOD9249755
Probable space group: P 21/C
;
_chemical_formula_sum "Si O2"
_cell_formula_units_Z 28
_cell_length_a 11.436601
_cell_length_b 8.134736
_cell_length_c 14.349392
_cell_angle_alpha 90.000000
_cell_angle_beta 119.367784
_cell_angle_gamma 90.000000
_cell_volume 1163.419101
_symmetry_space_group_name_H-M "P 21/C"
_symmetry_group_IT_number 14
_symmetry_cell_setting 'monoclinic'
loop_
_space_group_symop_operation_xyz
x,y,z
-x,1/2+y,1/2-z
-x,-y,-z
x,1/2-y,1/2+z
loop_
_atom_site_type_symbol
_atom_site_label
_atom_site_fract_x
_atom_site_fract_y
_atom_site_fract_z
Si Si1 0.854577 0.497140 0.400050
Si Si2 0.819245 0.462770 0.026144
Si Si3 0.262256 0.603192 0.808235
Si Si4 0.673847 0.024812 0.158292
Si Si5 0.458533 0.474028 0.092566
Si Si6 0.383766 0.095740 0.067686
Si Si7 0.888968 0.848812 0.370326
O O1 0.840432 0.361325 0.315379
O O2 0.738928 0.506430 0.430514
O O3 0.840059 0.665548 0.336775
O O4 0.000000 0.500000 0.500000
O O5 0.668595 0.410770 0.934037
O O6 0.864869 0.598014 0.968452
O O7 0.791707 0.498753 0.124622
O O8 0.950720 0.350029 0.081523
O O9 0.305013 0.783765 0.860506
O O10 0.392203 0.521212 0.808886
O O11 0.528375 0.019401 0.151384
O O12 0.798300 0.961686 0.267910
O O13 0.647965 0.924171 0.054210
O O14 0.401505 0.291325 0.089989
O O15 0.500000 0.500000 0.000000
#
# Coordination Sequence:
#
# PCOD9249755 Si02
#       7
#     4   4   4   4   4   4   4
#     4  12  29  44  66 103 141 181 232 287 346 412
#     4  10  23  43  68  97 136 173 233 281 339 412
#     4  10  25  43  70 102 132 184 228 283 350 409
#     4  10  25  44  73 101 133 183 228 283 351 406
#     4   9  19  42  71 101 131 174 227 279 342 412
#     4  10  23  46  68 103 144 171 231 292 336 414
#     4  11  26  42  70  99 133 187 224 284 348 409
#
# _framework density 24.066996
#
# number of rings (size 3 to 8) (size 9 to 14) (size 15 to 20)
#    0.000    1.714    1.429    0.000   14.000    0.000 
#    0.000    0.000    0.000    0.000    0.000    0.000 
#    0.000    0.000    0.000    0.000    0.000    0.000 
#
# Total GULP energy -156166.266872 kJ/mol
# GULP energy per Si atom -5577.366674 kJ/mol
# Density = 2.401222 g / cm^3
# Si number density = 24.066996 Si / 1000 Ang^3
#
#
#
# Elastic Constant Matrix: (Units=GPa)
#
#
# Indices 1 2 3 4 5 6 
#
# 1 165.1127 14.9362 38.9509 0.0000 15.2973 0.0000
# 2 14.9362 48.1522 14.5261 0.0000 12.0509 0.0000
# 3 38.9509 14.5261 93.9290 0.0000 20.5971 0.0000
# 4 0.0000 0.0000 0.0000 31.2981 0.0000 5.5784
# 5 15.2973 12.0509 20.5971 0.0000 36.4021 0.0000
# 6 0.0000 0.0000 0.0000 5.5784 0.0000 23.8449
#
#
#
# Elastic Compliance Matrix: (Units=1/GPa)
#
#
# Indices 1 2 3 4 5 6 
#
# 1 0.006831 -0.001106 -0.002412 0.000000 -0.001140 0.000000
# 2 -0.001106 0.023199 -0.001766 0.000000 -0.006216 0.000000
# 3 -0.002412 -0.001766 0.013208 0.000000 -0.005875 0.000000
# 4 0.000000 0.000000 0.000000 0.033341 0.000000 -0.007800
# 5 -0.001140 -0.006216 -0.005875 0.000000 0.033332 0.000000
# 6 0.000000 0.000000 0.000000 -0.007800 0.000000 0.043762
#
#
# Mechanical properties :
#
#
# Convention : Reuss Voigt Hill
#
# Bulk Modulus (GPa) = 30.60880 49.33557 39.97218
# Shear Modulus (GPa) = 28.55003 34.22774 31.38889
#
# Velocity S-wave (km/s) = 3.44797 3.77528 3.61533
# Velocity P-wave (km/s) = 5.34762 6.28867 5.83714
#
# Compressibility (1/GPa) = 0.03267035
#
# Stress axis : x y z
#
# Youngs Moduli (GPa) = 146.38994 43.10531 75.71236
#
# Poissons Ratio (x) = 0.04768 0.18260
# Poissons Ratio (y) = 0.16192 0.13371
# Poissons Ratio (z) = 0.35305 0.07612
#
# Static dielectric constant tensor:
#      x y z
#    x 1.939360 0.000000 0.047400 
#    y 0.000000 1.962160 0.000000 
#    z 0.047400 0.000000 1.991500 
# 
# From -- ./inp_files/43831.got.cif
#   From: 2010.05.17/outbox.cif.g08.bks.cpg/sg14_22_cif.got.tgz:43831.got - 2010.06.03 17:49:19.
