data_PCOD9249974
_publ_section_title
;
Structure prediction by ZEFSAII (Michael W. Deem and Ramdas Pophale) SiO2 
 PCOD9249974
Probable space group: P 21/C
;
_chemical_formula_sum "Si O2"
_cell_formula_units_Z 20
_cell_length_a 15.459422
_cell_length_b 8.861092
_cell_length_c 21.838675
_cell_angle_alpha 90.000000
_cell_angle_beta 162.860398
_cell_angle_gamma 90.000000
_cell_volume 881.633783
_symmetry_space_group_name_H-M "P 21/C"
_symmetry_group_IT_number 14
_symmetry_cell_setting 'monoclinic'
loop_
_space_group_symop_operation_xyz
x,y,z
-x,1/2+y,1/2-z
-x,-y,-z
x,1/2-y,1/2+z
loop_
_atom_site_type_symbol
_atom_site_label
_atom_site_fract_x
_atom_site_fract_y
_atom_site_fract_z
Si Si1 0.240584 0.348201 0.776320
Si Si2 0.218413 0.087122 0.051834
Si Si3 0.183220 0.406523 0.072547
Si Si4 0.122189 0.932555 0.298649
Si Si5 0.839417 0.971682 0.237757
O O1 0.232935 0.413414 0.840824
O O2 0.105061 0.184368 0.688541
O O3 0.040851 0.468672 0.605167
O O4 0.581543 0.338200 0.990104
O O5 0.253385 0.226272 0.122905
O O6 0.519633 0.995618 0.244221
O O7 0.106708 0.128692 0.906754
O O8 0.000000 0.500000 0.000000
O O9 0.971876 0.405176 0.871229
O O10 0.979207 0.964275 0.266137
O O11 0.500000 0.000000 0.000000
#
# Coordination Sequence:
#
# PCOD9249974 Si02
#       5
#     4   4   4   4   4
#     4   9  22  42  69  98 134 177 227 286 347 403
#     4  10  23  45  66  96 137 180 227 286 340 418
#     4  12  27  44  68 101 142 186 232 280 357 420
#     4   9  22  42  72  94 138 168 234 277 352 399
#     4  12  25  39  71 104 134 182 232 289 338 415
#
# _framework density 22.685157
#
# number of rings (size 3 to 8) (size 9 to 14) (size 15 to 20)
#    1.200    0.400    0.000    3.600    5.600    3.200 
#    0.000    3.000    0.000    0.000    0.000    0.000 
#    0.000    0.000    0.000    0.000    0.000    0.000 
#
# Total GULP energy -111520.371137 kJ/mol
# GULP energy per Si atom -5576.018557 kJ/mol
# Density = 2.263352 g / cm^3
# Si number density = 22.685157 Si / 1000 Ang^3
#
#
#
# Elastic Constant Matrix: (Units=GPa)
#
#
# Indices 1 2 3 4 5 6 
#
# 1 113.9737 16.5960 36.3274 0.0000 13.7452 0.0000
# 2 16.5960 87.4922 5.7985 0.0000 3.7955 0.0000
# 3 36.3274 5.7985 128.4180 0.0000 14.0250 0.0000
# 4 0.0000 0.0000 0.0000 33.6339 0.0000 -0.3003
# 5 13.7452 3.7955 14.0250 0.0000 33.7026 0.0000
# 6 0.0000 0.0000 0.0000 -0.3003 0.0000 20.3283
#
#
#
# Elastic Compliance Matrix: (Units=1/GPa)
#
#
# Indices 1 2 3 4 5 6 
#
# 1 0.010155 -0.001635 -0.002479 0.000000 -0.002926 0.000000
# 2 -0.001635 0.011768 0.000003 0.000000 -0.000660 0.000000
# 3 -0.002479 0.000003 0.008777 0.000000 -0.002642 0.000000
# 4 0.000000 0.000000 0.000000 0.029736 0.000000 0.000439
# 5 -0.002926 -0.000660 -0.002642 0.000000 0.032038 0.000000
# 6 0.000000 0.000000 0.000000 0.000439 0.000000 0.049199
#
#
# Mechanical properties :
#
#
# Convention : Reuss Voigt Hill
#
# Bulk Modulus (GPa) = 44.48856 49.70309 47.09583
# Shear Modulus (GPa) = 31.76863 35.61042 33.68952
#
# Velocity S-wave (km/s) = 3.74627 3.96633 3.85787
# Velocity P-wave (km/s) = 6.19408 6.55234 6.37573
#
# Compressibility (1/GPa) = 0.02247769
#
# Stress axis : x y z
#
# Youngs Moduli (GPa) = 98.47229 84.97511 113.93682
#
# Poissons Ratio (x) = 0.13894 0.28249
# Poissons Ratio (y) = 0.16101 -0.00037
# Poissons Ratio (z) = 0.24415 -0.00027
#
# Static dielectric constant tensor:
#      x y z
#    x 1.811280 0.000000 -0.023020 
#    y 0.000000 1.986290 0.000000 
#    z -0.023020 0.000000 1.870590 
# 
# From -- ./inp_files/68278.got.cif
#   From: 2010.05.17/outbox.cif.g08.bks.cpg/sg14_35_cif.got.tgz:68278.got - 2010.06.03 17:49:19.
