data_PCOD9249170
_publ_section_title
;
Structure prediction by ZEFSAII (Michael W. Deem and Ramdas Pophale) SiO2 
 PCOD9249170
Probable space group: P 21/C
;
_chemical_formula_sum "Si O2"
_cell_formula_units_Z 16
_cell_length_a 21.152382
_cell_length_b 5.005989
_cell_length_c 10.375782
_cell_angle_alpha 90.000000
_cell_angle_beta 34.221068
_cell_angle_gamma 90.000000
_cell_volume 617.882138
_symmetry_space_group_name_H-M "P 21/C"
_symmetry_group_IT_number 14
_symmetry_cell_setting 'monoclinic'
loop_
_space_group_symop_operation_xyz
x,y,z
-x,1/2+y,1/2-z
-x,-y,-z
x,1/2-y,1/2+z
loop_
_atom_site_type_symbol
_atom_site_label
_atom_site_fract_x
_atom_site_fract_y
_atom_site_fract_z
Si Si1 0.647654 0.761353 0.932347
Si Si2 0.462305 0.773276 0.464959
Si Si3 0.081987 0.796279 0.286684
Si Si4 0.861527 0.532526 0.572526
O O1 0.640992 0.442635 0.919820
O O2 0.780365 0.791882 0.721868
O O3 0.589636 0.976051 0.932494
O O4 0.566948 0.780365 0.191011
O O5 0.500000 0.000000 0.500000
O O6 0.155789 0.645625 0.269418
O O7 0.994190 0.597104 0.364987
O O8 0.000000 0.000000 0.500000
O O9 0.148780 0.928810 0.056678
#
# Coordination Sequence:
#
# PCOD9249170 Si02
#       4
#     4   4   4   4
#     4  10  24  44  75 108 147 196 255 312 403 460
#     4  10  22  47  72 107 150 190 254 319 380 476
#     4  11  24  46  72 106 155 196 273 328 391 473
#     4  11  25  46  74 109 151 211 262 333 400 475
#
# _framework density 25.894904
#
# number of rings (size 3 to 8) (size 9 to 14) (size 15 to 20)
#    0.000    1.500    2.500    0.750    3.500    2.000 
#   13.500    0.000    0.000    0.000    0.000    0.000 
#    0.000    0.000    0.000    0.000    0.000    0.000 
#
# Total GULP energy -89204.919421 kJ/mol
# GULP energy per Si atom -5575.307464 kJ/mol
# Density = 2.583597 g / cm^3
# Si number density = 25.894904 Si / 1000 Ang^3
#
#
#
# Elastic Constant Matrix: (Units=GPa)
#
#
# Indices 1 2 3 4 5 6 
#
# 1 119.7815 42.7244 72.1757 0.0000 -4.1741 0.0000
# 2 42.7244 138.9144 48.8180 0.0000 8.5360 0.0000
# 3 72.1757 48.8180 141.8698 0.0000 9.7398 0.0000
# 4 0.0000 0.0000 0.0000 30.8510 0.0000 -9.0019
# 5 -4.1741 8.5360 9.7398 0.0000 37.5471 0.0000
# 6 0.0000 0.0000 0.0000 -9.0019 0.0000 51.9343
#
#
#
# Elastic Compliance Matrix: (Units=1/GPa)
#
#
# Indices 1 2 3 4 5 6 
#
# 1 0.012858 -0.002031 -0.006081 0.000000 0.003468 0.000000
# 2 -0.002031 0.008559 -0.001795 0.000000 -0.001706 0.000000
# 3 -0.006081 -0.001795 0.010974 0.000000 -0.003115 0.000000
# 4 0.000000 0.000000 0.000000 0.034141 0.000000 0.005918
# 5 0.003468 -0.001706 -0.003115 0.000000 0.028215 0.000000
# 6 0.000000 0.000000 0.000000 0.005918 0.000000 0.020281
#
#
# Mechanical properties :
#
#
# Convention : Reuss Voigt Hill
#
# Bulk Modulus (GPa) = 79.50585 80.88908 80.19746
# Shear Modulus (GPa) = 35.96316 39.85632 37.90974
#
# Velocity S-wave (km/s) = 3.73072 3.92747 3.83036
# Velocity P-wave (km/s) = 7.02336 7.20222 7.11335
#
# Compressibility (1/GPa) = 0.01257769
#
# Stress axis : x y z
#
# Youngs Moduli (GPa) = 77.77450 116.83820 91.12732
#
# Poissons Ratio (x) = 0.23727 0.55411
# Poissons Ratio (y) = 0.15794 0.16356
# Poissons Ratio (z) = 0.47292 0.20971
#
# Static dielectric constant tensor:
#      x y z
#    x 2.559980 0.000000 -0.033360 
#    y 0.000000 2.120130 0.000000 
#    z -0.033360 0.000000 2.014850 
# 
# From -- ./inp_files/18307.got.cif
#   From: 2010.05.17/outbox.cif.g08.bks.cpg/sg14_10_cif.got.tgz:18307.got - 2010.06.03 17:49:19.
