data_PCOD9249931
_publ_section_title
;
Structure prediction by ZEFSAII (Michael W. Deem and Ramdas Pophale) SiO2 
 PCOD9249931
Probable space group: P 21/C
;
_chemical_formula_sum "Si O2"
_cell_formula_units_Z 16
_cell_length_a 12.543404
_cell_length_b 4.878058
_cell_length_c 13.605133
_cell_angle_alpha 90.000000
_cell_angle_beta 131.071404
_cell_angle_gamma 90.000000
_cell_volume 627.587010
_symmetry_space_group_name_H-M "P 21/C"
_symmetry_group_IT_number 14
_symmetry_cell_setting 'monoclinic'
loop_
_space_group_symop_operation_xyz
x,y,z
-x,1/2+y,1/2-z
-x,-y,-z
x,1/2-y,1/2+z
loop_
_atom_site_type_symbol
_atom_site_label
_atom_site_fract_x
_atom_site_fract_y
_atom_site_fract_z
Si Si1 0.703925 0.258207 0.954999
Si Si2 0.417336 0.935283 0.812190
Si Si3 0.298845 0.434676 0.840300
Si Si4 0.006758 0.012530 0.822717
O O1 0.570792 0.051376 0.880687
O O2 0.677437 0.440864 0.842942
O O3 0.704044 0.445787 0.052162
O O4 0.849369 0.088088 0.041042
O O5 0.349390 0.126758 0.855170
O O6 0.596031 0.373472 0.157700
O O7 0.137665 0.465099 0.705572
O O8 0.991086 0.821555 0.715387
#
# Coordination Sequence:
#
# PCOD9249931 Si02
#       4
#     4   4   4   4
#     4  11  26  47  70 103 146 177 230 289 339 410
#     4  12  26  43  72 104 135 184 228 279 349 407
#     4  11  25  46  71 100 137 183 231 281 340 408
#     4  10  23  44  71  99 137 186 227 281 345 400
#
# _framework density 25.494474
#
# number of rings (size 3 to 8) (size 9 to 14) (size 15 to 20)
#    0.000    1.000    0.000    6.000    0.000   18.000 
#    0.000    0.000    0.000    0.000    0.000    0.000 
#    0.000    0.000    0.000    0.000    0.000    0.000 
#
# Total GULP energy -89792.978735 kJ/mol
# GULP energy per Si atom -5612.061171 kJ/mol
# Density = 2.543645 g / cm^3
# Si number density = 25.494474 Si / 1000 Ang^3
#
#
#
# Elastic Constant Matrix: (Units=GPa)
#
#
# Indices 1 2 3 4 5 6 
#
# 1 57.8221 23.0974 36.8339 0.0000 27.9767 0.0000
# 2 23.0974 71.7344 16.9291 0.0000 4.2755 0.0000
# 3 36.8339 16.9291 145.3031 0.0000 11.9420 0.0000
# 4 0.0000 0.0000 0.0000 41.4033 0.0000 16.1965
# 5 27.9767 4.2755 11.9420 0.0000 65.7547 0.0000
# 6 0.0000 0.0000 0.0000 16.1965 0.0000 30.3724
#
#
#
# Elastic Compliance Matrix: (Units=1/GPa)
#
#
# Indices 1 2 3 4 5 6 
#
# 1 0.029088 -0.007392 -0.005619 0.000000 -0.010875 0.000000
# 2 -0.007392 0.016239 -0.000193 0.000000 0.002124 0.000000
# 3 -0.005619 -0.000193 0.008255 0.000000 0.000904 0.000000
# 4 0.000000 0.000000 0.000000 0.030519 0.000000 -0.016275
# 5 -0.010875 0.002124 0.000904 0.000000 0.019533 0.000000
# 6 0.000000 0.000000 0.000000 -0.016275 0.000000 0.041603
#
#
# Mechanical properties :
#
#
# Convention : Reuss Voigt Hill
#
# Bulk Modulus (GPa) = 36.79792 47.62003 42.20897
# Shear Modulus (GPa) = 27.66976 40.70602 34.18789
#
# Velocity S-wave (km/s) = 3.29800 4.00016 3.66593
# Velocity P-wave (km/s) = 5.38214 6.32883 5.87459
#
# Compressibility (1/GPa) = 0.02717545
#
# Stress axis : x y z
#
# Youngs Moduli (GPa) = 34.37816 61.57919 121.14338
#
# Poissons Ratio (x) = 0.45518 0.68068
# Poissons Ratio (y) = 0.25412 0.02336
# Poissons Ratio (z) = 0.19316 0.01187
#
# Static dielectric constant tensor:
#      x y z
#    x 1.966500 0.000000 0.020630 
#    y 0.000000 1.932630 0.000000 
#    z 0.020630 0.000000 2.069880 
# 
# From -- ./inp_files/46023.got.cif
#   From: 2010.05.17/outbox.cif.g08.bks.cpg/sg14_24_cif.got.tgz:46023.got - 2010.06.03 17:49:19.
