data_PCOD9249372
_publ_section_title
;
Structure prediction by ZEFSAII (Michael W. Deem and Ramdas Pophale) SiO2 
 PCOD9249372
Probable space group: P 21/C
;
_chemical_formula_sum "Si O2"
_cell_formula_units_Z 20
_cell_length_a 5.250958
_cell_length_b 8.970087
_cell_length_c 20.901699
_cell_angle_alpha 90.000000
_cell_angle_beta 59.400035
_cell_angle_gamma 90.000000
_cell_volume 847.402917
_symmetry_space_group_name_H-M "P 21/C"
_symmetry_group_IT_number 14
_symmetry_cell_setting 'monoclinic'
loop_
_space_group_symop_operation_xyz
x,y,z
-x,1/2+y,1/2-z
-x,-y,-z
x,1/2-y,1/2+z
loop_
_atom_site_type_symbol
_atom_site_label
_atom_site_fract_x
_atom_site_fract_y
_atom_site_fract_z
Si Si1 0.332421 0.514469 0.313692
Si Si2 0.694700 0.040951 0.413663
Si Si3 0.228909 0.632038 0.454798
Si Si4 0.668874 0.832486 0.656121
Si Si5 0.814780 0.724064 0.411847
O O1 0.432498 0.579696 0.369344
O O2 0.331700 0.338376 0.321487
O O3 0.527650 0.569019 0.230568
O O4 0.010261 0.595180 0.353391
O O5 0.520406 0.133727 0.382857
O O6 0.992872 0.121766 0.396234
O O7 0.500000 0.000000 0.500000
O O8 0.784830 0.875758 0.375941
O O9 0.480667 0.674319 0.472648
O O10 0.000000 0.500000 0.500000
O O11 0.015166 0.755094 0.449942
#
# Coordination Sequence:
#
# PCOD9249372 Si02
#       5
#     4   4   4   4   4
#     4  10  28  44  77 104 144 188 244 289 375 425
#     4  12  29  46  73 106 148 190 245 301 368 426
#     4  10  23  40  73 102 141 179 239 288 355 427
#     4  12  28  46  74 103 148 189 239 301 363 442
#     4  10  24  43  71  98 144 178 240 290 357 417
#
# _framework density 23.601524999999999
#
# number of rings (size 3 to 8) (size 9 to 14) (size 15 to 20)
#    1.200    0.000    0.000    3.600   14.000    0.000 
#    0.000    0.000    0.000    0.000    0.000    0.000 
#    0.000    0.000    0.000    0.000    0.000    0.000 
#
# Total GULP energy -111676.618127 kJ/mol
# GULP energy per Si atom -5583.830906 kJ/mol
# Density = 2.354781 g / cm^3
# Si number density = 23.601525 Si / 1000 Ang^3
#
#
#
# Elastic Constant Matrix: (Units=GPa)
#
#
# Indices 1 2 3 4 5 6 
#
# 1 153.7175 48.5499 59.9258 0.0000 -36.9357 0.0000
# 2 48.5499 149.1584 26.3401 0.0000 -15.6360 0.0000
# 3 59.9258 26.3401 103.3406 0.0000 -0.2781 0.0000
# 4 0.0000 0.0000 0.0000 45.5482 0.0000 -0.8315
# 5 -36.9357 -15.6360 -0.2781 0.0000 32.1584 0.0000
# 6 0.0000 0.0000 0.0000 -0.8315 0.0000 17.7236
#
#
#
# Elastic Compliance Matrix: (Units=1/GPa)
#
#
# Indices 1 2 3 4 5 6 
#
# 1 0.013309 -0.001527 -0.007290 0.000000 0.014481 0.000000
# 2 -0.001527 0.007587 -0.001043 0.000000 0.001927 0.000000
# 3 -0.007290 -0.001043 0.014146 0.000000 -0.008757 0.000000
# 4 0.000000 0.000000 0.000000 0.021974 0.000000 0.001031
# 5 0.014481 0.001927 -0.008757 0.000000 0.048589 0.000000
# 6 0.000000 0.000000 0.000000 0.001031 0.000000 0.056470
#
#
# Mechanical properties :
#
#
# Convention : Reuss Voigt Hill
#
# Bulk Modulus (GPa) = 65.26046 75.09424 70.17735
# Shear Modulus (GPa) = 26.75195 37.17941 31.96568
#
# Velocity S-wave (km/s) = 3.37038 3.97331 3.68420
# Velocity P-wave (km/s) = 6.54652 7.27572 6.92073
#
# Compressibility (1/GPa) = 0.01532321
#
# Stress axis : x y z
#
# Youngs Moduli (GPa) = 75.13802 131.79675 70.69029
#
# Poissons Ratio (x) = 0.20121 0.51530
# Poissons Ratio (y) = 0.11471 0.07376
# Poissons Ratio (z) = 0.54772 0.13752
#
# Static dielectric constant tensor:
#      x y z
#    x 1.945020 0.000000 0.044240 
#    y 0.000000 2.032610 0.000000 
#    z 0.044240 0.000000 1.907700 
# 
# From -- ./inp_files/75626.got.cif
#   From: 2010.05.17/outbox.cif.g08.bks.cpg/sg14_38_cif.got.tgz:75626.got - 2010.06.03 17:49:19.
