data_PCOD9249900
_publ_section_title
;
Structure prediction by ZEFSAII (Michael W. Deem and Ramdas Pophale) SiO2 
 PCOD9249900
Probable space group: P 21/C
;
_chemical_formula_sum "Si O2"
_cell_formula_units_Z 32
_cell_length_a 19.282693
_cell_length_b 11.121621
_cell_length_c 15.989799
_cell_angle_alpha 90.000000
_cell_angle_beta 23.333322
_cell_angle_gamma 90.000000
_cell_volume 1358.192226
_symmetry_space_group_name_H-M "P 21/C"
_symmetry_group_IT_number 14
_symmetry_cell_setting 'monoclinic'
loop_
_space_group_symop_operation_xyz
x,y,z
-x,1/2+y,1/2-z
-x,-y,-z
x,1/2-y,1/2+z
loop_
_atom_site_type_symbol
_atom_site_label
_atom_site_fract_x
_atom_site_fract_y
_atom_site_fract_z
Si Si1 0.763781 0.479040 0.846600
Si Si2 0.626356 0.265445 0.423342
Si Si3 0.844925 0.513179 0.933365
Si Si4 0.836699 0.591656 0.601586
Si Si5 0.646193 0.534447 0.473747
Si Si6 0.305973 0.792923 0.337751
Si Si7 0.760078 0.838356 0.689335
Si Si8 0.754515 0.460344 0.531972
O O1 0.680511 0.349028 0.918613
O O2 0.727077 0.527792 0.980351
O O3 0.730789 0.562939 0.803424
O O4 0.975415 0.472798 0.611251
O O5 0.641948 0.394407 0.451296
O O6 0.730400 0.265154 0.219647
O O7 0.424197 0.268683 0.618003
O O8 0.038102 0.563744 0.705983
O O9 0.847603 0.370119 0.948771
O O10 0.776360 0.573821 0.093510
O O11 0.893446 0.730122 0.535770
O O12 0.731399 0.542930 0.638845
O O13 0.470164 0.614754 0.660566
O O14 0.769013 0.594994 0.267546
O O15 0.701215 0.531388 0.508449
O O16 0.336055 0.667786 0.351621
#
# Coordination Sequence:
#
# PCOD9249900 Si02
#       8
#     4   4   4   4   4   4   4   4
#     4  10  23  44  69  94 132 180 222 283 338 394
#     4  11  21  45  73  93 132 181 224 275 343 396
#     4  11  24  43  67 100 139 176 228 283 342 399
#     4  10  24  45  63  99 136 175 229 276 335 405
#     4  11  24  45  68 103 133 180 224 271 348 399
#     4  11  22  48  69  95 140 176 222 292 330 404
#     4  11  24  43  67  99 141 174 224 283 329 412
#     4  11  26  42  70 102 134 182 230 276 344 408
#
# _framework density 23.560728999999998
#
# number of rings (size 3 to 8) (size 9 to 14) (size 15 to 20)
#    0.000    1.250    3.750    1.500    5.250    5.000 
#    4.500    0.000    0.000    0.000    0.000    0.000 
#    0.000    0.000    0.000    0.000    0.000    0.000 
#
# Total GULP energy -178789.461639 kJ/mol
# GULP energy per Si atom -5587.170676 kJ/mol
# Density = 2.350710 g / cm^3
# Si number density = 23.560729 Si / 1000 Ang^3
#
#
#
# Elastic Constant Matrix: (Units=GPa)
#
#
# Indices 1 2 3 4 5 6 
#
# 1 145.0103 57.8193 25.6148 0.0000 39.6576 0.0000
# 2 57.8193 118.2313 13.4396 0.0000 13.6493 0.0000
# 3 25.6148 13.4396 43.5941 0.0000 18.1388 0.0000
# 4 0.0000 0.0000 0.0000 27.8560 0.0000 -5.2733
# 5 39.6576 13.6493 18.1388 0.0000 27.3008 0.0000
# 6 0.0000 0.0000 0.0000 -5.2733 0.0000 11.7483
#
#
#
# Elastic Compliance Matrix: (Units=1/GPa)
#
#
# Indices 1 2 3 4 5 6 
#
# 1 0.013461 -0.004628 0.000955 0.000000 -0.017874 0.000000
# 2 -0.004628 0.010616 -0.001579 0.000000 0.002464 0.000000
# 3 0.000955 -0.001579 0.031944 0.000000 -0.021821 0.000000
# 4 0.000000 0.000000 0.000000 0.039233 0.000000 0.017610
# 5 -0.017874 0.002464 -0.021821 0.000000 0.075859 0.000000
# 6 0.000000 0.000000 0.000000 0.017610 0.000000 0.093023
#
#
# Mechanical properties :
#
#
# Convention : Reuss Voigt Hill
#
# Bulk Modulus (GPa) = 21.96984 55.62034 38.79509
# Shear Modulus (GPa) = 17.25250 27.37847 22.31548
#
# Velocity S-wave (km/s) = 2.70896 3.41257 3.08091
# Velocity P-wave (km/s) = 4.37374 6.25987 5.39980
#
# Compressibility (1/GPa) = 0.04551694
#
# Stress axis : x y z
#
# Youngs Moduli (GPa) = 74.28902 94.19542 31.30465
#
# Poissons Ratio (x) = 0.43593 -0.02988
# Poissons Ratio (y) = 0.34380 0.04942
# Poissons Ratio (z) = -0.07091 0.14872
#
# Static dielectric constant tensor:
#      x y z
#    x 1.917090 0.000000 0.000680 
#    y 0.000000 1.904960 0.000000 
#    z 0.000680 0.000000 1.987010 
# 
# From -- ./inp_files/48977.got.cif
#   From: 2010.05.17/outbox.cif.g08.bks.cpg/sg14_25_cif.got.tgz:48977.got - 2010.06.03 17:49:19.
