data_PCOD9249441
_publ_section_title
;
Structure prediction by ZEFSAII (Michael W. Deem and Ramdas Pophale) SiO2 
 PCOD9249441
Probable space group: P 21/C
;
_chemical_formula_sum "Si O2"
_cell_formula_units_Z 28
_cell_length_a 13.957248
_cell_length_b 9.121721
_cell_length_c 14.216866
_cell_angle_alpha 90.000000
_cell_angle_beta 39.674845
_cell_angle_gamma 90.000000
_cell_volume 1155.563218
_symmetry_space_group_name_H-M "P 21/C"
_symmetry_group_IT_number 14
_symmetry_cell_setting 'monoclinic'
loop_
_space_group_symop_operation_xyz
x,y,z
-x,1/2+y,1/2-z
-x,-y,-z
x,1/2-y,1/2+z
loop_
_atom_site_type_symbol
_atom_site_label
_atom_site_fract_x
_atom_site_fract_y
_atom_site_fract_z
Si Si1 0.064143 0.168292 0.445773
Si Si2 0.250820 0.714917 0.267110
Si Si3 0.827787 0.615146 0.476654
Si Si4 0.168212 0.564009 0.157664
Si Si5 0.455586 0.850421 0.987086
Si Si6 0.682699 0.197049 0.092588
Si Si7 0.725238 0.757644 0.384054
O O1 0.159575 0.254819 0.455230
O O2 0.156462 0.195269 0.281329
O O3 0.909770 0.257114 0.567336
O O4 0.000000 0.000000 0.500000
O O5 0.244605 0.574864 0.204987
O O6 0.363716 0.740294 0.267279
O O7 0.288528 0.828042 0.155003
O O8 0.776526 0.451679 0.544866
O O9 0.713158 0.646367 0.479225
O O10 0.994774 0.599589 0.306426
O O11 0.204379 0.395791 0.113915
O O12 0.231334 0.671373 0.028390
O O13 0.449347 0.840115 0.880313
O O14 0.569076 0.730721 0.945419
O O15 0.500000 0.000000 0.000000
#
# Coordination Sequence:
#
# PCOD9249441 Si02
#       7
#     4   4   4   4   4   4   4
#     4  11  25  42  71 107 137 175 234 288 342 413
#     4  10  23  43  66  93 136 175 219 279 347 399
#     4  11  23  40  70 101 138 181 222 282 355 406
#     4  10  23  41  67 101 135 173 228 293 340 407
#     4  11  24  47  64  96 138 180 221 282 343 408
#     4  11  23  43  68  93 137 185 224 277 350 413
#     4  12  25  42  70 100 137 175 234 283 342 412
#
# _framework density 24.230608
#
# number of rings (size 3 to 8) (size 9 to 14) (size 15 to 20)
#    0.000    1.143    1.429    4.286    8.000    5.714 
#    5.143    0.000    0.000    0.000    0.000    0.000 
#    0.000    0.000    0.000    0.000    0.000    0.000 
#
# Total GULP energy -156019.216084 kJ/mol
# GULP energy per Si atom -5572.114860 kJ/mol
# Density = 2.417546 g / cm^3
# Si number density = 24.230608 Si / 1000 Ang^3
#
#
#
# Elastic Constant Matrix: (Units=GPa)
#
#
# Indices 1 2 3 4 5 6 
#
# 1 147.8286 16.1118 20.0440 0.0000 31.9940 0.0000
# 2 16.1118 91.9419 15.9222 0.0000 14.3029 0.0000
# 3 20.0440 15.9222 66.7765 0.0000 11.9731 0.0000
# 4 0.0000 0.0000 0.0000 11.8127 0.0000 0.5167
# 5 31.9940 14.3029 11.9731 0.0000 39.2924 0.0000
# 6 0.0000 0.0000 0.0000 0.5167 0.0000 42.7229
#
#
#
# Elastic Compliance Matrix: (Units=1/GPa)
#
#
# Indices 1 2 3 4 5 6 
#
# 1 0.008332 -0.000254 -0.001312 0.000000 -0.006292 0.000000
# 2 -0.000254 0.011826 -0.002125 0.000000 -0.003450 0.000000
# 3 -0.001312 -0.002125 0.016444 0.000000 -0.003169 0.000000
# 4 0.000000 0.000000 0.000000 0.084700 0.000000 -0.001024
# 5 -0.006292 -0.003450 -0.003169 0.000000 0.032795 0.000000
# 6 0.000000 0.000000 0.000000 -0.001024 0.000000 0.023419
#
#
# Mechanical properties :
#
#
# Convention : Reuss Voigt Hill
#
# Bulk Modulus (GPa) = 34.22367 45.63365 39.92866
# Shear Modulus (GPa) = 25.68878 35.73020 30.70949
#
# Velocity S-wave (km/s) = 3.25957 3.84420 3.56390
# Velocity P-wave (km/s) = 5.32177 6.21110 5.78356
#
# Compressibility (1/GPa) = 0.02921954
#
# Stress axis : x y z
#
# Youngs Moduli (GPa) = 120.01987 84.56182 60.81232
#
# Poissons Ratio (x) = 0.02148 0.07980
# Poissons Ratio (y) = 0.03049 0.12921
# Poissons Ratio (z) = 0.15749 0.17968
#
# Static dielectric constant tensor:
#      x y z
#    x 2.467580 0.000000 0.027100 
#    y 0.000000 1.584420 0.000000 
#    z 0.027100 0.000000 1.875470 
# 
# From -- ./inp_files/46706.got.cif
#   From: 2010.05.17/outbox.cif.g08.bks.cpg/sg14_24_cif.got.tgz:46706.got - 2010.06.03 17:49:19.
