data_PCOD9249901
_publ_section_title
;
Structure prediction by ZEFSAII (Michael W. Deem and Ramdas Pophale) SiO2 
 PCOD9249901
Probable space group: P 21/C
;
_chemical_formula_sum "Si O2"
_cell_formula_units_Z 28
_cell_length_a 5.030716
_cell_length_b 12.132216
_cell_length_c 23.607764
_cell_angle_alpha 90.000000
_cell_angle_beta 119.372363
_cell_angle_gamma 90.000000
_cell_volume 1255.646855
_symmetry_space_group_name_H-M "P 21/C"
_symmetry_group_IT_number 14
_symmetry_cell_setting 'monoclinic'
loop_
_space_group_symop_operation_xyz
x,y,z
-x,1/2+y,1/2-z
-x,-y,-z
x,1/2-y,1/2+z
loop_
_atom_site_type_symbol
_atom_site_label
_atom_site_fract_x
_atom_site_fract_y
_atom_site_fract_z
Si Si1 0.554487 0.733912 0.329277
Si Si2 0.103123 0.539225 0.696613
Si Si3 0.452223 0.913965 0.914998
Si Si4 0.391973 0.655747 0.530573
Si Si5 0.700321 0.090378 0.293967
Si Si6 0.083280 0.720079 0.606844
Si Si7 0.019468 0.626699 0.803645
O O1 0.646455 0.648623 0.387761
O O2 0.321145 0.668683 0.263485
O O3 0.361521 0.828261 0.340668
O O4 0.805879 0.789366 0.315745
O O5 0.381595 0.475569 0.755218
O O6 0.214300 0.616546 0.656901
O O7 0.951269 0.614630 0.729312
O O8 0.857525 0.454976 0.646930
O O9 0.608331 0.025620 0.953482
O O10 0.371995 0.840262 0.960914
O O11 0.148410 0.707987 0.547224
O O12 0.722185 0.707735 0.579872
O O13 0.763083 0.170861 0.352416
O O14 0.955133 0.995877 0.319125
#
# Coordination Sequence:
#
# PCOD9249901 Si02
#       7
#     4   4   4   4   4   4   4
#     4  12  25  38  66  94 132 170 212 265 327 394
#     4  11  23  41  63 102 134 165 216 268 331 405
#     4  10  23  44  69  94 133 174 213 278 324 381
#     4  10  25  44  66  99 127 171 227 265 324 381
#     4  12  24  39  67  93 139 171 210 265 347 379
#     4  11  25  40  67  94 135 168 215 272 319 403
#     4  12  25  40  56 103 130 168 210 257 333 399
#
# _framework density 22.299263
#
# number of rings (size 3 to 8) (size 9 to 14) (size 15 to 20)
#    0.000    0.857    4.286    1.714    8.000    8.571 
#    0.000    0.000    0.000    5.143    0.000    0.000 
#    0.000    0.000    0.000    0.000    0.000    0.000 
#
# Total GULP energy -156615.202196 kJ/mol
# GULP energy per Si atom -5593.400078 kJ/mol
# Density = 2.224851 g / cm^3
# Si number density = 22.299263 Si / 1000 Ang^3
#
#
#
# Elastic Constant Matrix: (Units=GPa)
#
#
# Indices 1 2 3 4 5 6 
#
# 1 96.6401 25.3303 20.5165 0.0000 -14.5780 0.0000
# 2 25.3303 74.0597 23.4856 0.0000 -11.8094 0.0000
# 3 20.5165 23.4856 83.5500 0.0000 -26.8544 0.0000
# 4 0.0000 0.0000 0.0000 32.7435 0.0000 -13.3305
# 5 -14.5780 -11.8094 -26.8544 0.0000 37.4424 0.0000
# 6 0.0000 0.0000 0.0000 -13.3305 0.0000 25.4731
#
#
#
# Elastic Compliance Matrix: (Units=1/GPa)
#
#
# Indices 1 2 3 4 5 6 
#
# 1 0.011858 -0.003262 -0.001094 0.000000 0.002803 0.000000
# 2 -0.003262 0.015861 -0.003194 0.000000 0.001442 0.000000
# 3 -0.001094 -0.003194 0.016472 0.000000 0.010381 0.000000
# 4 0.000000 0.000000 0.000000 0.038809 0.000000 0.020309
# 5 0.002803 0.001442 0.010381 0.000000 0.035699 0.000000
# 6 0.000000 0.000000 0.000000 0.020309 0.000000 0.049885
#
#
# Mechanical properties :
#
#
# Convention : Reuss Voigt Hill
#
# Bulk Modulus (GPa) = 34.37459 43.65716 39.01587
# Shear Modulus (GPa) = 25.85580 31.45963 28.65772
#
# Velocity S-wave (km/s) = 3.40882 3.76013 3.58878
# Velocity P-wave (km/s) = 5.56256 6.20256 5.89126
#
# Compressibility (1/GPa) = 0.02909126
#
# Stress axis : x y z
#
# Youngs Moduli (GPa) = 84.33323 63.04757 60.70966
#
# Poissons Ratio (x) = 0.20564 0.06641
# Poissons Ratio (y) = 0.27507 0.19391
# Poissons Ratio (z) = 0.09225 0.20138
#
# Static dielectric constant tensor:
#      x y z
#    x 1.882260 0.000000 0.005910 
#    y 0.000000 1.852790 0.000000 
#    z 0.005910 0.000000 1.816270 
# 
# From -- ./inp_files/63549.got.cif
#   From: 2010.05.17/outbox.cif.g08.bks.cpg/sg14_32_cif.got.tgz:63549.got - 2010.06.03 17:49:19.
