data_PCOD9249787
_publ_section_title
;
Structure prediction by ZEFSAII (Michael W. Deem and Ramdas Pophale) SiO2 
 PCOD9249787
Probable space group: P 21/C
;
_chemical_formula_sum "Si O2"
_cell_formula_units_Z 26
_cell_length_a 13.362129
_cell_length_b 18.035548
_cell_length_c 9.544831
_cell_angle_alpha 90.000000
_cell_angle_beta 150.708221
_cell_angle_gamma 90.000000
_cell_volume 1125.409501
_symmetry_space_group_name_H-M "P 21/C"
_symmetry_group_IT_number 14
_symmetry_cell_setting 'monoclinic'
loop_
_space_group_symop_operation_xyz
x,y,z
-x,1/2+y,1/2-z
-x,-y,-z
x,1/2-y,1/2+z
loop_
_atom_site_type_symbol
_atom_site_label
_atom_site_fract_x
_atom_site_fract_y
_atom_site_fract_z
Si Si1 0.760568 0.080852 0.273268
Si Si2 0.000000 0.000000 0.000000
Si Si3 0.068992 0.736064 0.902636
Si Si4 0.871408 0.837647 0.901517
Si Si5 0.495380 0.219736 0.680504
Si Si6 0.994429 0.443000 0.800252
Si Si7 0.369016 0.342704 0.323010
O O1 0.857632 0.159776 0.434943
O O2 0.793756 0.067614 0.148778
O O3 0.882649 0.015080 0.495565
O O4 0.524929 0.088461 0.026450
O O5 0.046368 0.080074 0.977942
O O6 0.958913 0.045905 0.094837
O O7 0.268606 0.771676 0.071940
O O8 0.982511 0.791951 0.912605
O O9 0.912364 0.709768 0.591199
O O10 0.633709 0.841189 0.564198
O O11 0.391163 0.294815 0.490867
O O12 0.458017 0.202864 0.797832
O O13 0.147255 0.374716 0.019149
#
# Coordination Sequence:
#
# PCOD9249787 Si02
#       7
#     4   2   4   4   4   4   4
#     4  10  23  43  70  95 131 181 227 277 342 418
#     4  12  26  44  70 104 142 178 234 292 356 410
#     4  11  24  43  70 100 132 182 231 283 347 411
#     4  12  25  45  70  99 142 180 229 295 346 415
#     4  11  24  41  66 101 132 176 235 276 339 411
#     4  11  23  46  65  97 136 178 226 278 352 414
#     4  11  23  42  66  99 135 177 225 283 336 412
#
# _framework density 23.102699999999999
#
# number of rings (size 3 to 8) (size 9 to 14) (size 15 to 20)
#    0.000    0.923    3.077    4.154    4.308    0.000 
#    0.000    3.077    0.000    0.000    0.000    0.000 
#    0.000    0.000    0.000    0.000    0.000    0.000 
#
# Total GULP energy -144999.243571 kJ/mol
# GULP energy per Si atom -5576.893983 kJ/mol
# Density = 2.305012 g / cm^3
# Si number density = 23.102700 Si / 1000 Ang^3
#
#
#
# Elastic Constant Matrix: (Units=GPa)
#
#
# Indices 1 2 3 4 5 6 
#
# 1 67.8618 20.5471 12.1934 0.0000 -7.9017 0.0000
# 2 20.5471 131.2771 7.3119 0.0000 -4.9795 0.0000
# 3 12.1934 7.3119 55.0233 0.0000 -6.8030 0.0000
# 4 0.0000 0.0000 0.0000 29.8201 0.0000 -12.5846
# 5 -7.9017 -4.9795 -6.8030 0.0000 41.4669 0.0000
# 6 0.0000 0.0000 0.0000 -12.5846 0.0000 38.5616
#
#
#
# Elastic Compliance Matrix: (Units=1/GPa)
#
#
# Indices 1 2 3 4 5 6 
#
# 1 0.016239 -0.002286 -0.003007 0.000000 0.002327 0.000000
# 2 -0.002286 0.008020 -0.000504 0.000000 0.000445 0.000000
# 3 -0.003007 -0.000504 0.019219 0.000000 0.002519 0.000000
# 4 0.000000 0.000000 0.000000 0.038891 0.000000 0.012692
# 5 0.002327 0.000445 0.002519 0.000000 0.025026 0.000000
# 6 0.000000 0.000000 0.000000 0.012692 0.000000 0.030075
#
#
# Mechanical properties :
#
#
# Convention : Reuss Voigt Hill
#
# Bulk Modulus (GPa) = 31.36404 37.14078 34.25241
# Shear Modulus (GPa) = 31.31025 36.24371 33.77698
#
# Velocity S-wave (km/s) = 3.68538 3.96512 3.82781
# Velocity P-wave (km/s) = 5.63159 6.08885 5.86468
#
# Compressibility (1/GPa) = 0.03188365
#
# Stress axis : x y z
#
# Youngs Moduli (GPa) = 61.57936 124.68478 52.03169
#
# Poissons Ratio (x) = 0.28503 0.15647
# Poissons Ratio (y) = 0.14077 0.02624
# Poissons Ratio (z) = 0.18518 0.06287
#
# Static dielectric constant tensor:
#      x y z
#    x 1.841310 0.000000 0.029520 
#    y 0.000000 1.866050 0.000000 
#    z 0.029520 0.000000 1.899290 
# 
# From -- ./inp_files/14361.got.cif
#   From: 2010.05.17/outbox.cif.g08.bks.cpg/sg14_8_cif.got.tgz:14361.got - 2010.06.03 17:49:19.
