data_PCOD9249009
_publ_section_title
;
Structure prediction by ZEFSAII (Michael W. Deem and Ramdas Pophale) SiO2 
 PCOD9249009
Probable space group: P 21/C
;
_chemical_formula_sum "Si O2"
_cell_formula_units_Z 16
_cell_length_a 11.510491
_cell_length_b 7.496201
_cell_length_c 11.723254
_cell_angle_alpha 90.000000
_cell_angle_beta 37.568864
_cell_angle_gamma 90.000000
_cell_volume 616.750893
_symmetry_space_group_name_H-M "P 21/C"
_symmetry_group_IT_number 14
_symmetry_cell_setting 'monoclinic'
loop_
_space_group_symop_operation_xyz
x,y,z
-x,1/2+y,1/2-z
-x,-y,-z
x,1/2-y,1/2+z
loop_
_atom_site_type_symbol
_atom_site_label
_atom_site_fract_x
_atom_site_fract_y
_atom_site_fract_z
Si Si1 0.372698 0.272182 0.336529
Si Si2 0.949160 0.020035 0.408394
Si Si3 0.747532 0.187766 0.924755
Si Si4 0.629951 0.111011 0.311783
O O1 0.202857 0.137259 0.494352
O O2 0.504767 0.262439 0.346501
O O3 0.314916 0.461133 0.325442
O O4 0.523319 0.187559 0.126801
O O5 0.140389 0.992368 0.186617
O O6 0.850571 0.201324 0.444536
O O7 0.000000 0.000000 0.500000
O O8 0.777720 0.298763 0.782767
O O9 0.500000 0.000000 0.500000
#
# Coordination Sequence:
#
# PCOD9249009 Si02
#       4
#     4   4   4   4
#     4  11  23  46  71  96 141 182 232 282 353 405
#     4  12  28  45  71 108 139 184 235 286 350 410
#     4  11  27  45  71 105 141 183 237 283 347 415
#     4  10  22  45  69  99 135 184 231 279 346 414
#
# _framework density 25.942402000000001
#
# number of rings (size 3 to 8) (size 9 to 14) (size 15 to 20)
#    0.000    1.000    5.000    1.500    7.000    2.000 
#    0.000    0.000    0.000    0.000    0.000    0.000 
#    0.000    0.000    0.000    0.000    0.000    0.000 
#
# Total GULP energy -89508.015972 kJ/mol
# GULP energy per Si atom -5594.250998 kJ/mol
# Density = 2.588336 g / cm^3
# Si number density = 25.942402 Si / 1000 Ang^3
#
#
#
# Elastic Constant Matrix: (Units=GPa)
#
#
# Indices 1 2 3 4 5 6 
#
# 1 111.6882 -4.1966 9.0153 0.0000 27.4987 0.0000
# 2 -4.1966 92.1481 14.5204 0.0000 -2.0451 0.0000
# 3 9.0153 14.5204 99.3500 0.0000 3.6082 0.0000
# 4 0.0000 0.0000 0.0000 52.9000 0.0000 5.8198
# 5 27.4987 -2.0451 3.6082 0.0000 45.3042 0.0000
# 6 0.0000 0.0000 0.0000 5.8198 0.0000 56.1716
#
#
#
# Elastic Compliance Matrix: (Units=1/GPa)
#
#
# Indices 1 2 3 4 5 6 
#
# 1 0.010599 0.000468 -0.000800 0.000000 -0.006348 0.000000
# 2 0.000468 0.011147 -0.001684 0.000000 0.000353 0.000000
# 3 -0.000800 -0.001684 0.010399 0.000000 -0.000419 0.000000
# 4 0.000000 0.000000 0.000000 0.019122 0.000000 -0.001981
# 5 -0.006348 0.000353 -0.000419 0.000000 0.025976 0.000000
# 6 0.000000 0.000000 0.000000 -0.001981 0.000000 0.018008
#
#
# Mechanical properties :
#
#
# Convention : Reuss Voigt Hill
#
# Bulk Modulus (GPa) = 35.57161 37.98494 36.77827
# Shear Modulus (GPa) = 46.01812 49.79831 47.90822
#
# Velocity S-wave (km/s) = 4.21629 4.38605 4.30200
# Velocity P-wave (km/s) = 6.11918 6.35009 6.23570
#
# Compressibility (1/GPa) = 0.02811231
#
# Stress axis : x y z
#
# Youngs Moduli (GPa) = 94.35181 89.71286 96.15963
#
# Poissons Ratio (x) = -0.04197 0.07689
# Poissons Ratio (y) = -0.04414 0.16197
# Poissons Ratio (z) = 0.07544 0.15111
#
# Static dielectric constant tensor:
#      x y z
#    x 2.067080 0.000000 0.022360 
#    y 0.000000 2.151390 0.000000 
#    z 0.022360 0.000000 2.087460 
# 
# From -- ./inp_files/23160.got.cif
#   From: 2010.05.17/outbox.cif.g08.bks.cpg/sg14_12_cif.got.tgz:23160.got - 2010.06.03 17:49:19.
