data_PCOD9249093
_publ_section_title
;
Structure prediction by ZEFSAII (Michael W. Deem and Ramdas Pophale) SiO2 
 PCOD9249093
Probable space group: P 21/C
;
_chemical_formula_sum "Si O2"
_cell_formula_units_Z 20
_cell_length_a 13.998985
_cell_length_b 8.320833
_cell_length_c 17.616611
_cell_angle_alpha 90.000000
_cell_angle_beta 156.514090
_cell_angle_gamma 90.000000
_cell_volume 817.786042
_symmetry_space_group_name_H-M "P 21/C"
_symmetry_group_IT_number 14
_symmetry_cell_setting 'monoclinic'
loop_
_space_group_symop_operation_xyz
x,y,z
-x,1/2+y,1/2-z
-x,-y,-z
x,1/2-y,1/2+z
loop_
_atom_site_type_symbol
_atom_site_label
_atom_site_fract_x
_atom_site_fract_y
_atom_site_fract_z
Si Si1 0.999551 0.312584 0.935647
Si Si2 0.290142 0.736151 0.539633
Si Si3 0.193675 0.340245 0.727385
Si Si4 0.599316 0.431896 0.745286
Si Si5 0.704509 0.331990 0.115457
O O1 0.727786 0.347018 0.767934
O O2 0.944128 0.263968 0.809873
O O3 0.118704 0.193778 0.085400
O O4 0.169062 0.465524 0.058372
O O5 0.392047 0.563556 0.586280
O O6 0.289062 0.862313 0.469978
O O7 0.029415 0.710450 0.384696
O O8 0.452900 0.803326 0.727072
O O9 0.263350 0.521151 0.802033
O O10 0.440979 0.251936 0.928379
#
# Coordination Sequence:
#
# PCOD9249093 Si02
#       5
#     4   4   4   4   4
#     4  10  22  46  68  89 138 184 217 280 335 395
#     4  11  25  43  69 105 134 180 229 276 337 401
#     4  10  24  44  63 104 136 172 224 277 335 401
#     4  10  24  44  67  98 138 175 226 275 340 399
#     4  11  24  41  71  99 135 175 229 274 337 398
#
# _framework density 24.456275000000002
#
# number of rings (size 3 to 8) (size 9 to 14) (size 15 to 20)
#    0.000    1.600    2.000    0.600    5.600    8.800 
#    0.000    0.000    0.000    0.000    0.000    0.000 
#    0.000    0.000    0.000    0.000    0.000    0.000 
#
# Total GULP energy -111515.842993 kJ/mol
# GULP energy per Si atom -5575.792150 kJ/mol
# Density = 2.440061 g / cm^3
# Si number density = 24.456275 Si / 1000 Ang^3
#
#
#
# Elastic Constant Matrix: (Units=GPa)
#
#
# Indices 1 2 3 4 5 6 
#
# 1 45.6123 5.0472 36.5486 0.0000 17.6090 0.0000
# 2 5.0472 46.1360 15.7651 0.0000 4.1987 0.0000
# 3 36.5486 15.7651 129.6654 0.0000 2.2292 0.0000
# 4 0.0000 0.0000 0.0000 29.6282 0.0000 8.6070
# 5 17.6090 4.1987 2.2292 0.0000 27.7121 0.0000
# 6 0.0000 0.0000 0.0000 8.6070 0.0000 17.1517
#
#
#
# Elastic Compliance Matrix: (Units=1/GPa)
#
#
# Indices 1 2 3 4 5 6 
#
# 1 0.040296 0.001667 -0.011132 0.000000 -0.024962 0.000000
# 2 0.001667 0.022972 -0.003189 0.000000 -0.004283 0.000000
# 3 -0.011132 -0.003189 0.011123 0.000000 0.006662 0.000000
# 4 0.000000 0.000000 0.000000 0.039512 0.000000 -0.019828
# 5 -0.024962 -0.004283 0.006662 0.000000 0.052060 0.000000
# 6 0.000000 0.000000 0.000000 -0.019828 0.000000 0.068253
#
#
# Mechanical properties :
#
#
# Convention : Reuss Voigt Hill
#
# Bulk Modulus (GPa) = 20.37335 37.34839 28.86087
# Shear Modulus (GPa) = 18.12348 25.83526 21.97937
#
# Velocity S-wave (km/s) = 2.72519 3.25373 3.00112
# Velocity P-wave (km/s) = 4.27210 5.42405 4.88217
#
# Compressibility (1/GPa) = 0.04908372
#
# Stress axis : x y z
#
# Youngs Moduli (GPa) = 24.81633 43.53065 89.90314
#
# Poissons Ratio (x) = -0.07257 1.00078
# Poissons Ratio (y) = -0.04137 0.28673
# Poissons Ratio (z) = 0.27625 0.13883
#
# Static dielectric constant tensor:
#      x y z
#    x 1.979840 0.000000 0.035960 
#    y 0.000000 2.093510 0.000000 
#    z 0.035960 0.000000 1.930250 
# 
# From -- ./inp_files/59324.got.cif
#   From: 2010.05.17/outbox.cif.g08.bks.cpg/sg14_30_cif.got.tgz:59324.got - 2010.06.03 17:49:19.
