data_PCOD9249617
_publ_section_title
;
Structure prediction by ZEFSAII (Michael W. Deem and Ramdas Pophale) SiO2 
 PCOD9249617
Probable space group: P 21/C
;
_chemical_formula_sum "Si O2"
_cell_formula_units_Z 16
_cell_length_a 5.357357
_cell_length_b 4.907221
_cell_length_c 24.066611
_cell_angle_alpha 90.000000
_cell_angle_beta 72.778749
_cell_angle_gamma 90.000000
_cell_volume 604.339789
_symmetry_space_group_name_H-M "P 21/C"
_symmetry_group_IT_number 14
_symmetry_cell_setting 'monoclinic'
loop_
_space_group_symop_operation_xyz
x,y,z
-x,1/2+y,1/2-z
-x,-y,-z
x,1/2-y,1/2+z
loop_
_atom_site_type_symbol
_atom_site_label
_atom_site_fract_x
_atom_site_fract_y
_atom_site_fract_z
Si Si1 0.701476 0.432145 0.035609
Si Si2 0.026812 0.635251 0.175580
Si Si3 0.740337 0.586041 0.605982
Si Si4 0.680321 0.629606 0.295466
O O1 0.726024 0.122467 0.055499
O O2 0.612734 0.637893 0.090654
O O3 0.500000 0.500000 0.000000
O O4 0.000000 0.500000 0.000000
O O5 0.153612 0.341154 0.177545
O O6 0.746353 0.660982 0.226274
O O7 0.205576 0.834064 0.199178
O O8 0.993914 0.776937 0.117956
O O9 0.609800 0.397297 0.662230
#
# Coordination Sequence:
#
# PCOD9249617 Si02
#       4
#     4   4   4   4
#     4  12  30  51  76 108 144 193 262 324 368 436
#     4  10  23  42  69 108 149 186 237 296 369 464
#     4  12  26  45  80  98 148 195 242 306 386 438
#     4  10  23  42  69 108 149 186 237 296 369 464
#
# _framework density 26.475169999999999
#
# number of rings (size 3 to 8) (size 9 to 14) (size 15 to 20)
#    0.000    1.000    0.000    4.500   10.500    8.000 
#    0.000    0.000    0.000    0.000    0.000    0.000 
#    0.000    0.000    0.000    0.000    0.000    0.000 
#
# Total GULP energy -89350.089125 kJ/mol
# GULP energy per Si atom -5584.380570 kJ/mol
# Density = 2.641491 g / cm^3
# Si number density = 26.475170 Si / 1000 Ang^3
#
#
#
# Elastic Constant Matrix: (Units=GPa)
#
#
# Indices 1 2 3 4 5 6 
#
# 1 113.5373 33.3223 38.8746 0.0000 13.3258 0.0000
# 2 33.3223 139.8681 31.1655 0.0000 -1.3123 0.0000
# 3 38.8746 31.1655 70.4893 0.0000 18.3150 0.0000
# 4 0.0000 0.0000 0.0000 68.0988 0.0000 10.7785
# 5 13.3258 -1.3123 18.3150 0.0000 43.4801 0.0000
# 6 0.0000 0.0000 0.0000 10.7785 0.0000 37.4301
#
#
#
# Elastic Compliance Matrix: (Units=1/GPa)
#
#
# Indices 1 2 3 4 5 6 
#
# 1 0.011171 -0.001527 -0.005148 0.000000 -0.001301 0.000000
# 2 -0.001527 0.008286 -0.003378 0.000000 0.002141 0.000000
# 3 -0.005148 -0.003378 0.020364 0.000000 -0.007102 0.000000
# 4 0.000000 0.000000 0.000000 0.015386 0.000000 -0.004431
# 5 -0.001301 0.002141 -0.007102 0.000000 0.026454 0.000000
# 6 0.000000 0.000000 0.000000 -0.004431 0.000000 0.027992
#
#
# Mechanical properties :
#
#
# Convention : Reuss Voigt Hill
#
# Bulk Modulus (GPa) = 50.71738 58.95776 54.83757
# Shear Modulus (GPa) = 36.67569 44.50396 40.58983
#
# Velocity S-wave (km/s) = 3.72598 4.10441 3.91977
# Velocity P-wave (km/s) = 6.14075 6.69171 6.42214
#
# Compressibility (1/GPa) = 0.01971711
#
# Stress axis : x y z
#
# Youngs Moduli (GPa) = 89.51743 120.68513 49.10562
#
# Poissons Ratio (x) = 0.18424 0.25278
# Poissons Ratio (y) = 0.13666 0.16587
# Poissons Ratio (z) = 0.46081 0.40765
#
# Static dielectric constant tensor:
#      x y z
#    x 2.151460 0.000000 -0.157970 
#    y 0.000000 2.004360 0.000000 
#    z -0.157970 0.000000 2.241250 
# 
# From -- ./inp_files/62820.got.cif
#   From: 2010.05.17/outbox.cif.g08.bks.cpg/sg14_32_cif.got.tgz:62820.got - 2010.06.03 17:49:19.
