data_PCOD9249914
_publ_section_title
;
Structure prediction by ZEFSAII (Michael W. Deem and Ramdas Pophale) SiO2 
 PCOD9249914
Probable space group: P 21/C
;
_chemical_formula_sum "Si O2"
_cell_formula_units_Z 24
_cell_length_a 17.273747
_cell_length_b 9.258846
_cell_length_c 10.143195
_cell_angle_alpha 90.000000
_cell_angle_beta 37.620251
_cell_angle_gamma 90.000000
_cell_volume 990.263140
_symmetry_space_group_name_H-M "P 21/C"
_symmetry_group_IT_number 14
_symmetry_cell_setting 'monoclinic'
loop_
_space_group_symop_operation_xyz
x,y,z
-x,1/2+y,1/2-z
-x,-y,-z
x,1/2-y,1/2+z
loop_
_atom_site_type_symbol
_atom_site_label
_atom_site_fract_x
_atom_site_fract_y
_atom_site_fract_z
Si Si1 0.515723 0.425253 0.836455
Si Si2 0.966231 0.670762 0.016816
Si Si3 0.761700 0.600537 0.480673
Si Si4 0.377313 0.374795 0.791735
Si Si5 0.104939 0.658352 0.556385
Si Si6 0.629660 0.324286 0.319347
O O1 0.638440 0.506056 0.612853
O O2 0.386925 0.433051 0.927916
O O3 0.553144 0.259267 0.808785
O O4 0.500000 0.500000 0.000000
O O5 0.027468 0.791800 0.031868
O O6 0.823787 0.659044 0.262353
O O7 0.019223 0.702888 0.799421
O O8 0.000000 0.500000 0.000000
O O9 0.713669 0.744294 0.615103
O O10 0.849334 0.502177 0.458950
O O11 0.522853 0.322683 0.575658
O O12 0.347132 0.510449 0.743875
O O13 0.237213 0.743335 0.353867
#
# Coordination Sequence:
#
# PCOD9249914 Si02
#       6
#     4   4   4   4   4   4
#     4  11  22  40  65 101 141 185 236 282 361 440
#     4  10  24  47  72 104 142 191 245 303 365 429
#     4  10  23  44  70 102 140 189 231 300 353 437
#     4  11  23  41  64 105 138 183 233 292 366 427
#     4  10  24  45  73 101 140 193 241 296 362 432
#     4  10  24  39  66  97 141 182 230 295 357 422
#
# _framework density 24.235983000000001
#
# number of rings (size 3 to 8) (size 9 to 14) (size 15 to 20)
#    0.000    1.667    1.667    1.000    7.000    5.333 
#    3.000    5.833    0.000    0.000    0.000    0.000 
#    0.000    0.000    0.000    0.000    0.000    0.000 
#
# Total GULP energy -133867.257486 kJ/mol
# GULP energy per Si atom -5577.802395 kJ/mol
# Density = 2.418082 g / cm^3
# Si number density = 24.235983 Si / 1000 Ang^3
#
#
#
# Elastic Constant Matrix: (Units=GPa)
#
#
# Indices 1 2 3 4 5 6 
#
# 1 70.0065 35.9786 16.9366 0.0000 11.3634 0.0000
# 2 35.9786 130.7420 47.6061 0.0000 3.5230 0.0000
# 3 16.9366 47.6061 115.0657 0.0000 -7.3789 0.0000
# 4 0.0000 0.0000 0.0000 31.6283 0.0000 -9.9863
# 5 11.3634 3.5230 -7.3789 0.0000 25.3715 0.0000
# 6 0.0000 0.0000 0.0000 -9.9863 0.0000 30.7807
#
#
#
# Elastic Compliance Matrix: (Units=1/GPa)
#
#
# Indices 1 2 3 4 5 6 
#
# 1 0.018098 -0.004252 -0.001413 0.000000 -0.007926 0.000000
# 2 -0.004252 0.010148 -0.003608 0.000000 -0.000554 0.000000
# 3 -0.001413 -0.003608 0.010663 0.000000 0.004235 0.000000
# 4 0.000000 0.000000 0.000000 0.035226 0.000000 0.011428
# 5 -0.007926 -0.000554 0.004235 0.000000 0.044273 0.000000
# 6 0.000000 0.000000 0.000000 0.011428 0.000000 0.036196
#
#
# Mechanical properties :
#
#
# Convention : Reuss Voigt Hill
#
# Bulk Modulus (GPa) = 49.11025 57.42852 53.26938
# Shear Modulus (GPa) = 27.78756 31.90897 29.84827
#
# Velocity S-wave (km/s) = 3.38974 3.63243 3.51318
# Velocity P-wave (km/s) = 5.96890 6.42960 6.20353
#
# Compressibility (1/GPa) = 0.02036235
#
# Stress axis : x y z
#
# Youngs Moduli (GPa) = 55.25401 98.54641 93.78287
#
# Poissons Ratio (x) = 0.41906 0.13250
# Poissons Ratio (y) = 0.23496 0.33836
# Poissons Ratio (z) = 0.07807 0.35555
#
# Static dielectric constant tensor:
#      x y z
#    x 2.002170 0.000000 0.058630 
#    y 0.000000 1.944520 0.000000 
#    z 0.058630 0.000000 2.056240 
# 
# From -- ./inp_files/35685.got.cif
#   From: 2010.05.17/outbox.cif.g08.bks.cpg/sg14_18_cif.got.tgz:35685.got - 2010.06.03 17:49:19.
