data_PCOD9249032
_publ_section_title
;
Structure prediction by ZEFSAII (Michael W. Deem and Ramdas Pophale) SiO2 
 PCOD9249032
Probable space group: P 21/C
;
_chemical_formula_sum "Si O2"
_cell_formula_units_Z 32
_cell_length_a 17.709167
_cell_length_b 11.885603
_cell_length_c 14.311517
_cell_angle_alpha 90.000000
_cell_angle_beta 150.975476
_cell_angle_gamma 90.000000
_cell_volume 1461.542458
_symmetry_space_group_name_H-M "P 21/C"
_symmetry_group_IT_number 14
_symmetry_cell_setting 'monoclinic'
loop_
_space_group_symop_operation_xyz
x,y,z
-x,1/2+y,1/2-z
-x,-y,-z
x,1/2-y,1/2+z
loop_
_atom_site_type_symbol
_atom_site_label
_atom_site_fract_x
_atom_site_fract_y
_atom_site_fract_z
Si Si1 0.192664 0.721626 0.167017
Si Si2 0.915393 0.503087 0.010129
Si Si3 0.361935 0.852131 0.196330
Si Si4 0.380836 0.017647 0.456094
Si Si5 0.115990 0.460406 0.410705
Si Si6 0.909797 0.872337 0.805739
Si Si7 0.396036 0.728236 0.053916
Si Si8 0.764342 0.712572 0.950837
O O1 0.198954 0.602724 0.122519
O O2 0.299617 0.808768 0.226847
O O3 0.271415 0.709826 0.352502
O O4 0.021909 0.778778 0.973850
O O5 0.829236 0.617391 0.949464
O O6 0.000000 0.500000 0.000000
O O7 0.033161 0.471224 0.220705
O O8 0.538570 0.886511 0.395320
O O9 0.342037 0.756270 0.099195
O O10 0.271050 0.964748 0.071464
O O11 0.376788 0.902288 0.508395
O O12 0.500000 0.000000 0.500000
O O13 0.212222 0.069522 0.255976
O O14 0.155756 0.333396 0.479538
O O15 0.010357 0.525806 0.371141
O O16 0.825656 0.821683 0.621492
O O17 0.576494 0.768544 0.238164
#
# Coordination Sequence:
#
# PCOD9249032 Si02
#       8
#     4   4   4   4   4   4   4   4
#     4  11  25  47  69 109 142 185 245 299 364 438
#     4  11  25  44  68 104 145 181 242 304 359 431
#     4  11  24  45  70 103 148 181 240 305 355 432
#     4  12  25  46  69 107 144 190 250 299 361 438
#     4  10  22  45  72 100 136 191 241 289 360 440
#     4  10  24  44  74 101 141 189 239 301 359 426
#     4  12  26  43  76 106 143 199 237 308 378 428
#     4  11  23  45  71 102 142 195 236 289 373 438
#
# _framework density 21.894676
#
# number of rings (size 3 to 8) (size 9 to 14) (size 15 to 20)
#    0.000    1.000    5.000    0.750    3.500    3.000 
#    2.250    0.000    0.000    0.000    0.000    0.000 
#    0.000    0.000    0.000    0.000    0.000    0.000 
#
# Total GULP energy -178794.226666 kJ/mol
# GULP energy per Si atom -5587.319583 kJ/mol
# Density = 2.184484 g / cm^3
# Si number density = 21.894676 Si / 1000 Ang^3
#
#
#
# Elastic Constant Matrix: (Units=GPa)
#
#
# Indices 1 2 3 4 5 6 
#
# 1 53.7839 33.7256 28.0096 0.0000 -3.9050 0.0000
# 2 33.7256 117.0362 21.2990 0.0000 14.3364 0.0000
# 3 28.0096 21.2990 108.1768 0.0000 1.1056 0.0000
# 4 0.0000 0.0000 0.0000 28.6863 0.0000 -2.2029
# 5 -3.9050 14.3364 1.1056 0.0000 32.9097 0.0000
# 6 0.0000 0.0000 0.0000 -2.2029 0.0000 22.3297
#
#
#
# Elastic Compliance Matrix: (Units=1/GPa)
#
#
# Indices 1 2 3 4 5 6 
#
# 1 0.026621 -0.007481 -0.005487 0.000000 0.006602 0.000000
# 2 -0.007481 0.011467 -0.000261 0.000000 -0.005874 0.000000
# 3 -0.005487 -0.000261 0.010725 0.000000 -0.000898 0.000000
# 4 0.000000 0.000000 0.000000 0.035126 0.000000 0.003465
# 5 0.006602 -0.005874 -0.000898 0.000000 0.033759 0.000000
# 6 0.000000 0.000000 0.000000 0.003465 0.000000 0.045125
#
#
# Mechanical properties :
#
#
# Convention : Reuss Voigt Hill
#
# Bulk Modulus (GPa) = 44.73241 49.45171 47.09206
# Shear Modulus (GPa) = 25.41494 29.84932 27.63213
#
# Velocity S-wave (km/s) = 3.41072 3.69631 3.55639
# Velocity P-wave (km/s) = 5.99881 6.39157 6.19831
#
# Compressibility (1/GPa) = 0.02235515
#
# Stress axis : x y z
#
# Youngs Moduli (GPa) = 37.56385 87.20462 93.23639
#
# Poissons Ratio (x) = 0.65242 0.51162
# Poissons Ratio (y) = 0.28103 0.02430
# Poissons Ratio (z) = 0.20613 0.02273
#
# Static dielectric constant tensor:
#      x y z
#    x 1.824960 0.000000 -0.077920 
#    y 0.000000 1.786760 0.000000 
#    z -0.077920 0.000000 2.286100 
# 
# From -- ./inp_files/48933.got.cif
#   From: 2010.05.17/outbox.cif.g08.bks.cpg/sg14_25_cif.got.tgz:48933.got - 2010.06.03 17:49:19.
