data_PCOD9249407
_publ_section_title
;
Structure prediction by ZEFSAII (Michael W. Deem and Ramdas Pophale) SiO2 
 PCOD9249407
Probable space group: P 21/C
;
_chemical_formula_sum "Si O2"
_cell_formula_units_Z 24
_cell_length_a 14.830372
_cell_length_b 9.109630
_cell_length_c 9.683034
_cell_angle_alpha 90.000000
_cell_angle_beta 99.124405
_cell_angle_gamma 90.000000
_cell_volume 1291.617036
_symmetry_space_group_name_H-M "P 21/C"
_symmetry_group_IT_number 14
_symmetry_cell_setting 'monoclinic'
loop_
_space_group_symop_operation_xyz
x,y,z
-x,1/2+y,1/2-z
-x,-y,-z
x,1/2-y,1/2+z
loop_
_atom_site_type_symbol
_atom_site_label
_atom_site_fract_x
_atom_site_fract_y
_atom_site_fract_z
Si Si1 0.749816 0.403000 0.358788
Si Si2 0.929480 0.596260 0.072311
Si Si3 0.541663 0.423379 0.377740
Si Si4 0.757710 0.382043 0.039780
Si Si5 0.557504 0.426250 0.894888
Si Si6 0.072339 0.397937 0.599015
O O1 0.649250 0.457174 0.379813
O O2 0.741715 0.349896 0.197981
O O3 0.779034 0.267607 0.463264
O O4 0.828668 0.524265 0.382052
O O5 0.836403 0.502337 0.047893
O O6 0.952499 0.619171 0.242408
O O7 0.922493 0.747636 0.986216
O O8 0.000000 0.500000 0.000000
O O9 0.500000 0.500000 0.500000
O O10 0.477745 0.488510 0.245098
O O11 0.537634 0.247172 0.381404
O O12 0.664237 0.441151 0.951788
O O13 0.500000 0.500000 0.000000
O O14 0.000000 0.500000 0.500000
#
# Coordination Sequence:
#
# PCOD9249407 Si02
#       6
#     4   4   4   4   4   4
#     4  10  23  42  63  90 125 163 211 253 314 374
#     4  11  24  43  65  96 128 163 209 260 318 376
#     4  11  24  40  63  94 124 172 212 264 322 373
#     4  10  23  41  64  90 124 167 205 258 311 372
#     4  11  22  42  63  90 130 164 215 262 316 382
#     4  11  24  43  66  95 127 165 208 260 316 381
#
# _framework density 18.58136
#
# number of rings (size 3 to 8) (size 9 to 14) (size 15 to 20)
#    0.000    1.333    1.667    3.000    7.000    8.000 
#    0.000    0.000    0.000    0.000    0.000    0.000 
#    0.000    0.000    0.000    0.000    0.000    0.000 
#
# Total GULP energy -133993.407225 kJ/mol
# GULP energy per Si atom -5583.058634 kJ/mol
# Density = 1.853907 g / cm^3
# Si number density = 18.581360 Si / 1000 Ang^3
#
#
#
# Elastic Constant Matrix: (Units=GPa)
#
#
# Indices 1 2 3 4 5 6 
#
# 1 102.0660 76.1821 76.7319 0.0000 -9.9060 0.0000
# 2 76.1821 94.5040 77.3697 0.0000 0.2223 0.0000
# 3 76.7319 77.3697 199.3438 0.0000 -8.7589 0.0000
# 4 0.0000 0.0000 0.0000 43.8589 0.0000 0.0613
# 5 -9.9060 0.2223 -8.7589 0.0000 31.8636 0.0000
# 6 0.0000 0.0000 0.0000 0.0613 0.0000 31.4870
#
#
#
# Elastic Compliance Matrix: (Units=1/GPa)
#
#
# Indices 1 2 3 4 5 6 
#
# 1 0.027423 -0.020186 -0.002369 0.000000 0.008015 0.000000
# 2 -0.020186 0.030469 -0.004394 0.000000 -0.007696 0.000000
# 3 -0.002369 -0.004394 0.007696 0.000000 0.001410 0.000000
# 4 0.000000 0.000000 0.000000 0.022800 0.000000 -0.000044
# 5 0.008015 -0.007696 0.001410 0.000000 0.034317 0.000000
# 6 0.000000 0.000000 0.000000 -0.000044 0.000000 0.031759
#
#
# Mechanical properties :
#
#
# Convention : Reuss Voigt Hill
#
# Bulk Modulus (GPa) = 85.54003 95.16459 90.35231
# Shear Modulus (GPa) = 23.55605 32.48389 28.01997
#
# Velocity S-wave (km/s) = 3.56437 4.18568 3.88746
# Velocity P-wave (km/s) = 7.94198 8.64212 8.29943
#
# Compressibility (1/GPa) = 0.01169043
#
# Stress axis : x y z
#
# Youngs Moduli (GPa) = 36.46528 32.81982 129.94274
#
# Poissons Ratio (x) = 0.66250 0.30784
# Poissons Ratio (y) = 0.73609 0.57096
# Poissons Ratio (z) = 0.08639 0.14421
#
# Static dielectric constant tensor:
#      x y z
#    x 1.635420 0.000000 -0.014170 
#    y 0.000000 1.603560 0.000000 
#    z -0.014170 0.000000 1.625350 
# 
# From -- ./inp_files/15014.got.cif
#   From: 2010.05.17/outbox.cif.g08.bks.cpg/sg14_8_cif.got.tgz:15014.got - 2010.06.03 17:49:19.
