data_PCOD9249580
_publ_section_title
;
Structure prediction by ZEFSAII (Michael W. Deem and Ramdas Pophale) SiO2 
 PCOD9249580
Probable space group: P 21/C
;
_chemical_formula_sum "Si O2"
_cell_formula_units_Z 24
_cell_length_a 14.499012
_cell_length_b 9.256585
_cell_length_c 9.005617
_cell_angle_alpha 90.000000
_cell_angle_beta 111.607339
_cell_angle_gamma 90.000000
_cell_volume 1123.722833
_symmetry_space_group_name_H-M "P 21/C"
_symmetry_group_IT_number 14
_symmetry_cell_setting 'monoclinic'
loop_
_space_group_symop_operation_xyz
x,y,z
-x,1/2+y,1/2-z
-x,-y,-z
x,1/2-y,1/2+z
loop_
_atom_site_type_symbol
_atom_site_label
_atom_site_fract_x
_atom_site_fract_y
_atom_site_fract_z
Si Si1 0.383744 0.941797 0.767577
Si Si2 0.275990 0.431108 0.651252
Si Si3 0.770826 0.650684 0.716892
Si Si4 0.002866 0.641425 0.905011
Si Si5 0.436241 0.852430 0.134918
Si Si6 0.917516 0.097908 0.874157
O O1 0.408924 0.810050 0.670698
O O2 0.273784 0.011775 0.720855
O O3 0.453878 0.081290 0.779058
O O4 0.410851 0.876794 0.946132
O O5 0.287050 0.292465 0.762146
O O6 0.245902 0.377969 0.467550
O O7 0.369093 0.534721 0.686825
O O8 0.188032 0.527394 0.664735
O O9 0.887036 0.682900 0.814101
O O10 0.052450 0.615522 0.777050
O O11 0.000000 0.500000 0.000000
O O12 0.069577 0.753132 0.033408
O O13 0.000000 0.000000 0.000000
#
# Coordination Sequence:
#
# PCOD9249580 Si02
#       6
#     4   4   4   4   4   4
#     4  10  23  42  67  93 130 160 212 255 320 372
#     4  11  25  41  66  92 131 165 217 260 317 378
#     4  11  23  42  62  94 125 168 212 262 314 378
#     4  12  26  41  65  91 130 170 213 267 317 374
#     4  10  23  43  65  97 126 165 204 265 308 385
#     4  12  24  43  63  93 126 170 216 259 316 378
#
# _framework density 21.357579999999999
#
# number of rings (size 3 to 8) (size 9 to 14) (size 15 to 20)
#    0.000    1.000    3.333    2.000    4.667    3.333 
#    0.000    0.000    0.000    0.000    0.000    0.000 
#    0.000    0.000    0.000    0.000    0.000    0.000 
#
# Total GULP energy -134173.530229 kJ/mol
# GULP energy per Si atom -5590.563760 kJ/mol
# Density = 2.130897 g / cm^3
# Si number density = 21.357580 Si / 1000 Ang^3
#
#
#
# Elastic Constant Matrix: (Units=GPa)
#
#
# Indices 1 2 3 4 5 6 
#
# 1 125.0835 39.6098 35.6337 0.0000 -22.5983 0.0000
# 2 39.6098 131.4388 46.4347 0.0000 -23.0929 0.0000
# 3 35.6337 46.4347 80.6249 0.0000 -35.9488 0.0000
# 4 0.0000 0.0000 0.0000 -22.7895 0.0000 11.0325
# 5 -22.5983 -23.0929 -35.9488 0.0000 29.7829 0.0000
# 6 0.0000 0.0000 0.0000 11.0325 0.0000 45.2319
#
#
#
# Elastic Compliance Matrix: (Units=1/GPa)
#
#
# Indices 1 2 3 4 5 6 
#
# 1 0.009711 -0.001669 -0.001348 0.000000 0.004447 0.000000
# 2 -0.001669 0.009876 -0.004549 0.000000 0.000901 0.000000
# 3 -0.001348 -0.004549 0.029427 0.000000 0.030970 0.000000
# 4 0.000000 0.000000 0.000000 -0.039246 0.000000 0.009572
# 5 0.004447 0.000901 0.030970 0.000000 0.075031 0.000000
# 6 0.000000 0.000000 0.000000 0.009572 0.000000 0.019773
#
#
# Mechanical properties :
#
#
# Convention : Reuss Voigt Hill
#
# Bulk Modulus (GPa) = 29.51265 64.50038 47.00651
# Shear Modulus (GPa) = 38.16856 24.80967 31.48911
#
# Velocity S-wave (km/s) = 4.23202 3.41197 3.84393
# Velocity P-wave (km/s) = 6.14234 6.76667 6.46205
#
# Compressibility (1/GPa) = 0.03388378
#
# Stress axis : x y z
#
# Youngs Moduli (GPa) = 102.98090 101.25222 33.98210
#
# Poissons Ratio (x) = 0.16898 0.04579
# Poissons Ratio (y) = 0.17186 0.15458
# Poissons Ratio (z) = 0.13877 0.46057
#
# Static dielectric constant tensor:
#      x y z
#    x 1.790450 0.000000 0.027240 
#    y 0.000000 1.620920 0.000000 
#    z 0.027240 0.000000 1.741440 
# 
# From -- ./inp_files/15146.got.cif
#   From: 2010.05.17/outbox.cif.g08.bks.cpg/sg14_8_cif.got.tgz:15146.got - 2010.06.03 17:49:19.
