data_PCOD9249934
_publ_section_title
;
Structure prediction by ZEFSAII (Michael W. Deem and Ramdas Pophale) SiO2 
 PCOD9249934
Probable space group: P 21/C
;
_chemical_formula_sum "Si O2"
_cell_formula_units_Z 24
_cell_length_a 10.521749
_cell_length_b 11.551589
_cell_length_c 16.354362
_cell_angle_alpha 90.000000
_cell_angle_beta 32.865047
_cell_angle_gamma 90.000000
_cell_volume 1078.680426
_symmetry_space_group_name_H-M "P 21/C"
_symmetry_group_IT_number 14
_symmetry_cell_setting 'monoclinic'
loop_
_space_group_symop_operation_xyz
x,y,z
-x,1/2+y,1/2-z
-x,-y,-z
x,1/2-y,1/2+z
loop_
_atom_site_type_symbol
_atom_site_label
_atom_site_fract_x
_atom_site_fract_y
_atom_site_fract_z
Si Si1 0.227585 0.071379 0.349312
Si Si2 0.031939 0.980179 0.888135
Si Si3 0.441547 0.108868 0.918566
Si Si4 0.864197 0.622054 0.272993
Si Si5 0.484456 0.143567 0.376360
Si Si6 0.950022 0.869244 0.272606
O O1 0.152253 0.151694 0.313981
O O2 0.344561 0.120670 0.367873
O O3 0.421217 0.993183 0.198686
O O4 0.000000 0.000000 0.500000
O O5 0.292991 0.935966 0.733350
O O6 0.010176 0.090598 0.841582
O O7 0.822202 0.895164 0.974696
O O8 0.000000 0.000000 0.000000
O O9 0.573150 0.225270 0.824593
O O10 0.386771 0.115716 0.044819
O O11 0.007772 0.729844 0.237507
O O12 0.948433 0.486797 0.236735
O O13 0.307583 0.132904 0.547991
#
# Coordination Sequence:
#
# PCOD9249934 Si02
#       6
#     4   4   4   4   4   4
#     4  12  24  41  69 102 139 178 238 286 347 417
#     4  11  23  43  67  98 137 178 239 282 345 413
#     4  10  25  44  65  97 138 184 228 291 347 410
#     4  10  23  44  72 101 142 185 236 285 351 414
#     4  11  24  43  68  99 141 182 230 294 349 410
#     4  10  23  45  70 104 141 189 232 289 346 418
#
# _framework density 22.249406
#
# number of rings (size 3 to 8) (size 9 to 14) (size 15 to 20)
#    0.000    1.333    3.333    1.000    4.667    1.333 
#    0.000    6.667    0.000    0.000    0.000    0.000 
#    0.000    0.000    0.000    0.000    0.000    0.000 
#
# Total GULP energy -133624.033995 kJ/mol
# GULP energy per Si atom -5567.668083 kJ/mol
# Density = 2.219877 g / cm^3
# Si number density = 22.249406 Si / 1000 Ang^3
#
#
#
# Elastic Constant Matrix: (Units=GPa)
#
#
# Indices 1 2 3 4 5 6 
#
# 1 56.4497 -12.9350 3.6683 0.0000 12.9237 0.0000
# 2 -12.9350 62.2361 -23.6199 0.0000 -10.1954 0.0000
# 3 3.6683 -23.6199 64.6558 0.0000 16.3087 0.0000
# 4 0.0000 0.0000 0.0000 17.4287 0.0000 0.6507
# 5 12.9237 -10.1954 16.3087 0.0000 37.4639 0.0000
# 6 0.0000 0.0000 0.0000 0.6507 0.0000 18.6225
#
#
#
# Elastic Compliance Matrix: (Units=1/GPa)
#
#
# Indices 1 2 3 4 5 6 
#
# 1 0.019994 0.003794 0.001945 0.000000 -0.006711 0.000000
# 2 0.003794 0.019563 0.006649 0.000000 0.001121 0.000000
# 3 0.001945 0.006649 0.019656 0.000000 -0.007418 0.000000
# 4 0.000000 0.000000 0.000000 0.057452 0.000000 -0.002007
# 5 -0.006711 0.001121 -0.007418 0.000000 0.032542 0.000000
# 6 0.000000 0.000000 0.000000 -0.002007 0.000000 0.053768
#
#
# Mechanical properties :
#
#
# Convention : Reuss Voigt Hill
#
# Bulk Modulus (GPa) = 11.90628 13.06315 12.48471
# Shear Modulus (GPa) = 24.24862 29.11823 26.68343
#
# Velocity S-wave (km/s) = 3.30488 3.62155 3.46683
# Velocity P-wave (km/s) = 4.46384 4.83440 4.65281
#
# Compressibility (1/GPa) = 0.08398931
#
# Stress axis : x y z
#
# Youngs Moduli (GPa) = 50.01394 51.11583 50.87430
#
# Poissons Ratio (x) = -0.19394 -0.09893
# Poissons Ratio (y) = -0.18976 -0.33826
# Poissons Ratio (z) = -0.09725 -0.33986
#
# Static dielectric constant tensor:
#      x y z
#    x 1.931670 0.000000 -0.003680 
#    y 0.000000 1.906590 0.000000 
#    z -0.003680 0.000000 1.765300 
# 
# From -- ./inp_files/57641.got.cif
#   From: 2010.05.17/outbox.cif.g08.bks.cpg/sg14_29_cif.got.tgz:57641.got - 2010.06.03 17:49:19.
