data_PCOD9249878
_publ_section_title
;
Structure prediction by ZEFSAII (Michael W. Deem and Ramdas Pophale) SiO2 
 PCOD9249878
Probable space group: P 21/C
;
_chemical_formula_sum "Si O2"
_cell_formula_units_Z 16
_cell_length_a 8.848084
_cell_length_b 13.841711
_cell_length_c 6.879127
_cell_angle_alpha 90.000000
_cell_angle_beta 122.202364
_cell_angle_gamma 90.000000
_cell_volume 712.903211
_symmetry_space_group_name_H-M "P 21/C"
_symmetry_group_IT_number 14
_symmetry_cell_setting 'monoclinic'
loop_
_space_group_symop_operation_xyz
x,y,z
-x,1/2+y,1/2-z
-x,-y,-z
x,1/2-y,1/2+z
loop_
_atom_site_type_symbol
_atom_site_label
_atom_site_fract_x
_atom_site_fract_y
_atom_site_fract_z
Si Si1 0.737385 0.405139 0.172627
Si Si2 0.525682 0.909092 0.163615
Si Si3 0.240050 0.692801 0.234199
Si Si4 0.908332 0.928173 0.587698
O O1 0.571296 0.429420 0.197763
O O2 0.804566 0.305459 0.314878
O O3 0.850475 0.503524 0.227129
O O4 0.719300 0.366358 0.937198
O O5 0.729913 0.889163 0.359999
O O6 0.419143 0.823074 0.984201
O O7 0.500000 0.000000 0.000000
O O8 0.065367 0.648213 0.217325
O O9 0.000000 0.000000 0.500000
#
# Coordination Sequence:
#
# PCOD9249878 Si02
#       4
#     4   4   4   4
#     4  11  23  45  70  98 140 179 225 283 330 407
#     4  12  23  43  71  93 135 181 222 281 341 391
#     4  11  24  47  64 103 142 173 231 282 331 400
#     4  10  23  44  68 100 135 175 232 270 340 409
#
# _framework density 22.443439999999999
#
# number of rings (size 3 to 8) (size 9 to 14) (size 15 to 20)
#    0.000    1.000    7.500    0.750    0.000    1.000 
#    9.000    2.500    0.000    0.000    0.000    0.000 
#    0.000    0.000    0.000    0.000    0.000    0.000 
#
# Total GULP energy -89131.644524 kJ/mol
# GULP energy per Si atom -5570.727783 kJ/mol
# Density = 2.239236 g / cm^3
# Si number density = 22.443440 Si / 1000 Ang^3
#
#
#
# Elastic Constant Matrix: (Units=GPa)
#
#
# Indices 1 2 3 4 5 6 
#
# 1 149.7868 24.2588 62.9135 0.0000 4.8042 0.0000
# 2 24.2588 79.9429 42.1951 0.0000 12.9611 0.0000
# 3 62.9135 42.1951 148.4222 0.0000 8.3420 0.0000
# 4 0.0000 0.0000 0.0000 25.5943 0.0000 -2.3450
# 5 4.8042 12.9611 8.3420 0.0000 42.8508 0.0000
# 6 0.0000 0.0000 0.0000 -2.3450 0.0000 39.3495
#
#
#
# Elastic Compliance Matrix: (Units=1/GPa)
#
#
# Indices 1 2 3 4 5 6 
#
# 1 0.008162 -0.000757 -0.003241 0.000000 -0.000055 0.000000
# 2 -0.000757 0.015384 -0.003838 0.000000 -0.003821 0.000000
# 3 -0.003241 -0.003838 0.009218 0.000000 -0.000270 0.000000
# 4 0.000000 0.000000 0.000000 0.039286 0.000000 0.002341
# 5 -0.000055 -0.003821 -0.000270 0.000000 0.024551 0.000000
# 6 0.000000 0.000000 0.000000 0.002341 0.000000 0.025553
#
#
# Mechanical properties :
#
#
# Convention : Reuss Voigt Hill
#
# Bulk Modulus (GPa) = 58.50998 70.76520 64.63759
# Shear Modulus (GPa) = 34.83764 38.14456 36.49110
#
# Velocity S-wave (km/s) = 3.94412 4.12708 4.03664
# Velocity P-wave (km/s) = 6.84602 7.36948 7.11257
#
# Compressibility (1/GPa) = 0.01709110
#
# Stress axis : x y z
#
# Youngs Moduli (GPa) = 122.51930 65.00333 108.48612
#
# Poissons Ratio (x) = 0.04921 0.35165
# Poissons Ratio (y) = 0.09274 0.41635
# Poissons Ratio (z) = 0.39714 0.24947
#
# Static dielectric constant tensor:
#      x y z
#    x 1.690380 0.000000 -0.070410 
#    y 0.000000 1.870710 0.000000 
#    z -0.070410 0.000000 1.882410 
# 
# From -- ./inp_files/8228.got.cif
#   From: 2010.05.17/outbox.cif.g08.bks.cpg/sg14_5_cif.got.tgz:8228.got - 2010.06.03 17:49:19.
