data_PCOD9249866
_publ_section_title
;
Structure prediction by ZEFSAII (Michael W. Deem and Ramdas Pophale) SiO2 
 PCOD9249866
Probable space group: P 21/C
;
_chemical_formula_sum "Si O2"
_cell_formula_units_Z 20
_cell_length_a 7.961725
_cell_length_b 21.988822
_cell_length_c 7.724808
_cell_angle_alpha 90.000000
_cell_angle_beta 140.362868
_cell_angle_gamma 90.000000
_cell_volume 862.710794
_symmetry_space_group_name_H-M "P 21/C"
_symmetry_group_IT_number 14
_symmetry_cell_setting 'monoclinic'
loop_
_space_group_symop_operation_xyz
x,y,z
-x,1/2+y,1/2-z
-x,-y,-z
x,1/2-y,1/2+z
loop_
_atom_site_type_symbol
_atom_site_label
_atom_site_fract_x
_atom_site_fract_y
_atom_site_fract_z
Si Si1 0.749169 0.617047 0.396047
Si Si2 0.164365 0.231565 0.835781
Si Si3 0.866875 0.627898 0.110723
Si Si4 0.239941 0.460821 0.264411
Si Si5 0.693087 0.171572 0.260139
O O1 0.867542 0.684233 0.529016
O O2 0.803795 0.698942 0.088235
O O3 0.819304 0.598071 0.259260
O O4 0.441608 0.629986 0.198079
O O5 0.914198 0.214697 0.519999
O O6 0.448960 0.209722 0.990346
O O7 0.836683 0.571534 0.616117
O O8 0.161787 0.631607 0.268241
O O9 0.713757 0.592031 0.840612
O O10 0.500000 0.500000 0.500000
O O11 0.000000 0.500000 0.000000
#
# Coordination Sequence:
#
# PCOD9249866 Si02
#       5
#     4   4   4   4   4
#     4  10  26  47  77 115 146 198 259 301 387 461
#     4  10  24  44  72 116 157 186 242 319 388 460
#     4  12  24  50  79 110 154 208 242 320 391 447
#     4  12  29  53  75 106 158 205 263 318 359 447
#     4  10  23  44  67 113 161 182 239 311 383 458
#
# _framework density 23.182738000000001
#
# number of rings (size 3 to 8) (size 9 to 14) (size 15 to 20)
#    1.200    0.000    2.000    2.400    2.800    4.800 
#   10.800    0.000    0.000    0.000    0.000    0.000 
#    0.000    0.000    0.000    0.000    0.000    0.000 
#
# Total GULP energy -111689.128170 kJ/mol
# GULP energy per Si atom -5584.456409 kJ/mol
# Density = 2.312997 g / cm^3
# Si number density = 23.182738 Si / 1000 Ang^3
#
#
#
# Elastic Constant Matrix: (Units=GPa)
#
#
# Indices 1 2 3 4 5 6 
#
# 1 161.5477 39.3158 67.7449 0.0000 -19.8933 0.0000
# 2 39.3158 117.6315 79.2015 0.0000 1.2064 0.0000
# 3 67.7449 79.2015 175.2625 0.0000 16.0617 0.0000
# 4 0.0000 0.0000 0.0000 21.1836 0.0000 -4.9462
# 5 -19.8933 1.2064 16.0617 0.0000 28.2594 0.0000
# 6 0.0000 0.0000 0.0000 -4.9462 0.0000 27.9260
#
#
#
# Elastic Compliance Matrix: (Units=1/GPa)
#
#
# Indices 1 2 3 4 5 6 
#
# 1 0.009105 -0.000317 -0.004182 0.000000 0.008800 0.000000
# 2 -0.000317 0.012438 -0.005727 0.000000 0.002501 0.000000
# 3 -0.004182 -0.005727 0.010716 0.000000 -0.008790 0.000000
# 4 0.000000 0.000000 0.000000 0.049243 0.000000 0.008722
# 5 0.008800 0.002501 -0.008790 0.000000 0.046471 0.000000
# 6 0.000000 0.000000 0.000000 0.008722 0.000000 0.037354
#
#
# Mechanical properties :
#
#
# Convention : Reuss Voigt Hill
#
# Bulk Modulus (GPa) = 84.71098 91.88511 88.29805
# Shear Modulus (GPa) = 26.35541 33.35243 29.85392
#
# Velocity S-wave (km/s) = 3.37539 3.79710 3.59244
# Velocity P-wave (km/s) = 7.19797 7.67758 7.44164
#
# Compressibility (1/GPa) = 0.01180485
#
# Stress axis : x y z
#
# Youngs Moduli (GPa) = 109.83077 80.40133 93.31801
#
# Poissons Ratio (x) = 0.02551 0.39030
# Poissons Ratio (y) = 0.03485 0.53444
# Poissons Ratio (z) = 0.45936 0.46047
#
# Static dielectric constant tensor:
#      x y z
#    x 1.922640 0.000000 -0.019450 
#    y 0.000000 1.927860 0.000000 
#    z -0.019450 0.000000 1.893290 
# 
# From -- ./inp_files/10941.got.cif
#   From: 2010.05.17/outbox.cif.g08.bks.cpg/sg14_6_cif.got.tgz:10941.got - 2010.06.03 17:49:19.
