data_PCOD9249365
_publ_section_title
;
Structure prediction by ZEFSAII (Michael W. Deem and Ramdas Pophale) SiO2 
 PCOD9249365
Probable space group: P 21/C
;
_chemical_formula_sum "Si O2"
_cell_formula_units_Z 28
_cell_length_a 11.241755
_cell_length_b 5.512973
_cell_length_c 19.343125
_cell_angle_alpha 90.000000
_cell_angle_beta 90.507032
_cell_angle_gamma 90.000000
_cell_volume 1198.752745
_symmetry_space_group_name_H-M "P 21/C"
_symmetry_group_IT_number 14
_symmetry_cell_setting 'monoclinic'
loop_
_space_group_symop_operation_xyz
x,y,z
-x,1/2+y,1/2-z
-x,-y,-z
x,1/2-y,1/2+z
loop_
_atom_site_type_symbol
_atom_site_label
_atom_site_fract_x
_atom_site_fract_y
_atom_site_fract_z
Si Si1 0.481690 0.846854 0.418032
Si Si2 0.419499 0.973562 0.175920
Si Si3 0.347604 0.350520 0.817816
Si Si4 0.100005 0.651158 0.684290
Si Si5 0.662387 0.240457 0.466612
Si Si6 0.057541 0.750201 0.528064
Si Si7 0.142502 0.148681 0.737616
O O1 0.541768 0.737740 0.350161
O O2 0.414873 0.660827 0.468881
O O3 0.372870 0.010109 0.388667
O O4 0.591115 0.987335 0.454673
O O5 0.358983 0.980910 0.249941
O O6 0.541507 0.829150 0.185125
O O7 0.353186 0.869420 0.107678
O O8 0.224573 0.213734 0.803636
O O9 0.047687 0.726533 0.610606
O O10 0.151455 0.376353 0.684663
O O11 0.993731 0.631370 0.739331
O O12 0.176407 0.887445 0.706949
O O13 0.800510 0.236339 0.485088
O O14 0.000000 0.500000 0.500000
O O15 0.000000 0.000000 0.500000
#
# Coordination Sequence:
#
# PCOD9249365 Si02
#       7
#     4   4   4   4   4   4   4
#     4  10  23  43  66  97 136 172 228 270 354 403
#     4  11  22  39  64  97 131 169 224 269 346 397
#     4  11  23  36  64 102 126 173 215 290 324 405
#     4  10  23  45  63 100 127 179 219 271 342 398
#     4  10  25  44  67  93 134 183 218 282 339 418
#     4  12  28  45  71  99 133 180 234 282 334 403
#     4  10  23  40  71  92 137 169 219 275 340 400
#
# _framework density 23.357609
#
# number of rings (size 3 to 8) (size 9 to 14) (size 15 to 20)
#    0.000    1.429    1.429    2.143    8.000    1.143 
#    0.000    0.000    0.000    0.000    0.000    0.000 
#    0.000    0.000    0.000    0.000    0.000    0.000 
#
# Total GULP energy -156208.832462 kJ/mol
# GULP energy per Si atom -5578.886874 kJ/mol
# Density = 2.330445 g / cm^3
# Si number density = 23.357609 Si / 1000 Ang^3
#
#
#
# Elastic Constant Matrix: (Units=GPa)
#
#
# Indices 1 2 3 4 5 6 
#
# 1 57.1480 40.5629 17.9847 0.0000 23.8644 0.0000
# 2 40.5629 118.3456 39.9715 0.0000 23.4889 0.0000
# 3 17.9847 39.9715 95.7100 0.0000 13.9246 0.0000
# 4 0.0000 0.0000 0.0000 36.7616 0.0000 6.6547
# 5 23.8644 23.4889 13.9246 0.0000 46.0027 0.0000
# 6 0.0000 0.0000 0.0000 6.6547 0.0000 21.1960
#
#
#
# Elastic Compliance Matrix: (Units=1/GPa)
#
#
# Indices 1 2 3 4 5 6 
#
# 1 0.026920 -0.006979 -0.000660 0.000000 -0.010202 0.000000
# 2 -0.006979 0.012386 -0.003628 0.000000 -0.001606 0.000000
# 3 -0.000660 -0.003628 0.012310 0.000000 -0.001532 0.000000
# 4 0.000000 0.000000 0.000000 0.028841 0.000000 -0.009055
# 5 -0.010202 -0.001606 -0.001532 0.000000 0.028314 0.000000
# 6 0.000000 0.000000 0.000000 -0.009055 0.000000 0.050022
#
#
# Mechanical properties :
#
#
# Convention : Reuss Voigt Hill
#
# Bulk Modulus (GPa) = 34.38437 52.02686 43.20561
# Shear Modulus (GPa) = 26.17533 32.30436 29.23984
#
# Velocity S-wave (km/s) = 3.35122 3.72295 3.54196
# Velocity P-wave (km/s) = 5.45225 6.38771 5.93843
#
# Compressibility (1/GPa) = 0.02908298
#
# Stress axis : x y z
#
# Youngs Moduli (GPa) = 37.14731 80.73708 81.23455
#
# Poissons Ratio (x) = 0.56348 0.05358
# Poissons Ratio (y) = 0.25926 0.29469
# Poissons Ratio (z) = 0.02450 0.29289
#
# Static dielectric constant tensor:
#      x y z
#    x 1.911290 0.000000 -0.022180 
#    y 0.000000 1.967380 0.000000 
#    z -0.022180 0.000000 1.930890 
# 
# From -- ./inp_files/66512.got.cif
#   From: 2010.05.17/outbox.cif.g08.bks.cpg/sg14_34_cif.got.tgz:66512.got - 2010.06.03 17:49:19.
