data_PCOD9249037
_publ_section_title
;
Structure prediction by ZEFSAII (Michael W. Deem and Ramdas Pophale) SiO2 
 PCOD9249037
Probable space group: P 21/C
;
_chemical_formula_sum "Si O2"
_cell_formula_units_Z 24
_cell_length_a 15.704143
_cell_length_b 5.329462
_cell_length_c 21.674793
_cell_angle_alpha 90.000000
_cell_angle_beta 29.189969
_cell_angle_gamma 90.000000
_cell_volume 884.731324
_symmetry_space_group_name_H-M "P 21/C"
_symmetry_group_IT_number 14
_symmetry_cell_setting 'monoclinic'
loop_
_space_group_symop_operation_xyz
x,y,z
-x,1/2+y,1/2-z
-x,-y,-z
x,1/2-y,1/2+z
loop_
_atom_site_type_symbol
_atom_site_label
_atom_site_fract_x
_atom_site_fract_y
_atom_site_fract_z
Si Si1 0.142840 0.347455 0.615560
Si Si2 0.382098 0.903461 0.669200
Si Si3 0.903800 0.740644 0.116770
Si Si4 0.287838 0.619776 0.844745
Si Si5 0.803893 0.403298 0.295546
Si Si6 0.326267 0.655234 0.956497
O O1 0.205673 0.386247 0.645955
O O2 0.213394 0.595535 0.537405
O O3 0.936247 0.300353 0.741749
O O4 0.217931 0.095231 0.538943
O O5 0.188825 0.017735 0.797595
O O6 0.515620 0.129210 0.595077
O O7 0.401926 0.728023 0.716940
O O8 0.371892 0.734924 0.615233
O O9 0.790341 0.643822 0.130093
O O10 0.881758 0.529764 0.184106
O O11 0.104519 0.767536 0.971586
O O12 0.383829 0.636008 0.848984
#
# Coordination Sequence:
#
# PCOD9249037 Si02
#       6
#     4   4   4   4   4   4
#     4  12  28  49  77 111 146 203 250 320 362 462
#     4  11  27  43  75 108 154 202 241 320 375 456
#     4  10  22  45  72 106 142 194 256 312 362 449
#     4  10  23  43  71 105 146 199 248 308 366 447
#     4  11  26  48  78 107 146 198 266 304 381 435
#     4  12  29  46  75 114 158 193 250 305 393 444
#
# _framework density 27.126881999999998
#
# number of rings (size 3 to 8) (size 9 to 14) (size 15 to 20)
#    0.000    1.000    1.667    2.500   14.000    1.333 
#    0.000    0.000    0.000    0.000    0.000    0.000 
#    0.000    0.000    0.000    0.000    0.000    0.000 
#
# Total GULP energy -134529.981549 kJ/mol
# GULP energy per Si atom -5605.415898 kJ/mol
# Density = 2.706514 g / cm^3
# Si number density = 27.126882 Si / 1000 Ang^3
#
#
#
# Elastic Constant Matrix: (Units=GPa)
#
#
# Indices 1 2 3 4 5 6 
#
# 1 122.6174 19.4169 33.7945 0.0000 16.1043 0.0000
# 2 19.4169 133.4880 24.9849 0.0000 6.5676 0.0000
# 3 33.7945 24.9849 22.6348 0.0000 5.3372 0.0000
# 4 0.0000 0.0000 0.0000 39.7970 0.0000 0.7033
# 5 16.1043 6.5676 5.3372 0.0000 44.6209 0.0000
# 6 0.0000 0.0000 0.0000 0.7033 0.0000 36.0987
#
#
#
# Elastic Compliance Matrix: (Units=1/GPa)
#
#
# Indices 1 2 3 4 5 6 
#
# 1 0.014799 0.002517 -0.024211 0.000000 -0.002816 0.000000
# 2 0.002517 0.009871 -0.014507 0.000000 -0.000626 0.000000
# 3 -0.024211 -0.014507 0.096498 0.000000 -0.000669 0.000000
# 4 0.000000 0.000000 0.000000 0.025136 0.000000 -0.000490
# 5 -0.002816 -0.000626 -0.000669 0.000000 0.023600 0.000000
# 6 0.000000 0.000000 0.000000 -0.000490 0.000000 0.027711
#
#
# Mechanical properties :
#
#
# Convention : Reuss Voigt Hill
#
# Bulk Modulus (GPa) = 20.50522 48.34809 34.42666
# Shear Modulus (GPa) = 17.46591 37.47292 27.46941
#
# Velocity S-wave (km/s) = 2.54019 3.72074 3.18563
# Velocity P-wave (km/s) = 4.02229 6.02663 5.12343
#
# Compressibility (1/GPa) = 0.04876806
#
# Stress axis : x y z
#
# Youngs Moduli (GPa) = 67.57057 101.30483 10.36292
#
# Poissons Ratio (x) = -0.25502 0.25089
# Poissons Ratio (y) = -0.17010 0.15033
# Poissons Ratio (z) = 1.63593 1.46962
#
# Static dielectric constant tensor:
#      x y z
#    x 2.145490 0.000000 -0.042820 
#    y 0.000000 2.112580 0.000000 
#    z -0.042820 0.000000 2.142910 
# 
# From -- ./inp_files/74051.got.cif
#   From: 2010.05.17/outbox.cif.g08.bks.cpg/sg14_38_cif.got.tgz:74051.got - 2010.06.03 17:49:19.
