data_PCOD9249467
_publ_section_title
;
Structure prediction by ZEFSAII (Michael W. Deem and Ramdas Pophale) SiO2 
 PCOD9249467
Probable space group: P 21/C
;
_chemical_formula_sum "Si O2"
_cell_formula_units_Z 28
_cell_length_a 14.600700
_cell_length_b 5.272401
_cell_length_c 17.692481
_cell_angle_alpha 90.000000
_cell_angle_beta 113.861207
_cell_angle_gamma 90.000000
_cell_volume 1245.569259
_symmetry_space_group_name_H-M "P 21/C"
_symmetry_group_IT_number 14
_symmetry_cell_setting 'monoclinic'
loop_
_space_group_symop_operation_xyz
x,y,z
-x,1/2+y,1/2-z
-x,-y,-z
x,1/2-y,1/2+z
loop_
_atom_site_type_symbol
_atom_site_label
_atom_site_fract_x
_atom_site_fract_y
_atom_site_fract_z
Si Si1 0.754676 0.163639 0.413478
Si Si2 0.284851 0.164002 0.809618
Si Si3 0.846389 0.670502 0.374352
Si Si4 0.439952 0.484047 0.241119
Si Si5 0.025891 0.413340 0.377398
Si Si6 0.121024 0.785184 0.776833
Si Si7 0.797343 0.914675 0.578366
O O1 0.792954 0.438661 0.400701
O O2 0.647073 0.095801 0.341932
O O3 0.824115 0.941573 0.402814
O O4 0.756459 0.113453 0.504054
O O5 0.209966 0.315244 0.726819
O O6 0.283120 0.282729 0.893004
O O7 0.387700 0.119205 0.800314
O O8 0.231264 0.892899 0.800220
O O9 0.965600 0.617943 0.406198
O O10 0.489614 0.229515 0.222853
O O11 0.934615 0.236761 0.320816
O O12 0.060700 0.519239 0.308183
O O13 0.126533 0.279913 0.437988
O O14 0.132053 0.551732 0.837089
#
# Coordination Sequence:
#
# PCOD9249467 Si02
#       7
#     4   4   4   4   4   4   4
#     4  11  27  45  64 101 136 170 209 284 343 371
#     4  10  23  41  69  97 124 178 219 265 326 396
#     4  11  23  42  67  92 140 181 227 259 311 387
#     4  11  24  46  76  96 121 163 221 270 333 420
#     4  11  20  35  61  94 128 189 231 260 292 376
#     4  11  20  36  63  94 132 174 230 266 303 376
#     4  11  25  39  64  95 142 174 218 275 321 370
#
# _framework density 22.479682
#
# number of rings (size 3 to 8) (size 9 to 14) (size 15 to 20)
#    0.000    1.143    2.857    4.286    8.000    1.143 
#    0.000    1.429    0.000    0.000    0.000    0.000 
#    0.000    0.000    0.000    0.000    0.000    0.000 
#
# Total GULP energy -156319.224772 kJ/mol
# GULP energy per Si atom -5582.829456 kJ/mol
# Density = 2.242852 g / cm^3
# Si number density = 22.479682 Si / 1000 Ang^3
#
#
#
# Elastic Constant Matrix: (Units=GPa)
#
#
# Indices 1 2 3 4 5 6 
#
# 1 98.0851 27.6734 10.4622 0.0000 -9.5626 0.0000
# 2 27.6734 99.2496 18.0192 0.0000 -4.8445 0.0000
# 3 10.4622 18.0192 63.6929 0.0000 -8.2901 0.0000
# 4 0.0000 0.0000 0.0000 31.8485 0.0000 -2.0860
# 5 -9.5626 -4.8445 -8.2901 0.0000 10.6680 0.0000
# 6 0.0000 0.0000 0.0000 -2.0860 0.0000 28.1661
#
#
#
# Elastic Compliance Matrix: (Units=1/GPa)
#
#
# Indices 1 2 3 4 5 6 
#
# 1 0.011919 -0.002878 0.000085 0.000000 0.009443 0.000000
# 2 -0.002878 0.011390 -0.002684 0.000000 0.000507 0.000000
# 3 0.000085 -0.002684 0.018131 0.000000 0.012947 0.000000
# 4 0.000000 0.000000 0.000000 0.031552 0.000000 0.002337
# 5 0.009443 0.000507 0.012947 0.000000 0.112494 0.000000
# 6 0.000000 0.000000 0.000000 0.002337 0.000000 0.035677
#
#
# Mechanical properties :
#
#
# Convention : Reuss Voigt Hill
#
# Bulk Modulus (GPa) = 32.80026 41.48190 37.14108
# Shear Modulus (GPa) = 20.63757 27.79471 24.21614
#
# Velocity S-wave (km/s) = 3.03323 3.52012 3.28570
# Velocity P-wave (km/s) = 5.18556 5.91733 5.56349
#
# Compressibility (1/GPa) = 0.03048757
#
# Stress axis : x y z
#
# Youngs Moduli (GPa) = 83.90179 87.79629 55.15512
#
# Poissons Ratio (x) = 0.25266 -0.00472
# Poissons Ratio (y) = 0.24146 0.14801
# Poissons Ratio (z) = -0.00717 0.23561
#
# Static dielectric constant tensor:
#      x y z
#    x 1.872320 0.000000 -0.013450 
#    y 0.000000 1.926840 0.000000 
#    z -0.013450 0.000000 1.882420 
# 
# From -- ./inp_files/58473.got.cif
#   From: 2010.05.17/outbox.cif.g08.bks.cpg/sg14_30_cif.got.tgz:58473.got - 2010.06.03 17:49:19.
