data_PCOD9249228
_publ_section_title
;
Structure prediction by ZEFSAII (Michael W. Deem and Ramdas Pophale) SiO2 
 PCOD9249228
Probable space group: P 21/C
;
_chemical_formula_sum "Si O2"
_cell_formula_units_Z 30
_cell_length_a 9.508478
_cell_length_b 14.121924
_cell_length_c 9.004183
_cell_angle_alpha 90.000000
_cell_angle_beta 108.168635
_cell_angle_gamma 90.000000
_cell_volume 1148.783293
_symmetry_space_group_name_H-M "P 21/C"
_symmetry_group_IT_number 14
_symmetry_cell_setting 'monoclinic'
loop_
_space_group_symop_operation_xyz
x,y,z
-x,1/2+y,1/2-z
-x,-y,-z
x,1/2-y,1/2+z
loop_
_atom_site_type_symbol
_atom_site_label
_atom_site_fract_x
_atom_site_fract_y
_atom_site_fract_z
Si Si1 0.644195 0.963806 0.842259
Si Si2 0.474740 0.740665 0.562115
Si Si3 0.317508 0.923316 0.868241
Si Si4 0.657072 0.659523 0.888206
Si Si5 0.069416 0.787731 0.222009
Si Si6 0.876707 0.804182 0.891164
Si Si7 0.500000 0.000000 0.500000
Si Si8 0.776894 0.354951 0.941952
O O1 0.483762 0.945326 0.864574
O O2 0.736165 0.871560 0.825027
O O3 0.609344 0.018775 0.680814
O O4 0.726991 0.017010 0.003479
O O5 0.345452 0.682725 0.439194
O O6 0.543957 0.679580 0.715605
O O7 0.605277 0.764623 0.494554
O O8 0.399387 0.842087 0.577619
O O9 0.214481 0.929375 0.689680
O O10 0.816529 0.696154 0.891059
O O11 0.632673 0.560263 0.957216
O O12 0.985144 0.704398 0.286718
O O13 0.137564 0.852695 0.374923
O O14 0.179798 0.739686 0.138067
O O15 0.954862 0.834454 0.069773
#
# Coordination Sequence:
#
# PCOD9249228 Si02
#       8
#     4   4   4   4   4   4   2   4
#     4  11  24  41  62  97 134 162 208 265 350 387
#     4  12  20  38  65  93 122 161 207 266 320 387
#     4  11  22  39  64  94 128 163 203 278 327 386
#     4  12  23  37  64  98 127 163 207 258 343 386
#     4  10  23  37  65  88 121 171 237 254 303 386
#     4  11  22  42  62  91 131 174 210 268 318 394
#     4  12  24  36  58 100 134 160 198 260 316 414
#     4  11  20  40  63  93 120 166 225 269 305 373
#
# _framework density 26.114585999999999
#
# number of rings (size 3 to 8) (size 9 to 14) (size 15 to 20)
#    0.000    0.800    5.333    3.200    0.000    0.000 
#    0.000    1.333    0.000    1.600    0.000    0.000 
#    0.000    0.000    0.000    0.000    0.000    0.000 
#
# Total GULP energy -167244.921227 kJ/mol
# GULP energy per Si atom -5574.830708 kJ/mol
# Density = 2.605515 g / cm^3
# Si number density = 26.114586 Si / 1000 Ang^3
#
#
#
# Elastic Constant Matrix: (Units=GPa)
#
#
# Indices 1 2 3 4 5 6 
#
# 1 71.3325 -7.6943 31.2554 0.0000 -14.9427 0.0000
# 2 -7.6943 29.6011 18.2164 0.0000 -13.6254 0.0000
# 3 31.2554 18.2164 205.8365 0.0000 1.6691 0.0000
# 4 0.0000 0.0000 0.0000 47.2097 0.0000 -7.6316
# 5 -14.9427 -13.6254 1.6691 0.0000 39.5972 0.0000
# 6 0.0000 0.0000 0.0000 -7.6316 0.0000 21.7678
#
#
#
# Elastic Compliance Matrix: (Units=1/GPa)
#
#
# Indices 1 2 3 4 5 6 
#
# 1 0.019975 0.013561 -0.004334 0.000000 0.012387 0.000000
# 2 0.013561 0.052316 -0.006879 0.000000 0.023409 0.000000
# 3 -0.004334 -0.006879 0.006160 0.000000 -0.004262 0.000000
# 4 0.000000 0.000000 0.000000 0.022455 0.000000 0.007872
# 5 0.012387 0.023409 -0.004262 0.000000 0.038164 0.000000
# 6 0.000000 0.000000 0.000000 0.007872 0.000000 0.048699
#
#
# Mechanical properties :
#
#
# Convention : Reuss Voigt Hill
#
# Bulk Modulus (GPa) = 12.02679 43.36946 27.69813
# Shear Modulus (GPa) = 23.72050 39.38111 31.55080
#
# Velocity S-wave (km/s) = 3.01711 3.88753 3.47964
# Velocity P-wave (km/s) = 4.09300 6.06580 5.17429
#
# Compressibility (1/GPa) = 0.08314768
#
# Stress axis : x y z
#
# Youngs Moduli (GPa) = 50.06166 19.11457 162.34732
#
# Poissons Ratio (x) = -0.25921 0.70357
# Poissons Ratio (y) = -0.67889 1.11678
# Poissons Ratio (z) = 0.21696 0.13149
#
# Static dielectric constant tensor:
#      x y z
#    x 1.987430 0.000000 0.058070 
#    y 0.000000 2.732890 0.000000 
#    z 0.058070 0.000000 2.051430 
# 
# From -- ./inp_files/13173.got.cif
#   From: 2010.05.17/outbox.cif.g08.bks.cpg/sg14_7_cif.got.tgz:13173.got - 2010.06.03 17:49:19.
