data_PCOD9249620
_publ_section_title
;
Structure prediction by ZEFSAII (Michael W. Deem and Ramdas Pophale) SiO2 
 PCOD9249620
Probable space group: P 21/C
;
_chemical_formula_sum "Si O2"
_cell_formula_units_Z 20
_cell_length_a 14.964663
_cell_length_b 8.774368
_cell_length_c 9.519112
_cell_angle_alpha 90.000000
_cell_angle_beta 144.012171
_cell_angle_gamma 90.000000
_cell_volume 734.464657
_symmetry_space_group_name_H-M "P 21/C"
_symmetry_group_IT_number 14
_symmetry_cell_setting 'monoclinic'
loop_
_space_group_symop_operation_xyz
x,y,z
-x,1/2+y,1/2-z
-x,-y,-z
x,1/2-y,1/2+z
loop_
_atom_site_type_symbol
_atom_site_label
_atom_site_fract_x
_atom_site_fract_y
_atom_site_fract_z
Si Si1 0.263973 0.426973 0.404195
Si Si2 0.321647 0.734589 0.625585
Si Si3 0.799714 0.011900 0.669274
Si Si4 0.016806 0.767848 0.913119
Si Si5 0.370384 0.297302 0.827590
O O1 0.299678 0.600924 0.483651
O O2 0.345923 0.329468 0.633330
O O3 0.320656 0.365603 0.327451
O O4 0.087034 0.378799 0.194063
O O5 0.338875 0.900327 0.578302
O O6 0.164787 0.752556 0.509793
O O7 0.457397 0.686729 0.900372
O O8 0.736385 0.916151 0.721414
O O9 0.916271 0.144004 0.866523
O O10 0.898609 0.894326 0.704467
#
# Coordination Sequence:
#
# PCOD9249620 Si02
#       5
#     4   4   4   4   4
#     4  11  25  46  68  98 136 177 221 280 331 400
#     4  12  23  40  73  97 129 180 223 271 339 394
#     4  10  23  45  66  96 134 179 220 278 332 399
#     4  10  23  42  69  93 136 173 225 271 334 394
#     4  11  25  47  68  98 139 175 223 278 337 395
#
# _framework density 27.230718
#
# number of rings (size 3 to 8) (size 9 to 14) (size 15 to 20)
#    0.000    1.200    2.000    3.000    8.400    0.800 
#    7.200    5.000    0.000    0.000    0.000    0.000 
#    0.000    0.000    0.000    0.000    0.000    0.000 
#
# Total GULP energy -112148.816101 kJ/mol
# GULP energy per Si atom -5607.440805 kJ/mol
# Density = 2.716874 g / cm^3
# Si number density = 27.230718 Si / 1000 Ang^3
#
#
#
# Elastic Constant Matrix: (Units=GPa)
#
#
# Indices 1 2 3 4 5 6 
#
# 1 83.3052 8.5540 35.4714 0.0000 15.1929 0.0000
# 2 8.5540 73.2635 46.8705 0.0000 -9.3453 0.0000
# 3 35.4714 46.8705 151.8768 0.0000 8.2140 0.0000
# 4 0.0000 0.0000 0.0000 37.4472 0.0000 -15.8809
# 5 15.1929 -9.3453 8.2140 0.0000 46.9233 0.0000
# 6 0.0000 0.0000 0.0000 -15.8809 0.0000 25.1789
#
#
#
# Elastic Compliance Matrix: (Units=1/GPa)
#
#
# Indices 1 2 3 4 5 6 
#
# 1 0.014043 -0.000252 -0.002982 0.000000 -0.004075 0.000000
# 2 -0.000252 0.017938 -0.005729 0.000000 0.004657 0.000000
# 3 -0.002982 -0.005729 0.009145 0.000000 -0.001776 0.000000
# 4 0.000000 0.000000 0.000000 0.036455 0.000000 0.022993
# 5 -0.004075 0.004657 -0.001776 0.000000 0.023869 0.000000
# 6 0.000000 0.000000 0.000000 0.022993 0.000000 0.054218
#
#
# Mechanical properties :
#
#
# Convention : Reuss Voigt Hill
#
# Bulk Modulus (GPa) = 43.10236 54.47082 48.78659
# Shear Modulus (GPa) = 27.57465 36.41319 31.99392
#
# Velocity S-wave (km/s) = 3.18564 3.66076 3.43143
# Velocity P-wave (km/s) = 5.42162 6.15752 5.80125
#
# Compressibility (1/GPa) = 0.02320058
#
# Stress axis : x y z
#
# Youngs Moduli (GPa) = 71.21161 55.74812 109.35320
#
# Poissons Ratio (x) = 0.01404 0.32605
# Poissons Ratio (y) = 0.01794 0.62646
# Poissons Ratio (z) = 0.21232 0.31937
#
# Static dielectric constant tensor:
#      x y z
#    x 2.085360 0.000000 0.002430 
#    y 0.000000 2.167610 0.000000 
#    z 0.002430 0.000000 2.155720 
# 
# From -- ./inp_files/27957.got.cif
#   From: 2010.05.17/outbox.cif.g08.bks.cpg/sg14_14_cif.got.tgz:27957.got - 2010.06.03 17:49:19.
