data_PCOD9249215
_publ_section_title
;
Structure prediction by ZEFSAII (Michael W. Deem and Ramdas Pophale) SiO2 
 PCOD9249215
Probable space group: P 21/C
;
_chemical_formula_sum "Si O2"
_cell_formula_units_Z 32
_cell_length_a 19.293195
_cell_length_b 8.829126
_cell_length_c 24.814414
_cell_angle_alpha 90.000000
_cell_angle_beta 158.010455
_cell_angle_gamma 90.000000
_cell_volume 1582.723728
_symmetry_space_group_name_H-M "P 21/C"
_symmetry_group_IT_number 14
_symmetry_cell_setting 'monoclinic'
loop_
_space_group_symop_operation_xyz
x,y,z
-x,1/2+y,1/2-z
-x,-y,-z
x,1/2-y,1/2+z
loop_
_atom_site_type_symbol
_atom_site_label
_atom_site_fract_x
_atom_site_fract_y
_atom_site_fract_z
Si Si1 0.929315 0.475081 0.303452
Si Si2 0.263153 0.990957 0.217775
Si Si3 0.727787 0.301172 0.461946
Si Si4 0.531877 0.096424 0.228814
Si Si5 0.993438 0.248212 0.010656
Si Si6 0.301929 0.948745 0.468087
Si Si7 0.891075 0.516433 0.987444
Si Si8 0.800985 0.803481 0.528512
O O1 0.836830 0.466274 0.296145
O O2 0.067635 0.621647 0.398629
O O3 0.056124 0.331160 0.379061
O O4 0.767056 0.459375 0.142706
O O5 0.482035 0.005478 0.375131
O O6 0.179743 0.864809 0.117290
O O7 0.175902 0.148961 0.135811
O O8 0.634202 0.178030 0.353483
O O9 0.596487 0.448216 0.357750
O O10 0.722505 0.208874 0.515452
O O11 0.706414 0.033074 0.321733
O O12 0.397327 0.223113 0.108456
O O13 0.992330 0.360143 0.959520
O O14 0.000495 0.358686 0.067151
O O15 0.179589 0.078095 0.409438
O O16 0.818362 0.593678 0.988305
#
# Coordination Sequence:
#
# PCOD9249215 Si02
#       8
#     4   4   4   4   4   4   4   4
#     4  11  25  43  63  87 130 177 215 251 310 390
#     4  11  23  41  63  92 125 163 214 267 312 387
#     4  11  22  37  64  94 126 161 211 266 321 379
#     4  11  20  35  62  96 123 153 201 271 331 361
#     4  10  23  36  63  92 125 160 206 264 342 369
#     4  12  24  42  63  92 126 175 216 257 307 383
#     4  11  19  37  58  92 127 159 194 259 328 392
#     4  11  23  39  64  93 129 160 212 266 317 381
#
# _framework density 20.218311
#
# number of rings (size 3 to 8) (size 9 to 14) (size 15 to 20)
#    0.000    1.000    3.750    3.375    0.000    2.000 
#    0.000    0.000    0.000    0.750    0.000    0.000 
#    0.000    0.000    0.000    0.000    0.000    0.000 
#
# Total GULP energy -178208.920388 kJ/mol
# GULP energy per Si atom -5569.028762 kJ/mol
# Density = 2.017229 g / cm^3
# Si number density = 20.218311 Si / 1000 Ang^3
#
#
#
# Elastic Constant Matrix: (Units=GPa)
#
#
# Indices 1 2 3 4 5 6 
#
# 1 58.2860 25.3346 10.1999 0.0000 5.5594 0.0000
# 2 25.3346 127.3680 40.9385 0.0000 -1.7825 0.0000
# 3 10.1999 40.9385 66.3470 0.0000 5.5732 0.0000
# 4 0.0000 0.0000 0.0000 18.7309 0.0000 5.0049
# 5 5.5594 -1.7825 5.5732 0.0000 30.4413 0.0000
# 6 0.0000 0.0000 0.0000 5.0049 0.0000 22.7019
#
#
#
# Elastic Compliance Matrix: (Units=1/GPa)
#
#
# Indices 1 2 3 4 5 6 
#
# 1 0.019200 -0.003768 -0.000319 0.000000 -0.003669 0.000000
# 2 -0.003768 0.010621 -0.006179 0.000000 0.002441 0.000000
# 3 -0.000319 -0.006179 0.019256 0.000000 -0.003829 0.000000
# 4 0.000000 0.000000 0.000000 0.056730 0.000000 -0.012507
# 5 -0.003669 0.002441 -0.003829 0.000000 0.034364 0.000000
# 6 0.000000 0.000000 0.000000 -0.012507 0.000000 0.046806
#
#
# Mechanical properties :
#
#
# Convention : Reuss Voigt Hill
#
# Bulk Modulus (GPa) = 35.03219 44.99411 40.01315
# Shear Modulus (GPa) = 23.03888 26.07668 24.55778
#
# Velocity S-wave (km/s) = 3.37932 3.59521 3.48894
# Velocity P-wave (km/s) = 5.70885 6.28781 6.00531
#
# Compressibility (1/GPa) = 0.02854517
#
# Stress axis : x y z
#
# Youngs Moduli (GPa) = 52.08257 94.15208 51.93239
#
# Poissons Ratio (x) = 0.35477 0.01654
# Poissons Ratio (y) = 0.19625 0.32091
# Poissons Ratio (z) = 0.01659 0.58180
#
# Static dielectric constant tensor:
#      x y z
#    x 1.787300 0.000000 0.026150 
#    y 0.000000 1.784200 0.000000 
#    z 0.026150 0.000000 1.735930 
# 
# From -- ./inp_files/77997.got.cif
#   From: 2010.05.17/outbox.cif.g08.bks.cpg/sg14_39_cif.got.tgz:77997.got - 2010.06.03 17:49:19.
