data_PCOD9249492
_publ_section_title
;
Structure prediction by ZEFSAII (Michael W. Deem and Ramdas Pophale) SiO2 
 PCOD9249492
Probable space group: P 21/C
;
_chemical_formula_sum "Si O2"
_cell_formula_units_Z 20
_cell_length_a 12.017724
_cell_length_b 5.129262
_cell_length_c 14.033323
_cell_angle_alpha 90.000000
_cell_angle_beta 106.891863
_cell_angle_gamma 90.000000
_cell_volume 827.720472
_symmetry_space_group_name_H-M "P 21/C"
_symmetry_group_IT_number 14
_symmetry_cell_setting 'monoclinic'
loop_
_space_group_symop_operation_xyz
x,y,z
-x,1/2+y,1/2-z
-x,-y,-z
x,1/2-y,1/2+z
loop_
_atom_site_type_symbol
_atom_site_label
_atom_site_fract_x
_atom_site_fract_y
_atom_site_fract_z
Si Si1 0.580562 0.249023 0.533693
Si Si2 0.150409 0.806715 0.236762
Si Si3 0.737401 0.992419 0.930837
Si Si4 0.511742 0.679996 0.806817
Si Si5 0.872083 0.803116 0.144281
O O1 0.500000 0.500000 0.500000
O O2 0.596805 0.238848 0.650802
O O3 0.682918 0.285041 0.485689
O O4 0.500000 0.000000 0.500000
O O5 0.169874 0.529266 0.293114
O O6 0.011648 0.809747 0.178866
O O7 0.169315 0.033188 0.319804
O O8 0.789181 0.115571 0.847857
O O9 0.633717 0.792910 0.875959
O O10 0.824787 0.850233 0.025903
O O11 0.512303 0.373614 0.787114
#
# Coordination Sequence:
#
# PCOD9249492 Si02
#       5
#     4   4   4   4   4
#     4  10  23  42  61  93 132 168 223 279 325 393
#     4  10  24  44  70 104 138 175 229 287 346 413
#     4  11  25  43  75  95 139 186 227 275 359 401
#     4  11  25  42  64  95 135 175 227 281 330 401
#     4  10  24  45  68 104 140 173 231 289 339 419
#
# _framework density 24.162745999999999
#
# number of rings (size 3 to 8) (size 9 to 14) (size 15 to 20)
#    0.000    1.600    0.000    3.000    5.600    9.600 
#    0.000    6.000    0.000    0.000    0.000    0.000 
#    0.000    0.000    0.000    0.000    0.000    0.000 
#
# Total GULP energy -111883.017095 kJ/mol
# GULP energy per Si atom -5594.150855 kJ/mol
# Density = 2.410775 g / cm^3
# Si number density = 24.162746 Si / 1000 Ang^3
#
#
#
# Elastic Constant Matrix: (Units=GPa)
#
#
# Indices 1 2 3 4 5 6 
#
# 1 120.9096 8.8397 3.5393 0.0000 -24.1202 0.0000
# 2 8.8397 118.1717 7.5776 0.0000 3.6877 0.0000
# 3 3.5393 7.5776 125.4453 0.0000 -5.7782 0.0000
# 4 0.0000 0.0000 0.0000 42.5106 0.0000 -8.0522
# 5 -24.1202 3.6877 -5.7782 0.0000 40.9340 0.0000
# 6 0.0000 0.0000 0.0000 -8.0522 0.0000 16.7201
#
#
#
# Elastic Compliance Matrix: (Units=1/GPa)
#
#
# Indices 1 2 3 4 5 6 
#
# 1 0.009464 -0.000888 0.000047 0.000000 0.005663 0.000000
# 2 -0.000888 0.008607 -0.000558 0.000000 -0.001377 0.000000
# 3 0.000047 -0.000558 0.008060 0.000000 0.001216 0.000000
# 4 0.000000 0.000000 0.000000 0.025885 0.000000 0.012466
# 5 0.005663 -0.001377 0.001216 0.000000 0.028062 0.000000
# 6 0.000000 0.000000 0.000000 0.012466 0.000000 0.065812
#
#
# Mechanical properties :
#
#
# Convention : Reuss Voigt Hill
#
# Bulk Modulus (GPa) = 42.85553 44.93775 43.89664
# Shear Modulus (GPa) = 31.95596 43.00428 37.48012
#
# Velocity S-wave (km/s) = 3.64061 4.22332 3.94274
# Velocity P-wave (km/s) = 5.95372 6.51308 6.23967
#
# Compressibility (1/GPa) = 0.02333421
#
# Stress axis : x y z
#
# Youngs Moduli (GPa) = 105.66457 116.17838 124.06948
#
# Poissons Ratio (x) = 0.10313 -0.00589
# Poissons Ratio (y) = 0.09380 0.06927
# Poissons Ratio (z) = -0.00502 0.06487
#
# Static dielectric constant tensor:
#      x y z
#    x 1.926260 0.000000 -0.007240 
#    y 0.000000 1.885210 0.000000 
#    z -0.007240 0.000000 2.093680 
# 
# From -- ./inp_files/67615.got.cif
#   From: 2010.05.17/outbox.cif.g08.bks.cpg/sg14_34_cif.got.tgz:67615.got - 2010.06.03 17:49:19.
