data_PCOD9249669
_publ_section_title
;
Structure prediction by ZEFSAII (Michael W. Deem and Ramdas Pophale) SiO2 
 PCOD9249669
Probable space group: P 21/C
;
_chemical_formula_sum "Si O2"
_cell_formula_units_Z 20
_cell_length_a 10.478960
_cell_length_b 9.214230
_cell_length_c 9.438622
_cell_angle_alpha 90.000000
_cell_angle_beta 70.304827
_cell_angle_gamma 90.000000
_cell_volume 858.036298
_symmetry_space_group_name_H-M "P 21/C"
_symmetry_group_IT_number 14
_symmetry_cell_setting 'monoclinic'
loop_
_space_group_symop_operation_xyz
x,y,z
-x,1/2+y,1/2-z
-x,-y,-z
x,1/2-y,1/2+z
loop_
_atom_site_type_symbol
_atom_site_label
_atom_site_fract_x
_atom_site_fract_y
_atom_site_fract_z
Si Si1 0.474313 0.639681 0.334935
Si Si2 0.180950 0.409431 0.034753
Si Si3 0.334697 0.838407 0.610268
Si Si4 0.296593 0.107147 0.029845
Si Si5 0.875919 0.093738 0.728278
O O1 0.388985 0.762747 0.448412
O O2 0.457512 0.661576 0.175452
O O3 0.618321 0.635188 0.357419
O O4 0.398397 0.487948 0.397474
O O5 0.158003 0.508709 0.904688
O O6 0.277133 0.503853 0.099898
O O7 0.244740 0.253738 0.981053
O O8 0.035932 0.381384 0.162904
O O9 0.214123 0.738474 0.719296
O O10 0.170718 0.007865 0.124669
#
# Coordination Sequence:
#
# PCOD9249669 Si02
#       5
#     4   4   4   4   4
#     4  10  24  42  66  93 134 163 216 264 330 376
#     4  11  23  39  68  92 126 178 213 262 327 375
#     4  11  22  44  63  95 127 174 208 273 317 388
#     4  10  24  42  64  95 129 169 215 270 315 388
#     4  10  23  43  60  95 133 163 223 268 307 393
#
# _framework density 23.309038999999999
#
# number of rings (size 3 to 8) (size 9 to 14) (size 15 to 20)
#    0.000    1.600    2.000    1.200    5.600    4.000 
#    0.000    3.000    0.000    0.000    0.000    0.000 
#    0.000    0.000    0.000    0.000    0.000    0.000 
#
# Total GULP energy -112025.571169 kJ/mol
# GULP energy per Si atom -5601.278558 kJ/mol
# Density = 2.325599 g / cm^3
# Si number density = 23.309039 Si / 1000 Ang^3
#
#
#
# Elastic Constant Matrix: (Units=GPa)
#
#
# Indices 1 2 3 4 5 6 
#
# 1 59.7522 2.7702 11.5520 0.0000 -12.5409 0.0000
# 2 2.7702 87.3197 1.6104 0.0000 -5.5462 0.0000
# 3 11.5520 1.6104 52.1636 0.0000 -3.3173 0.0000
# 4 0.0000 0.0000 0.0000 6.5036 0.0000 4.5358
# 5 -12.5409 -5.5462 -3.3173 0.0000 44.9072 0.0000
# 6 0.0000 0.0000 0.0000 4.5358 0.0000 33.9307
#
#
#
# Elastic Compliance Matrix: (Units=1/GPa)
#
#
# Indices 1 2 3 4 5 6 
#
# 1 0.018496 -0.000208 -0.003781 0.000000 0.004860 0.000000
# 2 -0.000208 0.011549 -0.000224 0.000000 0.001352 0.000000
# 3 -0.003781 -0.000224 0.020040 0.000000 0.000397 0.000000
# 4 0.000000 0.000000 0.000000 0.169572 0.000000 -0.022668
# 5 0.004860 0.001352 0.000397 0.000000 0.023822 0.000000
# 6 0.000000 0.000000 0.000000 -0.022668 0.000000 0.032502
#
#
# Mechanical properties :
#
#
# Convention : Reuss Voigt Hill
#
# Bulk Modulus (GPa) = 24.00489 25.67786 24.84137
# Shear Modulus (GPa) = 16.76203 29.28849 23.02526
#
# Velocity S-wave (km/s) = 2.68455 3.54860 3.14638
# Velocity P-wave (km/s) = 4.46430 5.27544 4.88673
#
# Compressibility (1/GPa) = 0.04165819
#
# Stress axis : x y z
#
# Youngs Moduli (GPa) = 54.06439 86.58940 49.90052
#
# Poissons Ratio (x) = 0.01804 0.18866
# Poissons Ratio (y) = 0.01126 0.01120
# Poissons Ratio (z) = 0.20440 0.01943
#
# Static dielectric constant tensor:
#      x y z
#    x 1.859090 0.000000 -0.006450 
#    y 0.000000 1.853510 0.000000 
#    z -0.006450 0.000000 1.871050 
# 
# From -- ./inp_files/27554.got.cif
#   From: 2010.05.17/outbox.cif.g08.bks.cpg/sg14_14_cif.got.tgz:27554.got - 2010.06.03 17:49:19.
