data_PCOD9249497
_publ_section_title
;
Structure prediction by ZEFSAII (Michael W. Deem and Ramdas Pophale) SiO2 
 PCOD9249497
Probable space group: P 21/C
;
_chemical_formula_sum "Si O2"
_cell_formula_units_Z 20
_cell_length_a 4.925903
_cell_length_b 17.848317
_cell_length_c 11.667766
_cell_angle_alpha 90.000000
_cell_angle_beta 128.469352
_cell_angle_gamma 90.000000
_cell_volume 803.155969
_symmetry_space_group_name_H-M "P 21/C"
_symmetry_group_IT_number 14
_symmetry_cell_setting 'monoclinic'
loop_
_space_group_symop_operation_xyz
x,y,z
-x,1/2+y,1/2-z
-x,-y,-z
x,1/2-y,1/2+z
loop_
_atom_site_type_symbol
_atom_site_label
_atom_site_fract_x
_atom_site_fract_y
_atom_site_fract_z
Si Si1 0.073872 0.482895 0.752653
Si Si2 0.763603 0.094027 0.382861
Si Si3 0.522208 0.621329 0.812921
Si Si4 0.459326 0.706897 0.353448
Si Si5 0.838351 0.372612 0.510570
O O1 0.821838 0.461805 0.790138
O O2 0.225602 0.565341 0.780932
O O3 0.909062 0.451927 0.591350
O O4 0.419396 0.431000 0.858343
O O5 0.103274 0.093790 0.548020
O O6 0.706699 0.173914 0.306926
O O7 0.488385 0.704909 0.851948
O O8 0.463011 0.623712 0.661124
O O9 0.819252 0.661159 0.458481
O O10 0.239075 0.683228 0.405195
#
# Coordination Sequence:
#
# PCOD9249497 Si02
#       5
#     4   4   4   4   4
#     4  10  23  43  63  92 129 163 203 256 310 368
#     4  10  23  42  62  91 130 162 202 256 309 365
#     4  12  23  40  69  95 119 167 213 253 307 369
#     4  10  24  42  60  89 128 163 203 256 309 365
#     4  10  24  43  62  91 128 163 205 257 309 367
#
# _framework density 24.901759999999999
#
# number of rings (size 3 to 8) (size 9 to 14) (size 15 to 20)
#    0.000    1.600    0.000    3.000    0.000   12.800 
#    0.000    6.000    0.000    0.000    0.000    0.000 
#    0.000    0.000    0.000    0.000    0.000    0.000 
#
# Total GULP energy -112204.739474 kJ/mol
# GULP energy per Si atom -5610.236974 kJ/mol
# Density = 2.484508 g / cm^3
# Si number density = 24.901760 Si / 1000 Ang^3
#
#
#
# Elastic Constant Matrix: (Units=GPa)
#
#
# Indices 1 2 3 4 5 6 
#
# 1 54.6867 -9.7171 -9.0444 0.0000 5.8330 0.0000
# 2 -9.7171 100.8595 12.1311 0.0000 -5.4253 0.0000
# 3 -9.0444 12.1311 125.4333 0.0000 11.4538 0.0000
# 4 0.0000 0.0000 0.0000 20.7163 0.0000 0.2583
# 5 5.8330 -5.4253 11.4538 0.0000 19.3078 0.0000
# 6 0.0000 0.0000 0.0000 0.2583 0.0000 28.2138
#
#
#
# Elastic Compliance Matrix: (Units=1/GPa)
#
#
# Indices 1 2 3 4 5 6 
#
# 1 0.019540 0.001297 0.001892 0.000000 -0.006661 0.000000
# 2 0.001297 0.010358 -0.001203 0.000000 0.003233 0.000000
# 3 0.001892 -0.001203 0.008784 0.000000 -0.006121 0.000000
# 4 0.000000 0.000000 0.000000 0.048277 0.000000 -0.000442
# 5 -0.006661 0.003233 -0.006121 0.000000 0.058344 0.000000
# 6 0.000000 0.000000 0.000000 -0.000442 0.000000 0.035448
#
#
# Mechanical properties :
#
#
# Convention : Reuss Voigt Hill
#
# Bulk Modulus (GPa) = 23.44554 29.74652 26.59603
# Shear Modulus (GPa) = 26.17827 32.82157 29.49992
#
# Velocity S-wave (km/s) = 3.24583 3.63442 3.44561
# Velocity P-wave (km/s) = 4.84592 5.43907 5.15104
#
# Compressibility (1/GPa) = 0.04265204
#
# Stress axis : x y z
#
# Youngs Moduli (GPa) = 51.17775 96.54043 113.84264
#
# Poissons Ratio (x) = -0.12518 -0.21536
# Poissons Ratio (y) = -0.06636 0.13701
# Poissons Ratio (z) = -0.09682 0.11619
#
# Static dielectric constant tensor:
#      x y z
#    x 1.913520 0.000000 0.006390 
#    y 0.000000 1.960420 0.000000 
#    z 0.006390 0.000000 1.943840 
# 
# From -- ./inp_files/5435.got.cif
#   From: 2010.05.17/outbox.cif.g08.bks.cpg/sg14_3_cif.got.tgz:5435.got - 2010.06.03 17:49:19.
