data_PCOD9249315
_publ_section_title
;
Structure prediction by ZEFSAII (Michael W. Deem and Ramdas Pophale) SiO2 
 PCOD9249315
Probable space group: P 21/C
;
_chemical_formula_sum "Si O2"
_cell_formula_units_Z 32
_cell_length_a 10.737419
_cell_length_b 12.732722
_cell_length_c 19.545978
_cell_angle_alpha 90.000000
_cell_angle_beta 152.903334
_cell_angle_gamma 90.000000
_cell_volume 1217.195593
_symmetry_space_group_name_H-M "P 21/C"
_symmetry_group_IT_number 14
_symmetry_cell_setting 'monoclinic'
loop_
_space_group_symop_operation_xyz
x,y,z
-x,1/2+y,1/2-z
-x,-y,-z
x,1/2-y,1/2+z
loop_
_atom_site_type_symbol
_atom_site_label
_atom_site_fract_x
_atom_site_fract_y
_atom_site_fract_z
Si Si1 0.514844 0.361500 0.120592
Si Si2 0.030955 0.818421 0.058111
Si Si3 0.295902 0.431497 0.835455
Si Si4 0.533772 0.638456 0.384913
Si Si5 0.143707 0.574601 0.478953
Si Si6 0.868371 0.615130 0.936222
Si Si7 0.210927 0.993921 0.818342
Si Si8 0.632148 0.803031 0.172592
O O1 0.424074 0.245656 0.050575
O O2 0.341283 0.389692 0.102844
O O3 0.820509 0.336232 0.297506
O O4 0.518698 0.462334 0.073601
O O5 0.700249 0.821949 0.898755
O O6 0.099300 0.700322 0.069171
O O7 0.145154 0.898162 0.058854
O O8 0.165480 0.434854 0.694959
O O9 0.035309 0.453552 0.756125
O O10 0.378662 0.309495 0.870798
O O11 0.707391 0.530820 0.470086
O O12 0.253483 0.587335 0.275861
O O13 0.313472 0.664239 0.523289
O O14 0.742822 0.664942 0.804228
O O15 0.000000 0.500000 0.000000
O O16 0.185819 0.113541 0.781020
O O17 0.500000 0.000000 0.000000
#
# Coordination Sequence:
#
# PCOD9249315 Si02
#       8
#     4   4   4   4   4   4   4   4
#     4  11  25  39  66 100 133 177 220 276 342 409
#     4  11  21  38  66  97 132 178 216 270 341 419
#     4  12  25  43  68  98 132 182 237 279 331 408
#     4  10  23  40  63  96 131 163 225 278 335 388
#     4  11  21  41  69  94 129 173 224 273 335 410
#     4  11  26  41  63 102 147 172 212 283 351 411
#     4  11  23  46  69  91 127 178 235 283 323 395
#     4  11  25  43  68 101 133 182 223 282 347 396
#
# _framework density 26.289942
#
# number of rings (size 3 to 8) (size 9 to 14) (size 15 to 20)
#    0.000    1.000    6.250    0.375    7.000    0.000 
#    0.000    0.000    0.000    2.250    0.000    0.000 
#    0.000    0.000    0.000    0.000    0.000    0.000 
#
# Total GULP energy -178210.433136 kJ/mol
# GULP energy per Si atom -5569.076035 kJ/mol
# Density = 2.623010 g / cm^3
# Si number density = 26.289942 Si / 1000 Ang^3
#
#
#
# Elastic Constant Matrix: (Units=GPa)
#
#
# Indices 1 2 3 4 5 6 
#
# 1 105.2008 67.2018 22.4909 0.0000 25.3244 0.0000
# 2 67.2018 249.2698 14.5252 0.0000 29.9637 0.0000
# 3 22.4909 14.5252 57.1606 0.0000 11.5772 0.0000
# 4 0.0000 0.0000 0.0000 15.5752 0.0000 16.4565
# 5 25.3244 29.9637 11.5772 0.0000 24.8344 0.0000
# 6 0.0000 0.0000 0.0000 16.4565 0.0000 43.3239
#
#
#
# Elastic Compliance Matrix: (Units=1/GPa)
#
#
# Indices 1 2 3 4 5 6 
#
# 1 0.014103 -0.002417 -0.002885 0.000000 -0.010119 0.000000
# 2 -0.002417 0.005107 0.000444 0.000000 -0.003903 0.000000
# 3 -0.002885 0.000444 0.019909 0.000000 -0.006875 0.000000
# 4 0.000000 0.000000 0.000000 0.107248 0.000000 -0.040738
# 5 -0.010119 -0.003903 -0.006875 0.000000 0.058500 0.000000
# 6 0.000000 0.000000 0.000000 -0.040738 0.000000 0.038556
#
#
# Mechanical properties :
#
#
# Convention : Reuss Voigt Hill
#
# Bulk Modulus (GPa) = 34.01152 68.89635 51.45394
# Shear Modulus (GPa) = 19.01571 37.24090 28.12830
#
# Velocity S-wave (km/s) = 2.69235 3.76779 3.27452
# Velocity P-wave (km/s) = 4.75712 6.72246 5.82330
#
# Compressibility (1/GPa) = 0.02940180
#
# Stress axis : x y z
#
# Youngs Moduli (GPa) = 70.90866 195.81752 50.22759
#
# Poissons Ratio (x) = 0.47339 0.14491
# Poissons Ratio (y) = 0.17142 -0.02231
# Poissons Ratio (z) = 0.20458 -0.08696
#
# Static dielectric constant tensor:
#      x y z
#    x 2.131390 0.000000 -0.100180 
#    y 0.000000 2.223370 0.000000 
#    z -0.100180 0.000000 2.309670 
# 
# From -- ./inp_files/73319.got.cif
#   From: 2010.05.17/outbox.cif.g08.bks.cpg/sg14_37_cif.got.tgz:73319.got - 2010.06.03 17:49:19.
