data_PCOD9249676
_publ_section_title
;
Structure prediction by ZEFSAII (Michael W. Deem and Ramdas Pophale) SiO2 
 PCOD9249676
Probable space group: P 21/C
;
_chemical_formula_sum "Si O2"
_cell_formula_units_Z 28
_cell_length_a 5.263992
_cell_length_b 9.189168
_cell_length_c 22.387760
_cell_angle_alpha 90.000000
_cell_angle_beta 88.574095
_cell_angle_gamma 90.000000
_cell_volume 1082.598823
_symmetry_space_group_name_H-M "P 21/C"
_symmetry_group_IT_number 14
_symmetry_cell_setting 'monoclinic'
loop_
_space_group_symop_operation_xyz
x,y,z
-x,1/2+y,1/2-z
-x,-y,-z
x,1/2-y,1/2+z
loop_
_atom_site_type_symbol
_atom_site_label
_atom_site_fract_x
_atom_site_fract_y
_atom_site_fract_z
Si Si1 0.903454 0.257746 0.582780
Si Si2 0.581129 0.244100 0.473194
Si Si3 0.049113 0.600748 0.214670
Si Si4 0.100403 0.099949 0.927269
Si Si5 0.695282 0.523203 0.897579
Si Si6 0.669352 0.348050 0.200115
Si Si7 0.262621 0.135980 0.790540
O O1 0.665203 0.222142 0.541233
O O2 0.954979 0.427376 0.569804
O O3 0.847736 0.241611 0.653565
O O4 0.115770 0.134053 0.569729
O O5 0.331001 0.342798 0.467474
O O6 0.834169 0.320869 0.443374
O O7 0.544911 0.089427 0.440230
O O8 0.797584 0.501711 0.214672
O O9 0.964412 0.761512 0.231203
O O10 0.146393 0.585242 0.146919
O O11 0.225663 0.520744 0.261301
O O12 0.221670 0.130428 0.861056
O O13 0.549186 0.614245 0.847853
O O14 0.519276 0.300200 0.260801
#
# Coordination Sequence:
#
# PCOD9249676 Si02
#       7
#     4   4   4   4   4   4   4
#     4  11  27  46  74 108 146 194 251 303 370 443
#     4  12  27  50  76 107 149 195 248 308 368 443
#     4  10  23  43  62 104 136 185 240 298 364 440
#     4  12  29  47  75 108 150 196 244 307 377 439
#     4  10  23  46  71 102 144 189 251 300 372 439
#     4  10  25  41  71 101 142 186 242 300 367 439
#     4  11  25  41  71  97 146 185 242 297 368 434
#
# _framework density 25.863689000000001
#
# number of rings (size 3 to 8) (size 9 to 14) (size 15 to 20)
#    0.000    1.143    1.429    2.143   16.000    1.714 
#    0.000    0.000    0.000    0.000    0.000    0.000 
#    0.000    0.000    0.000    0.000    0.000    0.000 
#
# Total GULP energy -156654.546748 kJ/mol
# GULP energy per Si atom -5594.805241 kJ/mol
# Density = 2.580482 g / cm^3
# Si number density = 25.863689 Si / 1000 Ang^3
#
#
#
# Elastic Constant Matrix: (Units=GPa)
#
#
# Indices 1 2 3 4 5 6 
#
# 1 94.4536 15.8720 8.8874 0.0000 -14.0352 0.0000
# 2 15.8720 118.8993 21.5348 0.0000 -12.2601 0.0000
# 3 8.8874 21.5348 125.8841 0.0000 -18.2738 0.0000
# 4 0.0000 0.0000 0.0000 44.4999 0.0000 2.6845
# 5 -14.0352 -12.2601 -18.2738 0.0000 45.8414 0.0000
# 6 0.0000 0.0000 0.0000 2.6845 0.0000 34.5101
#
#
#
# Elastic Compliance Matrix: (Units=1/GPa)
#
#
# Indices 1 2 3 4 5 6 
#
# 1 0.011253 -0.001158 -0.000150 0.000000 0.003076 0.000000
# 2 -0.001158 0.008947 -0.001224 0.000000 0.001550 0.000000
# 3 -0.000150 -0.001224 0.008608 0.000000 0.003058 0.000000
# 4 0.000000 0.000000 0.000000 0.022578 0.000000 -0.001756
# 5 0.003076 0.001550 0.003058 0.000000 0.024390 0.000000
# 6 0.000000 0.000000 0.000000 -0.001756 0.000000 0.029114
#
#
# Mechanical properties :
#
#
# Convention : Reuss Voigt Hill
#
# Bulk Modulus (GPa) = 42.11529 47.98060 45.04794
# Shear Modulus (GPa) = 42.42103 44.49980 43.46041
#
# Velocity S-wave (km/s) = 4.05430 4.15245 4.10367
# Velocity P-wave (km/s) = 6.18348 6.44842 6.31734
#
# Compressibility (1/GPa) = 0.02374435
#
# Stress axis : x y z
#
# Youngs Moduli (GPa) = 88.86570 111.77508 116.17569
#
# Poissons Ratio (x) = 0.12942 0.01741
# Poissons Ratio (y) = 0.10289 0.14216
# Poissons Ratio (z) = 0.01332 0.13677
#
# Static dielectric constant tensor:
#      x y z
#    x 2.090220 0.000000 0.018970 
#    y 0.000000 2.013360 0.000000 
#    z 0.018970 0.000000 2.049270 
# 
# From -- ./inp_files/75678.got.cif
#   From: 2010.05.17/outbox.cif.g08.bks.cpg/sg14_38_cif.got.tgz:75678.got - 2010.06.03 17:49:19.
