data_PCOD9249526
_publ_section_title
;
Structure prediction by ZEFSAII (Michael W. Deem and Ramdas Pophale) SiO2 
 PCOD9249526
Probable space group: P 21/C
;
_chemical_formula_sum "Si O2"
_cell_formula_units_Z 28
_cell_length_a 7.765516
_cell_length_b 30.667101
_cell_length_c 5.087742
_cell_angle_alpha 90.000000
_cell_angle_beta 62.535610
_cell_angle_gamma 90.000000
_cell_volume 1075.071752
_symmetry_space_group_name_H-M "P 21/C"
_symmetry_group_IT_number 14
_symmetry_cell_setting 'monoclinic'
loop_
_space_group_symop_operation_xyz
x,y,z
-x,1/2+y,1/2-z
-x,-y,-z
x,1/2-y,1/2+z
loop_
_atom_site_type_symbol
_atom_site_label
_atom_site_fract_x
_atom_site_fract_y
_atom_site_fract_z
Si Si1 0.629430 0.870510 0.836195
Si Si2 0.005981 0.039916 0.790595
Si Si3 0.421358 0.906739 0.471806
Si Si4 0.924295 0.126426 0.655901
Si Si5 0.665641 0.004674 0.665747
Si Si6 0.377677 0.272655 0.776018
Si Si7 0.911446 0.225246 0.679343
O O1 0.492124 0.888198 0.698413
O O2 0.580618 0.819194 0.881517
O O3 0.858213 0.872989 0.614865
O O4 0.583599 0.895746 0.136721
O O5 0.943883 0.090064 0.874628
O O6 0.846703 0.026719 0.688591
O O7 0.225945 0.037403 0.526591
O O8 0.000000 0.000000 0.000000
O O9 0.231617 0.886833 0.458082
O O10 0.393306 0.959152 0.506790
O O11 0.874683 0.175220 0.779345
O O12 0.500000 0.000000 0.000000
O O13 0.444405 0.236089 0.523978
O O14 0.144526 0.271129 0.980038
O O15 0.840065 0.241719 0.449996
#
# Coordination Sequence:
#
# PCOD9249526 Si02
#       7
#     4   4   4   4   4   4   4
#     4  11  24  43  66  98 130 181 226 273 351 410
#     4  10  23  42  66 100 131 180 233 277 353 411
#     4  11  26  42  67 101 135 175 236 277 338 410
#     4  10  24  45  69  98 141 179 221 296 335 410
#     4  10  23  42  64  94 136 179 227 287 336 412
#     4   9  17  34  61  88 126 166 216 278 335 400
#     4   9  19  38  63  96 126 174 224 270 342 407
#
# _framework density 26.044772999999999
#
# number of rings (size 3 to 8) (size 9 to 14) (size 15 to 20)
#    0.000    2.000    0.000    1.714    6.000    6.286 
#    5.143    4.286    0.000    0.000    0.000    0.000 
#    0.000    0.000    0.000    0.000    0.000    0.000 
#
# Total GULP energy -156698.297821 kJ/mol
# GULP energy per Si atom -5596.367779 kJ/mol
# Density = 2.598549 g / cm^3
# Si number density = 26.044773 Si / 1000 Ang^3
#
#
#
# Elastic Constant Matrix: (Units=GPa)
#
#
# Indices 1 2 3 4 5 6 
#
# 1 125.0479 -16.1825 11.0806 0.0000 -24.4956 0.0000
# 2 -16.1825 113.0427 -0.8820 0.0000 4.2688 0.0000
# 3 11.0806 -0.8820 75.6785 0.0000 -2.6230 0.0000
# 4 0.0000 0.0000 0.0000 13.4674 0.0000 23.9665
# 5 -24.4956 4.2688 -2.6230 0.0000 51.6004 0.0000
# 6 0.0000 0.0000 0.0000 23.9665 0.0000 12.8437
#
#
#
# Elastic Compliance Matrix: (Units=1/GPa)
#
#
# Indices 1 2 3 4 5 6 
#
# 1 0.009059 0.001131 -0.001170 0.000000 0.004148 0.000000
# 2 0.001131 0.009016 -0.000068 0.000000 -0.000212 0.000000
# 3 -0.001170 -0.000068 0.013389 0.000000 0.000131 0.000000
# 4 0.000000 0.000000 0.000000 -0.031996 0.000000 0.059704
# 5 0.004148 -0.000212 0.000131 0.000000 0.021373 0.000000
# 6 0.000000 0.000000 0.000000 0.059704 0.000000 -0.033549
#
#
# Mechanical properties :
#
#
# Convention : Reuss Voigt Hill
#
# Bulk Modulus (GPa) = 31.99871 33.53350 32.76610
# Shear Modulus (GPa) = -2405.29379 36.89916 -1184.19731
#
# Velocity S-wave (km/s) = -30.42248 3.76807 -21.34630
# Velocity P-wave (km/s) = 34.95317 5.64220 24.39149
#
# Compressibility (1/GPa) = 0.03125126
#
# Stress axis : x y z
#
# Youngs Moduli (GPa) = 110.38223 110.91851 74.68938
#
# Poissons Ratio (x) = -0.12546 0.08735
# Poissons Ratio (y) = -0.12486 0.00507
# Poissons Ratio (z) = 0.12909 0.00753
#
# Static dielectric constant tensor:
#      x y z
#    x 2.042510 0.000000 -0.059030 
#    y 0.000000 2.003550 0.000000 
#    z -0.059030 0.000000 2.057640 
# 
# From -- ./inp_files/2195.got.cif
#   From: 2010.05.17/outbox.cif.g08.bks.cpg/sg14_2_cif.got.tgz:2195.got - 2010.06.03 17:49:19.
