data_PCOD9249091
_publ_section_title
;
Structure prediction by ZEFSAII (Michael W. Deem and Ramdas Pophale) SiO2 
 PCOD9249091
Probable space group: P 21/C
;
_chemical_formula_sum "Si O2"
_cell_formula_units_Z 26
_cell_length_a 21.050497
_cell_length_b 9.113116
_cell_length_c 9.416441
_cell_angle_alpha 90.000000
_cell_angle_beta 31.850651
_cell_angle_gamma 90.000000
_cell_volume 953.254423
_symmetry_space_group_name_H-M "P 21/C"
_symmetry_group_IT_number 14
_symmetry_cell_setting 'monoclinic'
loop_
_space_group_symop_operation_xyz
x,y,z
-x,1/2+y,1/2-z
-x,-y,-z
x,1/2-y,1/2+z
loop_
_atom_site_type_symbol
_atom_site_label
_atom_site_fract_x
_atom_site_fract_y
_atom_site_fract_z
Si Si1 0.892349 0.268342 0.922359
Si Si2 0.353842 0.006354 0.464774
Si Si3 0.500000 0.000000 0.500000
Si Si4 0.469546 0.268301 0.338508
Si Si5 0.058720 0.286646 0.362436
Si Si6 0.268207 0.014217 0.337037
Si Si7 0.781039 0.517655 0.509588
O O1 0.002082 0.330157 0.619780
O O2 0.950692 0.210647 0.954512
O O3 0.792025 0.390302 0.143975
O O4 0.836747 0.142094 0.928879
O O5 0.429827 0.153060 0.294180
O O6 0.324482 0.938771 0.370132
O O7 0.431163 0.884779 0.404773
O O8 0.248554 0.058198 0.768049
O O9 0.494287 0.845357 0.607740
O O10 0.351266 0.025710 0.806137
O O11 0.363532 0.376021 0.589134
O O12 0.161723 0.390812 0.107242
O O13 0.123520 0.127187 0.242207
#
# Coordination Sequence:
#
# PCOD9249091 Si02
#       7
#     4   4   2   4   4   4   4
#     4  12  27  46  78 108 152 202 266 323 395 472
#     4  11  25  45  71 110 150 201 251 323 395 475
#     4  10  22  46  68 106 146 192 246 320 390 468
#     4  11  26  44  76 105 154 200 255 319 400 484
#     4  12  25  50  73 110 151 207 258 329 393 473
#     4  12  25  47  71 107 150 197 258 326 388 466
#     4  11  24  46  70 110 147 195 259 317 390 474
#
# _framework density 27.274986999999999
#
# number of rings (size 3 to 8) (size 9 to 14) (size 15 to 20)
#    0.000    0.615    3.077    5.077    6.462    0.000 
#    2.769    0.000    0.000    0.000    0.000    0.000 
#    0.000    0.000    0.000    0.000    0.000    0.000 
#
# Total GULP energy -145373.537576 kJ/mol
# GULP energy per Si atom -5591.289907 kJ/mol
# Density = 2.721291 g / cm^3
# Si number density = 27.274987 Si / 1000 Ang^3
#
#
#
# Elastic Constant Matrix: (Units=GPa)
#
#
# Indices 1 2 3 4 5 6 
#
# 1 60.9869 5.8821 37.3753 0.0000 -7.2751 0.0000
# 2 5.8821 120.3060 38.2970 0.0000 -10.1374 0.0000
# 3 37.3753 38.2970 85.5603 0.0000 -3.4617 0.0000
# 4 0.0000 0.0000 0.0000 66.3577 0.0000 -7.9076
# 5 -7.2751 -10.1374 -3.4617 0.0000 37.7188 0.0000
# 6 0.0000 0.0000 0.0000 -7.9076 0.0000 44.8823
#
#
#
# Elastic Compliance Matrix: (Units=1/GPa)
#
#
# Indices 1 2 3 4 5 6 
#
# 1 0.023633 0.002841 -0.011422 0.000000 0.004273 0.000000
# 2 0.002841 0.010223 -0.005704 0.000000 0.002772 0.000000
# 3 -0.011422 -0.005704 0.019150 0.000000 -0.001979 0.000000
# 4 0.000000 0.000000 0.000000 0.015393 0.000000 0.002712
# 5 0.004273 0.002772 -0.001979 0.000000 0.027900 0.000000
# 6 0.000000 0.000000 0.000000 0.002712 0.000000 0.022758
#
#
# Mechanical properties :
#
#
# Convention : Reuss Voigt Hill
#
# Bulk Modulus (GPa) = 40.92644 47.77357 44.35001
# Shear Modulus (GPa) = 32.09799 42.14502 37.12150
#
# Velocity S-wave (km/s) = 3.43422 3.93515 3.69319
# Velocity P-wave (km/s) = 5.54642 6.18068 5.87212
#
# Compressibility (1/GPa) = 0.02443408
#
# Stress axis : x y z
#
# Youngs Moduli (GPa) = 42.31435 97.82149 52.21827
#
# Poissons Ratio (x) = -0.27787 0.59644
# Poissons Ratio (y) = -0.12020 0.29787
# Poissons Ratio (z) = 0.48331 0.55801
#
# Static dielectric constant tensor:
#      x y z
#    x 1.680990 0.000000 -0.116160 
#    y 0.000000 0.698440 0.000000 
#    z -0.116160 0.000000 2.129860 
# 
# From -- ./inp_files/35690.got.cif
#   From: 2010.05.17/outbox.cif.g08.bks.cpg/sg14_18_cif.got.tgz:35690.got - 2010.06.03 17:49:19.
