data_PCOD9249747
_publ_section_title
;
Structure prediction by ZEFSAII (Michael W. Deem and Ramdas Pophale) SiO2 
 PCOD9249747
Probable space group: P 21/C
;
_chemical_formula_sum "Si O2"
_cell_formula_units_Z 32
_cell_length_a 11.467415
_cell_length_b 21.898745
_cell_length_c 10.786309
_cell_angle_alpha 90.000000
_cell_angle_beta 150.594691
_cell_angle_gamma 90.000000
_cell_volume 1329.919568
_symmetry_space_group_name_H-M "P 21/C"
_symmetry_group_IT_number 14
_symmetry_cell_setting 'monoclinic'
loop_
_space_group_symop_operation_xyz
x,y,z
-x,1/2+y,1/2-z
-x,-y,-z
x,1/2-y,1/2+z
loop_
_atom_site_type_symbol
_atom_site_label
_atom_site_fract_x
_atom_site_fract_y
_atom_site_fract_z
Si Si1 0.467322 0.723337 0.322493
Si Si2 0.064054 0.131154 0.382268
Si Si3 0.679574 0.982591 0.311616
Si Si4 0.644435 0.099276 0.153041
Si Si5 0.964582 0.433139 0.406833
Si Si6 0.923820 0.318307 0.511709
Si Si7 0.730492 0.746497 0.818671
Si Si8 0.513092 0.959642 0.639227
O O1 0.407904 0.653357 0.300049
O O2 0.570685 0.749486 0.547843
O O3 0.627039 0.727360 0.348989
O O4 0.253450 0.769406 0.095436
O O5 0.146543 0.061826 0.453949
O O6 0.204683 0.175399 0.604914
O O7 0.794683 0.128732 0.180725
O O8 0.099768 0.163176 0.284406
O O9 0.785220 0.044172 0.351019
O O10 0.478917 0.002219 0.225564
O O11 0.572798 0.939020 0.105614
O O12 0.245397 0.418880 0.639656
O O13 0.000000 0.500000 0.500000
O O14 0.848838 0.384670 0.394779
O O15 0.758806 0.433480 0.111781
O O16 0.036078 0.284033 0.499639
O O17 0.500000 0.000000 0.500000
#
# Coordination Sequence:
#
# PCOD9249747 Si02
#       8
#     4   4   4   4   4   4   4   4
#     4  12  27  50  75 112 154 203 258 328 392 485
#     4  12  24  49  75 108 148 201 266 318 397 486
#     4  11  26  45  75 106 148 204 259 324 399 476
#     4  11  26  47  73 107 149 201 260 325 397 471
#     4  10  24  44  69 110 150 193 255 320 391 470
#     4  12  28  46  80 110 149 208 257 324 406 472
#     4  12  27  48  76 111 154 200 255 325 393 475
#     4  10  23  43  68 109 151 194 248 323 393 467
#
# _framework density 24.061605
#
# number of rings (size 3 to 8) (size 9 to 14) (size 15 to 20)
#    0.000    0.750    3.750    2.625    8.750    0.000 
#    2.250    0.000    0.000    0.000    0.000    0.000 
#    0.000    0.000    0.000    0.000    0.000    0.000 
#
# Total GULP energy -178607.861857 kJ/mol
# GULP energy per Si atom -5581.495683 kJ/mol
# Density = 2.400684 g / cm^3
# Si number density = 24.061605 Si / 1000 Ang^3
#
#
#
# Elastic Constant Matrix: (Units=GPa)
#
#
# Indices 1 2 3 4 5 6 
#
# 1 98.3616 25.7096 -1.3681 0.0000 -2.0122 0.0000
# 2 25.7096 122.6718 10.3559 0.0000 -6.2780 0.0000
# 3 -1.3681 10.3559 75.4525 0.0000 -0.8716 0.0000
# 4 0.0000 0.0000 0.0000 29.7323 0.0000 -2.8595
# 5 -2.0122 -6.2780 -0.8716 0.0000 34.2109 0.0000
# 6 0.0000 0.0000 0.0000 -2.8595 0.0000 34.2677
#
#
#
# Elastic Compliance Matrix: (Units=1/GPa)
#
#
# Indices 1 2 3 4 5 6 
#
# 1 0.010777 -0.002290 0.000512 0.000000 0.000227 0.000000
# 2 -0.002290 0.008810 -0.001234 0.000000 0.001451 0.000000
# 3 0.000512 -0.001234 0.013434 0.000000 0.000146 0.000000
# 4 0.000000 0.000000 0.000000 0.033906 0.000000 0.002829
# 5 0.000227 0.001451 0.000146 0.000000 0.029514 0.000000
# 6 0.000000 0.000000 0.000000 0.002829 0.000000 0.029418
#
#
# Mechanical properties :
#
#
# Convention : Reuss Voigt Hill
#
# Bulk Modulus (GPa) = 37.04103 40.65342 38.84722
# Shear Modulus (GPa) = 35.49092 37.09475 36.29283
#
# Velocity S-wave (km/s) = 3.84474 3.93065 3.88794
# Velocity P-wave (km/s) = 5.92765 6.12636 6.02782
#
# Compressibility (1/GPa) = 0.02699709
#
# Stress axis : x y z
#
# Youngs Moduli (GPa) = 92.79053 113.50425 74.43962
#
# Poissons Ratio (x) = 0.25996 -0.03814
# Poissons Ratio (y) = 0.21252 0.09186
# Poissons Ratio (z) = -0.04754 0.14006
#
# Static dielectric constant tensor:
#      x y z
#    x 1.928980 0.000000 0.006090 
#    y 0.000000 1.989440 0.000000 
#    z 0.006090 0.000000 2.072030 
# 
# From -- ./inp_files/30748.got.cif
#   From: 2010.05.17/outbox.cif.g08.bks.cpg/sg14_16_cif.got.tgz:30748.got - 2010.06.03 17:49:19.
