data_PCOD9249367
_publ_section_title
;
Structure prediction by ZEFSAII (Michael W. Deem and Ramdas Pophale) SiO2 
 PCOD9249367
Probable space group: P 21/C
;
_chemical_formula_sum "Si O2"
_cell_formula_units_Z 20
_cell_length_a 11.785087
_cell_length_b 8.676757
_cell_length_c 8.908674
_cell_angle_alpha 90.000000
_cell_angle_beta 125.922582
_cell_angle_gamma 90.000000
_cell_volume 737.711719
_symmetry_space_group_name_H-M "P 21/C"
_symmetry_group_IT_number 14
_symmetry_cell_setting 'monoclinic'
loop_
_space_group_symop_operation_xyz
x,y,z
-x,1/2+y,1/2-z
-x,-y,-z
x,1/2-y,1/2+z
loop_
_atom_site_type_symbol
_atom_site_label
_atom_site_fract_x
_atom_site_fract_y
_atom_site_fract_z
Si Si1 0.350688 0.177383 0.881572
Si Si2 0.629305 0.239955 0.252467
Si Si3 0.055664 0.740233 0.504314
Si Si4 0.087476 0.068739 0.844027
Si Si5 0.390212 0.453314 0.090115
O O1 0.243414 0.086868 0.902877
O O2 0.047627 0.310542 0.444036
O O3 0.510998 0.157354 0.059952
O O4 0.322987 0.358594 0.900492
O O5 0.785726 0.242904 0.315531
O O6 0.554074 0.404337 0.213128
O O7 0.630727 0.133954 0.404324
O O8 0.060035 0.597268 0.391889
O O9 0.335000 0.127761 0.698919
O O10 0.008718 0.887105 0.372527
#
# Coordination Sequence:
#
# PCOD9249367 Si02
#       5
#     4   4   4   4   4
#     4  10  23  42  68  95 137 176 226 278 334 405
#     4  10  24  42  71 101 133 179 231 276 338 406
#     4  11  27  44  72 100 141 181 232 278 349 408
#     4  11  26  47  67 105 140 182 225 288 341 414
#     4  10  23  40  71  98 134 177 225 282 337 396
#
# _framework density 27.110862000000001
#
# number of rings (size 3 to 8) (size 9 to 14) (size 15 to 20)
#    1.200    0.400    0.000    3.000    8.400    1.600 
#    0.000    0.000    0.000    0.000    0.000    0.000 
#    0.000    0.000    0.000    0.000    0.000    0.000 
#
# Total GULP energy -112084.538458 kJ/mol
# GULP energy per Si atom -5604.226923 kJ/mol
# Density = 2.704916 g / cm^3
# Si number density = 27.110862 Si / 1000 Ang^3
#
#
#
# Elastic Constant Matrix: (Units=GPa)
#
#
# Indices 1 2 3 4 5 6 
#
# 1 176.2774 30.9227 80.9597 0.0000 1.6425 0.0000
# 2 30.9227 77.9949 36.6928 0.0000 -14.8118 0.0000
# 3 80.9597 36.6928 99.1134 0.0000 13.3798 0.0000
# 4 0.0000 0.0000 0.0000 46.4389 0.0000 -15.8433
# 5 1.6425 -14.8118 13.3798 0.0000 50.4831 0.0000
# 6 0.0000 0.0000 0.0000 -15.8433 0.0000 30.6579
#
#
#
# Elastic Compliance Matrix: (Units=1/GPa)
#
#
# Indices 1 2 3 4 5 6 
#
# 1 0.009239 0.000462 -0.007981 0.000000 0.001950 0.000000
# 2 0.000462 0.017758 -0.007937 0.000000 0.007299 0.000000
# 3 -0.007981 -0.007937 0.020562 0.000000 -0.007519 0.000000
# 4 0.000000 0.000000 0.000000 0.026143 0.000000 0.013510
# 5 0.001950 0.007299 -0.007519 0.000000 0.023879 0.000000
# 6 0.000000 0.000000 0.000000 0.013510 0.000000 0.039600
#
#
# Mechanical properties :
#
#
# Convention : Reuss Voigt Hill
#
# Bulk Modulus (GPa) = 60.07008 72.28176 66.17592
# Shear Modulus (GPa) = 28.79464 39.17001 33.98233
#
# Velocity S-wave (km/s) = 3.26253 3.80519 3.54426
# Velocity P-wave (km/s) = 6.03303 6.78420 6.41961
#
# Compressibility (1/GPa) = 0.01664722
#
# Stress axis : x y z
#
# Youngs Moduli (GPa) = 108.23357 56.31190 48.63263
#
# Poissons Ratio (x) = -0.02602 0.38815
# Poissons Ratio (y) = -0.05002 0.38600
# Poissons Ratio (z) = 0.86385 0.44695
#
# Static dielectric constant tensor:
#      x y z
#    x 2.061320 0.000000 -0.027160 
#    y 0.000000 2.137590 0.000000 
#    z -0.027160 0.000000 2.106070 
# 
# From -- ./inp_files/33610.got.cif
#   From: 2010.05.17/outbox.cif.g08.bks.cpg/sg14_17_cif.got.tgz:33610.got - 2010.06.03 17:49:19.
