data_PCOD9249045
_publ_section_title
;
Structure prediction by ZEFSAII (Michael W. Deem and Ramdas Pophale) SiO2 
 PCOD9249045
Probable space group: P 21/C
;
_chemical_formula_sum "Si O2"
_cell_formula_units_Z 18
_cell_length_a 13.269676
_cell_length_b 6.647085
_cell_length_c 12.080274
_cell_angle_alpha 90.000000
_cell_angle_beta 144.036828
_cell_angle_gamma 90.000000
_cell_volume 625.752427
_symmetry_space_group_name_H-M "P 21/C"
_symmetry_group_IT_number 14
_symmetry_cell_setting 'monoclinic'
loop_
_space_group_symop_operation_xyz
x,y,z
-x,1/2+y,1/2-z
-x,-y,-z
x,1/2-y,1/2+z
loop_
_atom_site_type_symbol
_atom_site_label
_atom_site_fract_x
_atom_site_fract_y
_atom_site_fract_z
Si Si1 0.635587 0.169959 0.189262
Si Si2 0.214904 0.484408 0.542484
Si Si3 0.930120 0.179674 0.289276
Si Si4 0.285402 0.054424 0.532394
Si Si5 0.500000 0.500000 0.000000
O O1 0.669527 0.414983 0.257522
O O2 0.806143 0.111030 0.276478
O O3 0.612408 0.048012 0.278051
O O4 0.479344 0.238563 0.975872
O O5 0.181398 0.656879 0.422412
O O6 0.300674 0.295425 0.559515
O O7 0.034210 0.381307 0.417659
O O8 0.085919 0.033399 0.393221
O O9 0.347869 0.991146 0.468002
#
# Coordination Sequence:
#
# PCOD9249045 Si02
#       5
#     4   4   4   4   2
#     4  12  24  46  71 106 146 195 251 301 372 437
#     4  10  23  42  70 108 141 193 241 303 376 433
#     4  10  22  45  73 107 143 186 249 314 359 443
#     4  10  27  45  73 104 145 195 240 303 375 435
#     4  12  28  48  70 108 152 192 246 306 354 454
#
# _framework density 28.765371999999999
#
# number of rings (size 3 to 8) (size 9 to 14) (size 15 to 20)
#    1.333    0.000    0.000    5.333    3.111    1.778 
#    0.000    3.333    0.000    0.000    0.000    0.000 
#    0.000    0.000    0.000    0.000    0.000    0.000 
#
# Total GULP energy -100274.339872 kJ/mol
# GULP energy per Si atom -5570.796660 kJ/mol
# Density = 2.869990 g / cm^3
# Si number density = 28.765372 Si / 1000 Ang^3
#
#
#
# Elastic Constant Matrix: (Units=GPa)
#
#
# Indices 1 2 3 4 5 6 
#
# 1 198.6600 28.1073 42.4828 0.0000 1.9846 0.0000
# 2 28.1073 70.5026 29.2819 0.0000 -19.4810 0.0000
# 3 42.4828 29.2819 116.8881 0.0000 -15.1753 0.0000
# 4 0.0000 0.0000 0.0000 68.7985 0.0000 -8.8448
# 5 1.9846 -19.4810 -15.1753 0.0000 57.1124 0.0000
# 6 0.0000 0.0000 0.0000 -8.8448 0.0000 42.6382
#
#
#
# Elastic Compliance Matrix: (Units=1/GPa)
#
#
# Indices 1 2 3 4 5 6 
#
# 1 0.005693 -0.001900 -0.001764 0.000000 -0.001315 0.000000
# 2 -0.001900 0.017668 -0.003050 0.000000 0.005282 0.000000
# 3 -0.001764 -0.003050 0.010184 0.000000 0.001727 0.000000
# 4 0.000000 0.000000 0.000000 0.014933 0.000000 0.003098
# 5 -0.001315 0.005282 0.001727 0.000000 0.019816 0.000000
# 6 0.000000 0.000000 0.000000 0.003098 0.000000 0.024096
#
#
# Mechanical properties :
#
#
# Convention : Reuss Voigt Hill
#
# Bulk Modulus (GPa) = 49.70724 65.08830 57.39777
# Shear Modulus (GPa) = 44.43547 52.78841 48.61194
#
# Velocity S-wave (km/s) = 3.93460 4.28850 4.11536
# Velocity P-wave (km/s) = 6.16110 6.87008 6.52523
#
# Compressibility (1/GPa) = 0.02011779
#
# Stress axis : x y z
#
# Youngs Moduli (GPa) = 175.65780 56.60081 98.18953
#
# Poissons Ratio (x) = 0.10756 0.17318
# Poissons Ratio (y) = 0.33381 0.29943
# Poissons Ratio (z) = 0.30981 0.17260
#
# Static dielectric constant tensor:
#      x y z
#    x 2.037680 0.000000 0.008400 
#    y 0.000000 2.590400 0.000000 
#    z 0.008400 0.000000 2.562610 
# 
# From -- ./inp_files/27645.got.cif
#   From: 2010.05.17/outbox.cif.g08.bks.cpg/sg14_14_cif.got.tgz:27645.got - 2010.06.03 17:49:19.
