data_PCOD9249164
_publ_section_title
;
Structure prediction by ZEFSAII (Michael W. Deem and Ramdas Pophale) SiO2 
 PCOD9249164
Probable space group: P 21/C
;
_chemical_formula_sum "Si O2"
_cell_formula_units_Z 20
_cell_length_a 22.616121
_cell_length_b 5.754638
_cell_length_c 9.997110
_cell_angle_alpha 90.000000
_cell_angle_beta 142.559739
_cell_angle_gamma 90.000000
_cell_volume 790.982674
_symmetry_space_group_name_H-M "P 21/C"
_symmetry_group_IT_number 14
_symmetry_cell_setting 'monoclinic'
loop_
_space_group_symop_operation_xyz
x,y,z
-x,1/2+y,1/2-z
-x,-y,-z
x,1/2-y,1/2+z
loop_
_atom_site_type_symbol
_atom_site_label
_atom_site_fract_x
_atom_site_fract_y
_atom_site_fract_z
Si Si1 0.572496 0.012255 0.506039
Si Si2 0.207049 0.975373 0.833354
Si Si3 0.932331 0.840037 0.970984
Si Si4 0.128436 0.705239 0.446943
Si Si5 0.610216 0.984101 0.998266
O O1 0.503062 0.015560 0.248988
O O2 0.628432 0.764593 0.602378
O O3 0.500000 0.000000 0.500000
O O4 0.624836 0.264309 0.595333
O O5 0.137571 0.188261 0.746949
O O6 0.161756 0.902175 0.609065
O O7 0.187317 0.794607 0.915319
O O8 0.318803 0.017054 0.002692
O O9 0.014742 0.709034 0.204261
O O10 0.862085 0.977308 0.944699
O O11 0.000000 0.000000 0.000000
#
# Coordination Sequence:
#
# PCOD9249164 Si02
#       5
#     4   4   4   4   4
#     4  10  22  47  71 100 142 184 225 297 367 431
#     4  12  28  42  71 105 137 191 242 301 356 441
#     4  12  24  45  68  98 142 189 240 299 366 427
#     4  12  25  45  66  99 142 184 239 299 364 420
#     4  10  25  43  69 106 138 181 240 288 364 433
#
# _framework density 25.285005999999999
#
# number of rings (size 3 to 8) (size 9 to 14) (size 15 to 20)
#    0.000    0.800    4.000    2.400    5.600    0.000 
#    0.000    0.000    0.000    0.000    0.000    0.000 
#    0.000    0.000    0.000    0.000    0.000    0.000 
#
# Total GULP energy -111780.824519 kJ/mol
# GULP energy per Si atom -5589.041226 kJ/mol
# Density = 2.522746 g / cm^3
# Si number density = 25.285006 Si / 1000 Ang^3
#
#
#
# Elastic Constant Matrix: (Units=GPa)
#
#
# Indices 1 2 3 4 5 6 
#
# 1 139.9551 51.8391 -2.9238 0.0000 2.5731 0.0000
# 2 51.8391 163.4437 16.3246 0.0000 5.1767 0.0000
# 3 -2.9238 16.3246 78.5536 0.0000 11.8528 0.0000
# 4 0.0000 0.0000 0.0000 6.2587 0.0000 -0.0872
# 5 2.5731 5.1767 11.8528 0.0000 36.2343 0.0000
# 6 0.0000 0.0000 0.0000 -0.0872 0.0000 47.5591
#
#
#
# Elastic Compliance Matrix: (Units=1/GPa)
#
#
# Indices 1 2 3 4 5 6 
#
# 1 0.008161 -0.002666 0.000934 0.000000 -0.000504 0.000000
# 2 -0.002666 0.007127 -0.001531 0.000000 -0.000328 0.000000
# 3 0.000934 -0.001531 0.013738 0.000000 -0.004342 0.000000
# 4 0.000000 0.000000 0.000000 0.159782 0.000000 0.000293
# 5 -0.000504 -0.000328 -0.004342 0.000000 0.029101 0.000000
# 6 0.000000 0.000000 0.000000 0.000293 0.000000 0.021027
#
#
# Mechanical properties :
#
#
# Convention : Reuss Voigt Hill
#
# Bulk Modulus (GPa) = 44.44251 56.93690 50.68971
# Shear Modulus (GPa) = 19.76581 39.12460 29.44520
#
# Velocity S-wave (km/s) = 2.79896 3.93790 3.41623
# Velocity P-wave (km/s) = 5.29720 6.57594 5.97090
#
# Compressibility (1/GPa) = 0.02250098
#
# Stress axis : x y z
#
# Youngs Moduli (GPa) = 122.52893 140.30918 72.79011
#
# Poissons Ratio (x) = 0.37404 -0.06797
# Poissons Ratio (y) = 0.32664 0.11143
# Poissons Ratio (z) = -0.11442 0.21479
#
# Static dielectric constant tensor:
#      x y z
#    x 1.933310 0.000000 -0.027930 
#    y 0.000000 2.096720 0.000000 
#    z -0.027930 0.000000 2.042010 
# 
# From -- ./inp_files/30959.got.cif
#   From: 2010.05.17/outbox.cif.g08.bks.cpg/sg14_16_cif.got.tgz:30959.got - 2010.06.03 17:49:19.
