data_PCOD9249021
_publ_section_title
;
Structure prediction by ZEFSAII (Michael W. Deem and Ramdas Pophale) SiO2 
 PCOD9249021
Probable space group: P 21/C
;
_chemical_formula_sum "Si O2"
_cell_formula_units_Z 24
_cell_length_a 14.449915
_cell_length_b 4.999899
_cell_length_c 14.837079
_cell_angle_alpha 90.000000
_cell_angle_beta 69.003599
_cell_angle_gamma 90.000000
_cell_volume 1000.776598
_symmetry_space_group_name_H-M "P 21/C"
_symmetry_group_IT_number 14
_symmetry_cell_setting 'monoclinic'
loop_
_space_group_symop_operation_xyz
x,y,z
-x,1/2+y,1/2-z
-x,-y,-z
x,1/2-y,1/2+z
loop_
_atom_site_type_symbol
_atom_site_label
_atom_site_fract_x
_atom_site_fract_y
_atom_site_fract_z
Si Si1 0.195046 0.695113 0.389309
Si Si2 0.934832 0.760127 0.799268
Si Si3 0.261041 0.956984 0.682169
Si Si4 0.549897 0.705585 0.912957
Si Si5 0.908974 0.795479 0.515580
Si Si6 0.655000 0.383170 0.511751
O O1 0.228184 0.730389 0.275171
O O2 0.105569 0.475113 0.421648
O O3 0.270929 0.557990 0.433108
O O4 0.176805 0.990033 0.433940
O O5 0.829411 0.663565 0.797368
O O6 0.015247 0.522370 0.759708
O O7 0.913470 0.798900 0.911607
O O8 0.287292 0.820768 0.576777
O O9 0.365923 0.078705 0.677126
O O10 0.613631 0.903478 0.953970
O O11 0.500000 0.500000 0.000000
O O12 0.449967 0.811610 0.903442
O O13 0.000000 0.000000 0.500000
#
# Coordination Sequence:
#
# PCOD9249021 Si02
#       6
#     4   4   4   4   4   4
#     4  12  26  43  71 104 139 186 228 289 345 417
#     4  12  25  42  70 101 134 185 231 278 346 414
#     4  11  24  43  69  98 141 180 233 280 354 406
#     4   9  21  43  70  96 133 180 227 290 347 411
#     4  12  25  46  66 101 144 178 236 290 342 408
#     4  10  22  45  70  99 138 183 234 287 353 406
#
# _framework density 23.981377999999999
#
# number of rings (size 3 to 8) (size 9 to 14) (size 15 to 20)
#    0.000    1.000    1.667    4.500    7.000    0.000 
#    9.000    0.000    0.000    0.000    0.000    0.000 
#    0.000    0.000    0.000    0.000    0.000    0.000 
#
# Total GULP energy -133983.533796 kJ/mol
# GULP energy per Si atom -5582.647242 kJ/mol
# Density = 2.392680 g / cm^3
# Si number density = 23.981378 Si / 1000 Ang^3
#
#
#
# Elastic Constant Matrix: (Units=GPa)
#
#
# Indices 1 2 3 4 5 6 
#
# 1 98.2187 13.1498 40.6121 0.0000 -12.6838 0.0000
# 2 13.1498 96.4963 17.9110 0.0000 -19.0495 0.0000
# 3 40.6121 17.9110 110.6431 0.0000 -15.1404 0.0000
# 4 0.0000 0.0000 0.0000 21.0998 0.0000 -8.3441
# 5 -12.6838 -19.0495 -15.1404 0.0000 29.4383 0.0000
# 6 0.0000 0.0000 0.0000 -8.3441 0.0000 30.3739
#
#
#
# Elastic Compliance Matrix: (Units=1/GPa)
#
#
# Indices 1 2 3 4 5 6 
#
# 1 0.012286 -0.000331 -0.004046 0.000000 0.002998 0.000000
# 2 -0.000331 0.011981 -0.000835 0.000000 0.007180 0.000000
# 3 -0.004046 -0.000835 0.011129 0.000000 0.003440 0.000000
# 4 0.000000 0.000000 0.000000 0.053170 0.000000 0.014607
# 5 0.002998 0.007180 0.003440 0.000000 0.041677 0.000000
# 6 0.000000 0.000000 0.000000 0.014607 0.000000 0.036936
#
#
# Mechanical properties :
#
#
# Convention : Reuss Voigt Hill
#
# Bulk Modulus (GPa) = 40.04649 49.85599 44.95124
# Shear Modulus (GPa) = 26.89239 31.76142 29.32690
#
# Velocity S-wave (km/s) = 3.35234 3.64321 3.50080
# Velocity P-wave (km/s) = 5.63201 6.20740 5.92669
#
# Compressibility (1/GPa) = 0.02497098
#
# Stress axis : x y z
#
# Youngs Moduli (GPa) = 81.39534 83.46710 89.85537
#
# Poissons Ratio (x) = 0.02766 0.36352
# Poissons Ratio (y) = 0.02697 0.07505
# Poissons Ratio (z) = 0.32929 0.06972
#
# Static dielectric constant tensor:
#      x y z
#    x 2.037310 0.000000 -0.102100 
#    y 0.000000 2.026540 0.000000 
#    z -0.102100 0.000000 1.903020 
# 
# From -- ./inp_files/45798.got.cif
#   From: 2010.05.17/outbox.cif.g08.bks.cpg/sg14_23_cif.got.tgz:45798.got - 2010.06.03 17:49:19.
