data_PCOD9249852
_publ_section_title
;
Structure prediction by ZEFSAII (Michael W. Deem and Ramdas Pophale) SiO2 
 PCOD9249852
Probable space group: P 21/C
;
_chemical_formula_sum "Si O2"
_cell_formula_units_Z 28
_cell_length_a 5.360706
_cell_length_b 8.959203
_cell_length_c 24.413853
_cell_angle_alpha 90.000000
_cell_angle_beta 96.853933
_cell_angle_gamma 90.000000
_cell_volume 1164.160643
_symmetry_space_group_name_H-M "P 21/C"
_symmetry_group_IT_number 14
_symmetry_cell_setting 'monoclinic'
loop_
_space_group_symop_operation_xyz
x,y,z
-x,1/2+y,1/2-z
-x,-y,-z
x,1/2-y,1/2+z
loop_
_atom_site_type_symbol
_atom_site_label
_atom_site_fract_x
_atom_site_fract_y
_atom_site_fract_z
Si Si1 0.847024 0.747657 0.235225
Si Si2 0.863593 0.066354 0.909293
Si Si3 0.276679 0.020217 0.571572
Si Si4 0.323016 0.689762 0.169889
Si Si5 0.473162 0.815798 0.907200
Si Si6 0.145526 0.947730 0.815166
Si Si7 0.854728 0.230623 0.507845
O O1 0.596840 0.673620 0.203710
O O2 0.104625 0.720852 0.207842
O O3 0.922076 0.664818 0.292953
O O4 0.806625 0.926664 0.229758
O O5 0.662674 0.168413 0.870718
O O6 0.717915 0.917130 0.922628
O O7 0.960944 0.165663 0.961956
O O8 0.067114 0.035090 0.868130
O O9 0.492821 0.138864 0.586827
O O10 0.051186 0.122749 0.543135
O O11 0.231483 0.943678 0.628735
O O12 0.323399 0.886907 0.529754
O O13 0.374882 0.851772 0.843872
O O14 0.283518 0.837949 0.952987
#
# Coordination Sequence:
#
# PCOD9249852 Si02
#       7
#     4   4   4   4   4   4   4
#     4  11  26  47  74 103 140 188 234 301 354 425
#     4  10  23  46  66  98 141 183 232 293 351 428
#     4  10  24  42  69 103 142 184 238 288 353 426
#     4  10  24  47  74 102 142 184 235 293 360 415
#     4  12  23  40  67 104 136 185 235 294 347 431
#     4  11  27  44  70 102 141 179 240 288 364 417
#     4  10  23  44  66 101 139 190 234 290 353 421
#
# _framework density 24.051660999999999
#
# number of rings (size 3 to 8) (size 9 to 14) (size 15 to 20)
#    0.000    1.429    1.429    1.714    6.000    4.571 
#    5.143    0.000    0.000    0.000    0.000    0.000 
#    0.000    0.000    0.000    0.000    0.000    0.000 
#
# Total GULP energy -156426.047346 kJ/mol
# GULP energy per Si atom -5586.644548 kJ/mol
# Density = 2.399692 g / cm^3
# Si number density = 24.051661 Si / 1000 Ang^3
#
#
#
# Elastic Constant Matrix: (Units=GPa)
#
#
# Indices 1 2 3 4 5 6 
#
# 1 64.1005 2.4345 20.9523 0.0000 10.7976 0.0000
# 2 2.4345 97.8775 40.7808 0.0000 12.1318 0.0000
# 3 20.9523 40.7808 54.4951 0.0000 19.2545 0.0000
# 4 0.0000 0.0000 0.0000 38.7630 0.0000 5.3765
# 5 10.7976 12.1318 19.2545 0.0000 40.3567 0.0000
# 6 0.0000 0.0000 0.0000 5.3765 0.0000 34.3320
#
#
#
# Elastic Compliance Matrix: (Units=1/GPa)
#
#
# Indices 1 2 3 4 5 6 
#
# 1 0.018804 0.003641 -0.009370 0.000000 -0.001655 0.000000
# 2 0.003641 0.015585 -0.013306 0.000000 0.000689 0.000000
# 3 -0.009370 -0.013306 0.035615 0.000000 -0.010485 0.000000
# 4 0.000000 0.000000 0.000000 0.026371 0.000000 -0.004130
# 5 -0.001655 0.000689 -0.010485 0.000000 0.030017 0.000000
# 6 0.000000 0.000000 0.000000 -0.004130 0.000000 0.029774
#
#
# Mechanical properties :
#
#
# Convention : Reuss Voigt Hill
#
# Bulk Modulus (GPa) = 31.31436 38.31202 34.81319
# Shear Modulus (GPa) = 24.40449 32.84405 28.62427
#
# Velocity S-wave (km/s) = 3.18884 3.69936 3.45355
# Velocity P-wave (km/s) = 5.15812 5.84899 5.51438
#
# Compressibility (1/GPa) = 0.03193423
#
# Stress axis : x y z
#
# Youngs Moduli (GPa) = 53.18104 64.16432 28.07787
#
# Poissons Ratio (x) = -0.23365 0.26308
# Poissons Ratio (y) = -0.19365 0.37362
# Poissons Ratio (z) = 0.49830 0.85380
#
# Static dielectric constant tensor:
#      x y z
#    x 1.967930 0.000000 -0.003090 
#    y 0.000000 1.972930 0.000000 
#    z -0.003090 0.000000 1.963490 
# 
# From -- ./inp_files/75702.got.cif
#   From: 2010.05.17/outbox.cif.g08.bks.cpg/sg14_38_cif.got.tgz:75702.got - 2010.06.03 17:49:19.
