data_PCOD9249670
_publ_section_title
;
Structure prediction by ZEFSAII (Michael W. Deem and Ramdas Pophale) SiO2 
 PCOD9249670
Probable space group: P 21/C
;
_chemical_formula_sum "Si O2"
_cell_formula_units_Z 20
_cell_length_a 14.261431
_cell_length_b 12.129457
_cell_length_c 8.074447
_cell_angle_alpha 90.000000
_cell_angle_beta 28.882712
_cell_angle_gamma 90.000000
_cell_volume 674.653460
_symmetry_space_group_name_H-M "P 21/C"
_symmetry_group_IT_number 14
_symmetry_cell_setting 'monoclinic'
loop_
_space_group_symop_operation_xyz
x,y,z
-x,1/2+y,1/2-z
-x,-y,-z
x,1/2-y,1/2+z
loop_
_atom_site_type_symbol
_atom_site_label
_atom_site_fract_x
_atom_site_fract_y
_atom_site_fract_z
Si Si1 0.841239 0.915307 0.448605
Si Si2 0.512432 0.182393 0.124314
Si Si3 0.069764 0.846255 0.777477
Si Si4 0.668086 0.885743 0.243338
Si Si5 0.813046 0.389851 0.368583
O O1 0.625473 0.870675 0.801053
O O2 0.834506 0.034323 0.374547
O O3 0.969339 0.846329 0.116387
O O4 0.962257 0.913258 0.432552
O O5 0.460656 0.311392 0.181987
O O6 0.418155 0.138970 0.442101
O O7 0.722749 0.126607 0.826237
O O8 0.204569 0.739287 0.551000
O O9 0.889581 0.844928 0.928906
O O10 0.298904 0.987514 0.861932
#
# Coordination Sequence:
#
# PCOD9249670 Si02
#       5
#     4   4   4   4   4
#     4   9  20  39  59  89 121 170 204 260 310 376
#     4  11  23  40  65  88 134 162 216 260 321 371
#     4   9  19  39  64  87 125 160 214 257 317 368
#     4  10  23  43  60  96 126 167 211 268 314 379
#     4  11  22  37  68  91 120 168 217 257 317 381
#
# _framework density 29.644848
#
# number of rings (size 3 to 8) (size 9 to 14) (size 15 to 20)
#    0.000    2.000    2.000    1.800    5.600    0.000 
#    0.000    7.000    0.000    0.000    0.000    0.000 
#    0.000    0.000    0.000    0.000    0.000    0.000 
#
# Total GULP energy -111964.236114 kJ/mol
# GULP energy per Si atom -5598.211806 kJ/mol
# Density = 2.957737 g / cm^3
# Si number density = 29.644848 Si / 1000 Ang^3
#
#
#
# Elastic Constant Matrix: (Units=GPa)
#
#
# Indices 1 2 3 4 5 6 
#
# 1 158.5216 58.9296 41.4456 0.0000 -26.4851 0.0000
# 2 58.9296 193.3745 57.2696 0.0000 4.1118 0.0000
# 3 41.4456 57.2696 105.6688 0.0000 -37.7646 0.0000
# 4 0.0000 0.0000 0.0000 59.7755 0.0000 -19.3175
# 5 -26.4851 4.1118 -37.7646 0.0000 62.9718 0.0000
# 6 0.0000 0.0000 0.0000 -19.3175 0.0000 64.0937
#
#
#
# Elastic Compliance Matrix: (Units=1/GPa)
#
#
# Indices 1 2 3 4 5 6 
#
# 1 0.007836 -0.002206 -0.000825 0.000000 0.002945 0.000000
# 2 -0.002206 0.007282 -0.004560 0.000000 -0.004138 0.000000
# 3 -0.000825 -0.004560 0.015581 0.000000 0.009294 0.000000
# 4 0.000000 0.000000 0.000000 0.018535 0.000000 0.005586
# 5 0.002945 -0.004138 0.009294 0.000000 0.022963 0.000000
# 6 0.000000 0.000000 0.000000 0.005586 0.000000 0.017286
#
#
# Mechanical properties :
#
#
# Convention : Reuss Voigt Hill
#
# Bulk Modulus (GPa) = 64.45359 85.87273 75.16316
# Shear Modulus (GPa) = 45.52156 57.36287 51.44222
#
# Velocity S-wave (km/s) = 3.92288 4.40364 4.17019
# Velocity P-wave (km/s) = 6.50444 7.40852 6.97115
#
# Compressibility (1/GPa) = 0.01551504
#
# Stress axis : x y z
#
# Youngs Moduli (GPa) = 127.61197 137.32009 64.18242
#
# Poissons Ratio (x) = 0.30296 0.05297
# Poissons Ratio (y) = 0.28154 0.29270
# Poissons Ratio (z) = 0.10533 0.62624
#
# Static dielectric constant tensor:
#      x y z
#    x 2.272670 0.000000 -0.042770 
#    y 0.000000 2.357540 0.000000 
#    z -0.042770 0.000000 2.541350 
# 
# From -- ./inp_files/23561.got.cif
#   From: 2010.05.17/outbox.cif.g08.bks.cpg/sg14_12_cif.got.tgz:23561.got - 2010.06.03 17:49:19.
