data_PCOD9249156
_publ_section_title
;
Structure prediction by ZEFSAII (Michael W. Deem and Ramdas Pophale) SiO2 
 PCOD9249156
Probable space group: P 21/C
;
_chemical_formula_sum "Si O2"
_cell_formula_units_Z 26
_cell_length_a 7.597819
_cell_length_b 13.448988
_cell_length_c 11.638985
_cell_angle_alpha 90.000000
_cell_angle_beta 51.282797
_cell_angle_gamma 90.000000
_cell_volume 927.947360
_symmetry_space_group_name_H-M "P 21/C"
_symmetry_group_IT_number 14
_symmetry_cell_setting 'monoclinic'
loop_
_space_group_symop_operation_xyz
x,y,z
-x,1/2+y,1/2-z
-x,-y,-z
x,1/2-y,1/2+z
loop_
_atom_site_type_symbol
_atom_site_label
_atom_site_fract_x
_atom_site_fract_y
_atom_site_fract_z
Si Si1 0.470101 0.827555 0.242889
Si Si2 0.990542 0.501955 0.673446
Si Si3 0.137340 0.695864 0.692860
Si Si4 0.796672 0.101909 0.460379
Si Si5 0.500000 0.500000 0.500000
Si Si6 0.610052 0.107259 0.196442
Si Si7 0.182492 0.182257 0.468134
O O1 0.349207 0.860223 0.172111
O O2 0.419571 0.900820 0.367378
O O3 0.336711 0.725671 0.333248
O O4 0.716170 0.784649 0.124450
O O5 0.045336 0.618247 0.639379
O O6 0.239150 0.456824 0.582032
O O7 0.486155 0.563888 0.381701
O O8 0.823514 0.453656 0.651665
O O9 0.219857 0.800521 0.613901
O O10 0.936118 0.706822 0.864868
O O11 0.867908 0.014322 0.347146
O O12 0.003948 0.125610 0.461423
O O13 0.591956 0.615375 0.126882
#
# Coordination Sequence:
#
# PCOD9249156 Si02
#       7
#     4   4   4   4   2   4   4
#     4   9  21  43  67  96 137 183 232 283 360 414
#     4  12  25  43  72 104 146 186 244 293 353 430
#     4  11  24  42  70 104 138 192 235 296 363 419
#     4  11  21  43  69  98 142 184 235 298 346 427
#     4  12  24  44  70 104 146 184 230 296 362 414
#     4  10  22  47  67 105 139 189 233 299 345 444
#     4   9  22  43  68  99 141 184 238 285 365 420
#
# _framework density 28.018829
#
# number of rings (size 3 to 8) (size 9 to 14) (size 15 to 20)
#    0.923    0.615    3.077    1.385    0.000    6.769 
#    2.769    0.000    0.000    0.000    0.000    0.000 
#    0.000    0.000    0.000    0.000    0.000    0.000 
#
# Total GULP energy -145328.401498 kJ/mol
# GULP energy per Si atom -5589.553904 kJ/mol
# Density = 2.795506 g / cm^3
# Si number density = 28.018829 Si / 1000 Ang^3
#
#
#
# Elastic Constant Matrix: (Units=GPa)
#
#
# Indices 1 2 3 4 5 6 
#
# 1 184.2456 47.6731 40.4521 0.0000 0.5091 0.0000
# 2 47.6731 100.6632 0.0245 0.0000 2.6095 0.0000
# 3 40.4521 0.0245 146.8081 0.0000 -14.5079 0.0000
# 4 0.0000 0.0000 0.0000 31.3674 0.0000 8.5934
# 5 0.5091 2.6095 -14.5079 0.0000 40.0969 0.0000
# 6 0.0000 0.0000 0.0000 8.5934 0.0000 47.9928
#
#
#
# Elastic Compliance Matrix: (Units=1/GPa)
#
#
# Indices 1 2 3 4 5 6 
#
# 1 0.006656 -0.003137 -0.001889 0.000000 -0.000564 0.000000
# 2 -0.003137 0.011430 0.000822 0.000000 -0.000407 0.000000
# 3 -0.001889 0.000822 0.007601 0.000000 0.002721 0.000000
# 4 0.000000 0.000000 0.000000 0.033525 0.000000 -0.006003
# 5 -0.000564 -0.000407 0.002721 0.000000 0.025958 0.000000
# 6 0.000000 0.000000 0.000000 -0.006003 0.000000 0.021911
#
#
# Mechanical properties :
#
#
# Convention : Reuss Voigt Hill
#
# Bulk Modulus (GPa) = 57.87370 67.55735 62.71553
# Shear Modulus (GPa) = 41.23808 46.79591 44.01699
#
# Velocity S-wave (km/s) = 3.84056 4.09119 3.96786
# Velocity P-wave (km/s) = 6.35348 6.81769 6.58967
#
# Compressibility (1/GPa) = 0.01727901
#
# Stress axis : x y z
#
# Youngs Moduli (GPa) = 150.25114 87.48852 131.56406
#
# Poissons Ratio (x) = 0.27444 0.24854
# Poissons Ratio (y) = 0.47133 -0.10818
# Poissons Ratio (z) = 0.28384 -0.07194
#
# Static dielectric constant tensor:
#      x y z
#    x 2.141250 0.000000 -0.010160 
#    y 0.000000 2.168850 0.000000 
#    z -0.010160 0.000000 2.073330 
# 
# From -- ./inp_files/25996.got.cif
#   From: 2010.05.17/outbox.cif.g08.bks.cpg/sg14_13_cif.got.tgz:25996.got - 2010.06.03 17:49:19.
