data_PCOD9249953
_publ_section_title
;
Structure prediction by ZEFSAII (Michael W. Deem and Ramdas Pophale) SiO2 
 PCOD9249953
Probable space group: P 21/C
;
_chemical_formula_sum "Si O2"
_cell_formula_units_Z 32
_cell_length_a 21.207734
_cell_length_b 6.320993
_cell_length_c 25.595976
_cell_angle_alpha 90.000000
_cell_angle_beta 154.093657
_cell_angle_gamma 90.000000
_cell_volume 1499.114069
_symmetry_space_group_name_H-M "P 21/C"
_symmetry_group_IT_number 14
_symmetry_cell_setting 'monoclinic'
loop_
_space_group_symop_operation_xyz
x,y,z
-x,1/2+y,1/2-z
-x,-y,-z
x,1/2-y,1/2+z
loop_
_atom_site_type_symbol
_atom_site_label
_atom_site_fract_x
_atom_site_fract_y
_atom_site_fract_z
Si Si1 0.640520 0.891192 0.816504
Si Si2 0.858065 0.607013 0.327544
Si Si3 0.164107 0.777373 0.899169
Si Si4 0.855519 0.557023 0.206056
Si Si5 0.654501 0.552579 0.903368
Si Si6 0.836578 0.277979 0.406710
Si Si7 0.634674 0.842975 0.985689
Si Si8 0.646623 0.598057 0.723434
O O1 0.720015 0.727347 0.913857
O O2 0.600917 0.763375 0.734404
O O3 0.489731 0.958863 0.730189
O O4 0.737845 0.088205 0.873100
O O5 0.863474 0.518315 0.273389
O O6 0.846634 0.420472 0.361731
O O7 0.725079 0.765743 0.237669
O O8 0.004651 0.733371 0.450572
O O9 0.163258 0.648910 0.844046
O O10 0.003476 0.835996 0.796579
O O11 0.259686 0.984644 0.961650
O O12 0.236610 0.625345 0.996264
O O13 0.724178 0.716227 0.095610
O O14 0.599936 0.673735 0.914549
O O15 0.762238 0.059216 0.336282
O O16 0.490242 0.960758 0.895697
#
# Coordination Sequence:
#
# PCOD9249953 Si02
#       8
#     4   4   4   4   4   4   4   4
#     4  11  23  36  63  99 130 171 211 269 330 400
#     4  10  25  42  66  95 127 173 218 267 330 392
#     4  11  24  43  64  97 135 169 217 275 329 391
#     4  11  25  43  66  95 129 172 220 271 328 394
#     4  11  24  37  63 100 132 172 215 265 335 399
#     4  10  23  45  62  94 135 166 215 278 326 390
#     4  11  23  43  65  92 131 172 216 274 325 384
#     4  11  22  43  67  91 131 172 217 269 325 387
#
# _framework density 21.345941
#
# number of rings (size 3 to 8) (size 9 to 14) (size 15 to 20)
#    0.000    1.250    3.750    1.125    3.500    1.500 
#    0.000    1.250    0.000    0.000    0.000    0.000 
#    0.000    0.000    0.000    0.000    0.000    0.000 
#
# Total GULP energy -179062.462293 kJ/mol
# GULP energy per Si atom -5595.701947 kJ/mol
# Density = 2.129736 g / cm^3
# Si number density = 21.345941 Si / 1000 Ang^3
#
#
#
# Elastic Constant Matrix: (Units=GPa)
#
#
# Indices 1 2 3 4 5 6 
#
# 1 64.9183 11.3088 18.2717 0.0000 -11.0175 0.0000
# 2 11.3088 62.8352 6.7578 0.0000 -1.2697 0.0000
# 3 18.2717 6.7578 72.2499 0.0000 4.8523 0.0000
# 4 0.0000 0.0000 0.0000 36.3863 0.0000 0.5338
# 5 -11.0175 -1.2697 4.8523 0.0000 27.0175 0.0000
# 6 0.0000 0.0000 0.0000 0.5338 0.0000 22.6265
#
#
#
# Elastic Compliance Matrix: (Units=1/GPa)
#
#
# Indices 1 2 3 4 5 6 
#
# 1 0.018716 -0.002655 -0.005050 0.000000 0.008414 0.000000
# 2 -0.002655 0.016482 -0.000860 0.000000 -0.000154 0.000000
# 3 -0.005050 -0.000860 0.015527 0.000000 -0.004888 0.000000
# 4 0.000000 0.000000 0.000000 0.027492 0.000000 -0.000649
# 5 0.008414 -0.000154 -0.004888 0.000000 0.041315 0.000000
# 6 0.000000 0.000000 0.000000 -0.000649 0.000000 0.044211
#
#
# Mechanical properties :
#
#
# Convention : Reuss Voigt Hill
#
# Bulk Modulus (GPa) = 29.76675 30.29778 30.03226
# Shear Modulus (GPa) = 26.03201 28.11707 27.07454
#
# Velocity S-wave (km/s) = 3.49597 3.63327 3.56528
# Velocity P-wave (km/s) = 5.50190 5.64140 5.57209
#
# Compressibility (1/GPa) = 0.03359453
#
# Stress axis : x y z
#
# Youngs Moduli (GPa) = 53.43052 60.67262 64.40534
#
# Poissons Ratio (x) = 0.16110 0.32524
# Poissons Ratio (y) = 0.14187 0.05538
# Poissons Ratio (z) = 0.26982 0.05217
#
# Static dielectric constant tensor:
#      x y z
#    x 1.751210 0.000000 0.006260 
#    y 0.000000 1.761980 0.000000 
#    z 0.006260 0.000000 1.762890 
# 
# From -- ./inp_files/77876.got.cif
#   From: 2010.05.17/outbox.cif.g08.bks.cpg/sg14_39_cif.got.tgz:77876.got - 2010.06.03 17:49:19.
