data_PCOD9249438
_publ_section_title
;
Structure prediction by ZEFSAII (Michael W. Deem and Ramdas Pophale) SiO2 
 PCOD9249438
Probable space group: P 21/C
;
_chemical_formula_sum "Si O2"
_cell_formula_units_Z 28
_cell_length_a 11.592669
_cell_length_b 16.458491
_cell_length_c 13.132476
_cell_angle_alpha 90.000000
_cell_angle_beta 146.420063
_cell_angle_gamma 90.000000
_cell_volume 1385.873564
_symmetry_space_group_name_H-M "P 21/C"
_symmetry_group_IT_number 14
_symmetry_cell_setting 'monoclinic'
loop_
_space_group_symop_operation_xyz
x,y,z
-x,1/2+y,1/2-z
-x,-y,-z
x,1/2-y,1/2+z
loop_
_atom_site_type_symbol
_atom_site_label
_atom_site_fract_x
_atom_site_fract_y
_atom_site_fract_z
Si Si1 0.512409 0.634588 0.797738
Si Si2 0.399943 0.159554 0.407024
Si Si3 0.286600 0.786331 0.519343
Si Si4 0.226534 0.460593 0.175372
Si Si5 0.764039 0.981128 0.853601
Si Si6 0.189077 0.191243 0.792818
Si Si7 0.524499 0.603203 0.349803
O O1 0.393639 0.704633 0.645097
O O2 0.686909 0.590100 0.857637
O O3 0.348032 0.566260 0.710654
O O4 0.607204 0.658004 0.976700
O O5 0.617450 0.189131 0.518989
O O6 0.334721 0.074863 0.307990
O O7 0.245161 0.232720 0.262106
O O8 0.360852 0.857006 0.651311
O O9 0.037852 0.787713 0.331033
O O10 0.196494 0.393842 0.239895
O O11 0.399265 0.532018 0.315969
O O12 0.000000 0.500000 0.000000
O O13 0.712903 0.933132 0.920439
O O14 0.000000 0.000000 0.000000
O O15 0.374254 0.173461 0.008655
#
# Coordination Sequence:
#
# PCOD9249438 Si02
#       7
#     4   4   4   4   4   4   4
#     4  11  23  44  68  97 140 176 225 284 330 409
#     4  11  24  43  66 101 135 173 229 278 336 409
#     4  11  23  43  67  98 133 174 223 276 337 395
#     4  11  23  44  69  98 137 182 227 280 337 403
#     4  10  23  41  66  95 135 173 222 274 336 400
#     4  12  23  42  70  97 136 179 226 274 344 399
#     4  10  23  42  65  98 132 171 222 280 323 402
#
# _framework density 20.203863999999999
#
# number of rings (size 3 to 8) (size 9 to 14) (size 15 to 20)
#    0.000    1.143    4.286    1.714    2.000    1.143 
#    5.143    0.000    0.000    0.000    0.000    0.000 
#    0.000    0.000    0.000    0.000    0.000    0.000 
#
# Total GULP energy -156137.313223 kJ/mol
# GULP energy per Si atom -5576.332615 kJ/mol
# Density = 2.015788 g / cm^3
# Si number density = 20.203864 Si / 1000 Ang^3
#
#
#
# Elastic Constant Matrix: (Units=GPa)
#
#
# Indices 1 2 3 4 5 6 
#
# 1 58.4239 18.9018 41.6988 0.0000 35.9630 0.0000
# 2 18.9018 94.7338 10.1054 0.0000 9.8551 0.0000
# 3 41.6988 10.1054 48.8841 0.0000 18.8436 0.0000
# 4 0.0000 0.0000 0.0000 28.8322 0.0000 3.3600
# 5 35.9630 9.8551 18.8436 0.0000 39.3521 0.0000
# 6 0.0000 0.0000 0.0000 3.3600 0.0000 35.8883
#
#
#
# Elastic Compliance Matrix: (Units=1/GPa)
#
#
# Indices 1 2 3 4 5 6 
#
# 1 0.099480 -0.007159 -0.060122 0.000000 -0.060330 0.000000
# 2 -0.007159 0.011440 0.002851 0.000000 0.002313 0.000000
# 3 -0.060122 0.002851 0.061622 0.000000 0.024723 0.000000
# 4 0.000000 0.000000 0.000000 0.035066 0.000000 -0.003283
# 5 -0.060330 0.002313 0.024723 0.000000 0.068129 0.000000
# 6 0.000000 0.000000 0.000000 -0.003283 0.000000 0.028172
#
#
# Mechanical properties :
#
#
# Convention : Reuss Voigt Hill
#
# Bulk Modulus (GPa) = 22.89352 38.16153 30.52752
# Shear Modulus (GPa) = 11.17748 29.57027 20.37387
#
# Velocity S-wave (km/s) = 2.35465 3.82985 3.17900
# Velocity P-wave (km/s) = 4.32993 6.20372 5.34951
#
# Compressibility (1/GPa) = 0.04368049
#
# Stress axis : x y z
#
# Youngs Moduli (GPa) = 10.05231 87.41513 16.22804
#
# Poissons Ratio (x) = 0.62583 0.97565
# Poissons Ratio (y) = 0.07197 -0.04626
# Poissons Ratio (z) = 0.60436 -0.24919
#
# Static dielectric constant tensor:
#      x y z
#    x 1.774410 0.000000 -0.082210 
#    y 0.000000 1.000820 0.000000 
#    z -0.082210 0.000000 1.770880 
# 
# From -- ./inp_files/45288.got.cif
#   From: 2010.05.17/outbox.cif.g08.bks.cpg/sg14_23_cif.got.tgz:45288.got - 2010.06.03 17:49:19.
