data_PCOD9249306
_publ_section_title
;
Structure prediction by ZEFSAII (Michael W. Deem and Ramdas Pophale) SiO2 
 PCOD9249306
Probable space group: P 21/C
;
_chemical_formula_sum "Si O2"
_cell_formula_units_Z 24
_cell_length_a 12.525595
_cell_length_b 14.310635
_cell_length_c 9.443396
_cell_angle_alpha 90.000000
_cell_angle_beta 146.758128
_cell_angle_gamma 90.000000
_cell_volume 927.906829
_symmetry_space_group_name_H-M "P 21/C"
_symmetry_group_IT_number 14
_symmetry_cell_setting 'monoclinic'
loop_
_space_group_symop_operation_xyz
x,y,z
-x,1/2+y,1/2-z
-x,-y,-z
x,1/2-y,1/2+z
loop_
_atom_site_type_symbol
_atom_site_label
_atom_site_fract_x
_atom_site_fract_y
_atom_site_fract_z
Si Si1 0.202991 0.165866 0.735660
Si Si2 0.894727 0.061900 0.229233
Si Si3 0.434963 0.790801 0.806422
Si Si4 0.468145 0.387232 0.270982
Si Si5 0.172939 0.946584 0.371361
Si Si6 0.893967 0.318951 0.453428
O O1 0.053042 0.088096 0.523597
O O2 0.380037 0.163264 0.814114
O O3 0.082798 0.260355 0.616624
O O4 0.364095 0.157705 0.033551
O O5 0.972702 0.974748 0.226179
O O6 0.672617 0.062020 0.034232
O O7 0.915261 0.148451 0.139469
O O8 0.488144 0.689237 0.797663
O O9 0.273169 0.860043 0.561087
O O10 0.291462 0.748364 0.772664
O O11 0.313127 0.463692 0.045882
O O12 0.135362 0.910702 0.172555
#
# Coordination Sequence:
#
# PCOD9249306 Si02
#       6
#     4   4   4   4   4   4
#     4  11  21  40  64  90 128 166 209 261 316 382
#     4  10  23  40  62  94 128 167 217 266 317 379
#     4  11  24  41  65  96 130 171 215 264 323 382
#     4  10  24  44  64  97 133 168 217 266 321 381
#     4  11  24  42  66  94 128 171 216 267 323 378
#     4  11  23  41  66  95 126 168 218 266 319 379
#
# _framework density 25.864664999999999
#
# number of rings (size 3 to 8) (size 9 to 14) (size 15 to 20)
#    0.000    1.333    0.000    6.500    0.000    9.333 
#    0.000    5.000    0.000    0.000    0.000    0.000 
#    0.000    0.000    0.000    0.000    0.000    0.000 
#
# Total GULP energy -133955.035331 kJ/mol
# GULP energy per Si atom -5581.459805 kJ/mol
# Density = 2.580580 g / cm^3
# Si number density = 25.864665 Si / 1000 Ang^3
#
#
#
# Elastic Constant Matrix: (Units=GPa)
#
#
# Indices 1 2 3 4 5 6 
#
# 1 133.4700 56.7845 58.6895 0.0000 16.2615 0.0000
# 2 56.7845 124.8881 32.6448 0.0000 11.6900 0.0000
# 3 58.6895 32.6448 111.3837 0.0000 42.9919 0.0000
# 4 0.0000 0.0000 0.0000 62.7099 0.0000 11.8126
# 5 16.2615 11.6900 42.9919 0.0000 54.5259 0.0000
# 6 0.0000 0.0000 0.0000 11.8126 0.0000 56.6522
#
#
#
# Elastic Compliance Matrix: (Units=1/GPa)
#
#
# Indices 1 2 3 4 5 6 
#
# 1 0.011366 -0.003887 -0.005553 0.000000 0.001822 0.000000
# 2 -0.003887 0.010002 -0.000723 0.000000 -0.000415 0.000000
# 3 -0.005553 -0.000723 0.016411 0.000000 -0.011129 0.000000
# 4 0.000000 0.000000 0.000000 0.016598 0.000000 -0.003461
# 5 0.001822 -0.000415 -0.011129 0.000000 0.026660 0.000000
# 6 0.000000 0.000000 0.000000 -0.003461 0.000000 0.018373
#
#
# Mechanical properties :
#
#
# Convention : Reuss Voigt Hill
#
# Bulk Modulus (GPa) = 57.29555 73.99770 65.64663
# Shear Modulus (GPa) = 39.82334 49.55248 44.68791
#
# Velocity S-wave (km/s) = 3.92813 4.38178 4.16114
# Velocity P-wave (km/s) = 6.54017 7.36693 6.96582
#
# Compressibility (1/GPa) = 0.01745336
#
# Stress axis : x y z
#
# Youngs Moduli (GPa) = 87.98435 99.97626 60.93403
#
# Poissons Ratio (x) = 0.38859 0.33835
# Poissons Ratio (y) = 0.34198 0.04408
# Poissons Ratio (z) = 0.48855 0.07232
#
# Static dielectric constant tensor:
#      x y z
#    x 2.079940 0.000000 0.034530 
#    y 0.000000 2.048460 0.000000 
#    z 0.034530 0.000000 1.686380 
# 
# From -- ./inp_files/32813.got.cif
#   From: 2010.05.17/outbox.cif.g08.bks.cpg/sg14_17_cif.got.tgz:32813.got - 2010.06.03 17:49:19.
