data_PCOD9249998
_publ_section_title
;
Structure prediction by ZEFSAII (Michael W. Deem and Ramdas Pophale) SiO2 
 PCOD9249998
Probable space group: P 21/C
;
_chemical_formula_sum "Si O2"
_cell_formula_units_Z 24
_cell_length_a 7.872317
_cell_length_b 11.616065
_cell_length_c 11.699449
_cell_angle_alpha 90.000000
_cell_angle_beta 70.650588
_cell_angle_gamma 90.000000
_cell_volume 1009.429714
_symmetry_space_group_name_H-M "P 21/C"
_symmetry_group_IT_number 14
_symmetry_cell_setting 'monoclinic'
loop_
_space_group_symop_operation_xyz
x,y,z
-x,1/2+y,1/2-z
-x,-y,-z
x,1/2-y,1/2+z
loop_
_atom_site_type_symbol
_atom_site_label
_atom_site_fract_x
_atom_site_fract_y
_atom_site_fract_z
Si Si1 0.095836 0.877740 0.713036
Si Si2 0.778307 0.913296 0.604252
Si Si3 0.820194 0.708842 0.449496
Si Si4 0.488994 0.154354 0.146975
Si Si5 0.617840 0.391428 0.021908
Si Si6 0.813953 0.519816 0.609351
O O1 0.943651 0.893594 0.652256
O O2 0.271855 0.834548 0.607755
O O3 0.154186 0.994243 0.765292
O O4 0.005511 0.806969 0.837690
O O5 0.794201 0.841012 0.484323
O O6 0.600837 0.873798 0.712060
O O7 0.756555 0.045172 0.575289
O O8 0.671321 0.639933 0.409456
O O9 0.789766 0.651957 0.581458
O O10 0.534561 0.287711 0.113030
O O11 0.658994 0.067976 0.100845
O O12 0.500000 0.500000 0.000000
O O13 0.000000 0.500000 0.500000
#
# Coordination Sequence:
#
# PCOD9249998 Si02
#       6
#     4   4   4   4   4   4
#     4  10  25  44  67 101 139 186 235 295 358 423
#     4  11  25  46  70 102 144 192 233 303 362 427
#     4  10  23  46  72 100 141 190 240 294 363 427
#     4  11  25  45  72 105 140 190 242 300 360 433
#     4  12  25  47  70 106 142 185 244 295 369 425
#     4  10  23  45  69 105 138 184 238 298 356 427
#
# _framework density 23.775801000000001
#
# number of rings (size 3 to 8) (size 9 to 14) (size 15 to 20)
#    0.000    1.333    1.667    2.000    9.333    0.000 
#    6.000    0.000    0.000    0.000    0.000    0.000 
#    0.000    0.000    0.000    0.000    0.000    0.000 
#
# Total GULP energy -133924.493290 kJ/mol
# GULP energy per Si atom -5580.187220 kJ/mol
# Density = 2.372169 g / cm^3
# Si number density = 23.775801 Si / 1000 Ang^3
#
#
#
# Elastic Constant Matrix: (Units=GPa)
#
#
# Indices 1 2 3 4 5 6 
#
# 1 71.7984 8.4573 25.1381 0.0000 -10.1311 0.0000
# 2 8.4573 84.4511 38.5004 0.0000 -17.3198 0.0000
# 3 25.1381 38.5004 131.7810 0.0000 -24.0663 0.0000
# 4 0.0000 0.0000 0.0000 36.1560 0.0000 -1.5607
# 5 -10.1311 -17.3198 -24.0663 0.0000 39.7278 0.0000
# 6 0.0000 0.0000 0.0000 -1.5607 0.0000 18.6388
#
#
#
# Elastic Compliance Matrix: (Units=1/GPa)
#
#
# Indices 1 2 3 4 5 6 
#
# 1 0.015122 0.000108 -0.002477 0.000000 0.002402 0.000000
# 2 0.000108 0.014244 -0.003422 0.000000 0.004165 0.000000
# 3 -0.002477 -0.003422 0.009752 0.000000 0.003784 0.000000
# 4 0.000000 0.000000 0.000000 0.027758 0.000000 0.002324
# 5 0.002402 0.004165 0.003784 0.000000 0.029892 0.000000
# 6 0.000000 0.000000 0.000000 0.002324 0.000000 0.053846
#
#
# Mechanical properties :
#
#
# Convention : Reuss Voigt Hill
#
# Bulk Modulus (GPa) = 36.31694 48.02469 42.17082
# Shear Modulus (GPa) = 29.17592 33.30017 31.23805
#
# Velocity S-wave (km/s) = 3.50684 3.74651 3.62865
# Velocity P-wave (km/s) = 5.63073 6.24163 5.94403
#
# Compressibility (1/GPa) = 0.02753536
#
# Stress axis : x y z
#
# Youngs Moduli (GPa) = 66.13080 70.20328 102.54783
#
# Poissons Ratio (x) = -0.00756 0.25404
# Poissons Ratio (y) = -0.00712 0.35087
# Poissons Ratio (z) = 0.16382 0.24020
#
# Static dielectric constant tensor:
#      x y z
#    x 2.039850 0.000000 0.017820 
#    y 0.000000 1.953310 0.000000 
#    z 0.017820 0.000000 1.881020 
# 
# From -- ./inp_files/24113.got.cif
#   From: 2010.05.17/outbox.cif.g08.bks.cpg/sg14_13_cif.got.tgz:24113.got - 2010.06.03 17:49:19.
