data_PCOD9249256
_publ_section_title
;
Structure prediction by ZEFSAII (Michael W. Deem and Ramdas Pophale) SiO2 
 PCOD9249256
Probable space group: P 21/C
;
_chemical_formula_sum "Si O2"
_cell_formula_units_Z 24
_cell_length_a 9.544787
_cell_length_b 12.296415
_cell_length_c 16.528985
_cell_angle_alpha 90.000000
_cell_angle_beta 152.047104
_cell_angle_gamma 90.000000
_cell_volume 909.343705
_symmetry_space_group_name_H-M "P 21/C"
_symmetry_group_IT_number 14
_symmetry_cell_setting 'monoclinic'
loop_
_space_group_symop_operation_xyz
x,y,z
-x,1/2+y,1/2-z
-x,-y,-z
x,1/2-y,1/2+z
loop_
_atom_site_type_symbol
_atom_site_label
_atom_site_fract_x
_atom_site_fract_y
_atom_site_fract_z
Si Si1 0.792717 0.407386 0.069645
Si Si2 0.088226 0.323680 0.078839
Si Si3 0.250121 0.436030 0.449661
Si Si4 0.527933 0.254706 0.690488
Si Si5 0.840035 0.882503 0.769127
Si Si6 0.237977 0.703301 0.354956
O O1 0.017659 0.415182 0.109303
O O2 0.690748 0.280838 0.033348
O O3 0.992043 0.426477 0.249872
O O4 0.463635 0.453301 0.886654
O O5 0.346722 0.337670 0.144911
O O6 0.167382 0.213627 0.169084
O O7 0.776364 0.305514 0.874781
O O8 0.289098 0.346704 0.540826
O O9 0.551506 0.400343 0.553879
O O10 0.141262 0.546668 0.436636
O O11 0.699963 0.230707 0.694958
O O12 0.906719 0.834689 0.711595
#
# Coordination Sequence:
#
# PCOD9249256 Si02
#       6
#     4   4   4   4   4   4
#     4  11  21  39  65  90 121 165 211 246 297 373
#     4  11  22  41  60  91 122 163 209 251 305 372
#     4  10  23  39  65  92 124 161 209 253 307 357
#     4  10  23  39  61  89 123 159 205 252 306 361
#     4  11  22  39  65  93 125 162 206 257 305 359
#     4   9  21  38  63  91 118 164 210 248 292 370
#
# _framework density 26.392658000000001
#
# number of rings (size 3 to 8) (size 9 to 14) (size 15 to 20)
#    1.000    0.667    1.667    4.000    4.667    0.667 
#    0.000    0.000    0.000    2.000    0.000    0.000 
#    0.000    0.000    0.000    0.000    0.000    0.000 
#
# Total GULP energy -133784.536406 kJ/mol
# GULP energy per Si atom -5574.355684 kJ/mol
# Density = 2.633259 g / cm^3
# Si number density = 26.392658 Si / 1000 Ang^3
#
#
#
# Elastic Constant Matrix: (Units=GPa)
#
#
# Indices 1 2 3 4 5 6 
#
# 1 148.3965 12.2129 27.4679 0.0000 11.3094 0.0000
# 2 12.2129 43.7901 9.3556 0.0000 2.9426 0.0000
# 3 27.4679 9.3556 123.5444 0.0000 -6.5815 0.0000
# 4 0.0000 0.0000 0.0000 18.2812 0.0000 6.8942
# 5 11.3094 2.9426 -6.5815 0.0000 37.4574 0.0000
# 6 0.0000 0.0000 0.0000 6.8942 0.0000 18.4547
#
#
#
# Elastic Compliance Matrix: (Units=1/GPa)
#
#
# Indices 1 2 3 4 5 6 
#
# 1 0.007352 -0.001538 -0.001645 0.000000 -0.002388 0.000000
# 2 -0.001538 0.023707 -0.001542 0.000000 -0.001669 0.000000
# 3 -0.001645 -0.001542 0.008691 0.000000 0.002145 0.000000
# 4 0.000000 0.000000 0.000000 0.063671 0.000000 -0.023786
# 5 -0.002388 -0.001669 0.002145 0.000000 0.027926 0.000000
# 6 0.000000 0.000000 0.000000 -0.023786 0.000000 0.063073
#
#
# Mechanical properties :
#
#
# Convention : Reuss Voigt Hill
#
# Bulk Modulus (GPa) = 33.00526 45.97822 39.49174
# Shear Modulus (GPa) = 23.36766 32.61829 27.99297
#
# Velocity S-wave (km/s) = 2.97877 3.51933 3.26027
# Velocity P-wave (km/s) = 4.93593 5.82863 5.40075
#
# Compressibility (1/GPa) = 0.03029820
#
# Stress axis : x y z
#
# Youngs Moduli (GPa) = 136.02051 42.18187 115.06026
#
# Poissons Ratio (x) = 0.06489 0.18930
# Poissons Ratio (y) = 0.20926 0.17744
# Poissons Ratio (z) = 0.22379 0.06505
#
# Static dielectric constant tensor:
#      x y z
#    x 2.107460 0.000000 0.018320 
#    y 0.000000 2.322350 0.000000 
#    z 0.018320 0.000000 2.116500 
# 
# From -- ./inp_files/56001.got.cif
#   From: 2010.05.17/outbox.cif.g08.bks.cpg/sg14_29_cif.got.tgz:56001.got - 2010.06.03 17:49:19.
