data_PCOD9249347
_publ_section_title
;
Structure prediction by ZEFSAII (Michael W. Deem and Ramdas Pophale) SiO2 
 PCOD9249347
Probable space group: P 21/C
;
_chemical_formula_sum "Si O2"
_cell_formula_units_Z 24
_cell_length_a 17.468173
_cell_length_b 11.662633
_cell_length_c 13.387932
_cell_angle_alpha 90.000000
_cell_angle_beta 160.119236
_cell_angle_gamma 90.000000
_cell_volume 927.508834
_symmetry_space_group_name_H-M "P 21/C"
_symmetry_group_IT_number 14
_symmetry_cell_setting 'monoclinic'
loop_
_space_group_symop_operation_xyz
x,y,z
-x,1/2+y,1/2-z
-x,-y,-z
x,1/2-y,1/2+z
loop_
_atom_site_type_symbol
_atom_site_label
_atom_site_fract_x
_atom_site_fract_y
_atom_site_fract_z
Si Si1 0.624734 0.302116 0.098265
Si Si2 0.151506 0.740288 0.933957
Si Si3 0.648100 0.820234 0.556543
Si Si4 0.630675 0.055442 0.047187
Si Si5 0.897447 0.619914 0.972925
Si Si6 0.264535 0.960043 0.453189
O O1 0.446984 0.365153 0.952700
O O2 0.696208 0.376989 0.093158
O O3 0.821087 0.258964 0.414788
O O4 0.528689 0.179611 0.945745
O O5 0.409261 0.776426 0.216306
O O6 0.104713 0.614294 0.830594
O O7 0.966703 0.823909 0.662040
O O8 0.799746 0.714116 0.776271
O O9 0.771290 0.916744 0.643372
O O10 0.863570 0.079130 0.275283
O O11 0.720975 0.983762 0.253342
O O12 0.479117 0.982905 0.786440
#
# Coordination Sequence:
#
# PCOD9249347 Si02
#       6
#     4   4   4   4   4   4
#     4  10  23  46  65 102 131 177 231 270 333 405
#     4  10  23  43  63 100 139 168 227 273 330 406
#     4  10  23  40  67  99 131 172 222 276 334 390
#     4  11  22  41  74  92 135 179 220 278 340 403
#     4  11  22  43  64 103 130 176 224 273 342 397
#     4  12  20  44  73  92 136 183 213 282 340 391
#
# _framework density 25.875762999999999
#
# number of rings (size 3 to 8) (size 9 to 14) (size 15 to 20)
#    1.000    0.333    5.000    0.500    0.000    3.333 
#    9.000    0.000    0.000    0.000    0.000    0.000 
#    0.000    0.000    0.000    0.000    0.000    0.000 
#
# Total GULP energy -134143.779975 kJ/mol
# GULP energy per Si atom -5589.324166 kJ/mol
# Density = 2.581687 g / cm^3
# Si number density = 25.875763 Si / 1000 Ang^3
#
#
#
# Elastic Constant Matrix: (Units=GPa)
#
#
# Indices 1 2 3 4 5 6 
#
# 1 97.1021 37.6933 42.8222 0.0000 -23.9405 0.0000
# 2 37.6933 129.1061 41.4739 0.0000 -17.0838 0.0000
# 3 42.8222 41.4739 122.7877 0.0000 -22.3533 0.0000
# 4 0.0000 0.0000 0.0000 56.6288 0.0000 -14.7387
# 5 -23.9405 -17.0838 -22.3533 0.0000 38.8135 0.0000
# 6 0.0000 0.0000 0.0000 -14.7387 0.0000 39.1826
#
#
#
# Elastic Compliance Matrix: (Units=1/GPa)
#
#
# Indices 1 2 3 4 5 6 
#
# 1 0.013981 -0.002337 -0.003021 0.000000 0.005856 0.000000
# 2 -0.002337 0.009281 -0.002054 0.000000 0.001461 0.000000
# 3 -0.003021 -0.002054 0.010487 0.000000 0.003272 0.000000
# 4 0.000000 0.000000 0.000000 0.019575 0.000000 0.007363
# 5 0.005856 0.001461 0.003272 0.000000 0.031904 0.000000
# 6 0.000000 0.000000 0.000000 0.007363 0.000000 0.028291
#
#
# Mechanical properties :
#
#
# Convention : Reuss Voigt Hill
#
# Bulk Modulus (GPa) = 52.83571 65.88607 59.36089
# Shear Modulus (GPa) = 37.13298 42.05875 39.59587
#
# Velocity S-wave (km/s) = 3.79231 4.03601 3.91606
# Velocity P-wave (km/s) = 6.29594 6.87291 6.59074
#
# Compressibility (1/GPa) = 0.01892659
#
# Stress axis : x y z
#
# Youngs Moduli (GPa) = 71.52381 107.74837 95.35516
#
# Poissons Ratio (x) = 0.25178 0.28804
# Poissons Ratio (y) = 0.16713 0.19585
# Poissons Ratio (z) = 0.21605 0.22131
#
# Static dielectric constant tensor:
#      x y z
#    x 2.070470 0.000000 0.019150 
#    y 0.000000 2.042120 0.000000 
#    z 0.019150 0.000000 1.990590 
# 
# From -- ./inp_files/50492.got.cif
#   From: 2010.05.17/outbox.cif.g08.bks.cpg/sg14_26_cif.got.tgz:50492.got - 2010.06.03 17:49:19.
