data_PCOD9249587
_publ_section_title
;
Structure prediction by ZEFSAII (Michael W. Deem and Ramdas Pophale) SiO2 
 PCOD9249587
Probable space group: P 21/C
;
_chemical_formula_sum "Si O2"
_cell_formula_units_Z 32
_cell_length_a 20.644209
_cell_length_b 14.115895
_cell_length_c 7.533696
_cell_angle_alpha 90.000000
_cell_angle_beta 143.761360
_cell_angle_gamma 90.000000
_cell_volume 1297.813428
_symmetry_space_group_name_H-M "P 21/C"
_symmetry_group_IT_number 14
_symmetry_cell_setting 'monoclinic'
loop_
_space_group_symop_operation_xyz
x,y,z
-x,1/2+y,1/2-z
-x,-y,-z
x,1/2-y,1/2+z
loop_
_atom_site_type_symbol
_atom_site_label
_atom_site_fract_x
_atom_site_fract_y
_atom_site_fract_z
Si Si1 0.762496 0.678530 0.806930
Si Si2 0.992138 0.680104 0.154017
Si Si3 0.585975 0.050132 0.317114
Si Si4 0.411056 0.053792 0.185274
Si Si5 0.761294 0.108226 0.194684
Si Si6 0.244655 0.392904 0.812461
Si Si7 0.993308 0.607866 0.754335
Si Si8 0.234738 0.676490 0.708238
O O1 0.677027 0.635612 0.476488
O O2 0.759216 0.792288 0.796060
O O3 0.885321 0.650708 0.023973
O O4 0.734531 0.634596 0.936211
O O5 0.985460 0.794224 0.126557
O O6 0.110500 0.661192 0.498500
O O7 0.991428 0.635700 0.958003
O O8 0.499766 0.102481 0.252439
O O9 0.677221 0.126443 0.471373
O O10 0.661968 0.962734 0.552236
O O11 0.500000 0.000000 0.000000
O O12 0.500000 0.000000 0.500000
O O13 0.330295 0.967034 0.951871
O O14 0.749023 0.210832 0.257242
O O15 0.884467 0.069691 0.505656
O O16 0.753838 0.131831 0.965124
O O17 0.123797 0.440754 0.535604
#
# Coordination Sequence:
#
# PCOD9249587 Si02
#       8
#     4   4   4   4   4   4   4   4
#     4  11  24  42  66  97 123 166 208 257 319 370
#     4   9  18  36  63  96 125 155 204 255 312 380
#     4  12  27  47  59  92 129 167 216 262 305 367
#     4  12  27  45  63  90 129 167 218 260 302 373
#     4  10  23  42  67  97 125 166 207 257 318 371
#     4  11  24  42  67  93 128 164 206 260 317 371
#     4   9  18  36  63  95 126 157 201 255 315 376
#     4  10  23  42  68  95 127 165 206 259 318 369
#
# _framework density 24.656856999999999
#
# number of rings (size 3 to 8) (size 9 to 14) (size 15 to 20)
#    0.000    1.500    2.500    3.000    5.250    4.000 
#    0.000    3.750    0.000    0.000    0.000    0.000 
#    0.000    0.000    0.000    0.000    0.000    0.000 
#
# Total GULP energy -178675.135551 kJ/mol
# GULP energy per Si atom -5583.597986 kJ/mol
# Density = 2.460074 g / cm^3
# Si number density = 24.656857 Si / 1000 Ang^3
#
#
#
# Elastic Constant Matrix: (Units=GPa)
#
#
# Indices 1 2 3 4 5 6 
#
# 1 85.0272 23.7375 45.3367 0.0000 24.3468 0.0000
# 2 23.7375 114.8586 44.3979 0.0000 28.8569 0.0000
# 3 45.3367 44.3979 175.6242 0.0000 57.5928 0.0000
# 4 0.0000 0.0000 0.0000 41.7066 0.0000 9.3073
# 5 24.3468 28.8569 57.5928 0.0000 51.2481 0.0000
# 6 0.0000 0.0000 0.0000 9.3073 0.0000 9.5379
#
#
#
# Elastic Compliance Matrix: (Units=1/GPa)
#
#
# Indices 1 2 3 4 5 6 
#
# 1 0.014311 -0.001189 -0.002191 0.000000 -0.003667 0.000000
# 2 -0.001189 0.010374 -0.000927 0.000000 -0.004235 0.000000
# 3 -0.002191 -0.000927 0.009472 0.000000 -0.009082 0.000000
# 4 0.000000 0.000000 0.000000 0.030652 0.000000 -0.029911
# 5 -0.003667 -0.004235 -0.009082 0.000000 0.033846 0.000000
# 6 0.000000 0.000000 0.000000 -0.029911 0.000000 0.134034
#
#
# Mechanical properties :
#
#
# Convention : Reuss Voigt Hill
#
# Bulk Modulus (GPa) = 39.14993 66.93935 53.04464
# Shear Modulus (GPa) = 20.01450 37.96771 28.99111
#
# Velocity S-wave (km/s) = 2.85216 3.92834 3.43269
# Velocity P-wave (km/s) = 5.17289 6.91253 6.10500
#
# Compressibility (1/GPa) = 0.02554283
#
# Stress axis : x y z
#
# Youngs Moduli (GPa) = 69.87476 96.39082 105.57179
#
# Poissons Ratio (x) = 0.11465 0.23134
# Poissons Ratio (y) = 0.08311 0.09785
# Poissons Ratio (z) = 0.15312 0.08934
#
# Static dielectric constant tensor:
#      x y z
#    x 2.042260 0.000000 -0.114150 
#    y 0.000000 1.469360 0.000000 
#    z -0.114150 0.000000 1.987510 
# 
# From -- ./inp_files/19558.got.cif
#   From: 2010.05.17/outbox.cif.g08.bks.cpg/sg14_10_cif.got.tgz:19558.got - 2010.06.03 17:49:19.
