data_PCOD9249674
_publ_section_title
;
Structure prediction by ZEFSAII (Michael W. Deem and Ramdas Pophale) SiO2 
 PCOD9249674
Probable space group: P 21/C
;
_chemical_formula_sum "Si O2"
_cell_formula_units_Z 24
_cell_length_a 9.156699
_cell_length_b 8.770042
_cell_length_c 15.475145
_cell_angle_alpha 90.000000
_cell_angle_beta 107.720643
_cell_angle_gamma 90.000000
_cell_volume 1183.760862
_symmetry_space_group_name_H-M "P 21/C"
_symmetry_group_IT_number 14
_symmetry_cell_setting 'monoclinic'
loop_
_space_group_symop_operation_xyz
x,y,z
-x,1/2+y,1/2-z
-x,-y,-z
x,1/2-y,1/2+z
loop_
_atom_site_type_symbol
_atom_site_label
_atom_site_fract_x
_atom_site_fract_y
_atom_site_fract_z
Si Si1 0.768525 0.731309 0.369999
Si Si2 0.536398 0.868418 0.215965
Si Si3 0.176300 0.953503 0.542858
Si Si4 0.639658 0.039237 0.963760
Si Si5 0.282384 0.812592 0.739441
Si Si6 0.871125 0.275287 0.608143
O O1 0.673824 0.756112 0.265073
O O2 0.700984 0.591161 0.410825
O O3 0.948348 0.719275 0.380350
O O4 0.740785 0.887462 0.419681
O O5 0.444626 0.836559 0.111798
O O6 0.400186 0.829437 0.258418
O O7 0.612423 0.035859 0.226660
O O8 0.198109 0.848177 0.632726
O O9 0.205664 0.866274 0.458253
O O10 0.000000 0.000000 0.500000
O O11 0.783706 0.086192 0.046587
O O12 0.500000 0.000000 0.000000
O O13 0.166725 0.784850 0.797528
#
# Coordination Sequence:
#
# PCOD9249674 Si02
#       6
#     4   4   4   4   4   4
#     4  10  23  43  61  95 131 168 218 269 320 387
#     4  11  21  42  61  90 130 167 213 262 316 391
#     4   9  21  43  62  91 132 162 210 269 318 385
#     4  12  22  42  66  93 132 171 215 266 329 388
#     4  11  22  42  67  93 131 169 213 268 322 386
#     4  11  22  43  68  98 126 172 216 269 333 377
#
# _framework density 20.274365
#
# number of rings (size 3 to 8) (size 9 to 14) (size 15 to 20)
#    0.000    1.333    5.000    0.500    0.000    0.000 
#   18.000    2.500    0.000    0.000    0.000    0.000 
#    0.000    0.000    0.000    0.000    0.000    0.000 
#
# Total GULP energy -133613.843128 kJ/mol
# GULP energy per Si atom -5567.243464 kJ/mol
# Density = 2.022822 g / cm^3
# Si number density = 20.274365 Si / 1000 Ang^3
#
#
#
# Elastic Constant Matrix: (Units=GPa)
#
#
# Indices 1 2 3 4 5 6 
#
# 1 132.7950 39.8857 65.3593 0.0000 -3.3239 0.0000
# 2 39.8857 44.9154 23.1600 0.0000 -7.7378 0.0000
# 3 65.3593 23.1600 107.7365 0.0000 12.9790 0.0000
# 4 0.0000 0.0000 0.0000 23.1977 0.0000 5.8861
# 5 -3.3239 -7.7378 12.9790 0.0000 31.5630 0.0000
# 6 0.0000 0.0000 0.0000 5.8861 0.0000 23.6285
#
#
#
# Elastic Compliance Matrix: (Units=1/GPa)
#
#
# Indices 1 2 3 4 5 6 
#
# 1 0.013206 -0.007982 -0.006552 0.000000 0.002128 0.000000
# 2 -0.007982 0.032417 -0.003138 0.000000 0.008397 0.000000
# 3 -0.006552 -0.003138 0.014842 0.000000 -0.007563 0.000000
# 4 0.000000 0.000000 0.000000 0.046016 0.000000 -0.011463
# 5 0.002128 0.008397 -0.007563 0.000000 0.037075 0.000000
# 6 0.000000 0.000000 0.000000 -0.011463 0.000000 0.045177
#
#
# Mechanical properties :
#
#
# Convention : Reuss Voigt Hill
#
# Bulk Modulus (GPa) = 39.80669 60.25077 50.02873
# Shear Modulus (GPa) = 21.50990 26.14730 23.82860
#
# Velocity S-wave (km/s) = 3.26074 3.59510 3.43199
# Velocity P-wave (km/s) = 5.81835 6.85676 6.35879
#
# Compressibility (1/GPa) = 0.02512141
#
# Stress axis : x y z
#
# Youngs Moduli (GPa) = 75.72398 30.84822 67.37499
#
# Poissons Ratio (x) = 0.24623 0.44144
# Poissons Ratio (y) = 0.60443 0.21141
# Poissons Ratio (z) = 0.49614 0.09680
#
# Static dielectric constant tensor:
#      x y z
#    x 1.704240 0.000000 0.004250 
#    y 0.000000 1.859720 0.000000 
#    z 0.004250 0.000000 1.771920 
# 
# From -- ./inp_files/39056.got.cif
#   From: 2010.05.17/outbox.cif.g08.bks.cpg/sg14_20_cif.got.tgz:39056.got - 2010.06.03 17:49:19.
