data_PCOD9249458
_publ_section_title
;
Structure prediction by ZEFSAII (Michael W. Deem and Ramdas Pophale) SiO2 
 PCOD9249458
Probable space group: P 21/C
;
_chemical_formula_sum "Si O2"
_cell_formula_units_Z 20
_cell_length_a 5.287816
_cell_length_b 20.272316
_cell_length_c 8.450244
_cell_angle_alpha 90.000000
_cell_angle_beta 91.043731
_cell_angle_gamma 90.000000
_cell_volume 905.684403
_symmetry_space_group_name_H-M "P 21/C"
_symmetry_group_IT_number 14
_symmetry_cell_setting 'monoclinic'
loop_
_space_group_symop_operation_xyz
x,y,z
-x,1/2+y,1/2-z
-x,-y,-z
x,1/2-y,1/2+z
loop_
_atom_site_type_symbol
_atom_site_label
_atom_site_fract_x
_atom_site_fract_y
_atom_site_fract_z
Si Si1 0.183216 0.176461 0.896583
Si Si2 0.850777 0.338118 0.117976
Si Si3 0.313238 0.753315 0.111846
Si Si4 0.252835 0.037584 0.057549
Si Si5 0.249206 0.512072 0.898336
O O1 0.399752 0.230047 0.926795
O O2 0.123656 0.165555 0.707825
O O3 0.910237 0.199271 0.958650
O O4 0.258068 0.109404 0.981074
O O5 0.704483 0.278972 0.207285
O O6 0.754902 0.411159 0.154364
O O7 0.792647 0.318494 0.936536
O O8 0.249531 0.034970 0.246715
O O9 0.500000 0.000000 0.000000
O O10 0.000000 0.000000 0.000000
O O11 0.500000 0.500000 0.000000
O O12 0.000000 0.500000 0.000000
#
# Coordination Sequence:
#
# PCOD9249458 Si02
#       5
#     4   4   4   4   4
#     4  10  23  41  68  96 132 172 235 268 337 407
#     4  10  25  45  66  98 136 174 231 284 336 414
#     4  10  24  39  72  92 134 173 225 284 339 395
#     4  12  22  44  75  99 137 188 228 277 342 417
#     4  12  28  44  69 106 145 178 229 294 347 403
#
# _framework density 22.082746
#
# number of rings (size 3 to 8) (size 9 to 14) (size 15 to 20)
#    1.200    0.000    2.000    3.600    5.600    3.200 
#    0.000    0.000    0.000    0.000    0.000    0.000 
#    0.000    0.000    0.000    0.000    0.000    0.000 
#
# Total GULP energy -111478.521696 kJ/mol
# GULP energy per Si atom -5573.926085 kJ/mol
# Density = 2.203248 g / cm^3
# Si number density = 22.082746 Si / 1000 Ang^3
#
#
#
# Elastic Constant Matrix: (Units=GPa)
#
#
# Indices 1 2 3 4 5 6 
#
# 1 145.4725 9.5739 55.0251 0.0000 26.2773 0.0000
# 2 9.5739 40.7398 5.3538 0.0000 10.1955 0.0000
# 3 55.0251 5.3538 91.3350 0.0000 17.5391 0.0000
# 4 0.0000 0.0000 0.0000 44.8744 0.0000 13.6206
# 5 26.2773 10.1955 17.5391 0.0000 40.9573 0.0000
# 6 0.0000 0.0000 0.0000 13.6206 0.0000 26.8926
#
#
#
# Elastic Compliance Matrix: (Units=1/GPa)
#
#
# Indices 1 2 3 4 5 6 
#
# 1 0.009471 -0.000624 -0.004938 0.000000 -0.003806 0.000000
# 2 -0.000624 0.026226 0.000017 0.000000 -0.006135 0.000000
# 3 -0.004938 0.000017 0.014508 0.000000 -0.003049 0.000000
# 4 0.000000 0.000000 0.000000 0.026333 0.000000 -0.013337
# 5 -0.003806 -0.006135 -0.003049 0.000000 0.029690 0.000000
# 6 0.000000 0.000000 0.000000 -0.013337 0.000000 0.043940
#
#
# Mechanical properties :
#
#
# Convention : Reuss Voigt Hill
#
# Bulk Modulus (GPa) = 25.56642 46.38365 35.97504
# Shear Modulus (GPa) = 28.68679 36.38449 32.53564
#
# Velocity S-wave (km/s) = 3.60816 4.06352 3.84259
# Velocity P-wave (km/s) = 5.38155 6.56250 6.00114
#
# Compressibility (1/GPa) = 0.03911381
#
# Stress axis : x y z
#
# Youngs Moduli (GPa) = 105.59013 38.13030 68.92667
#
# Poissons Ratio (x) = 0.02380 0.34037
# Poissons Ratio (y) = 0.06590 -0.00116
# Poissons Ratio (z) = 0.52142 -0.00064
#
# Static dielectric constant tensor:
#      x y z
#    x 1.787930 0.000000 -0.044090 
#    y 0.000000 1.824660 0.000000 
#    z -0.044090 0.000000 2.076510 
# 
# From -- ./inp_files/6001.got.cif
#   From: 2010.05.17/outbox.cif.g08.bks.cpg/sg14_4_cif.got.tgz:6001.got - 2010.06.03 17:49:19.
