data_PCOD9249684
_publ_section_title
;
Structure prediction by ZEFSAII (Michael W. Deem and Ramdas Pophale) SiO2 
 PCOD9249684
Probable space group: P 21/C
;
_chemical_formula_sum "Si O2"
_cell_formula_units_Z 20
_cell_length_a 6.756665
_cell_length_b 24.302463
_cell_length_c 5.085751
_cell_angle_alpha 90.000000
_cell_angle_beta 70.607536
_cell_angle_gamma 90.000000
_cell_volume 787.720426
_symmetry_space_group_name_H-M "P 21/C"
_symmetry_group_IT_number 14
_symmetry_cell_setting 'monoclinic'
loop_
_space_group_symop_operation_xyz
x,y,z
-x,1/2+y,1/2-z
-x,-y,-z
x,1/2-y,1/2+z
loop_
_atom_site_type_symbol
_atom_site_label
_atom_site_fract_x
_atom_site_fract_y
_atom_site_fract_z
Si Si1 0.574459 0.525551 0.191965
Si Si2 0.579389 0.712302 0.733436
Si Si3 0.916841 0.021011 0.317157
Si Si4 0.938880 0.212446 0.913637
Si Si5 0.674153 0.126841 0.337070
O O1 0.500000 0.500000 0.500000
O O2 0.341879 0.503438 0.129374
O O3 0.513767 0.589996 0.201168
O O4 0.848290 0.519695 0.119761
O O5 0.551474 0.738323 0.458631
O O6 0.820409 0.693782 0.659257
O O7 0.429695 0.663736 0.892446
O O8 0.852182 0.085721 0.370157
O O9 0.000000 0.000000 0.000000
O O10 0.911317 0.238073 0.637843
O O11 0.787566 0.164125 0.071477
#
# Coordination Sequence:
#
# PCOD9249684 Si02
#       5
#     4   4   4   4   4
#     4  10  23  43  63  96 133 171 227 278 324 398
#     4  10  23  43  66 102 135 168 224 281 329 406
#     4  11  25  44  65  98 138 174 230 286 327 401
#     4  10  23  43  67 103 137 168 224 280 332 406
#     4  11  24  43  75  94 136 185 222 266 358 392
#
# _framework density 25.389717999999998
#
# number of rings (size 3 to 8) (size 9 to 14) (size 15 to 20)
#    0.000    1.600    0.000    3.600    2.800    9.600 
#    7.200    0.000    0.000    0.000    0.000    0.000 
#    0.000    0.000    0.000    0.000    0.000    0.000 
#
# Total GULP energy -111842.966299 kJ/mol
# GULP energy per Si atom -5592.148315 kJ/mol
# Density = 2.533193 g / cm^3
# Si number density = 25.389718 Si / 1000 Ang^3
#
#
#
# Elastic Constant Matrix: (Units=GPa)
#
#
# Indices 1 2 3 4 5 6 
#
# 1 219.2045 71.8514 88.1084 0.0000 -10.8846 0.0000
# 2 71.8514 128.0762 71.3579 0.0000 -23.5649 0.0000
# 3 88.1084 71.3579 143.0653 0.0000 -36.4138 0.0000
# 4 0.0000 0.0000 0.0000 22.9437 0.0000 -2.6703
# 5 -10.8846 -23.5649 -36.4138 0.0000 85.5458 0.0000
# 6 0.0000 0.0000 0.0000 -2.6703 0.0000 53.6117
#
#
#
# Elastic Compliance Matrix: (Units=1/GPa)
#
#
# Indices 1 2 3 4 5 6 
#
# 1 0.006483 -0.002022 -0.003271 0.000000 -0.001124 0.000000
# 2 -0.002022 0.011488 -0.004200 0.000000 0.001120 0.000000
# 3 -0.003271 -0.004200 0.011998 0.000000 0.003534 0.000000
# 4 0.000000 0.000000 0.000000 0.043839 0.000000 0.002184
# 5 -0.001124 0.001120 0.003534 0.000000 0.013359 0.000000
# 6 0.000000 0.000000 0.000000 0.002184 0.000000 0.018761
#
#
# Mechanical properties :
#
#
# Convention : Reuss Voigt Hill
#
# Bulk Modulus (GPa) = 91.03062 105.88682 98.45872
# Shear Modulus (GPa) = 38.88743 49.68878 44.28811
#
# Velocity S-wave (km/s) = 3.91784 4.42865 4.18105
# Velocity P-wave (km/s) = 7.50980 8.24292 7.88489
#
# Compressibility (1/GPa) = 0.01098532
#
# Stress axis : x y z
#
# Youngs Moduli (GPa) = 154.23853 87.04665 83.34459
#
# Poissons Ratio (x) = 0.17600 0.27258
# Poissons Ratio (y) = 0.31185 0.35003
# Poissons Ratio (z) = 0.50445 0.36558
#
# Static dielectric constant tensor:
#      x y z
#    x 2.228080 0.000000 -0.117350 
#    y 0.000000 1.895660 0.000000 
#    z -0.117350 0.000000 1.656400 
# 
# From -- ./inp_files/1529.got.cif
#   From: 2010.05.17/outbox.cif.g08.bks.cpg/sg14_1_cif.got.tgz:1529.got - 2010.06.03 17:49:19.
