data_PCOD9249899
_publ_section_title
;
Structure prediction by ZEFSAII (Michael W. Deem and Ramdas Pophale) SiO2 
 PCOD9249899
Probable space group: P 21/C
;
_chemical_formula_sum "Si O2"
_cell_formula_units_Z 20
_cell_length_a 9.231991
_cell_length_b 7.334638
_cell_length_c 13.095314
_cell_angle_alpha 90.000000
_cell_angle_beta 107.175336
_cell_angle_gamma 90.000000
_cell_volume 847.183991
_symmetry_space_group_name_H-M "P 21/C"
_symmetry_group_IT_number 14
_symmetry_cell_setting 'monoclinic'
loop_
_space_group_symop_operation_xyz
x,y,z
-x,1/2+y,1/2-z
-x,-y,-z
x,1/2-y,1/2+z
loop_
_atom_site_type_symbol
_atom_site_label
_atom_site_fract_x
_atom_site_fract_y
_atom_site_fract_z
Si Si1 0.611514 0.263700 0.498241
Si Si2 0.294459 0.325587 0.490732
Si Si3 0.170701 0.492884 0.080792
Si Si4 0.182592 0.734158 0.277961
Si Si5 0.005384 0.002194 0.878701
O O1 0.432330 0.232387 0.459084
O O2 0.648113 0.470858 0.470670
O O3 0.662267 0.254836 0.627605
O O4 0.717515 0.127268 0.458800
O O5 0.240469 0.205727 0.574730
O O6 0.145832 0.356995 0.391084
O O7 0.174416 0.570833 0.195144
O O8 0.000000 0.500000 0.000000
O O9 0.059659 0.685334 0.340195
O O10 0.137595 0.913547 0.207024
O O11 0.000000 0.000000 0.000000
#
# Coordination Sequence:
#
# PCOD9249899 Si02
#       5
#     4   4   4   4   4
#     4  10  24  47  64 100 140 176 230 284 343 408
#     4  10  23  44  69  92 141 182 214 295 346 398
#     4  12  23  42  70 100 134 179 228 281 341 413
#     4  11  23  40  66 101 128 179 234 272 347 416
#     4  11  24  43  68 100 138 178 231 296 341 416
#
# _framework density 23.607623
#
# number of rings (size 3 to 8) (size 9 to 14) (size 15 to 20)
#    0.000    1.200    2.000    4.200    2.800    0.000 
#   14.400    0.000    0.000    0.000    0.000    0.000 
#    0.000    0.000    0.000    0.000    0.000    0.000 
#
# Total GULP energy -111868.065290 kJ/mol
# GULP energy per Si atom -5593.403265 kJ/mol
# Density = 2.355389 g / cm^3
# Si number density = 23.607623 Si / 1000 Ang^3
#
#
#
# Elastic Constant Matrix: (Units=GPa)
#
#
# Indices 1 2 3 4 5 6 
#
# 1 119.1862 16.3296 27.5101 0.0000 -0.7034 0.0000
# 2 16.3296 75.2377 18.6547 0.0000 -5.5336 0.0000
# 3 27.5101 18.6547 112.7444 0.0000 -9.8513 0.0000
# 4 0.0000 0.0000 0.0000 45.1858 0.0000 -13.5323
# 5 -0.7034 -5.5336 -9.8513 0.0000 26.0966 0.0000
# 6 0.0000 0.0000 0.0000 -13.5323 0.0000 45.5754
#
#
#
# Elastic Compliance Matrix: (Units=1/GPa)
#
#
# Indices 1 2 3 4 5 6 
#
# 1 0.009063 -0.001525 -0.002033 0.000000 -0.000847 0.000000
# 2 -0.001525 0.014233 -0.001782 0.000000 0.002305 0.000000
# 3 -0.002033 -0.001782 0.009951 0.000000 0.003324 0.000000
# 4 0.000000 0.000000 0.000000 0.024291 0.000000 0.007212
# 5 -0.000847 0.002305 0.003324 0.000000 0.040040 0.000000
# 6 0.000000 0.000000 0.000000 0.007212 0.000000 0.024083
#
#
# Mechanical properties :
#
#
# Convention : Reuss Voigt Hill
#
# Bulk Modulus (GPa) = 44.31063 48.01745 46.16404
# Shear Modulus (GPa) = 35.74895 39.68316 37.71606
#
# Velocity S-wave (km/s) = 3.89562 4.10438 4.00136
# Velocity P-wave (km/s) = 6.24859 6.54563 6.39883
#
# Compressibility (1/GPa) = 0.02256795
#
# Stress axis : x y z
#
# Youngs Moduli (GPa) = 110.33271 70.25687 100.49332
#
# Poissons Ratio (x) = 0.10716 0.20432
# Poissons Ratio (y) = 0.16829 0.17903
# Poissons Ratio (z) = 0.22432 0.12516
#
# Static dielectric constant tensor:
#      x y z
#    x 1.954280 0.000000 -0.046290 
#    y 0.000000 1.978630 0.000000 
#    z -0.046290 0.000000 1.837850 
# 
# From -- ./inp_files/23110.got.cif
#   From: 2010.05.17/outbox.cif.g08.bks.cpg/sg14_12_cif.got.tgz:23110.got - 2010.06.03 17:49:19.
