data_PCOD9249776
_publ_section_title
;
Structure prediction by ZEFSAII (Michael W. Deem and Ramdas Pophale) SiO2 
 PCOD9249776
Probable space group: P 21/C
;
_chemical_formula_sum "Si O2"
_cell_formula_units_Z 24
_cell_length_a 16.150716
_cell_length_b 16.992803
_cell_length_c 8.757984
_cell_angle_alpha 90.000000
_cell_angle_beta 150.147557
_cell_angle_gamma 90.000000
_cell_volume 1196.431786
_symmetry_space_group_name_H-M "P 21/C"
_symmetry_group_IT_number 14
_symmetry_cell_setting 'monoclinic'
loop_
_space_group_symop_operation_xyz
x,y,z
-x,1/2+y,1/2-z
-x,-y,-z
x,1/2-y,1/2+z
loop_
_atom_site_type_symbol
_atom_site_label
_atom_site_fract_x
_atom_site_fract_y
_atom_site_fract_z
Si Si1 0.144535 0.151929 0.376307
Si Si2 0.331147 0.487668 0.325520
Si Si3 0.238756 0.680221 0.795050
Si Si4 0.801939 0.686246 0.390483
Si Si5 0.185801 0.656321 0.067671
Si Si6 0.457596 0.419969 0.843343
O O1 0.200907 0.171629 0.294616
O O2 0.212380 0.221453 0.593127
O O3 0.211151 0.068151 0.535514
O O4 0.944501 0.155026 0.055493
O O5 0.500000 0.500000 0.500000
O O6 0.371144 0.444792 0.547211
O O7 0.249057 0.572169 0.222751
O O8 0.243089 0.668398 0.983973
O O9 0.254632 0.772047 0.778428
O O10 0.377631 0.628485 0.935970
O O11 0.663037 0.635052 0.250961
O O12 0.985213 0.661423 0.744248
O O13 0.500000 0.500000 0.000000
#
# Coordination Sequence:
#
# PCOD9249776 Si02
#       6
#     4   4   4   4   4   4
#     4  10  23  45  70  93 134 174 221 266 327 395
#     4  12  25  43  67 100 133 171 223 274 329 383
#     4  10  24  45  67  96 131 175 217 265 333 389
#     4  10  23  43  69  98 130 176 217 267 328 389
#     4  10  24  44  70  94 131 176 216 268 328 393
#     4  12  27  42  65 101 131 170 221 274 329 386
#
# _framework density 20.059646999999998
#
# number of rings (size 3 to 8) (size 9 to 14) (size 15 to 20)
#    0.000    1.333    1.667    2.000    7.000    4.667 
#    0.000    0.000    0.000    0.000    0.000    0.000 
#    0.000    0.000    0.000    0.000    0.000    0.000 
#
# Total GULP energy -134337.432398 kJ/mol
# GULP energy per Si atom -5597.393017 kJ/mol
# Density = 2.001399 g / cm^3
# Si number density = 20.059647 Si / 1000 Ang^3
#
#
#
# Elastic Constant Matrix: (Units=GPa)
#
#
# Indices 1 2 3 4 5 6 
#
# 1 118.8278 61.3141 43.2795 0.0000 22.2763 0.0000
# 2 61.3141 158.8553 60.8970 0.0000 15.6599 0.0000
# 3 43.2795 60.8970 55.7379 0.0000 -8.7439 0.0000
# 4 0.0000 0.0000 0.0000 43.1457 0.0000 -2.0252
# 5 22.2763 15.6599 -8.7439 0.0000 25.3306 0.0000
# 6 0.0000 0.0000 0.0000 -2.0252 0.0000 29.3624
#
#
#
# Elastic Compliance Matrix: (Units=1/GPa)
#
#
# Indices 1 2 3 4 5 6 
#
# 1 0.021838 0.005497 -0.028025 0.000000 -0.032277 0.000000
# 2 0.005497 0.016584 -0.026170 0.000000 -0.024120 0.000000
# 3 -0.028025 -0.026170 0.078976 0.000000 0.068087 0.000000
# 4 0.000000 0.000000 0.000000 0.023253 0.000000 0.001604
# 5 -0.032277 -0.024120 0.068087 0.000000 0.106278 0.000000
# 6 0.000000 0.000000 0.000000 0.001604 0.000000 0.034168
#
#
# Mechanical properties :
#
#
# Convention : Reuss Voigt Hill
#
# Bulk Modulus (GPa) = 50.00197 73.82247 61.91222
# Shear Modulus (GPa) = 12.98160 30.76308 21.87234
#
# Velocity S-wave (km/s) = 2.54667 3.92034 3.30565
# Velocity P-wave (km/s) = 5.79898 7.57453 6.74543
#
# Compressibility (1/GPa) = 0.01999921
#
# Stress axis : x y z
#
# Youngs Moduli (GPa) = 45.79263 60.30021 12.66202
#
# Poissons Ratio (x) = -0.33144 0.35486
# Poissons Ratio (y) = -0.25170 0.33137
# Poissons Ratio (z) = 1.28335 1.57809
#
# Static dielectric constant tensor:
#      x y z
#    x 1.680500 0.000000 0.002120 
#    y 0.000000 1.670390 0.000000 
#    z 0.002120 0.000000 1.697580 
# 
# From -- ./inp_files/18045.got.cif
#   From: 2010.05.17/outbox.cif.g08.bks.cpg/sg14_10_cif.got.tgz:18045.got - 2010.06.03 17:49:19.
