data_PCOD9249911
_publ_section_title
;
Structure prediction by ZEFSAII (Michael W. Deem and Ramdas Pophale) SiO2 
 PCOD9249911
Probable space group: P 21/C
;
_chemical_formula_sum "Si O2"
_cell_formula_units_Z 26
_cell_length_a 14.191877
_cell_length_b 5.105334
_cell_length_c 18.460062
_cell_angle_alpha 90.000000
_cell_angle_beta 46.470137
_cell_angle_gamma 90.000000
_cell_volume 969.715736
_symmetry_space_group_name_H-M "P 21/C"
_symmetry_group_IT_number 14
_symmetry_cell_setting 'monoclinic'
loop_
_space_group_symop_operation_xyz
x,y,z
-x,1/2+y,1/2-z
-x,-y,-z
x,1/2-y,1/2+z
loop_
_atom_site_type_symbol
_atom_site_label
_atom_site_fract_x
_atom_site_fract_y
_atom_site_fract_z
Si Si1 0.897061 0.358877 0.221377
Si Si2 0.169423 0.351752 0.161406
Si Si3 0.810767 0.417933 0.110672
Si Si4 0.248220 0.444112 0.437527
Si Si5 0.500000 0.000000 0.000000
Si Si6 0.476623 0.700148 0.676689
Si Si7 0.624739 0.142181 0.527171
O O1 0.842055 0.073399 0.270678
O O2 0.892574 0.443353 0.140639
O O3 0.039092 0.362415 0.182534
O O4 0.815476 0.576315 0.307739
O O5 0.284937 0.395101 0.044441
O O6 0.808023 0.659667 0.056357
O O7 0.662213 0.360132 0.215859
O O8 0.843902 0.141680 0.057309
O O9 0.402104 0.399647 0.339286
O O10 0.275160 0.642365 0.492347
O O11 0.575497 0.265906 0.975712
O O12 0.483873 0.968949 0.098309
O O13 0.517352 0.997564 0.633312
#
# Coordination Sequence:
#
# PCOD9249911 Si02
#       7
#     4   4   4   4   2   4   4
#     4  10  23  44  70 102 128 176 224 284 336 404
#     4  10  23  44  72  98 135 170 223 282 352 392
#     4  12  24  41  66  92 134 177 232 269 321 412
#     4  11  25  42  62  93 133 181 222 270 332 395
#     4  10  24  36  62 100 130 162 224 260 340 398
#     4  11  24  40  63  94 134 180 217 271 336 399
#     4  11  24  44  67  99 141 180 221 281 340 406
#
# _framework density 26.811983000000001
#
# number of rings (size 3 to 8) (size 9 to 14) (size 15 to 20)
#    0.000    1.231    1.538    3.231   10.769    0.000 
#    0.000    1.538    0.000    0.000    0.000    0.000 
#    0.000    0.000    0.000    0.000    0.000    0.000 
#
# Total GULP energy -144846.190603 kJ/mol
# GULP energy per Si atom -5571.007331 kJ/mol
# Density = 2.675096 g / cm^3
# Si number density = 26.811983 Si / 1000 Ang^3
#
#
#
# Elastic Constant Matrix: (Units=GPa)
#
#
# Indices 1 2 3 4 5 6 
#
# 1 82.1283 36.7276 14.4080 0.0000 21.8313 0.0000
# 2 36.7276 141.0207 2.3044 0.0000 -1.9744 0.0000
# 3 14.4080 2.3044 36.4097 0.0000 -2.4802 0.0000
# 4 0.0000 0.0000 0.0000 27.1989 0.0000 6.3854
# 5 21.8313 -1.9744 -2.4802 0.0000 40.6504 0.0000
# 6 0.0000 0.0000 0.0000 6.3854 0.0000 21.1163
#
#
#
# Elastic Compliance Matrix: (Units=1/GPa)
#
#
# Indices 1 2 3 4 5 6 
#
# 1 0.018542 -0.004852 -0.007757 0.000000 -0.010667 0.000000
# 2 -0.004852 0.008372 0.001602 0.000000 0.003110 0.000000
# 3 -0.007757 0.001602 0.030851 0.000000 0.006126 0.000000
# 4 0.000000 0.000000 0.000000 0.039576 0.000000 -0.011967
# 5 -0.010667 0.003110 0.006126 0.000000 0.030854 0.000000
# 6 0.000000 0.000000 0.000000 -0.011967 0.000000 0.050976
#
#
# Mechanical properties :
#
#
# Convention : Reuss Voigt Hill
#
# Bulk Modulus (GPa) = 27.97104 40.71542 34.34323
# Shear Modulus (GPa) = 23.46310 31.53436 27.49873
#
# Velocity S-wave (km/s) = 2.96141 3.43319 3.20599
# Velocity P-wave (km/s) = 4.70619 5.56186 5.15182
#
# Compressibility (1/GPa) = 0.03575126
#
# Stress axis : x y z
#
# Youngs Moduli (GPa) = 53.93145 119.44420 32.41412
#
# Poissons Ratio (x) = 0.57951 0.25144
# Poissons Ratio (y) = 0.26166 -0.05192
# Poissons Ratio (z) = 0.41835 -0.19134
#
# Static dielectric constant tensor:
#      x y z
#    x 2.242830 0.000000 -0.022050 
#    y 0.000000 2.992850 0.000000 
#    z -0.022050 0.000000 2.172220 
# 
# From -- ./inp_files/58387.got.cif
#   From: 2010.05.17/outbox.cif.g08.bks.cpg/sg14_30_cif.got.tgz:58387.got - 2010.06.03 17:49:19.
