data_PCOD9249254
_publ_section_title
;
Structure prediction by ZEFSAII (Michael W. Deem and Ramdas Pophale) SiO2 
 PCOD9249254
Probable space group: P 21/C
;
_chemical_formula_sum "Si O2"
_cell_formula_units_Z 16
_cell_length_a 6.759182
_cell_length_b 12.582904
_cell_length_c 7.931238
_cell_angle_alpha 90.000000
_cell_angle_beta 85.266869
_cell_angle_gamma 90.000000
_cell_volume 672.252555
_symmetry_space_group_name_H-M "P 21/C"
_symmetry_group_IT_number 14
_symmetry_cell_setting 'monoclinic'
loop_
_space_group_symop_operation_xyz
x,y,z
-x,1/2+y,1/2-z
-x,-y,-z
x,1/2-y,1/2+z
loop_
_atom_site_type_symbol
_atom_site_label
_atom_site_fract_x
_atom_site_fract_y
_atom_site_fract_z
Si Si1 0.241893 0.166440 0.767598
Si Si2 0.620150 0.452983 0.245970
Si Si3 0.894158 0.618660 0.373513
Si Si4 0.749430 0.049960 0.378854
O O1 0.464497 0.136192 0.816366
O O2 0.221416 0.282629 0.699061
O O3 0.199799 0.076807 0.628643
O O4 0.092697 0.145669 0.931345
O O5 0.765833 0.510942 0.362653
O O6 0.469823 0.544913 0.186505
O O7 0.734814 0.412614 0.071469
O O8 0.095343 0.605466 0.254021
#
# Coordination Sequence:
#
# PCOD9249254 Si02
#       4
#     4   4   4   4
#     4  10  23  39  59  92 117 154 206 232 295 361
#     4   9  21  42  61  87 120 152 199 243 291 351
#     4  12  21  41  61  86 123 156 193 249 290 345
#     4   9  21  42  61  88 119 152 200 242 294 350
#
# _framework density 23.800578999999999
#
# number of rings (size 3 to 8) (size 9 to 14) (size 15 to 20)
#    1.500    0.500    0.000    3.750    0.000    0.000 
#    9.000    0.000    0.000    0.000    0.000    0.000 
#    0.000    0.000    0.000    0.000    0.000    0.000 
#
# Total GULP energy -89328.582278 kJ/mol
# GULP energy per Si atom -5583.036392 kJ/mol
# Density = 2.374641 g / cm^3
# Si number density = 23.800579 Si / 1000 Ang^3
#
#
#
# Elastic Constant Matrix: (Units=GPa)
#
#
# Indices 1 2 3 4 5 6 
#
# 1 31.1676 18.3169 20.3881 0.0000 -17.5246 0.0000
# 2 18.3169 76.0042 39.8300 0.0000 -10.7845 0.0000
# 3 20.3881 39.8300 97.4242 0.0000 -38.2558 0.0000
# 4 0.0000 0.0000 0.0000 30.5396 0.0000 -2.7835
# 5 -17.5246 -10.7845 -38.2558 0.0000 34.5168 0.0000
# 6 0.0000 0.0000 0.0000 -2.7835 0.0000 7.2868
#
#
#
# Elastic Compliance Matrix: (Units=1/GPa)
#
#
# Indices 1 2 3 4 5 6 
#
# 1 0.050902 -0.010746 0.004552 0.000000 0.027531 0.000000
# 2 -0.010746 0.019359 -0.009620 0.000000 -0.010069 0.000000
# 3 0.004552 -0.009620 0.022968 0.000000 0.024761 0.000000
# 4 0.000000 0.000000 0.000000 0.033925 0.000000 0.012959
# 5 0.027531 -0.010069 0.024761 0.000000 0.067246 0.000000
# 6 0.000000 0.000000 0.000000 0.012959 0.000000 0.142185
#
#
# Mechanical properties :
#
#
# Convention : Reuss Voigt Hill
#
# Bulk Modulus (GPa) = 16.23357 40.18511 28.20934
# Shear Modulus (GPa) = 12.86179 22.87272 17.86725
#
# Velocity S-wave (km/s) = 2.32717 3.10339 2.74288
# Velocity P-wave (km/s) = 3.74919 5.45546 4.68073
#
# Compressibility (1/GPa) = 0.06160075
#
# Stress axis : x y z
#
# Youngs Moduli (GPa) = 19.64544 51.65438 43.53970
#
# Poissons Ratio (x) = 0.55509 -0.19817
# Poissons Ratio (y) = 0.21111 0.41884
# Poissons Ratio (z) = -0.08942 0.49690
#
# Static dielectric constant tensor:
#      x y z
#    x 1.959970 0.000000 -0.004650 
#    y 0.000000 1.875820 0.000000 
#    z -0.004650 0.000000 1.875180 
# 
# From -- ./inp_files/7580.got.cif
#   From: 2010.05.17/outbox.cif.g08.bks.cpg/sg14_4_cif.got.tgz:7580.got - 2010.06.03 17:49:19.
