data_PCOD9249857
_publ_section_title
;
Structure prediction by ZEFSAII (Michael W. Deem and Ramdas Pophale) SiO2 
 PCOD9249857
Probable space group: P 21/C
;
_chemical_formula_sum "Si O2"
_cell_formula_units_Z 32
_cell_length_a 5.223672
_cell_length_b 15.188383
_cell_length_c 23.109543
_cell_angle_alpha 90.000000
_cell_angle_beta 53.934130
_cell_angle_gamma 90.000000
_cell_volume 1482.085471
_symmetry_space_group_name_H-M "P 21/C"
_symmetry_group_IT_number 14
_symmetry_cell_setting 'monoclinic'
loop_
_space_group_symop_operation_xyz
x,y,z
-x,1/2+y,1/2-z
-x,-y,-z
x,1/2-y,1/2+z
loop_
_atom_site_type_symbol
_atom_site_label
_atom_site_fract_x
_atom_site_fract_y
_atom_site_fract_z
Si Si1 0.738379 0.598367 0.708012
Si Si2 0.376925 0.494822 0.950886
Si Si3 0.160590 0.599249 0.325208
Si Si4 0.579012 0.352371 0.591290
Si Si5 0.490310 0.200996 0.396613
Si Si6 0.375640 0.164826 0.647589
Si Si7 0.864349 0.195171 0.935530
Si Si8 0.256727 0.765224 0.248734
O O1 0.736971 0.494375 0.713663
O O2 0.695132 0.642594 0.776258
O O3 0.450755 0.645439 0.713102
O O4 0.030964 0.629821 0.629975
O O5 0.468608 0.402808 0.908999
O O6 0.512886 0.578414 0.898983
O O7 0.500000 0.500000 0.000000
O O8 0.000000 0.500000 0.000000
O O9 0.232744 0.597380 0.383774
O O10 0.366654 0.679242 0.270193
O O11 0.788878 0.616817 0.361367
O O12 0.595550 0.248603 0.606636
O O13 0.734863 0.357247 0.507734
O O14 0.591896 0.244307 0.443776
O O15 0.761727 0.223923 0.313046
O O16 0.162669 0.243509 0.415835
O O17 0.034622 0.200921 0.674198
#
# Coordination Sequence:
#
# PCOD9249857 Si02
#       8
#     4   4   4   4   4   4   4   4
#     4  11  24  43  69  98 133 178 231 281 338 402
#     4  12  27  43  68 106 140 182 233 288 352 419
#     4  11  25  41  67  96 131 174 223 279 337 399
#     4  11  24  43  65  96 134 174 220 273 343 403
#     4  11  22  43  66  98 136 178 231 279 345 401
#     4  11  23  44  68  94 138 178 229 279 342 407
#     4  11  24  43  71  94 138 180 221 280 339 410
#     4  10  23  44  66  99 135 178 231 282 341 403
#
# _framework density 21.591199
#
# number of rings (size 3 to 8) (size 9 to 14) (size 15 to 20)
#    0.000    1.000    2.500    3.750    3.500    2.000 
#    4.500    0.000    0.000    0.000    0.000    0.000 
#    0.000    0.000    0.000    0.000    0.000    0.000 
#
# Total GULP energy -178601.358023 kJ/mol
# GULP energy per Si atom -5581.292438 kJ/mol
# Density = 2.154206 g / cm^3
# Si number density = 21.591199 Si / 1000 Ang^3
#
#
#
# Elastic Constant Matrix: (Units=GPa)
#
#
# Indices 1 2 3 4 5 6 
#
# 1 90.4395 21.4434 9.4494 0.0000 11.5383 0.0000
# 2 21.4434 103.0845 14.4012 0.0000 -16.1342 0.0000
# 3 9.4494 14.4012 87.3955 0.0000 10.5907 0.0000
# 4 0.0000 0.0000 0.0000 39.5855 0.0000 4.8304
# 5 11.5383 -16.1342 10.5907 0.0000 28.7094 0.0000
# 6 0.0000 0.0000 0.0000 4.8304 0.0000 20.8026
#
#
#
# Elastic Compliance Matrix: (Units=1/GPa)
#
#
# Indices 1 2 3 4 5 6 
#
# 1 0.012904 -0.003863 0.000139 0.000000 -0.007408 0.000000
# 2 -0.003863 0.012385 -0.002779 0.000000 0.009538 0.000000
# 3 0.000139 -0.002779 0.012646 0.000000 -0.006283 0.000000
# 4 0.000000 0.000000 0.000000 0.025998 0.000000 -0.006037
# 5 -0.007408 0.009538 -0.006283 0.000000 0.045487 0.000000
# 6 0.000000 0.000000 0.000000 -0.006037 0.000000 0.049473
#
#
# Mechanical properties :
#
#
# Convention : Reuss Voigt Hill
#
# Bulk Modulus (GPa) = 40.11301 41.27862 40.69581
# Shear Modulus (GPa) = 27.74540 33.52788 30.63664
#
# Velocity S-wave (km/s) = 3.58862 3.94490 3.77097
# Velocity P-wave (km/s) = 5.98245 6.31739 6.15220
#
# Compressibility (1/GPa) = 0.02492957
#
# Stress axis : x y z
#
# Youngs Moduli (GPa) = 77.49714 80.73961 79.07328
#
# Poissons Ratio (x) = 0.31191 -0.01100
# Poissons Ratio (y) = 0.29938 0.21975
# Poissons Ratio (z) = -0.01078 0.22438
#
# Static dielectric constant tensor:
#      x y z
#    x 1.936920 0.000000 -0.030830 
#    y 0.000000 1.701890 0.000000 
#    z -0.030830 0.000000 1.805550 
# 
# From -- ./inp_files/71394.got.cif
#   From: 2010.05.17/outbox.cif.g08.bks.cpg/sg14_36_cif.got.tgz:71394.got - 2010.06.03 17:49:19.
