data_PCOD9249161
_publ_section_title
;
Structure prediction by ZEFSAII (Michael W. Deem and Ramdas Pophale) SiO2 
 PCOD9249161
Probable space group: P 21/C
;
_chemical_formula_sum "Si O2"
_cell_formula_units_Z 20
_cell_length_a 5.298141
_cell_length_b 8.065494
_cell_length_c 18.927785
_cell_angle_alpha 90.000000
_cell_angle_beta 95.075127
_cell_angle_gamma 90.000000
_cell_volume 805.653518
_symmetry_space_group_name_H-M "P 21/C"
_symmetry_group_IT_number 14
_symmetry_cell_setting 'monoclinic'
loop_
_space_group_symop_operation_xyz
x,y,z
-x,1/2+y,1/2-z
-x,-y,-z
x,1/2-y,1/2+z
loop_
_atom_site_type_symbol
_atom_site_label
_atom_site_fract_x
_atom_site_fract_y
_atom_site_fract_z
Si Si1 0.899486 0.496753 0.148528
Si Si2 0.295191 0.168422 0.815826
Si Si3 0.245735 0.101447 0.980041
Si Si4 0.618754 0.872613 0.405939
Si Si5 0.678994 0.294639 0.722932
O O1 0.862465 0.660424 0.193981
O O2 0.646580 0.470584 0.094026
O O3 0.883593 0.331539 0.196049
O O4 0.155618 0.492343 0.111573
O O5 0.245958 0.131267 0.896733
O O6 0.569821 0.228293 0.794132
O O7 0.266864 0.988887 0.778611
O O8 0.281418 0.267111 0.026435
O O9 0.500000 0.000000 0.000000
O O10 0.000000 0.000000 0.000000
O O11 0.550249 0.744001 0.339948
#
# Coordination Sequence:
#
# PCOD9249161 Si02
#       5
#     4   4   4   4   4
#     4  10  24  45  69 106 141 191 240 302 357 440
#     4  12  23  47  77 107 148 198 243 308 377 434
#     4  12  25  46  76 111 145 197 244 308 374 440
#     4  10  22  48  68 101 150 184 241 300 355 444
#     4  10  22  47  69 109 144 190 244 303 362 445
#
# _framework density 24.824569
#
# number of rings (size 3 to 8) (size 9 to 14) (size 15 to 20)
#    1.200    0.000    4.000    2.400    0.000    3.200 
#   18.000    0.000    0.000    0.000    0.000    0.000 
#    0.000    0.000    0.000    0.000    0.000    0.000 
#
# Total GULP energy -111814.606298 kJ/mol
# GULP energy per Si atom -5590.730315 kJ/mol
# Density = 2.476807 g / cm^3
# Si number density = 24.824569 Si / 1000 Ang^3
#
#
#
# Elastic Constant Matrix: (Units=GPa)
#
#
# Indices 1 2 3 4 5 6 
#
# 1 141.9655 54.0816 34.0171 0.0000 -1.1338 0.0000
# 2 54.0816 174.8385 33.3135 0.0000 8.9908 0.0000
# 3 34.0171 33.3135 104.6356 0.0000 -13.4965 0.0000
# 4 0.0000 0.0000 0.0000 61.9301 0.0000 -7.4908
# 5 -1.1338 8.9908 -13.4965 0.0000 16.0573 0.0000
# 6 0.0000 0.0000 0.0000 -7.4908 0.0000 47.6480
#
#
#
# Elastic Compliance Matrix: (Units=1/GPa)
#
#
# Indices 1 2 3 4 5 6 
#
# 1 0.008367 -0.002216 -0.001995 0.000000 0.000155 0.000000
# 2 -0.002216 0.007170 -0.002356 0.000000 -0.006151 0.000000
# 3 -0.001995 -0.002356 0.012458 0.000000 0.011650 0.000000
# 4 0.000000 0.000000 0.000000 0.016460 0.000000 0.002588
# 5 0.000155 -0.006151 0.011650 0.000000 0.075524 0.000000
# 6 0.000000 0.000000 0.000000 0.002588 0.000000 0.021394
#
#
# Mechanical properties :
#
#
# Convention : Reuss Voigt Hill
#
# Bulk Modulus (GPa) = 67.28334 73.80710 70.54522
# Shear Modulus (GPa) = 31.35557 45.12891 38.24224
#
# Velocity S-wave (km/s) = 3.55785 4.26832 3.92918
# Velocity P-wave (km/s) = 6.63627 7.35442 7.00455
#
# Compressibility (1/GPa) = 0.01486252
#
# Stress axis : x y z
#
# Youngs Moduli (GPa) = 119.51148 139.46468 80.26898
#
# Poissons Ratio (x) = 0.30907 0.16011
# Poissons Ratio (y) = 0.26486 0.18910
# Poissons Ratio (z) = 0.23839 0.32855
#
# Static dielectric constant tensor:
#      x y z
#    x 2.079180 0.000000 0.116960 
#    y 0.000000 1.906660 0.000000 
#    z 0.116960 0.000000 2.025940 
# 
# From -- ./inp_files/62908.got.cif
#   From: 2010.05.17/outbox.cif.g08.bks.cpg/sg14_32_cif.got.tgz:62908.got - 2010.06.03 17:49:19.
