data_PCOD9249465
_publ_section_title
;
Structure prediction by ZEFSAII (Michael W. Deem and Ramdas Pophale) SiO2 
 PCOD9249465
Probable space group: P 21/C
;
_chemical_formula_sum "Si O2"
_cell_formula_units_Z 30
_cell_length_a 4.751102
_cell_length_b 31.394642
_cell_length_c 9.081613
_cell_angle_alpha 90.000000
_cell_angle_beta 117.320705
_cell_angle_gamma 90.000000
_cell_volume 1203.501324
_symmetry_space_group_name_H-M "P 21/C"
_symmetry_group_IT_number 14
_symmetry_cell_setting 'monoclinic'
loop_
_space_group_symop_operation_xyz
x,y,z
-x,1/2+y,1/2-z
-x,-y,-z
x,1/2-y,1/2+z
loop_
_atom_site_type_symbol
_atom_site_label
_atom_site_fract_x
_atom_site_fract_y
_atom_site_fract_z
Si Si1 0.944055 0.441818 0.793004
Si Si2 0.539619 0.770746 0.092941
Si Si3 0.596275 0.062261 0.602963
Si Si4 0.691169 0.091307 0.950243
Si Si5 0.752738 0.646593 0.465321
Si Si6 0.085584 0.221211 0.532136
Si Si7 0.000000 0.000000 0.500000
Si Si8 0.689062 0.363333 0.904576
O O1 0.726725 0.476739 0.817572
O O2 0.914211 0.436708 0.613110
O O3 0.874620 0.395680 0.841699
O O4 0.254689 0.457444 0.966033
O O5 0.648447 0.810714 0.021845
O O6 0.756188 0.732123 0.084717
O O7 0.177246 0.756870 0.993184
O O8 0.633941 0.778701 0.282968
O O9 0.606741 0.069051 0.778590
O O10 0.878570 0.034654 0.606037
O O11 0.608081 0.108489 0.526831
O O12 0.398498 0.107092 0.979123
O O13 0.881381 0.134711 0.956770
O O14 0.612193 0.648272 0.267204
O O15 0.901699 0.176921 0.490193
#
# Coordination Sequence:
#
# PCOD9249465 Si02
#       8
#     4   4   4   4   4   4   2   4
#     4  10  23  45  66 100 133 179 214 286 327 411
#     4  12  26  43  66  96 139 179 233 282 350 395
#     4  11  23  43  70  97 133 179 217 280 332 412
#     4  11  25  41  72 101 136 176 234 269 339 397
#     4  11  23  45  65 100 133 177 226 289 325 405
#     4  12  26  43  65  99 134 185 228 286 343 406
#     4  10  24  44  68 102 136 172 224 266 348 396
#     4  10  23  41  69  92 135 173 229 276 344 390
#
# _framework density 24.927265999999999
#
# number of rings (size 3 to 8) (size 9 to 14) (size 15 to 20)
#    0.000    1.067    1.333    4.400    7.467    1.600 
#    0.000    1.333    0.000    0.000    0.000    0.000 
#    0.000    0.000    0.000    0.000    0.000    0.000 
#
# Total GULP energy -167637.401604 kJ/mol
# GULP energy per Si atom -5587.913387 kJ/mol
# Density = 2.487053 g / cm^3
# Si number density = 24.927266 Si / 1000 Ang^3
#
#
#
# Elastic Constant Matrix: (Units=GPa)
#
#
# Indices 1 2 3 4 5 6 
#
# 1 86.9872 7.6280 22.2853 0.0000 -8.8487 0.0000
# 2 7.6280 93.3077 49.8621 0.0000 -5.3794 0.0000
# 3 22.2853 49.8621 180.0750 0.0000 -20.3576 0.0000
# 4 0.0000 0.0000 0.0000 17.9451 0.0000 -0.5074
# 5 -8.8487 -5.3794 -20.3576 0.0000 35.5599 0.0000
# 6 0.0000 0.0000 0.0000 -0.5074 0.0000 41.0668
#
#
#
# Elastic Compliance Matrix: (Units=1/GPa)
#
#
# Indices 1 2 3 4 5 6 
#
# 1 0.012049 -0.000228 -0.001168 0.000000 0.002295 0.000000
# 2 -0.000228 0.012583 -0.003472 0.000000 -0.000141 0.000000
# 3 -0.001168 -0.003472 0.007021 0.000000 0.003204 0.000000
# 4 0.000000 0.000000 0.000000 0.055745 0.000000 0.000689
# 5 0.002295 -0.000141 0.003204 0.000000 0.030505 0.000000
# 6 0.000000 0.000000 0.000000 0.000689 0.000000 0.024359
#
#
# Mechanical properties :
#
#
# Convention : Reuss Voigt Hill
#
# Bulk Modulus (GPa) = 45.62895 57.76898 51.69896
# Shear Modulus (GPa) = 31.38631 37.62068 34.50349
#
# Velocity S-wave (km/s) = 3.55225 3.88908 3.72448
# Velocity P-wave (km/s) = 5.93036 6.58725 6.26742
#
# Compressibility (1/GPa) = 0.02191591
#
# Stress axis : x y z
#
# Youngs Moduli (GPa) = 82.99623 79.47175 142.42221
#
# Poissons Ratio (x) = 0.01814 0.16642
# Poissons Ratio (y) = 0.01895 0.49447
# Poissons Ratio (z) = 0.09698 0.27592
#
# Static dielectric constant tensor:
#      x y z
#    x 2.070460 0.000000 0.012770 
#    y 0.000000 2.062970 0.000000 
#    z 0.012770 0.000000 1.929630 
# 
# From -- ./inp_files/7025.got.cif
#   From: 2010.05.17/outbox.cif.g08.bks.cpg/sg14_4_cif.got.tgz:7025.got - 2010.06.03 17:49:19.
