data_PCOD9249101
_publ_section_title
;
Structure prediction by ZEFSAII (Michael W. Deem and Ramdas Pophale) SiO2 
 PCOD9249101
Probable space group: P 21/C
;
_chemical_formula_sum "Si O2"
_cell_formula_units_Z 22
_cell_length_a 9.242058
_cell_length_b 15.576353
_cell_length_c 8.620540
_cell_angle_alpha 90.000000
_cell_angle_beta 47.665813
_cell_angle_gamma 90.000000
_cell_volume 917.377679
_symmetry_space_group_name_H-M "P 21/C"
_symmetry_group_IT_number 14
_symmetry_cell_setting 'monoclinic'
loop_
_space_group_symop_operation_xyz
x,y,z
-x,1/2+y,1/2-z
-x,-y,-z
x,1/2-y,1/2+z
loop_
_atom_site_type_symbol
_atom_site_label
_atom_site_fract_x
_atom_site_fract_y
_atom_site_fract_z
Si Si1 0.553013 0.807047 0.494105
Si Si2 0.802783 0.405103 0.221953
Si Si3 0.500000 0.000000 0.000000
Si Si4 0.763120 0.547976 0.010527
Si Si5 0.717987 0.858058 0.041575
Si Si6 0.172143 0.866350 0.642243
O O1 0.615022 0.880400 0.569995
O O2 0.641654 0.719870 0.491906
O O3 0.322365 0.807517 0.624880
O O4 0.654152 0.836083 0.261246
O O5 0.620843 0.404698 0.462936
O O6 0.380632 0.445327 0.443801
O O7 0.815749 0.352006 0.054149
O O8 0.016272 0.414982 0.137690
O O9 0.731251 0.996647 0.704614
O O10 0.762142 0.466355 0.897617
O O11 0.951353 0.860630 0.855798
#
# Coordination Sequence:
#
# PCOD9249101 Si02
#       6
#     4   4   2   4   4   4
#     4  12  28  44  70 107 140 183 246 301 360 414
#     4   9  19  38  73 101 137 186 221 285 353 436
#     4  12  20  46  72 102 142 196 238 270 374 448
#     4   9  19  42  69  95 137 183 224 286 361 425
#     4  12  28  45  71 104 146 190 243 297 366 432
#     4  10  22  46  69 102 141 181 237 294 360 429
#
# _framework density 23.981399
#
# number of rings (size 3 to 8) (size 9 to 14) (size 15 to 20)
#    1.091    0.364    3.636    0.545    5.091    3.636 
#    3.273    0.000    0.000    0.000    0.000    0.000 
#    0.000    0.000    0.000    0.000    0.000    0.000 
#
# Total GULP energy -122631.726914 kJ/mol
# GULP energy per Si atom -5574.169405 kJ/mol
# Density = 2.392682 g / cm^3
# Si number density = 23.981399 Si / 1000 Ang^3
#
#
#
# Elastic Constant Matrix: (Units=GPa)
#
#
# Indices 1 2 3 4 5 6 
#
# 1 62.8399 17.9230 51.3077 0.0000 -9.8381 0.0000
# 2 17.9230 66.6876 9.8692 0.0000 5.7040 0.0000
# 3 51.3077 9.8692 130.5247 0.0000 -12.8888 0.0000
# 4 0.0000 0.0000 0.0000 17.3326 0.0000 8.8205
# 5 -9.8381 5.7040 -12.8888 0.0000 45.3985 0.0000
# 6 0.0000 0.0000 0.0000 8.8205 0.0000 35.9715
#
#
#
# Elastic Compliance Matrix: (Units=1/GPa)
#
#
# Indices 1 2 3 4 5 6 
#
# 1 0.025775 -0.005861 -0.009326 0.000000 0.003674 0.000000
# 2 -0.005861 0.016734 0.000726 0.000000 -0.003167 0.000000
# 3 -0.009326 0.000726 0.011383 0.000000 0.001119 0.000000
# 4 0.000000 0.000000 0.000000 0.065921 0.000000 -0.016164
# 5 0.003674 -0.003167 0.001119 0.000000 0.023539 0.000000
# 6 0.000000 0.000000 0.000000 -0.016164 0.000000 0.031763
#
#
# Mechanical properties :
#
#
# Convention : Reuss Voigt Hill
#
# Bulk Modulus (GPa) = 40.04881 46.47244 43.26063
# Shear Modulus (GPa) = 23.54490 31.80399 27.67445
#
# Velocity S-wave (km/s) = 3.13677 3.64565 3.40074
# Velocity P-wave (km/s) = 5.46400 6.09439 5.78778
#
# Compressibility (1/GPa) = 0.02496953
#
# Stress axis : x y z
#
# Youngs Moduli (GPa) = 38.79757 59.75857 87.85124
#
# Poissons Ratio (x) = 0.35027 0.81928
# Poissons Ratio (y) = 0.22741 -0.06379
# Poissons Ratio (z) = 0.36182 -0.04339
#
# Static dielectric constant tensor:
#      x y z
#    x 1.920550 0.000000 -0.023610 
#    y 0.000000 1.992870 0.000000 
#    z -0.023610 0.000000 2.142110 
# 
# From -- ./inp_files/10088.got.cif
#   From: 2010.05.17/outbox.cif.g08.bks.cpg/sg14_6_cif.got.tgz:10088.got - 2010.06.03 17:49:19.
