data_PCOD9249426
_publ_section_title
;
Structure prediction by ZEFSAII (Michael W. Deem and Ramdas Pophale) SiO2 
 PCOD9249426
Probable space group: P 21/C
;
_chemical_formula_sum "Si O2"
_cell_formula_units_Z 24
_cell_length_a 17.823854
_cell_length_b 5.121686
_cell_length_c 9.745805
_cell_angle_alpha 90.000000
_cell_angle_beta 72.986383
_cell_angle_gamma 90.000000
_cell_volume 850.740345
_symmetry_space_group_name_H-M "P 21/C"
_symmetry_group_IT_number 14
_symmetry_cell_setting 'monoclinic'
loop_
_space_group_symop_operation_xyz
x,y,z
-x,1/2+y,1/2-z
-x,-y,-z
x,1/2-y,1/2+z
loop_
_atom_site_type_symbol
_atom_site_label
_atom_site_fract_x
_atom_site_fract_y
_atom_site_fract_z
Si Si1 0.989496 0.799058 0.348541
Si Si2 0.154543 0.708324 0.318006
Si Si3 0.592552 0.758382 0.860023
Si Si4 0.292012 0.958073 0.399911
Si Si5 0.417710 0.568927 0.375261
Si Si6 0.175567 0.291521 0.620438
O O1 0.900236 0.745169 0.437716
O O2 0.003616 0.583734 0.221790
O O3 0.063522 0.754353 0.407754
O O4 0.220057 0.772269 0.394164
O O5 0.165197 0.425981 0.245244
O O6 0.171118 0.927687 0.192380
O O7 0.599333 0.485994 0.775896
O O8 0.661825 0.926871 0.755277
O O9 0.506667 0.844638 0.851144
O O10 0.590246 0.816433 0.022254
O O11 0.354546 0.786181 0.449959
O O12 0.252089 0.197334 0.500823
#
# Coordination Sequence:
#
# PCOD9249426 Si02
#       6
#     4   4   4   4   4   4
#     4   8  16  37  62  90 133 187 233 288 361 432
#     4  10  23  41  66  98 141 187 239 300 363 436
#     4  11  26  47  73 100 146 189 252 301 377 445
#     4  12  26  41  69 103 140 186 246 305 371 427
#     4  11  26  49  71 107 139 199 240 311 368 450
#     4  10  23  41  65  99 141 186 240 298 365 434
#
# _framework density 28.210723999999999
#
# number of rings (size 3 to 8) (size 9 to 14) (size 15 to 20)
#    0.000    1.667    1.667    1.000    7.000    2.667 
#    0.000    0.000    0.000   12.000    0.000    0.000 
#    0.000    0.000    0.000    0.000    0.000    0.000 
#
# Total GULP energy -134697.932123 kJ/mol
# GULP energy per Si atom -5612.413838 kJ/mol
# Density = 2.814652 g / cm^3
# Si number density = 28.210724 Si / 1000 Ang^3
#
#
#
# Elastic Constant Matrix: (Units=GPa)
#
#
# Indices 1 2 3 4 5 6 
#
# 1 167.5921 21.1153 47.1755 0.0000 -30.3340 0.0000
# 2 21.1153 125.6544 48.3090 0.0000 4.9291 0.0000
# 3 47.1755 48.3090 121.7092 0.0000 -7.7224 0.0000
# 4 0.0000 0.0000 0.0000 38.2196 0.0000 7.0368
# 5 -30.3340 4.9291 -7.7224 0.0000 35.1662 0.0000
# 6 0.0000 0.0000 0.0000 7.0368 0.0000 45.0743
#
#
#
# Elastic Compliance Matrix: (Units=1/GPa)
#
#
# Indices 1 2 3 4 5 6 
#
# 1 0.007872 -0.000654 -0.002388 0.000000 0.006358 0.000000
# 2 -0.000654 0.009611 -0.003735 0.000000 -0.002731 0.000000
# 3 -0.002388 -0.003735 0.010676 0.000000 0.000808 0.000000
# 4 0.000000 0.000000 0.000000 0.026939 0.000000 -0.004206
# 5 0.006358 -0.002731 0.000808 0.000000 0.034481 0.000000
# 6 0.000000 0.000000 0.000000 -0.004206 0.000000 0.022842
#
#
# Mechanical properties :
#
#
# Convention : Reuss Voigt Hill
#
# Bulk Modulus (GPa) = 68.46973 72.01726 70.24350
# Shear Modulus (GPa) = 38.21354 43.58240 40.89797
#
# Velocity S-wave (km/s) = 3.68445 3.93477 3.81166
# Velocity P-wave (km/s) = 6.51335 6.79904 6.65773
#
# Compressibility (1/GPa) = 0.01460499
#
# Stress axis : x y z
#
# Youngs Moduli (GPa) = 127.02707 104.04500 93.67081
#
# Poissons Ratio (x) = 0.06805 0.22372
# Poissons Ratio (y) = 0.08308 0.34983
# Poissons Ratio (z) = 0.30339 0.38858
#
# Static dielectric constant tensor:
#      x y z
#    x 2.186710 0.000000 0.024230 
#    y 0.000000 2.178620 0.000000 
#    z 0.024230 0.000000 2.127570 
# 
# From -- ./inp_files/33339.got.cif
#   From: 2010.05.17/outbox.cif.g08.bks.cpg/sg14_17_cif.got.tgz:33339.got - 2010.06.03 17:49:19.
