data_PCOD9249851
_publ_section_title
;
Structure prediction by ZEFSAII (Michael W. Deem and Ramdas Pophale) SiO2 
 PCOD9249851
Probable space group: P 21/C
;
_chemical_formula_sum "Si O2"
_cell_formula_units_Z 20
_cell_length_a 25.431481
_cell_length_b 9.208558
_cell_length_c 9.304385
_cell_angle_alpha 90.000000
_cell_angle_beta 23.369758
_cell_angle_gamma 90.000000
_cell_volume 864.317106
_symmetry_space_group_name_H-M "P 21/C"
_symmetry_group_IT_number 14
_symmetry_cell_setting 'monoclinic'
loop_
_space_group_symop_operation_xyz
x,y,z
-x,1/2+y,1/2-z
-x,-y,-z
x,1/2-y,1/2+z
loop_
_atom_site_type_symbol
_atom_site_label
_atom_site_fract_x
_atom_site_fract_y
_atom_site_fract_z
Si Si1 0.451884 0.370912 0.518345
Si Si2 0.732650 0.849416 0.274565
Si Si3 0.082425 0.894304 0.187879
Si Si4 0.512868 0.424027 0.814782
Si Si5 0.988402 0.655116 0.603996
O O1 0.500000 0.500000 0.500000
O O2 0.413314 0.458548 0.471483
O O3 0.558713 0.243439 0.218933
O O4 0.340290 0.297348 0.898269
O O5 0.624974 0.888784 0.423429
O O6 0.847200 0.737692 0.939185
O O7 0.795782 0.004321 0.157237
O O8 0.097511 0.753222 0.248274
O O9 0.012193 0.854072 0.214793
O O10 0.000000 0.000000 0.500000
O O11 0.500000 0.500000 0.000000
O O12 0.000000 0.500000 0.500000
#
# Coordination Sequence:
#
# PCOD9249851 Si02
#       5
#     4   4   4   4   4
#     4  10  23  46  68 102 143 182 244 301 366 446
#     4  10  24  44  70  99 143 192 225 291 384 420
#     4  10  23  44  66 100 145 182 242 295 353 447
#     4  11  23  46  73 104 140 185 243 306 362 446
#     4  11  23  44  69 103 144 185 243 300 354 444
#
# _framework density 23.139655000000001
#
# number of rings (size 3 to 8) (size 9 to 14) (size 15 to 20)
#    0.000    1.600    0.000    4.800    8.400    0.000 
#   14.400    0.000    0.000    0.000    0.000    0.000 
#    0.000    0.000    0.000    0.000    0.000    0.000 
#
# Total GULP energy -111567.329196 kJ/mol
# GULP energy per Si atom -5578.366460 kJ/mol
# Density = 2.308699 g / cm^3
# Si number density = 23.139655 Si / 1000 Ang^3
#
#
#
# Elastic Constant Matrix: (Units=GPa)
#
#
# Indices 1 2 3 4 5 6 
#
# 1 157.7564 34.4587 35.6442 0.0000 29.5855 0.0000
# 2 34.4587 169.9504 27.0224 0.0000 18.8412 0.0000
# 3 35.6442 27.0224 75.5545 0.0000 12.9915 0.0000
# 4 0.0000 0.0000 0.0000 46.1956 0.0000 12.8717
# 5 29.5855 18.8412 12.9915 0.0000 44.6488 0.0000
# 6 0.0000 0.0000 0.0000 12.8717 0.0000 52.3245
#
#
#
# Elastic Compliance Matrix: (Units=1/GPa)
#
#
# Indices 1 2 3 4 5 6 
#
# 1 0.007891 -0.000703 -0.002761 0.000000 -0.004128 0.000000
# 2 -0.000703 0.006492 -0.001683 0.000000 -0.001784 0.000000
# 3 -0.002761 -0.001683 0.015478 0.000000 -0.001964 0.000000
# 4 0.000000 0.000000 0.000000 0.023240 0.000000 -0.005717
# 5 -0.004128 -0.001784 -0.001964 0.000000 0.026457 0.000000
# 6 0.000000 0.000000 0.000000 -0.005717 0.000000 0.020518
#
#
# Mechanical properties :
#
#
# Convention : Reuss Voigt Hill
#
# Bulk Modulus (GPa) = 51.11192 66.39020 58.75106
# Shear Modulus (GPa) = 42.77442 49.04286 45.90864
#
# Velocity S-wave (km/s) = 4.30412 4.60872 4.45902
# Velocity P-wave (km/s) = 6.84376 7.55472 7.20801
#
# Compressibility (1/GPa) = 0.01956491
#
# Stress axis : x y z
#
# Youngs Moduli (GPa) = 126.73340 154.03406 64.60846
#
# Poissons Ratio (x) = 0.10831 0.17839
# Poissons Ratio (y) = 0.08911 0.10877
# Poissons Ratio (z) = 0.34993 0.25931
#
# Static dielectric constant tensor:
#      x y z
#    x 1.889500 0.000000 -0.034020 
#    y 0.000000 1.975020 0.000000 
#    z -0.034020 0.000000 2.031180 
# 
# From -- ./inp_files/19351.got.cif
#   From: 2010.05.17/outbox.cif.g08.bks.cpg/sg14_10_cif.got.tgz:19351.got - 2010.06.03 17:49:19.
