data_PCOD9249933
_publ_section_title
;
Structure prediction by ZEFSAII (Michael W. Deem and Ramdas Pophale) SiO2 
 PCOD9249933
Probable space group: P 21/C
;
_chemical_formula_sum "Si O2"
_cell_formula_units_Z 26
_cell_length_a 16.213269
_cell_length_b 9.501382
_cell_length_c 22.661684
_cell_angle_alpha 90.000000
_cell_angle_beta 18.796652
_cell_angle_gamma 90.000000
_cell_volume 1124.835649
_symmetry_space_group_name_H-M "P 21/C"
_symmetry_group_IT_number 14
_symmetry_cell_setting 'monoclinic'
loop_
_space_group_symop_operation_xyz
x,y,z
-x,1/2+y,1/2-z
-x,-y,-z
x,1/2-y,1/2+z
loop_
_atom_site_type_symbol
_atom_site_label
_atom_site_fract_x
_atom_site_fract_y
_atom_site_fract_z
Si Si1 0.000000 0.000000 0.500000
Si Si2 0.279443 0.085240 0.728679
Si Si3 0.548423 0.154186 0.108615
Si Si4 0.218225 0.767556 0.925326
Si Si5 0.165301 0.939616 0.201535
Si Si6 0.597778 0.773266 0.956944
Si Si7 0.604735 0.648460 0.067694
O O1 0.303147 0.057954 0.290917
O O2 0.909044 0.125855 0.514345
O O3 0.440286 0.205907 0.651735
O O4 0.314510 0.133949 0.636926
O O5 0.400349 0.941268 0.668230
O O6 0.987817 0.107437 0.944696
O O7 0.702266 0.211311 0.060892
O O8 0.728740 0.083309 0.936635
O O9 0.469896 0.794494 0.716450
O O10 0.862468 0.932118 0.408272
O O11 0.259740 0.087859 0.163757
O O12 0.300953 0.815415 0.147782
O O13 0.674663 0.766418 0.972786
#
# Coordination Sequence:
#
# PCOD9249933 Si02
#       7
#     2   4   4   4   4   4   4
#     4  10  24  48  70 100 142 184 246 284 352 428
#     4  10  24  43  66  95 138 179 229 284 353 409
#     4  10  23  44  72 100 136 189 229 292 355 416
#     4  11  25  43  70 101 141 188 231 291 356 417
#     4  10  24  43  71  99 137 177 238 282 353 413
#     4  10  23  45  67  98 133 183 224 292 341 414
#     4  12  25  41  68 104 134 177 234 286 343 424
#
# _framework density 23.114488999999999
#
# number of rings (size 3 to 8) (size 9 to 14) (size 15 to 20)
#    0.000    1.538    0.000    2.769    8.615    7.385 
#    2.769    0.000    0.000    0.000    0.000    0.000 
#    0.000    0.000    0.000    0.000    0.000    0.000 
#
# Total GULP energy -144780.129053 kJ/mol
# GULP energy per Si atom -5568.466502 kJ/mol
# Density = 2.306188 g / cm^3
# Si number density = 23.114489 Si / 1000 Ang^3
#
#
#
# Elastic Constant Matrix: (Units=GPa)
#
#
# Indices 1 2 3 4 5 6 
#
# 1 91.5453 7.7222 25.4244 0.0000 -8.2633 0.0000
# 2 7.7222 42.0050 4.8584 0.0000 1.5404 0.0000
# 3 25.4244 4.8584 90.3240 0.0000 -22.0702 0.0000
# 4 0.0000 0.0000 0.0000 20.9419 0.0000 -0.6949
# 5 -8.2633 1.5404 -22.0702 0.0000 27.1994 0.0000
# 6 0.0000 0.0000 0.0000 -0.6949 0.0000 22.9226
#
#
#
# Elastic Compliance Matrix: (Units=1/GPa)
#
#
# Indices 1 2 3 4 5 6 
#
# 1 0.012028 -0.001921 -0.002947 0.000000 0.001371 0.000000
# 2 -0.001921 0.024460 -0.001567 0.000000 -0.003240 0.000000
# 3 -0.002947 -0.001567 0.014703 0.000000 0.011124 0.000000
# 4 0.000000 0.000000 0.000000 0.047799 0.000000 0.001449
# 5 0.001371 -0.003240 0.011124 0.000000 0.046392 0.000000
# 6 0.000000 0.000000 0.000000 0.001449 0.000000 0.043669
#
#
# Mechanical properties :
#
#
# Convention : Reuss Voigt Hill
#
# Bulk Modulus (GPa) = 26.09485 33.32048 29.70766
# Shear Modulus (GPa) = 23.28897 26.60406 24.94651
#
# Velocity S-wave (km/s) = 3.17763 3.39627 3.28877
# Velocity P-wave (km/s) = 4.97765 5.46134 5.22510
#
# Compressibility (1/GPa) = 0.03832174
#
# Stress axis : x y z
#
# Youngs Moduli (GPa) = 83.14021 40.88340 68.01268
#
# Poissons Ratio (x) = 0.07852 0.20045
# Poissons Ratio (y) = 0.15968 0.10656
# Poissons Ratio (z) = 0.24503 0.06405
#
# Static dielectric constant tensor:
#      x y z
#    x 1.911600 0.000000 0.059840 
#    y 0.000000 1.888280 0.000000 
#    z 0.059840 0.000000 1.915390 
# 
# From -- ./inp_files/68520.got.cif
#   From: 2010.05.17/outbox.cif.g08.bks.cpg/sg14_35_cif.got.tgz:68520.got - 2010.06.03 17:49:19.
