data_PCOD9249151
_publ_section_title
;
Structure prediction by ZEFSAII (Michael W. Deem and Ramdas Pophale) SiO2 
 PCOD9249151
Probable space group: P 21/C
;
_chemical_formula_sum "Si O2"
_cell_formula_units_Z 26
_cell_length_a 9.354142
_cell_length_b 17.146157
_cell_length_c 8.334394
_cell_angle_alpha 90.000000
_cell_angle_beta 46.005220
_cell_angle_gamma 90.000000
_cell_volume 961.650093
_symmetry_space_group_name_H-M "P 21/C"
_symmetry_group_IT_number 14
_symmetry_cell_setting 'monoclinic'
loop_
_space_group_symop_operation_xyz
x,y,z
-x,1/2+y,1/2-z
-x,-y,-z
x,1/2-y,1/2+z
loop_
_atom_site_type_symbol
_atom_site_label
_atom_site_fract_x
_atom_site_fract_y
_atom_site_fract_z
Si Si1 0.882539 0.299867 0.583361
Si Si2 0.730706 0.145929 0.547678
Si Si3 0.301209 0.931913 0.976118
Si Si4 0.324529 0.357141 0.727472
Si Si5 0.693208 0.804266 0.111989
Si Si6 0.500000 0.500000 0.000000
Si Si7 0.884997 0.518821 0.897072
O O1 0.117516 0.308755 0.422309
O O2 0.800072 0.213701 0.612764
O O3 0.809930 0.354032 0.497001
O O4 0.801811 0.330228 0.815229
O O5 0.493164 0.140707 0.705292
O O6 0.818404 0.063217 0.524656
O O7 0.474544 0.906189 0.962801
O O8 0.425812 0.963734 0.729226
O O9 0.117840 0.985038 0.172432
O O10 0.252589 0.322989 0.613842
O O11 0.379416 0.284424 0.801123
O O12 0.170386 0.409699 0.944249
O O13 0.737056 0.522016 0.860726
#
# Coordination Sequence:
#
# PCOD9249151 Si02
#       7
#     4   4   4   4   4   2   4
#     4  12  28  48  83 114 155 220 274 335 408 501
#     4  12  28  52  82 121 165 213 280 341 411 489
#     4  11  25  48  85 119 161 210 279 335 411 498
#     4  11  28  51  83 119 168 214 278 341 417 486
#     4  12  28  51  79 116 163 222 271 344 404 503
#     4  10  22  46  80 118 160 212 258 338 408 488
#     4  11  27  48  84 126 163 215 274 346 418 492
#
# _framework density 27.036860000000001
#
# number of rings (size 3 to 8) (size 9 to 14) (size 15 to 20)
#    0.000    0.615    3.077    2.308    6.462    3.077 
#    0.000    5.385    3.385    0.000    0.000    0.000 
#    0.000    0.000    0.000    0.000    0.000    0.000 
#
# Total GULP energy -145531.359622 kJ/mol
# GULP energy per Si atom -5597.359985 kJ/mol
# Density = 2.697532 g / cm^3
# Si number density = 27.036860 Si / 1000 Ang^3
#
#
#
# Elastic Constant Matrix: (Units=GPa)
#
#
# Indices 1 2 3 4 5 6 
#
# 1 145.1019 9.0542 7.7375 0.0000 -31.0888 0.0000
# 2 9.0542 108.6833 7.4962 0.0000 -2.7398 0.0000
# 3 7.7375 7.4962 92.8603 0.0000 -29.6518 0.0000
# 4 0.0000 0.0000 0.0000 47.1498 0.0000 -3.6248
# 5 -31.0888 -2.7398 -29.6518 0.0000 37.5693 0.0000
# 6 0.0000 0.0000 0.0000 -3.6248 0.0000 23.7411
#
#
#
# Elastic Compliance Matrix: (Units=1/GPa)
#
#
# Indices 1 2 3 4 5 6 
#
# 1 0.008718 -0.000652 0.002159 0.000000 0.008870 0.000000
# 2 -0.000652 0.009302 -0.000872 0.000000 -0.000549 0.000000
# 3 0.002159 -0.000872 0.014986 0.000000 0.013551 0.000000
# 4 0.000000 0.000000 0.000000 0.021461 0.000000 0.003277
# 5 0.008870 -0.000549 0.013551 0.000000 0.044612 0.000000
# 6 0.000000 0.000000 0.000000 0.003277 0.000000 0.042621
#
#
# Mechanical properties :
#
#
# Convention : Reuss Voigt Hill
#
# Bulk Modulus (GPa) = 29.17493 43.91347 36.54420
# Shear Modulus (GPa) = 32.92607 43.18256 38.05431
#
# Velocity S-wave (km/s) = 3.49352 4.00080 3.75573
# Velocity P-wave (km/s) = 5.20453 6.13345 5.68798
#
# Compressibility (1/GPa) = 0.03427601
#
# Stress axis : x y z
#
# Youngs Moduli (GPa) = 114.70889 107.50813 66.72739
#
# Poissons Ratio (x) = 0.07005 -0.14404
# Poissons Ratio (y) = 0.07474 0.05818
# Poissons Ratio (z) = -0.24761 0.09373
#
# Static dielectric constant tensor:
#      x y z
#    x 2.101350 0.000000 -0.018300 
#    y 0.000000 1.858300 0.000000 
#    z -0.018300 0.000000 2.179850 
# 
# From -- ./inp_files/10372.got.cif
#   From: 2010.05.17/outbox.cif.g08.bks.cpg/sg14_6_cif.got.tgz:10372.got - 2010.06.03 17:49:19.
