data_PCOD9249910
_publ_section_title
;
Structure prediction by ZEFSAII (Michael W. Deem and Ramdas Pophale) SiO2 
 PCOD9249910
Probable space group: P 21/C
;
_chemical_formula_sum "Si O2"
_cell_formula_units_Z 20
_cell_length_a 5.468169
_cell_length_b 21.810489
_cell_length_c 9.073231
_cell_angle_alpha 90.000000
_cell_angle_beta 53.945268
_cell_angle_gamma 90.000000
_cell_volume 874.833140
_symmetry_space_group_name_H-M "P 21/C"
_symmetry_group_IT_number 14
_symmetry_cell_setting 'monoclinic'
loop_
_space_group_symop_operation_xyz
x,y,z
-x,1/2+y,1/2-z
-x,-y,-z
x,1/2-y,1/2+z
loop_
_atom_site_type_symbol
_atom_site_label
_atom_site_fract_x
_atom_site_fract_y
_atom_site_fract_z
Si Si1 0.103523 0.271324 0.048154
Si Si2 0.513040 0.301715 0.631166
Si Si3 0.889576 0.006251 0.703219
Si Si4 0.213387 0.054460 0.988280
Si Si5 0.982986 0.125100 0.831096
O O1 0.336508 0.229074 0.057699
O O2 0.808608 0.237278 0.083756
O O3 0.014586 0.320536 0.204604
O O4 0.284613 0.302730 0.849408
O O5 0.653122 0.365283 0.521364
O O6 0.546511 0.029349 0.841172
O O7 0.060964 0.063579 0.715401
O O8 0.000000 0.000000 0.500000
O O9 0.899582 0.946169 0.802605
O O10 0.182873 0.116792 0.906940
O O11 0.000000 0.000000 0.000000
#
# Coordination Sequence:
#
# PCOD9249910 Si02
#       5
#     4   4   4   4   4
#     4  12  25  45  70 100 143 185 235 288 339 424
#     4  12  25  46  68 102 142 185 235 287 343 417
#     4  10  23  44  70 100 137 173 236 287 348 418
#     4   9  22  43  66  97 136 173 224 287 339 421
#     4  11  25  41  71  98 138 184 229 280 365 403
#
# _framework density 22.861504
#
# number of rings (size 3 to 8) (size 9 to 14) (size 15 to 20)
#    0.000    1.200    4.000    0.000    5.600    9.600 
#    0.000    0.000    0.000    0.000    0.000    0.000 
#    0.000    0.000    0.000    0.000    0.000    0.000 
#
# Total GULP energy -111547.592074 kJ/mol
# GULP energy per Si atom -5577.379604 kJ/mol
# Density = 2.280947 g / cm^3
# Si number density = 22.861504 Si / 1000 Ang^3
#
#
#
# Elastic Constant Matrix: (Units=GPa)
#
#
# Indices 1 2 3 4 5 6 
#
# 1 85.1197 23.0694 30.8043 0.0000 21.7543 0.0000
# 2 23.0694 58.6633 35.4055 0.0000 24.4684 0.0000
# 3 30.8043 35.4055 194.9799 0.0000 36.5532 0.0000
# 4 0.0000 0.0000 0.0000 39.9176 0.0000 12.0227
# 5 21.7543 24.4684 36.5532 0.0000 37.6776 0.0000
# 6 0.0000 0.0000 0.0000 12.0227 0.0000 45.1110
#
#
#
# Elastic Compliance Matrix: (Units=1/GPa)
#
#
# Indices 1 2 3 4 5 6 
#
# 1 0.014214 -0.002791 -0.000660 0.000000 -0.005754 0.000000
# 2 -0.002791 0.024403 -0.001615 0.000000 -0.012669 0.000000
# 3 -0.000660 -0.001615 0.006427 0.000000 -0.004805 0.000000
# 4 0.000000 0.000000 0.000000 0.027238 0.000000 -0.007259
# 5 -0.005754 -0.012669 -0.004805 0.000000 0.042753 0.000000
# 6 0.000000 0.000000 0.000000 -0.007259 0.000000 0.024102
#
#
# Mechanical properties :
#
#
# Convention : Reuss Voigt Hill
#
# Bulk Modulus (GPa) = 28.64409 57.48013 43.06211
# Shear Modulus (GPa) = 31.07366 41.17347 36.12357
#
# Velocity S-wave (km/s) = 3.69075 4.24842 3.97937
# Velocity P-wave (km/s) = 5.54245 7.01874 6.32383
#
# Compressibility (1/GPa) = 0.03491122
#
# Stress axis : x y z
#
# Youngs Moduli (GPa) = 70.35275 40.97803 155.58944
#
# Poissons Ratio (x) = 0.11439 0.10270
# Poissons Ratio (y) = 0.19639 0.25130
# Poissons Ratio (z) = 0.04644 0.06619
#
# Static dielectric constant tensor:
#      x y z
#    x 1.983480 0.000000 0.063830 
#    y 0.000000 1.960980 0.000000 
#    z 0.063830 0.000000 1.815530 
# 
# From -- ./inp_files/5854.got.cif
#   From: 2010.05.17/outbox.cif.g08.bks.cpg/sg14_3_cif.got.tgz:5854.got - 2010.06.03 17:49:19.
