data_PCOD9249883
_publ_section_title
;
Structure prediction by ZEFSAII (Michael W. Deem and Ramdas Pophale) SiO2 
 PCOD9249883
Probable space group: P 21/C
;
_chemical_formula_sum "Si O2"
_cell_formula_units_Z 22
_cell_length_a 9.484373
_cell_length_b 11.795784
_cell_length_c 12.514783
_cell_angle_alpha 90.000000
_cell_angle_beta 39.855047
_cell_angle_gamma 90.000000
_cell_volume 897.250022
_symmetry_space_group_name_H-M "P 21/C"
_symmetry_group_IT_number 14
_symmetry_cell_setting 'monoclinic'
loop_
_space_group_symop_operation_xyz
x,y,z
-x,1/2+y,1/2-z
-x,-y,-z
x,1/2-y,1/2+z
loop_
_atom_site_type_symbol
_atom_site_label
_atom_site_fract_x
_atom_site_fract_y
_atom_site_fract_z
Si Si1 0.335870 0.263712 0.645529
Si Si2 0.060687 0.317353 0.632167
Si Si3 0.560240 0.599859 0.723181
Si Si4 0.588304 0.410250 0.863530
Si Si5 0.124905 0.599126 0.865247
Si Si6 0.500000 0.000000 0.000000
O O1 0.095751 0.287858 0.735885
O O2 0.343937 0.180466 0.740572
O O3 0.458341 0.201510 0.474055
O O4 0.454874 0.381747 0.593711
O O5 0.275269 0.391573 0.473275
O O6 0.844122 0.388158 0.733728
O O7 0.030113 0.200959 0.583920
O O8 0.549738 0.472306 0.774135
O O9 0.319815 0.641108 0.830376
O O10 0.500000 0.500000 0.000000
O O11 0.263880 0.551510 0.684865
O O12 0.000000 0.500000 0.000000
#
# Coordination Sequence:
#
# PCOD9249883 Si02
#       6
#     4   4   4   4   4   2
#     4  11  25  46  72 108 146 194 246 313 373 448
#     4  12  23  47  71 112 145 192 253 306 377 445
#     4  11  25  48  75 110 150 193 251 311 380 450
#     4  10  23  44  68 104 147 190 240 301 376 446
#     4  12  27  49  78 110 153 202 250 312 380 454
#     4  12  24  48  70 108 154 194 250 300 372 452
#
# _framework density 24.519363999999999
#
# number of rings (size 3 to 8) (size 9 to 14) (size 15 to 20)
#    0.000    0.727    3.636    2.727    0.000   10.182 
#    6.545    0.000    0.000    0.000    0.000    0.000 
#    0.000    0.000    0.000    0.000    0.000    0.000 
#
# Total GULP energy -122676.282422 kJ/mol
# GULP energy per Si atom -5576.194656 kJ/mol
# Density = 2.446356 g / cm^3
# Si number density = 24.519364 Si / 1000 Ang^3
#
#
#
# Elastic Constant Matrix: (Units=GPa)
#
#
# Indices 1 2 3 4 5 6 
#
# 1 105.4684 -4.5482 1.2903 0.0000 8.4273 0.0000
# 2 -4.5482 90.3457 7.3715 0.0000 9.8198 0.0000
# 3 1.2903 7.3715 91.6430 0.0000 -1.4233 0.0000
# 4 0.0000 0.0000 0.0000 37.7122 0.0000 -10.1355
# 5 8.4273 9.8198 -1.4233 0.0000 31.8407 0.0000
# 6 0.0000 0.0000 0.0000 -10.1355 0.0000 29.9332
#
#
#
# Elastic Compliance Matrix: (Units=1/GPa)
#
#
# Indices 1 2 3 4 5 6 
#
# 1 0.009747 0.000820 -0.000247 0.000000 -0.002844 0.000000
# 2 0.000820 0.011610 -0.001005 0.000000 -0.003842 0.000000
# 3 -0.000247 -0.001005 0.011010 0.000000 0.000868 0.000000
# 4 0.000000 0.000000 0.000000 0.029171 0.000000 0.009878
# 5 -0.002844 -0.003842 0.000868 0.000000 0.033383 0.000000
# 6 0.000000 0.000000 0.000000 0.009878 0.000000 0.036752
#
#
# Mechanical properties :
#
#
# Convention : Reuss Voigt Hill
#
# Bulk Modulus (GPa) = 31.74458 32.85380 32.29919
# Shear Modulus (GPa) = 34.95575 38.78681 36.87128
#
# Velocity S-wave (km/s) = 3.77986 3.98161 3.88204
# Velocity P-wave (km/s) = 5.65903 5.87927 5.77020
#
# Compressibility (1/GPa) = 0.03150144
#
# Stress axis : x y z
#
# Youngs Moduli (GPa) = 102.59438 86.13633 90.82892
#
# Poissons Ratio (x) = -0.07063 0.02247
# Poissons Ratio (y) = -0.08412 0.09129
# Poissons Ratio (z) = 0.02538 0.08657
#
# Static dielectric constant tensor:
#      x y z
#    x 2.002210 0.000000 -0.041110 
#    y 0.000000 2.332250 0.000000 
#    z -0.041110 0.000000 1.917100 
# 
# From -- ./inp_files/29295.got.cif
#   From: 2010.05.17/outbox.cif.g08.bks.cpg/sg14_15_cif.got.tgz:29295.got - 2010.06.03 17:49:19.
