data_PCOD9249546
_publ_section_title
;
Structure prediction by ZEFSAII (Michael W. Deem and Ramdas Pophale) SiO2 
 PCOD9249546
Probable space group: P 21/C
;
_chemical_formula_sum "Si O2"
_cell_formula_units_Z 28
_cell_length_a 13.415725
_cell_length_b 9.679996
_cell_length_c 10.226424
_cell_angle_alpha 90.000000
_cell_angle_beta 58.150026
_cell_angle_gamma 90.000000
_cell_volume 1128.085776
_symmetry_space_group_name_H-M "P 21/C"
_symmetry_group_IT_number 14
_symmetry_cell_setting 'monoclinic'
loop_
_space_group_symop_operation_xyz
x,y,z
-x,1/2+y,1/2-z
-x,-y,-z
x,1/2-y,1/2+z
loop_
_atom_site_type_symbol
_atom_site_label
_atom_site_fract_x
_atom_site_fract_y
_atom_site_fract_z
Si Si1 0.412592 0.047159 0.178856
Si Si2 0.251054 0.706745 0.809347
Si Si3 0.445390 0.558303 0.172475
Si Si4 0.066795 0.514746 0.818735
Si Si5 0.073696 0.913945 0.055502
Si Si6 0.261784 0.131413 0.885676
Si Si7 0.217940 0.262370 0.668206
O O1 0.338053 0.918156 0.290475
O O2 0.475411 0.114287 0.262336
O O3 0.325099 0.151223 0.163078
O O4 0.500000 0.000000 0.000000
O O5 0.341251 0.831412 0.713288
O O6 0.174766 0.622887 0.756451
O O7 0.143402 0.775718 0.966307
O O8 0.390694 0.425067 0.282651
O O9 0.500000 0.500000 0.000000
O O10 0.000392 0.579036 0.740795
O O11 0.105722 0.357634 0.767228
O O12 0.000000 0.500000 0.000000
O O13 0.185231 0.013304 0.006341
O O14 0.000000 0.000000 0.000000
O O15 0.214153 0.139552 0.772177
O O16 0.243138 0.257280 0.998201
#
# Coordination Sequence:
#
# PCOD9249546 Si02
#       7
#     4   4   4   4   4   4   4
#     4  11  24  42  69  97 136 187 226 281 351 409
#     4  10  26  46  70 102 146 183 233 288 352 424
#     4  11  26  40  67 105 135 182 235 278 345 413
#     4  10  24  47  71 101 134 182 229 288 363 411
#     4  10  24  47  71 101 136 178 230 294 354 413
#     4  10  23  43  63  97 134 170 224 282 340 420
#     4  10  23  42  65  95 133 172 223 280 346 418
#
# _framework density 24.820806999999999
#
# number of rings (size 3 to 8) (size 9 to 14) (size 15 to 20)
#    0.000    1.714    1.429    0.000   12.000    2.286 
#    5.143    0.000    0.000    0.000    0.000    0.000 
#    0.000    0.000    0.000    0.000    0.000    0.000 
#
# Total GULP energy -155943.974686 kJ/mol
# GULP energy per Si atom -5569.427667 kJ/mol
# Density = 2.476431 g / cm^3
# Si number density = 24.820807 Si / 1000 Ang^3
#
#
#
# Elastic Constant Matrix: (Units=GPa)
#
#
# Indices 1 2 3 4 5 6 
#
# 1 91.7706 20.7458 53.4704 0.0000 10.4573 0.0000
# 2 20.7458 63.7155 1.5009 0.0000 -9.9122 0.0000
# 3 53.4704 1.5009 124.1064 0.0000 3.6486 0.0000
# 4 0.0000 0.0000 0.0000 44.4863 0.0000 -8.5075
# 5 10.4573 -9.9122 3.6486 0.0000 36.8398 0.0000
# 6 0.0000 0.0000 0.0000 -8.5075 0.0000 49.2948
#
#
#
# Elastic Compliance Matrix: (Units=1/GPa)
#
#
# Indices 1 2 3 4 5 6 
#
# 1 0.017159 -0.006331 -0.007144 0.000000 -0.005867 0.000000
# 2 -0.006331 0.018730 0.002307 0.000000 0.006608 0.000000
# 3 -0.007144 0.002307 0.011062 0.000000 0.001553 0.000000
# 4 0.000000 0.000000 0.000000 0.023246 0.000000 0.004012
# 5 -0.005867 0.006608 0.001553 0.000000 0.030434 0.000000
# 6 0.000000 0.000000 0.000000 0.004012 0.000000 0.020978
#
#
# Mechanical properties :
#
#
# Convention : Reuss Voigt Hill
#
# Bulk Modulus (GPa) = 40.62630 47.89185 44.25907
# Shear Modulus (GPa) = 32.86226 39.71589 36.28907
#
# Velocity S-wave (km/s) = 3.64260 4.00447 3.82781
# Velocity P-wave (km/s) = 5.83907 6.38106 6.11607
#
# Compressibility (1/GPa) = 0.02461460
#
# Stress axis : x y z
#
# Youngs Moduli (GPa) = 58.27904 53.39040 90.40072
#
# Poissons Ratio (x) = 0.33803 0.64580
# Poissons Ratio (y) = 0.36898 -0.20856
# Poissons Ratio (z) = 0.41633 -0.12317
#
# Static dielectric constant tensor:
#      x y z
#    x 0.779100 0.000000 -0.382430 
#    y 0.000000 -6.624310 0.000000 
#    z -0.382430 0.000000 2.035980 
# 
# From -- ./inp_files/15685.got.cif
#   From: 2010.05.17/outbox.cif.g08.bks.cpg/sg14_8_cif.got.tgz:15685.got - 2010.06.03 17:49:19.
