data_PCOD9249798
_publ_section_title
;
Structure prediction by ZEFSAII (Michael W. Deem and Ramdas Pophale) SiO2 
 PCOD9249798
Probable space group: P 21/C
;
_chemical_formula_sum "Si O2"
_cell_formula_units_Z 20
_cell_length_a 11.337986
_cell_length_b 11.827677
_cell_length_c 7.633723
_cell_angle_alpha 90.000000
_cell_angle_beta 48.169012
_cell_angle_gamma 90.000000
_cell_volume 762.772996
_symmetry_space_group_name_H-M "P 21/C"
_symmetry_group_IT_number 14
_symmetry_cell_setting 'monoclinic'
loop_
_space_group_symop_operation_xyz
x,y,z
-x,1/2+y,1/2-z
-x,-y,-z
x,1/2-y,1/2+z
loop_
_atom_site_type_symbol
_atom_site_label
_atom_site_fract_x
_atom_site_fract_y
_atom_site_fract_z
Si Si1 0.807566 0.357982 0.165617
Si Si2 0.630104 0.568010 0.254996
Si Si3 0.657212 0.369420 0.685085
Si Si4 0.158460 0.293022 0.698942
Si Si5 0.165742 0.064636 0.835465
O O1 0.758172 0.467224 0.102101
O O2 0.776442 0.383143 0.400633
O O3 0.696997 0.251250 0.228609
O O4 0.986452 0.323512 0.948048
O O5 0.500000 0.500000 0.500000
O O6 0.518797 0.620022 0.215033
O O7 0.706936 0.658985 0.307895
O O8 0.699775 0.470496 0.774131
O O9 0.171918 0.356393 0.501935
O O10 0.169765 0.157391 0.677485
O O11 0.000000 0.000000 0.000000
#
# Coordination Sequence:
#
# PCOD9249798 Si02
#       5
#     4   4   4   4   4
#     4  11  23  45  71  99 141 183 235 285 357 408
#     4  10  23  43  71  97 144 182 235 287 353 415
#     4  11  25  46  66 105 143 182 232 300 341 424
#     4  12  25  45  75 101 138 189 230 295 347 415
#     4  12  27  45  70 106 141 176 240 284 351 418
#
# _framework density 26.220120999999999
#
# number of rings (size 3 to 8) (size 9 to 14) (size 15 to 20)
#    0.000    0.800    6.000    1.800    2.800    0.000 
#    0.000    1.000    0.000    0.000    0.000    0.000 
#    0.000    0.000    0.000    0.000    0.000    0.000 
#
# Total GULP energy -112295.867016 kJ/mol
# GULP energy per Si atom -5614.793351 kJ/mol
# Density = 2.616044 g / cm^3
# Si number density = 26.220121 Si / 1000 Ang^3
#
#
#
# Elastic Constant Matrix: (Units=GPa)
#
#
# Indices 1 2 3 4 5 6 
#
# 1 161.1966 77.8249 7.7593 0.0000 -14.1734 0.0000
# 2 77.8249 224.5274 2.1764 0.0000 -2.7742 0.0000
# 3 7.7593 2.1764 55.5757 0.0000 -3.0465 0.0000
# 4 0.0000 0.0000 0.0000 38.5589 0.0000 5.2162
# 5 -14.1734 -2.7742 -3.0465 0.0000 61.2968 0.0000
# 6 0.0000 0.0000 0.0000 5.2162 0.0000 63.9132
#
#
#
# Elastic Compliance Matrix: (Units=1/GPa)
#
#
# Indices 1 2 3 4 5 6 
#
# 1 0.007654 -0.002625 -0.000878 0.000000 0.001607 0.000000
# 2 -0.002625 0.005358 0.000137 0.000000 -0.000358 0.000000
# 3 -0.000878 0.000137 0.018149 0.000000 0.000705 0.000000
# 4 0.000000 0.000000 0.000000 0.026224 0.000000 -0.002140
# 5 0.001607 -0.000358 0.000705 0.000000 0.016705 0.000000
# 6 0.000000 0.000000 0.000000 -0.002140 0.000000 0.015821
#
#
# Mechanical properties :
#
#
# Convention : Reuss Voigt Hill
#
# Bulk Modulus (GPa) = 40.93234 68.53565 54.73400
# Shear Modulus (GPa) = 47.71649 56.32304 52.01977
#
# Velocity S-wave (km/s) = 4.27059 4.63977 4.45900
# Velocity P-wave (km/s) = 6.32156 7.40936 6.88697
#
# Compressibility (1/GPa) = 0.02443056
#
# Stress axis : x y z
#
# Youngs Moduli (GPa) = 130.64333 186.64223 55.09845
#
# Poissons Ratio (x) = 0.48989 0.04836
# Poissons Ratio (y) = 0.34291 -0.00755
# Poissons Ratio (z) = 0.11468 -0.02558
#
# Static dielectric constant tensor:
#      x y z
#    x 2.009180 0.000000 0.059590 
#    y 0.000000 2.081400 0.000000 
#    z 0.059590 0.000000 2.163020 
# 
# From -- ./inp_files/7854.got.cif
#   From: 2010.05.17/outbox.cif.g08.bks.cpg/sg14_4_cif.got.tgz:7854.got - 2010.06.03 17:49:19.
