data_PCOD9249514
_publ_section_title
;
Structure prediction by ZEFSAII (Michael W. Deem and Ramdas Pophale) SiO2 
 PCOD9249514
Probable space group: P 21/C
;
_chemical_formula_sum "Si O2"
_cell_formula_units_Z 28
_cell_length_a 13.729290
_cell_length_b 12.565585
_cell_length_c 8.546871
_cell_angle_alpha 90.000000
_cell_angle_beta 128.298393
_cell_angle_gamma 90.000000
_cell_volume 1157.160173
_symmetry_space_group_name_H-M "P 21/C"
_symmetry_group_IT_number 14
_symmetry_cell_setting 'monoclinic'
loop_
_space_group_symop_operation_xyz
x,y,z
-x,1/2+y,1/2-z
-x,-y,-z
x,1/2-y,1/2+z
loop_
_atom_site_type_symbol
_atom_site_label
_atom_site_fract_x
_atom_site_fract_y
_atom_site_fract_z
Si Si1 0.449865 0.265838 0.395270
Si Si2 0.751738 0.579844 0.324034
Si Si3 0.618914 0.260989 0.315532
Si Si4 0.118914 0.760989 0.815532
Si Si5 0.748262 0.920156 0.175965
Si Si6 0.949865 0.765838 0.895269
Si Si7 0.750000 0.447391 1.000000
O O1 0.355848 0.169221 0.284030
O O2 0.497426 0.308639 0.277110
O O3 0.581530 0.229876 0.598908
O O4 0.380172 0.356224 0.422773
O O5 0.750000 0.534948 0.500000
O O6 0.880172 0.643776 0.422773
O O7 0.735525 0.510521 0.149417
O O8 0.750000 0.306674 0.500000
O O9 0.635919 0.134388 0.360173
O O10 0.997426 0.808639 0.777110
O O11 0.081530 0.770124 0.598908
O O12 0.135919 0.634388 0.860173
O O13 0.855848 0.830779 0.284030
O O14 0.764475 0.989479 0.350582
#
# Coordination Sequence:
#
# PCOD9249514 Si02
#       7
#     4   4   4   4   4   4   4
#     4  11  21  44  70  90 129 173 240 256 318 401
#     4  11  23  44  70 103 123 177 226 280 321 389
#     4  10  23  42  63  98 132 180 210 278 331 396
#     4  10  23  42  63  98 132 180 210 278 331 396
#     4  11  23  44  70 103 123 177 226 280 321 389
#     4  11  21  44  70  90 129 173 240 256 318 401
#     4  10  26  42  62 102 146 158 220 272 358 380
#
# _framework density 24.19717
#
# number of rings (size 3 to 8) (size 9 to 14) (size 15 to 20)
#    0.857    0.571    2.857    2.571    4.000    2.286 
#    5.143    0.000    0.000    0.000    0.000    0.000 
#    0.000    0.000    0.000    0.000    0.000    0.000 
#
# Total GULP energy -156118.771967 kJ/mol
# GULP energy per Si atom -5575.670427 kJ/mol
# Density = 2.414210 g / cm^3
# Si number density = 24.197170 Si / 1000 Ang^3
#
#
#
# Elastic Constant Matrix: (Units=GPa)
#
#
# Indices 1 2 3 4 5 6 
#
# 1 133.3701 47.4730 21.3738 0.0000 -23.5688 0.0000
# 2 47.4730 76.8938 35.6361 0.0000 -16.2100 0.0000
# 3 21.3738 35.6361 114.4481 0.0000 -7.1224 0.0000
# 4 0.0000 0.0000 0.0000 33.5005 0.0000 -16.9483
# 5 -23.5688 -16.2100 -7.1224 0.0000 58.9059 0.0000
# 6 0.0000 0.0000 0.0000 -16.9483 0.0000 11.5961
#
#
#
# Elastic Compliance Matrix: (Units=1/GPa)
#
#
# Indices 1 2 3 4 5 6 
#
# 1 0.009926 -0.005642 0.000054 0.000000 0.002426 0.000000
# 2 -0.005642 0.019220 -0.004778 0.000000 0.002454 0.000000
# 3 0.000054 -0.004778 0.010212 0.000000 -0.000059 0.000000
# 4 0.000000 0.000000 0.000000 0.114552 0.000000 0.167423
# 5 0.002426 0.002454 -0.000059 0.000000 0.018615 0.000000
# 6 0.000000 0.000000 0.000000 0.167423 0.000000 0.330935
#
#
# Mechanical properties :
#
#
# Convention : Reuss Voigt Hill
#
# Bulk Modulus (GPa) = 53.69022 59.29753 56.49388
# Shear Modulus (GPa) = 9.42685 35.48242 22.45464
#
# Velocity S-wave (km/s) = 1.97593 3.83350 3.04959
# Velocity P-wave (km/s) = 5.23856 6.64481 5.98314
#
# Compressibility (1/GPa) = 0.01862537
#
# Stress axis : x y z
#
# Youngs Moduli (GPa) = 100.74383 52.02930 97.92718
#
# Poissons Ratio (x) = 0.29355 -0.00528
# Poissons Ratio (y) = 0.56839 0.46792
# Poissons Ratio (z) = -0.00543 0.24861
#
# Static dielectric constant tensor:
#      x y z
#    x 1.963800 0.000000 -0.068040 
#    y 0.000000 1.884520 0.000000 
#    z -0.068040 0.000000 1.959920 
# 
# From -- ./inp_files/16291.got.cif
#   From: 2010.05.17/outbox.cif.g08.bks.cpg/sg14_9_cif.got.tgz:16291.got - 2010.06.03 17:49:19.
