data_PCOD9249757
_publ_section_title
;
Structure prediction by ZEFSAII (Michael W. Deem and Ramdas Pophale) SiO2 
 PCOD9249757
Probable space group: P 21/C
;
_chemical_formula_sum "Si O2"
_cell_formula_units_Z 12
_cell_length_a 6.626759
_cell_length_b 9.706812
_cell_length_c 9.396355
_cell_angle_alpha 90.000000
_cell_angle_beta 132.627597
_cell_angle_gamma 90.000000
_cell_volume 444.713041
_symmetry_space_group_name_H-M "P 21/C"
_symmetry_group_IT_number 14
_symmetry_cell_setting 'monoclinic'
loop_
_space_group_symop_operation_xyz
x,y,z
-x,1/2+y,1/2-z
-x,-y,-z
x,1/2-y,1/2+z
loop_
_atom_site_type_symbol
_atom_site_label
_atom_site_fract_x
_atom_site_fract_y
_atom_site_fract_z
Si Si1 0.777617 0.487738 0.517405
Si Si2 0.088680 0.272848 0.210249
Si Si3 0.570255 0.426617 0.880371
O O1 0.882300 0.354713 0.654404
O O2 0.500229 0.482878 0.292075
O O3 0.000000 0.500000 0.500000
O O4 0.803121 0.629032 0.614263
O O5 0.352084 0.198338 0.270647
O O6 0.875219 0.367189 0.021782
O O7 0.500000 0.500000 0.000000
#
# Coordination Sequence:
#
# PCOD9249757 Si02
#       3
#     4   4   4
#     4  10  23  43  68  97 138 168 225 276 326 391
#     4  11  23  43  72  96 134 180 217 276 337 383
#     4  11  24  44  66  99 139 171 220 278 326 392
#
# _framework density 26.983692999999999
#
# number of rings (size 3 to 8) (size 9 to 14) (size 15 to 20)
#    0.000    1.333    6.667    0.000    4.667    1.333 
#    0.000    8.333    0.000    0.000    0.000    0.000 
#    0.000    0.000    0.000    0.000    0.000    0.000 
#
# Total GULP energy -67104.469794 kJ/mol
# GULP energy per Si atom -5592.039149 kJ/mol
# Density = 2.692228 g / cm^3
# Si number density = 26.983693 Si / 1000 Ang^3
#
#
#
# Elastic Constant Matrix: (Units=GPa)
#
#
# Indices 1 2 3 4 5 6 
#
# 1 102.4664 32.8577 38.1102 0.0000 9.1992 0.0000
# 2 32.8577 171.6942 71.8288 0.0000 -29.5458 0.0000
# 3 38.1102 71.8288 200.5597 0.0000 5.0588 0.0000
# 4 0.0000 0.0000 0.0000 51.3446 0.0000 2.7254
# 5 9.1992 -29.5458 5.0588 0.0000 48.2234 0.0000
# 6 0.0000 0.0000 0.0000 2.7254 0.0000 53.8875
#
#
#
# Elastic Compliance Matrix: (Units=1/GPa)
#
#
# Indices 1 2 3 4 5 6 
#
# 1 0.011236 -0.002200 -0.001262 0.000000 -0.003359 0.000000
# 2 -0.002200 0.008397 -0.002737 0.000000 0.005852 0.000000
# 3 -0.001262 -0.002737 0.006259 0.000000 -0.002093 0.000000
# 4 0.000000 0.000000 0.000000 0.019529 0.000000 -0.000988
# 5 -0.003359 0.005852 -0.002093 0.000000 0.025182 0.000000
# 6 0.000000 0.000000 0.000000 -0.000988 0.000000 0.018607
#
#
# Mechanical properties :
#
#
# Convention : Reuss Voigt Hill
#
# Bulk Modulus (GPa) = 74.11132 84.47929 79.29531
# Shear Modulus (GPa) = 47.12218 52.81933 49.97076
#
# Velocity S-wave (km/s) = 4.18343 4.42911 4.30802
# Velocity P-wave (km/s) = 7.13160 7.58496 7.36177
#
# Compressibility (1/GPa) = 0.01349322
#
# Stress axis : x y z
#
# Youngs Moduli (GPa) = 89.00056 119.08476 159.77181
#
# Poissons Ratio (x) = 0.26201 0.20169
# Poissons Ratio (y) = 0.19582 0.43729
# Poissons Ratio (z) = 0.11235 0.32593
#
# Static dielectric constant tensor:
#      x y z
#    x 2.109550 0.000000 0.036100 
#    y 0.000000 2.135470 0.000000 
#    z 0.036100 0.000000 2.164980 
# 
# From -- ./inp_files/4827.got.cif
#   From: 2010.05.17/outbox.cif.g08.bks.cpg/sg14_3_cif.got.tgz:4827.got - 2010.06.03 17:49:19.
