data_PCOD9249902
_publ_section_title
;
Structure prediction by ZEFSAII (Michael W. Deem and Ramdas Pophale) SiO2 
 PCOD9249902
Probable space group: P 21/C
;
_chemical_formula_sum "Si O2"
_cell_formula_units_Z 32
_cell_length_a 15.321789
_cell_length_b 5.154194
_cell_length_c 21.869567
_cell_angle_alpha 90.000000
_cell_angle_beta 52.223536
_cell_angle_gamma 90.000000
_cell_volume 1365.089243
_symmetry_space_group_name_H-M "P 21/C"
_symmetry_group_IT_number 14
_symmetry_cell_setting 'monoclinic'
loop_
_space_group_symop_operation_xyz
x,y,z
-x,1/2+y,1/2-z
-x,-y,-z
x,1/2-y,1/2+z
loop_
_atom_site_type_symbol
_atom_site_label
_atom_site_fract_x
_atom_site_fract_y
_atom_site_fract_z
Si Si1 0.904421 0.234126 0.996771
Si Si2 0.544256 0.440422 0.309466
Si Si3 0.250838 0.227684 0.233160
Si Si4 0.819125 0.973703 0.354421
Si Si5 0.072106 0.651801 0.768192
Si Si6 0.878084 0.040503 0.133064
Si Si7 0.794541 0.707927 0.997241
Si Si8 0.583093 0.052043 0.647623
O O1 0.865476 0.244851 0.083943
O O2 0.894571 0.512788 0.970148
O O3 0.030653 0.148155 0.934896
O O4 0.830787 0.002329 0.996936
O O5 0.651429 0.528672 0.299983
O O6 0.506875 0.150378 0.339678
O O7 0.573280 0.449847 0.225052
O O8 0.447704 0.657036 0.360497
O O9 0.258199 0.388343 0.167978
O O10 0.235975 0.402687 0.299884
O O11 0.133188 0.085836 0.274212
O O12 0.769434 0.865628 0.438007
O O13 0.946394 0.869233 0.301149
O O14 0.850562 0.270196 0.322993
O O15 0.078293 0.860398 0.820378
O O16 0.696738 0.581654 0.078828
#
# Coordination Sequence:
#
# PCOD9249902 Si02
#       8
#     4   4   4   4   4   4   4   4
#     4  11  25  39  64  97 140 170 215 262 334 405
#     4  10  23  44  69  97 123 164 218 276 344 386
#     4  11  24  40  68  90 129 178 226 269 316 394
#     4  11  24  39  62  94 131 181 223 259 313 385
#     4  11  22  40  63  90 135 177 225 264 309 386
#     4  10  24  38  60 100 131 174 213 275 323 392
#     4  12  25  43  67  95 133 180 215 268 336 391
#     4  10  23  44  69  95 128 159 215 287 337 396
#
# _framework density 23.441690999999999
#
# number of rings (size 3 to 8) (size 9 to 14) (size 15 to 20)
#    0.000    1.250    2.500    2.250   10.500    2.000 
#    0.000    1.250    0.000    0.000    0.000    0.000 
#    0.000    0.000    0.000    0.000    0.000    0.000 
#
# Total GULP energy -178793.228547 kJ/mol
# GULP energy per Si atom -5587.288392 kJ/mol
# Density = 2.338834 g / cm^3
# Si number density = 23.441691 Si / 1000 Ang^3
#
#
#
# Elastic Constant Matrix: (Units=GPa)
#
#
# Indices 1 2 3 4 5 6 
#
# 1 59.0342 6.1759 2.7967 0.0000 11.5272 0.0000
# 2 6.1759 70.3471 3.9820 0.0000 9.8584 0.0000
# 3 2.7967 3.9820 50.2728 0.0000 8.2443 0.0000
# 4 0.0000 0.0000 0.0000 20.1653 0.0000 -2.5807
# 5 11.5272 9.8584 8.2443 0.0000 30.4190 0.0000
# 6 0.0000 0.0000 0.0000 -2.5807 0.0000 29.5630
#
#
#
# Elastic Compliance Matrix: (Units=1/GPa)
#
#
# Indices 1 2 3 4 5 6 
#
# 1 0.018324 -0.000669 0.000143 0.000000 -0.006766 0.000000
# 2 -0.000669 0.014924 -0.000412 0.000000 -0.004472 0.000000
# 3 0.000143 -0.000412 0.020829 0.000000 -0.005566 0.000000
# 4 0.000000 0.000000 0.000000 0.050150 0.000000 0.004378
# 5 -0.006766 -0.004472 -0.005566 0.000000 0.038396 0.000000
# 6 0.000000 0.000000 0.000000 0.004378 0.000000 0.034208
#
#
# Mechanical properties :
#
#
# Convention : Reuss Voigt Hill
#
# Bulk Modulus (GPa) = 19.15624 22.84037 20.99831
# Shear Modulus (GPa) = 25.49648 27.14278 26.31963
#
# Velocity S-wave (km/s) = 3.30154 3.40646 3.35441
# Velocity P-wave (km/s) = 4.76688 5.02361 4.89693
#
# Compressibility (1/GPa) = 0.05220230
#
# Stress axis : x y z
#
# Youngs Moduli (GPa) = 54.57439 67.00666 48.01028
#
# Poissons Ratio (x) = 0.04480 -0.00687
# Poissons Ratio (y) = 0.03649 0.01976
# Poissons Ratio (z) = -0.00781 0.02758
#
# Static dielectric constant tensor:
#      x y z
#    x 1.898830 0.000000 -0.003480 
#    y 0.000000 2.002960 0.000000 
#    z -0.003480 0.000000 1.916990 
# 
# From -- ./inp_files/73559.got.cif
#   From: 2010.05.17/outbox.cif.g08.bks.cpg/sg14_37_cif.got.tgz:73559.got - 2010.06.03 17:49:19.
