data_PCOD9249659
_publ_section_title
;
Structure prediction by ZEFSAII (Michael W. Deem and Ramdas Pophale) SiO2 
 PCOD9249659
Probable space group: P 21/C
;
_chemical_formula_sum "Si O2"
_cell_formula_units_Z 24
_cell_length_a 8.266874
_cell_length_b 22.966425
_cell_length_c 12.294520
_cell_angle_alpha 90.000000
_cell_angle_beta 27.630038
_cell_angle_gamma 90.000000
_cell_volume 1082.530443
_symmetry_space_group_name_H-M "P 21/C"
_symmetry_group_IT_number 14
_symmetry_cell_setting 'monoclinic'
loop_
_space_group_symop_operation_xyz
x,y,z
-x,1/2+y,1/2-z
-x,-y,-z
x,1/2-y,1/2+z
loop_
_atom_site_type_symbol
_atom_site_label
_atom_site_fract_x
_atom_site_fract_y
_atom_site_fract_z
Si Si1 0.531260 0.845965 0.391113
Si Si2 0.458744 0.442985 0.953839
Si Si3 0.328487 0.621580 0.370183
Si Si4 0.624841 0.067093 0.931954
Si Si5 0.490477 0.835999 0.174087
Si Si6 0.265947 0.783411 0.734420
O O1 0.386614 0.894116 0.558724
O O2 0.370462 0.847447 0.368600
O O3 0.473795 0.788720 0.496771
O O4 0.934722 0.861256 0.134376
O O5 0.047538 0.433851 0.178769
O O6 0.500000 0.500000 0.000000
O O7 0.647104 0.433441 0.726598
O O8 0.490816 0.600085 0.387352
O O9 0.440330 0.676848 0.227399
O O10 0.512179 0.106756 0.897612
O O11 0.500000 0.000000 0.000000
O O12 0.255723 0.784003 0.268961
O O13 0.878158 0.808455 0.949250
#
# Coordination Sequence:
#
# PCOD9249659 Si02
#       6
#     4   4   4   4   4   4
#     4   9  22  42  66  94 128 168 223 270 335 395
#     4  10  23  42  72  92 131 183 226 267 332 403
#     4   9  22  44  66  94 130 173 223 271 334 389
#     4  11  27  42  65 102 142 175 226 280 338 403
#     4  11  26  42  68  97 134 171 224 280 337 403
#     4  10  24  43  68  94 128 174 221 276 345 395
#
# _framework density 22.170276000000001
#
# number of rings (size 3 to 8) (size 9 to 14) (size 15 to 20)
#    0.000    2.000    0.000    0.000   18.667    4.667 
#    0.000    0.000    0.000    0.000    0.000    0.000 
#    0.000    0.000    0.000    0.000    0.000    0.000 
#
# Total GULP energy -133916.655487 kJ/mol
# GULP energy per Si atom -5579.860645 kJ/mol
# Density = 2.211982 g / cm^3
# Si number density = 22.170276 Si / 1000 Ang^3
#
#
#
# Elastic Constant Matrix: (Units=GPa)
#
#
# Indices 1 2 3 4 5 6 
#
# 1 115.8697 56.5717 46.5938 0.0000 30.3839 0.0000
# 2 56.5717 89.3187 -0.3381 0.0000 1.0205 0.0000
# 3 46.5938 -0.3381 75.2294 0.0000 11.8897 0.0000
# 4 0.0000 0.0000 0.0000 21.0847 0.0000 -1.5284
# 5 30.3839 1.0205 11.8897 0.0000 52.0707 0.0000
# 6 0.0000 0.0000 0.0000 -1.5284 0.0000 48.2797
#
#
#
# Elastic Compliance Matrix: (Units=1/GPa)
#
#
# Indices 1 2 3 4 5 6 
#
# 1 0.024408 -0.015386 -0.013469 0.000000 -0.010865 0.000000
# 2 -0.015386 0.020898 0.008579 0.000000 0.006609 0.000000
# 3 -0.013469 0.008579 0.021224 0.000000 0.002845 0.000000
# 4 0.000000 0.000000 0.000000 0.047537 0.000000 0.001505
# 5 -0.010865 0.006609 0.002845 0.000000 0.024765 0.000000
# 6 0.000000 0.000000 0.000000 0.001505 0.000000 0.020760
#
#
# Mechanical properties :
#
#
# Convention : Reuss Voigt Hill
#
# Bulk Modulus (GPa) = 38.49607 54.00806 46.25207
# Shear Modulus (GPa) = 23.94605 36.12639 30.03622
#
# Velocity S-wave (km/s) = 3.29005 4.04108 3.68475
# Velocity P-wave (km/s) = 5.64217 6.79612 6.24585
#
# Compressibility (1/GPa) = 0.02597667
#
# Stress axis : x y z
#
# Youngs Moduli (GPa) = 40.97089 47.85209 47.11727
#
# Poissons Ratio (x) = 0.73624 0.63462
# Poissons Ratio (y) = 0.63037 -0.40420
# Poissons Ratio (z) = 0.55183 -0.41051
#
# Static dielectric constant tensor:
#      x y z
#    x 1.866830 0.000000 0.004990 
#    y 0.000000 1.913180 0.000000 
#    z 0.004990 0.000000 1.905440 
# 
# From -- ./inp_files/26993.got.cif
#   From: 2010.05.17/outbox.cif.g08.bks.cpg/sg14_14_cif.got.tgz:26993.got - 2010.06.03 17:49:19.
