data_PCOD9249450
_publ_section_title
;
Structure prediction by ZEFSAII (Michael W. Deem and Ramdas Pophale) SiO2 
 PCOD9249450
Probable space group: P 21/C
;
_chemical_formula_sum "Si O2"
_cell_formula_units_Z 28
_cell_length_a 12.327074
_cell_length_b 8.438987
_cell_length_c 13.435515
_cell_angle_alpha 90.000000
_cell_angle_beta 63.803164
_cell_angle_gamma 90.000000
_cell_volume 1254.105168
_symmetry_space_group_name_H-M "P 21/C"
_symmetry_group_IT_number 14
_symmetry_cell_setting 'monoclinic'
loop_
_space_group_symop_operation_xyz
x,y,z
-x,1/2+y,1/2-z
-x,-y,-z
x,1/2-y,1/2+z
loop_
_atom_site_type_symbol
_atom_site_label
_atom_site_fract_x
_atom_site_fract_y
_atom_site_fract_z
Si Si1 0.244466 0.830723 0.181381
Si Si2 0.388396 0.452663 0.477882
Si Si3 0.033436 0.032302 0.316575
Si Si4 0.283511 0.889388 0.835538
Si Si5 0.378602 0.412153 0.006536
Si Si6 0.848420 0.621371 0.748083
Si Si7 0.804601 0.369398 0.991960
O O1 0.323614 0.725109 0.227114
O O2 0.204771 0.705471 0.114772
O O3 0.286571 0.977374 0.094455
O O4 0.135449 0.901618 0.288666
O O5 0.500000 0.500000 0.500000
O O6 0.380118 0.543413 0.375742
O O7 0.396660 0.265073 0.459934
O O8 0.098004 0.202964 0.286817
O O9 0.926633 0.032568 0.440594
O O10 0.961043 0.979497 0.246124
O O11 0.205948 0.035890 0.826231
O O12 0.198529 0.778189 0.935486
O O13 0.269480 0.384068 0.131113
O O14 0.315775 0.524876 0.949890
O O15 0.500000 0.500000 0.000000
#
# Coordination Sequence:
#
# PCOD9249450 Si02
#       7
#     4   4   4   4   4   4   4
#     4  11  21  43  67  99 141 178 234 281 345 415
#     4  11  26  48  71 100 140 180 231 297 351 406
#     4  11  20  40  68  99 144 185 221 294 343 401
#     4  11  24  44  67 105 134 185 240 278 350 427
#     4  11  22  45  72  96 139 180 228 295 354 398
#     4  11  22  41  71 102 138 191 234 279 354 413
#     4  10  23  41  67  97 143 181 226 298 337 405
#
# _framework density 22.326675999999999
#
# number of rings (size 3 to 8) (size 9 to 14) (size 15 to 20)
#    0.000    1.143    5.714    1.714    0.000    2.286 
#    5.143    0.000    0.000    0.000    0.000    0.000 
#    0.000    0.000    0.000    0.000    0.000    0.000 
#
# Total GULP energy -156023.762575 kJ/mol
# GULP energy per Si atom -5572.277235 kJ/mol
# Density = 2.227586 g / cm^3
# Si number density = 22.326676 Si / 1000 Ang^3
#
#
#
# Elastic Constant Matrix: (Units=GPa)
#
#
# Indices 1 2 3 4 5 6 
#
# 1 109.8094 44.6781 27.4264 0.0000 11.8894 0.0000
# 2 44.6781 129.7673 23.8716 0.0000 10.4235 0.0000
# 3 27.4264 23.8716 48.3689 0.0000 15.2340 0.0000
# 4 0.0000 0.0000 0.0000 31.9761 0.0000 4.9665
# 5 11.8894 10.4235 15.2340 0.0000 40.2693 0.0000
# 6 0.0000 0.0000 0.0000 4.9665 0.0000 43.7722
#
#
#
# Elastic Compliance Matrix: (Units=1/GPa)
#
#
# Indices 1 2 3 4 5 6 
#
# 1 0.011646 -0.003054 -0.004839 0.000000 -0.000817 0.000000
# 2 -0.003054 0.009294 -0.002703 0.000000 -0.000481 0.000000
# 3 -0.004839 -0.002703 0.027340 0.000000 -0.008214 0.000000
# 4 0.000000 0.000000 0.000000 0.031834 0.000000 -0.003612
# 5 -0.000817 -0.000481 -0.008214 0.000000 0.028306 0.000000
# 6 0.000000 0.000000 0.000000 -0.003612 0.000000 0.023255
#
#
# Mechanical properties :
#
#
# Convention : Reuss Voigt Hill
#
# Bulk Modulus (GPa) = 36.91868 53.32200 45.12034
# Shear Modulus (GPa) = 30.88377 36.00149 33.44263
#
# Velocity S-wave (km/s) = 3.72327 4.01994 3.87444
# Velocity P-wave (km/s) = 5.92074 6.74396 6.34571
#
# Compressibility (1/GPa) = 0.02708656
#
# Stress axis : x y z
#
# Youngs Moduli (GPa) = 85.86359 107.60185 36.57688
#
# Poissons Ratio (x) = 0.32861 0.17700
# Poissons Ratio (y) = 0.26222 0.09888
# Poissons Ratio (z) = 0.41551 0.29090
#
# Static dielectric constant tensor:
#      x y z
#    x 1.864740 0.000000 0.021010 
#    y 0.000000 1.858310 0.000000 
#    z 0.021010 0.000000 1.787750 
# 
# From -- ./inp_files/43359.got.cif
#   From: 2010.05.17/outbox.cif.g08.bks.cpg/sg14_22_cif.got.tgz:43359.got - 2010.06.03 17:49:19.
