data_PCOD9249591
_publ_section_title
;
Structure prediction by ZEFSAII (Michael W. Deem and Ramdas Pophale) SiO2 
 PCOD9249591
Probable space group: P 21/C
;
_chemical_formula_sum "Si O2"
_cell_formula_units_Z 20
_cell_length_a 4.923830
_cell_length_b 8.249437
_cell_length_c 17.991620
_cell_angle_alpha 90.000000
_cell_angle_beta 100.426692
_cell_angle_gamma 90.000000
_cell_volume 718.730991
_symmetry_space_group_name_H-M "P 21/C"
_symmetry_group_IT_number 14
_symmetry_cell_setting 'monoclinic'
loop_
_space_group_symop_operation_xyz
x,y,z
-x,1/2+y,1/2-z
-x,-y,-z
x,1/2-y,1/2+z
loop_
_atom_site_type_symbol
_atom_site_label
_atom_site_fract_x
_atom_site_fract_y
_atom_site_fract_z
Si Si1 0.057833 0.747840 0.294541
Si Si2 0.314646 0.157117 0.009035
Si Si3 0.486331 0.756438 0.687745
Si Si4 0.805192 0.953557 0.417926
Si Si5 0.046107 0.961316 0.115163
O O1 0.803524 0.742585 0.224246
O O2 0.976691 0.871659 0.357147
O O3 0.068271 0.564045 0.324055
O O4 0.334000 0.764447 0.260652
O O5 0.405448 0.320876 0.053786
O O6 0.080160 0.098695 0.054564
O O7 0.146280 0.181173 0.924822
O O8 0.500000 0.000000 0.000000
O O9 0.629113 0.404665 0.868551
O O10 0.352718 0.600897 0.642109
O O11 0.000000 0.000000 0.500000
#
# Coordination Sequence:
#
# PCOD9249591 Si02
#       5
#     4   4   4   4   4
#     4  11  27  45  73 104 155 202 251 318 410 476
#     4  10  23  44  71 102 143 195 248 322 398 464
#     4  12  25  48  71 110 147 201 257 325 396 477
#     4  11  24  48  77 116 151 203 278 338 388 486
#     4  10  23  42  67  98 141 193 243 306 393 465
#
# _framework density 27.826826000000001
#
# number of rings (size 3 to 8) (size 9 to 14) (size 15 to 20)
#    0.000    1.200    2.000    2.400    8.400    0.000 
#    7.200    5.000    0.000    0.000    0.000    0.000 
#    0.000    0.000    0.000    0.000    0.000    0.000 
#
# Total GULP energy -111764.758161 kJ/mol
# GULP energy per Si atom -5588.237908 kJ/mol
# Density = 2.776349 g / cm^3
# Si number density = 27.826826 Si / 1000 Ang^3
#
#
#
# Elastic Constant Matrix: (Units=GPa)
#
#
# Indices 1 2 3 4 5 6 
#
# 1 57.5297 12.4742 16.9272 0.0000 -1.2186 0.0000
# 2 12.4742 92.8146 59.8128 0.0000 -6.4111 0.0000
# 3 16.9272 59.8128 184.7185 0.0000 -10.3501 0.0000
# 4 0.0000 0.0000 0.0000 99.0645 0.0000 -33.4960
# 5 -1.2186 -6.4111 -10.3501 0.0000 42.2789 0.0000
# 6 0.0000 0.0000 0.0000 -33.4960 0.0000 59.8189
#
#
#
# Elastic Compliance Matrix: (Units=1/GPa)
#
#
# Indices 1 2 3 4 5 6 
#
# 1 0.018079 -0.001722 -0.001100 0.000000 -0.000009 0.000000
# 2 -0.001722 0.013821 -0.004261 0.000000 0.001003 0.000000
# 3 -0.001100 -0.004261 0.006952 0.000000 0.001024 0.000000
# 4 0.000000 0.000000 0.000000 0.012452 0.000000 0.006973
# 5 -0.000009 0.001003 0.001024 0.000000 0.024055 0.000000
# 6 0.000000 0.000000 0.000000 0.006973 0.000000 0.020622
#
#
# Mechanical properties :
#
#
# Convention : Reuss Voigt Hill
#
# Bulk Modulus (GPa) = 40.50873 57.05458 48.78166
# Shear Modulus (GPa) = 42.23885 56.62236 49.43061
#
# Velocity S-wave (km/s) = 3.90027 4.51578 4.21927
# Velocity P-wave (km/s) = 5.90524 6.90925 6.42688
#
# Compressibility (1/GPa) = 0.02468604
#
# Stress axis : x y z
#
# Youngs Moduli (GPa) = 55.31273 72.35368 143.85104
#
# Poissons Ratio (x) = 0.12457 0.15820
# Poissons Ratio (y) = 0.09523 0.61300
# Poissons Ratio (z) = 0.06083 0.30832
#
# Static dielectric constant tensor:
#      x y z
#    x 1.889520 0.000000 0.203600 
#    y 0.000000 2.248820 0.000000 
#    z 0.203600 0.000000 2.180280 
# 
# From -- ./inp_files/62954.got.cif
#   From: 2010.05.17/outbox.cif.g08.bks.cpg/sg14_32_cif.got.tgz:62954.got - 2010.06.03 17:49:19.
