data_PCOD9249195
_publ_section_title
;
Structure prediction by ZEFSAII (Michael W. Deem and Ramdas Pophale) SiO2 
 PCOD9249195
Probable space group: P 21/C
;
_chemical_formula_sum "Si O2"
_cell_formula_units_Z 16
_cell_length_a 4.851064
_cell_length_b 4.829441
_cell_length_c 23.297201
_cell_angle_alpha 90.000000
_cell_angle_beta 70.683411
_cell_angle_gamma 90.000000
_cell_volume 515.079152
_symmetry_space_group_name_H-M "P 21/C"
_symmetry_group_IT_number 14
_symmetry_cell_setting 'monoclinic'
loop_
_space_group_symop_operation_xyz
x,y,z
-x,1/2+y,1/2-z
-x,-y,-z
x,1/2-y,1/2+z
loop_
_atom_site_type_symbol
_atom_site_label
_atom_site_fract_x
_atom_site_fract_y
_atom_site_fract_z
Si Si1 0.369261 0.699145 0.901414
Si Si2 0.500000 0.000000 0.000000
Si Si3 0.000000 0.500000 0.000000
Si Si4 0.120816 0.800557 0.620135
Si Si5 0.360453 0.030302 0.788431
O O1 0.090696 0.474552 0.910577
O O2 0.653769 0.523592 0.872906
O O3 0.365169 0.927858 0.853725
O O4 0.275422 0.757556 0.972925
O O5 0.714233 0.061398 0.924525
O O6 0.737028 0.727119 0.004401
O O7 0.943765 0.689378 0.686879
O O8 0.409146 0.755514 0.748799
#
# Coordination Sequence:
#
# PCOD9249195 Si02
#       5
#     4   2   2   4   4
#     4  11  27  48  84 121 168 217 282 366 437 520
#     4  10  24  44  82 128 150 200 276 360 452 486
#     4  10  22  48  82 126 166 204 274 366 460 502
#     4  11  27  48  84 121 168 217 282 366 437 520
#     4  12  31  57  82 117 177 248 292 348 432 536
#
# _framework density 31.063182999999999
#
# number of rings (size 3 to 8) (size 9 to 14) (size 15 to 20)
#    0.000    1.000    0.000    4.500   21.000    2.000 
#    4.500    0.000    0.000    0.000    0.000    0.000 
#    0.000    0.000    0.000    0.000    0.000    0.000 
#
# Total GULP energy -89524.580991 kJ/mol
# GULP energy per Si atom -5595.286312 kJ/mol
# Density = 3.099248 g / cm^3
# Si number density = 31.063183 Si / 1000 Ang^3
#
#
#
# Elastic Constant Matrix: (Units=GPa)
#
#
# Indices 1 2 3 4 5 6 
#
# 1 201.6149 66.6785 55.6825 0.0000 -9.0542 0.0000
# 2 66.6785 277.3816 90.7363 0.0000 -19.6024 0.0000
# 3 55.6825 90.7363 204.3009 0.0000 -30.6575 0.0000
# 4 0.0000 0.0000 0.0000 108.4763 0.0000 -6.1857
# 5 -9.0542 -19.6024 -30.6575 0.0000 57.6448 0.0000
# 6 0.0000 0.0000 0.0000 -6.1857 0.0000 62.1284
#
#
#
# Elastic Compliance Matrix: (Units=1/GPa)
#
#
# Indices 1 2 3 4 5 6 
#
# 1 0.005586 -0.000989 -0.001089 0.000000 -0.000038 0.000000
# 2 -0.000989 0.004405 -0.001614 0.000000 0.000484 0.000000
# 3 -0.001089 -0.001614 0.006303 0.000000 0.002632 0.000000
# 4 0.000000 0.000000 0.000000 0.009271 0.000000 0.000923
# 5 -0.000038 0.000484 0.002632 0.000000 0.018906 0.000000
# 6 0.000000 0.000000 0.000000 0.000923 0.000000 0.016188
#
#
# Mechanical properties :
#
#
# Convention : Reuss Voigt Hill
#
# Bulk Modulus (GPa) = 112.23259 123.27689 117.75474
# Shear Modulus (GPa) = 70.40794 76.99658 73.70226
#
# Velocity S-wave (km/s) = 4.76605 4.98406 4.87628
# Velocity P-wave (km/s) = 8.15450 8.53775 8.34832
#
# Compressibility (1/GPa) = 0.00891007
#
# Stress axis : x y z
#
# Youngs Moduli (GPa) = 179.01399 227.00390 158.64343
#
# Poissons Ratio (x) = 0.22459 0.17274
# Poissons Ratio (y) = 0.17711 0.25608
# Poissons Ratio (z) = 0.19492 0.36643
#
# Static dielectric constant tensor:
#      x y z
#    x 2.828810 0.000000 0.196400 
#    y 0.000000 2.543850 0.000000 
#    z 0.196400 0.000000 3.033690 
# 
# From -- ./inp_files/62839.got.cif
#   From: 2010.05.17/outbox.cif.g08.bks.cpg/sg14_32_cif.got.tgz:62839.got - 2010.06.03 17:49:19.
