data_PCOD9249611
_publ_section_title
;
Structure prediction by ZEFSAII (Michael W. Deem and Ramdas Pophale) SiO2 
 PCOD9249611
Probable space group: P 21/C
;
_chemical_formula_sum "Si O2"
_cell_formula_units_Z 32
_cell_length_a 8.836350
_cell_length_b 14.850110
_cell_length_c 12.912492
_cell_angle_alpha 90.000000
_cell_angle_beta 120.172298
_cell_angle_gamma 90.000000
_cell_volume 1464.828020
_symmetry_space_group_name_H-M "P 21/C"
_symmetry_group_IT_number 14
_symmetry_cell_setting 'monoclinic'
loop_
_space_group_symop_operation_xyz
x,y,z
-x,1/2+y,1/2-z
-x,-y,-z
x,1/2-y,1/2+z
loop_
_atom_site_type_symbol
_atom_site_label
_atom_site_fract_x
_atom_site_fract_y
_atom_site_fract_z
Si Si1 0.489543 0.263421 0.514906
Si Si2 0.856612 0.333344 0.693275
Si Si3 0.983217 0.104066 0.019720
Si Si4 0.340245 0.205398 0.169114
Si Si5 0.952743 0.354701 0.273705
Si Si6 0.363736 0.920945 0.479261
Si Si7 0.681034 0.616139 0.696946
Si Si8 0.672985 0.430548 0.801778
O O1 0.674992 0.279672 0.630576
O O2 0.347984 0.255980 0.555241
O O3 0.518112 0.169388 0.468273
O O4 0.449983 0.353015 0.437710
O O5 0.873506 0.378190 0.586450
O O6 0.985839 0.249811 0.752947
O O7 0.832399 0.396773 0.783828
O O8 0.170012 0.144285 0.115571
O O9 0.924118 0.144865 0.888235
O O10 0.000000 0.000000 0.000000
O O11 0.323842 0.293556 0.234521
O O12 0.508761 0.139362 0.240197
O O13 0.131684 0.400319 0.294267
O O14 0.788580 0.402005 0.158071
O O15 0.277005 0.937867 0.560935
O O16 0.500000 0.000000 0.500000
O O17 0.623053 0.528302 0.739536
#
# Coordination Sequence:
#
# PCOD9249611 Si02
#       8
#     4   4   4   4   4   4   4   4
#     4  10  23  42  68  97 139 185 229 286 357 425
#     4  10  25  43  69 103 140 181 238 300 356 427
#     4  12  26  43  71 106 139 183 242 297 359 428
#     4  11  24  44  70 105 137 187 236 302 357 425
#     4  11  26  45  72 101 145 190 232 299 365 420
#     4  11  25  47  72 107 141 188 238 294 357 438
#     4  12  23  45  70 103 143 188 237 294 367 425
#     4  11  26  44  72 106 141 187 243 293 362 433
#
# _framework density 21.845568
#
# number of rings (size 3 to 8) (size 9 to 14) (size 15 to 20)
#    0.000    1.000    3.750    1.500    7.000    2.500 
#    2.250    0.000    0.000    0.000    0.000    0.000 
#    0.000    0.000    0.000    0.000    0.000    0.000 
#
# Total GULP energy -178446.790995 kJ/mol
# GULP energy per Si atom -5576.462219 kJ/mol
# Density = 2.179585 g / cm^3
# Si number density = 21.845568 Si / 1000 Ang^3
#
#
#
# Elastic Constant Matrix: (Units=GPa)
#
#
# Indices 1 2 3 4 5 6 
#
# 1 81.7496 24.2996 24.5718 0.0000 -18.2052 0.0000
# 2 24.2996 85.8909 13.5615 0.0000 -16.7188 0.0000
# 3 24.5718 13.5615 89.8613 0.0000 -28.8669 0.0000
# 4 0.0000 0.0000 0.0000 30.4854 0.0000 -9.9493
# 5 -18.2052 -16.7188 -28.8669 0.0000 34.4514 0.0000
# 6 0.0000 0.0000 0.0000 -9.9493 0.0000 29.6999
#
#
#
# Elastic Compliance Matrix: (Units=1/GPa)
#
#
# Indices 1 2 3 4 5 6 
#
# 1 0.014769 -0.002949 -0.002116 0.000000 0.004601 0.000000
# 2 -0.002949 0.013446 0.000510 0.000000 0.005394 0.000000
# 3 -0.002116 0.000510 0.015530 0.000000 0.012143 0.000000
# 4 0.000000 0.000000 0.000000 0.036829 0.000000 0.012338
# 5 0.004601 0.005394 0.012143 0.000000 0.044250 0.000000
# 6 0.000000 0.000000 0.000000 0.012338 0.000000 0.037803
#
#
# Mechanical properties :
#
#
# Convention : Reuss Voigt Hill
#
# Bulk Modulus (GPa) = 28.87046 42.48528 35.67787
# Shear Modulus (GPa) = 27.28018 31.93192 29.60605
#
# Velocity S-wave (km/s) = 3.53763 3.82738 3.68536
# Velocity P-wave (km/s) = 5.47091 6.24676 5.87166
#
# Compressibility (1/GPa) = 0.03463748
#
# Stress axis : x y z
#
# Youngs Moduli (GPa) = 67.70713 74.36906 64.38976
#
# Poissons Ratio (x) = 0.21930 0.13622
# Poissons Ratio (y) = 0.19966 -0.03283
# Poissons Ratio (z) = 0.14324 -0.03792
#
# Static dielectric constant tensor:
#      x y z
#    x 1.845060 0.000000 -0.031760 
#    y 0.000000 1.828510 0.000000 
#    z -0.031760 0.000000 1.875450 
# 
# From -- ./inp_files/25556.got.cif
#   From: 2010.05.17/outbox.cif.g08.bks.cpg/sg14_13_cif.got.tgz:25556.got - 2010.06.03 17:49:19.
