data_PCOD9249872
_publ_section_title
;
Structure prediction by ZEFSAII (Michael W. Deem and Ramdas Pophale) SiO2 
 PCOD9249872
Probable space group: P 21/C
;
_chemical_formula_sum "Si O2"
_cell_formula_units_Z 32
_cell_length_a 8.722076
_cell_length_b 14.647500
_cell_length_c 24.003427
_cell_angle_alpha 90.000000
_cell_angle_beta 30.321891
_cell_angle_gamma 90.000000
_cell_volume 1548.194093
_symmetry_space_group_name_H-M "P 21/C"
_symmetry_group_IT_number 14
_symmetry_cell_setting 'monoclinic'
loop_
_space_group_symop_operation_xyz
x,y,z
-x,1/2+y,1/2-z
-x,-y,-z
x,1/2-y,1/2+z
loop_
_atom_site_type_symbol
_atom_site_label
_atom_site_fract_x
_atom_site_fract_y
_atom_site_fract_z
Si Si1 0.128830 0.189599 0.407706
Si Si2 0.782592 0.320642 0.746183
Si Si3 0.294287 0.918717 0.618042
Si Si4 0.712817 0.360613 0.515270
Si Si5 0.218830 0.494137 0.318797
Si Si6 0.464717 0.584300 0.888570
Si Si7 0.318524 0.426325 0.743095
Si Si8 0.337810 0.287867 0.079401
O O1 0.426771 0.198270 0.351181
O O2 0.232584 0.153142 0.314437
O O3 0.956414 0.284569 0.457384
O O4 0.883461 0.116117 0.506726
O O5 0.837846 0.355790 0.791291
O O6 0.845964 0.404780 0.684772
O O7 0.999559 0.235676 0.667017
O O8 0.485191 0.855315 0.517045
O O9 0.006081 0.962523 0.676798
O O10 0.495200 0.995098 0.585364
O O11 0.504098 0.388520 0.632470
O O12 0.513051 0.308648 0.531351
O O13 0.908660 0.445467 0.432741
O O14 0.382349 0.438788 0.217861
O O15 0.460558 0.505450 0.292923
O O16 0.638278 0.664523 0.867518
#
# Coordination Sequence:
#
# PCOD9249872 Si02
#       8
#     4   4   4   4   4   4   4   4
#     4  10  24  42  68  96 133 172 217 276 318 385
#     4  10  24  44  60  99 133 169 219 271 319 395
#     4  11  22  42  67  99 132 171 216 276 323 384
#     4  11  23  41  70  93 133 178 213 266 331 384
#     4  10  25  42  67  97 133 176 214 264 332 391
#     4  10  23  44  67  97 132 171 219 269 328 383
#     4  11  22  42  65  95 135 164 220 269 317 387
#     4  11  23  39  69  95 132 167 217 270 329 379
#
# _framework density 20.669243000000002
#
# number of rings (size 3 to 8) (size 9 to 14) (size 15 to 20)
#    0.000    1.500    3.750    0.750    5.250    8.000 
#    2.250    0.000    0.000    0.000    0.000    0.000 
#    0.000    0.000    0.000    0.000    0.000    0.000 
#
# Total GULP energy -178840.635811 kJ/mol
# GULP energy per Si atom -5588.769869 kJ/mol
# Density = 2.062220 g / cm^3
# Si number density = 20.669243 Si / 1000 Ang^3
#
#
#
# Elastic Constant Matrix: (Units=GPa)
#
#
# Indices 1 2 3 4 5 6 
#
# 1 80.6528 4.4352 33.6356 0.0000 -18.7323 0.0000
# 2 4.4352 39.2421 34.1625 0.0000 -10.9481 0.0000
# 3 33.6356 34.1625 114.8640 0.0000 -10.6183 0.0000
# 4 0.0000 0.0000 0.0000 -9.5705 0.0000 -5.7767
# 5 -18.7323 -10.9481 -10.6183 0.0000 32.7237 0.0000
# 6 0.0000 0.0000 0.0000 -5.7767 0.0000 7.8438
#
#
#
# Elastic Compliance Matrix: (Units=1/GPa)
#
#
# Indices 1 2 3 4 5 6 
#
# 1 0.016706 0.005781 -0.005720 0.000000 0.009641 0.000000
# 2 0.005781 0.038806 -0.012091 0.000000 0.012369 0.000000
# 3 -0.005720 -0.012091 0.013712 0.000000 -0.002870 0.000000
# 4 0.000000 0.000000 0.000000 -0.072334 0.000000 -0.053271
# 5 0.009641 0.012369 -0.002870 0.000000 0.039285 0.000000
# 6 0.000000 0.000000 0.000000 -0.053271 0.000000 0.088257
#
#
# Mechanical properties :
#
#
# Convention : Reuss Voigt Hill
#
# Bulk Modulus (GPa) = 22.14162 42.13618 32.13890
# Shear Modulus (GPa) = 30.57238 17.03444 23.80341
#
# Velocity S-wave (km/s) = 3.85011 2.87391 3.39726
# Velocity P-wave (km/s) = 5.52269 5.60737 5.56519
#
# Compressibility (1/GPa) = 0.04516382
#
# Stress axis : x y z
#
# Youngs Moduli (GPa) = 59.85998 25.76896 72.93012
#
# Poissons Ratio (x) = -0.14898 0.41717
# Poissons Ratio (y) = -0.34607 0.88181
# Poissons Ratio (z) = 0.34241 0.31158
#
# Static dielectric constant tensor:
#      x y z
#    x 1.764950 0.000000 -0.012450 
#    y 0.000000 1.740880 0.000000 
#    z -0.012450 0.000000 1.728600 
# 
# From -- ./inp_files/72443.got.cif
#   From: 2010.05.17/outbox.cif.g08.bks.cpg/sg14_37_cif.got.tgz:72443.got - 2010.06.03 17:49:19.
