data_PCOD9249936
_publ_section_title
;
Structure prediction by ZEFSAII (Michael W. Deem and Ramdas Pophale) SiO2 
 PCOD9249936
Probable space group: P 21/C
;
_chemical_formula_sum "Si O2"
_cell_formula_units_Z 18
_cell_length_a 4.919910
_cell_length_b 14.191536
_cell_length_c 11.599083
_cell_angle_alpha 90.000000
_cell_angle_beta 53.114792
_cell_angle_gamma 90.000000
_cell_volume 647.758533
_symmetry_space_group_name_H-M "P 21/C"
_symmetry_group_IT_number 14
_symmetry_cell_setting 'monoclinic'
loop_
_space_group_symop_operation_xyz
x,y,z
-x,1/2+y,1/2-z
-x,-y,-z
x,1/2-y,1/2+z
loop_
_atom_site_type_symbol
_atom_site_label
_atom_site_fract_x
_atom_site_fract_y
_atom_site_fract_z
Si Si1 0.901981 0.004856 0.892958
Si Si2 0.725501 0.123285 0.370686
Si Si3 0.000000 0.000000 0.500000
Si Si4 0.281074 0.860748 0.242885
Si Si5 0.094315 0.268050 0.964802
O O1 0.949429 0.099183 0.802967
O O2 0.056276 0.915341 0.789192
O O3 0.500000 0.000000 0.000000
O O4 0.000000 0.000000 0.000000
O O5 0.338456 0.138419 0.425020
O O6 0.876309 0.212776 0.404636
O O7 0.782760 0.047509 0.453938
O O8 0.275368 0.949753 0.330331
O O9 0.639127 0.816516 0.110976
O O10 0.132026 0.776887 0.362870
#
# Coordination Sequence:
#
# PCOD9249936 Si02
#       5
#     4   4   2   4   4
#     4  11  25  45  74 106 151 200 253 303 373 465
#     4  10  23  44  72 106 146 193 250 309 378 444
#     4   8  20  46  74 102 142 200 248 300 368 458
#     4  10  25  47  79 109 153 197 257 310 389 441
#     4  11  25  45  76 109 149 189 251 322 378 443
#
# _framework density 27.788132999999998
#
# number of rings (size 3 to 8) (size 9 to 14) (size 15 to 20)
#    0.000    1.778    0.000    1.333    3.111   18.667 
#    4.000    0.000    0.000    0.000    0.000    0.000 
#    0.000    0.000    0.000    0.000    0.000    0.000 
#
# Total GULP energy -100361.523152 kJ/mol
# GULP energy per Si atom -5575.640175 kJ/mol
# Density = 2.772489 g / cm^3
# Si number density = 27.788133 Si / 1000 Ang^3
#
#
#
# Elastic Constant Matrix: (Units=GPa)
#
#
# Indices 1 2 3 4 5 6 
#
# 1 201.0664 7.3190 63.7768 0.0000 34.1507 0.0000
# 2 7.3190 122.9702 32.3605 0.0000 21.7243 0.0000
# 3 63.7768 32.3605 161.2201 0.0000 39.4594 0.0000
# 4 0.0000 0.0000 0.0000 39.4890 0.0000 -16.5446
# 5 34.1507 21.7243 39.4594 0.0000 61.2560 0.0000
# 6 0.0000 0.0000 0.0000 -16.5446 0.0000 45.3110
#
#
#
# Elastic Compliance Matrix: (Units=1/GPa)
#
#
# Indices 1 2 3 4 5 6 
#
# 1 0.005945 0.000550 -0.001903 0.000000 -0.002284 0.000000
# 2 0.000550 0.008918 -0.001375 0.000000 -0.002584 0.000000
# 3 -0.001903 -0.001375 0.008135 0.000000 -0.003692 0.000000
# 4 0.000000 0.000000 0.000000 0.029897 0.000000 0.010916
# 5 -0.002284 -0.002584 -0.003692 0.000000 0.020892 0.000000
# 6 0.000000 0.000000 0.000000 0.010916 0.000000 0.026056
#
#
# Mechanical properties :
#
#
# Convention : Reuss Voigt Hill
#
# Bulk Modulus (GPa) = 57.00827 76.90771 66.95799
# Shear Modulus (GPa) = 44.98558 54.66456 49.82507
#
# Velocity S-wave (km/s) = 4.02789 4.44011 4.23902
# Velocity P-wave (km/s) = 6.49552 7.35001 6.93594
#
# Compressibility (1/GPa) = 0.01754131
#
# Stress axis : x y z
#
# Youngs Moduli (GPa) = 168.20762 112.13722 122.92166
#
# Poissons Ratio (x) = -0.06173 0.23397
# Poissons Ratio (y) = -0.09259 0.16907
# Poissons Ratio (z) = 0.32016 0.15423
#
# Static dielectric constant tensor:
#      x y z
#    x 2.039560 0.000000 -0.030050 
#    y 0.000000 1.805180 0.000000 
#    z -0.030050 0.000000 2.143950 
# 
# From -- ./inp_files/21013.got.cif
#   From: 2010.05.17/outbox.cif.g08.bks.cpg/sg14_11_cif.got.tgz:21013.got - 2010.06.03 17:49:19.
