data_PCOD9249409
_publ_section_title
;
Structure prediction by ZEFSAII (Michael W. Deem and Ramdas Pophale) SiO2 
 PCOD9249409
Probable space group: P 21/C
;
_chemical_formula_sum "Si O2"
_cell_formula_units_Z 16
_cell_length_a 8.311309
_cell_length_b 13.894649
_cell_length_c 12.676238
_cell_angle_alpha 90.000000
_cell_angle_beta 153.714202
_cell_angle_gamma 90.000000
_cell_volume 648.280602
_symmetry_space_group_name_H-M "P 21/C"
_symmetry_group_IT_number 14
_symmetry_cell_setting 'monoclinic'
loop_
_space_group_symop_operation_xyz
x,y,z
-x,1/2+y,1/2-z
-x,-y,-z
x,1/2-y,1/2+z
loop_
_atom_site_type_symbol
_atom_site_label
_atom_site_fract_x
_atom_site_fract_y
_atom_site_fract_z
Si Si1 0.496131 0.112605 0.975927
Si Si2 0.713502 0.791250 0.558568
Si Si3 0.607288 0.931552 0.660932
Si Si4 0.449488 0.584976 0.718826
O O1 0.266539 0.176677 0.921973
O O2 0.899723 0.156621 0.226129
O O3 0.359768 0.119601 0.775393
O O4 0.500000 0.000000 0.000000
O O5 0.555204 0.826836 0.579266
O O6 0.476791 0.832969 0.323823
O O7 0.500000 0.000000 0.500000
O O8 0.424186 0.984417 0.653110
O O9 0.034907 0.932504 0.939057
#
# Coordination Sequence:
#
# PCOD9249409 Si02
#       4
#     4   4   4   4
#     4  11  26  43  64  98 132 171 230 283 335 411
#     4  10  23  41  64  94 133 177 223 277 343 408
#     4   8  16  35  64  96 126 168 220 267 328 399
#     4   9  19  37  63  93 131 173 215 274 335 394
#
# _framework density 24.680671
#
# number of rings (size 3 to 8) (size 9 to 14) (size 15 to 20)
#    0.000    2.500    0.000    0.000    0.000   19.000 
#    0.000    0.000    0.000    0.000    0.000    0.000 
#    0.000    0.000    0.000    0.000    0.000    0.000 
#
# Total GULP energy -89282.599891 kJ/mol
# GULP energy per Si atom -5580.162493 kJ/mol
# Density = 2.462450 g / cm^3
# Si number density = 24.680671 Si / 1000 Ang^3
#
#
#
# Elastic Constant Matrix: (Units=GPa)
#
#
# Indices 1 2 3 4 5 6 
#
# 1 52.2295 41.3290 51.8063 0.0000 -12.1922 0.0000
# 2 41.3290 170.0023 45.2230 0.0000 -4.0569 0.0000
# 3 51.8063 45.2230 134.7854 0.0000 -8.7506 0.0000
# 4 0.0000 0.0000 0.0000 29.4791 0.0000 -8.5307
# 5 -12.1922 -4.0569 -8.7506 0.0000 50.2713 0.0000
# 6 0.0000 0.0000 0.0000 -8.5307 0.0000 43.9113
#
#
#
# Elastic Compliance Matrix: (Units=1/GPa)
#
#
# Indices 1 2 3 4 5 6 
#
# 1 0.036892 -0.005660 -0.011864 0.000000 0.006426 0.000000
# 2 -0.005660 0.007328 -0.000338 0.000000 -0.000840 0.000000
# 3 -0.011864 -0.000338 0.012040 0.000000 -0.000809 0.000000
# 4 0.000000 0.000000 0.000000 0.035943 0.000000 0.006983
# 5 0.006426 -0.000840 -0.000809 0.000000 0.021242 0.000000
# 6 0.000000 0.000000 0.000000 0.006983 0.000000 0.024130
#
#
# Mechanical properties :
#
#
# Convention : Reuss Voigt Hill
#
# Bulk Modulus (GPa) = 48.69092 70.41485 59.55288
# Shear Modulus (GPa) = 27.75558 39.30961 33.53260
#
# Velocity S-wave (km/s) = 3.35713 3.99523 3.69000
# Velocity P-wave (km/s) = 5.89900 7.06221 6.50665
#
# Compressibility (1/GPa) = 0.02053771
#
# Stress axis : x y z
#
# Youngs Moduli (GPa) = 27.10578 136.46283 83.05561
#
# Poissons Ratio (x) = 0.77232 0.98537
# Poissons Ratio (y) = 0.15341 0.02806
# Poissons Ratio (z) = 0.32158 0.04611
#
# Static dielectric constant tensor:
#      x y z
#    x 2.098530 0.000000 0.036780 
#    y 0.000000 2.019510 0.000000 
#    z 0.036780 0.000000 1.934020 
# 
# From -- ./inp_files/5362.got.cif
#   From: 2010.05.17/outbox.cif.g08.bks.cpg/sg14_3_cif.got.tgz:5362.got - 2010.06.03 17:49:19.
