data_PCOD9249704
_publ_section_title
;
Structure prediction by ZEFSAII (Michael W. Deem and Ramdas Pophale) SiO2 
 PCOD9249704
Probable space group: P 21/C
;
_chemical_formula_sum "Si O2"
_cell_formula_units_Z 26
_cell_length_a 11.467364
_cell_length_b 8.033180
_cell_length_c 18.479590
_cell_angle_alpha 90.000000
_cell_angle_beta 141.025034
_cell_angle_gamma 90.000000
_cell_volume 1070.732044
_symmetry_space_group_name_H-M "P 21/C"
_symmetry_group_IT_number 14
_symmetry_cell_setting 'monoclinic'
loop_
_space_group_symop_operation_xyz
x,y,z
-x,1/2+y,1/2-z
-x,-y,-z
x,1/2-y,1/2+z
loop_
_atom_site_type_symbol
_atom_site_label
_atom_site_fract_x
_atom_site_fract_y
_atom_site_fract_z
Si Si1 0.467780 0.542981 0.401590
Si Si2 0.532485 0.749918 0.206223
Si Si3 0.448456 0.625848 0.823689
Si Si4 0.971629 0.662628 0.937566
Si Si5 0.000000 0.000000 0.000000
Si Si6 0.976227 0.104607 0.832458
Si Si7 0.971699 0.026951 0.302490
O O1 0.500000 0.500000 0.500000
O O2 0.528901 0.393381 0.378684
O O3 0.537412 0.728291 0.415595
O O4 0.245820 0.543004 0.284400
O O5 0.481968 0.563918 0.155071
O O6 0.456054 0.790692 0.248387
O O7 0.759096 0.765261 0.326480
O O8 0.243972 0.599777 0.757502
O O9 0.041255 0.614278 0.891302
O O10 0.000000 0.500000 0.000000
O O11 0.063544 0.806995 0.027827
O O12 0.939378 0.980736 0.056783
O O13 0.048187 0.291935 0.857362
O O14 0.006091 0.015322 0.770384
#
# Coordination Sequence:
#
# PCOD9249704 Si02
#       7
#     4   4   4   4   2   4   4
#     4  10  24  44  68  97 133 174 229 279 337 400
#     4  11  23  42  71  96 135 180 222 280 340 399
#     4  11  23  43  69  97 134 179 225 273 336 405
#     4  11  23  42  67 103 132 174 228 280 335 405
#     4  12  22  38  70  98 130 168 230 274 332 402
#     4  11  23  40  66 100 133 178 221 277 336 397
#     4  10  23  43  65  94 138 173 219 278 338 398
#
# _framework density 24.282451999999999
#
# number of rings (size 3 to 8) (size 9 to 14) (size 15 to 20)
#    0.000    1.231    4.615    0.923    2.154    3.077 
#    0.000    3.077    0.000    0.000    0.000    0.000 
#    0.000    0.000    0.000    0.000    0.000    0.000 
#
# Total GULP energy -144885.725765 kJ/mol
# GULP energy per Si atom -5572.527914 kJ/mol
# Density = 2.422718 g / cm^3
# Si number density = 24.282452 Si / 1000 Ang^3
#
#
#
# Elastic Constant Matrix: (Units=GPa)
#
#
# Indices 1 2 3 4 5 6 
#
# 1 121.6146 49.5092 32.8604 0.0000 -35.4187 0.0000
# 2 49.5092 208.5353 36.8495 0.0000 -29.2525 0.0000
# 3 32.8604 36.8495 72.5362 0.0000 -22.0312 0.0000
# 4 0.0000 0.0000 0.0000 23.6756 0.0000 -21.0991
# 5 -35.4187 -29.2525 -22.0312 0.0000 59.8604 0.0000
# 6 0.0000 0.0000 0.0000 -21.0991 0.0000 37.5984
#
#
#
# Elastic Compliance Matrix: (Units=1/GPa)
#
#
# Indices 1 2 3 4 5 6 
#
# 1 0.010944 -0.001440 -0.002784 0.000000 0.004747 0.000000
# 2 -0.001440 0.005634 -0.001838 0.000000 0.001225 0.000000
# 3 -0.002784 -0.001838 0.017122 0.000000 0.003756 0.000000
# 4 0.000000 0.000000 0.000000 0.084492 0.000000 0.047415
# 5 0.004747 0.001225 0.003756 0.000000 0.021495 0.000000
# 6 0.000000 0.000000 0.000000 0.047415 0.000000 0.053204
#
#
# Mechanical properties :
#
#
# Convention : Reuss Voigt Hill
#
# Bulk Modulus (GPa) = 46.35008 71.23603 58.79305
# Shear Modulus (GPa) = 23.56183 43.12468 33.34325
#
# Velocity S-wave (km/s) = 3.11838 4.21879 3.70961
# Velocity P-wave (km/s) = 5.66525 7.28910 6.52787
#
# Compressibility (1/GPa) = 0.02157493
#
# Stress axis : x y z
#
# Youngs Moduli (GPa) = 91.37584 177.49987 58.40451
#
# Poissons Ratio (x) = 0.25566 0.16262
# Poissons Ratio (y) = 0.13161 0.10733
# Poissons Ratio (z) = 0.25442 0.32618
#
# Static dielectric constant tensor:
#      x y z
#    x 1.699890 0.000000 0.672290 
#    y 0.000000 1.984140 0.000000 
#    z 0.672290 0.000000 0.748420 
# 
# From -- ./inp_files/57141.got.cif
#   From: 2010.05.17/outbox.cif.g08.bks.cpg/sg14_29_cif.got.tgz:57141.got - 2010.06.03 17:49:19.
