data_PCOD9249233
_publ_section_title
;
Structure prediction by ZEFSAII (Michael W. Deem and Ramdas Pophale) SiO2 
 PCOD9249233
Probable space group: P 21/C
;
_chemical_formula_sum "Si O2"
_cell_formula_units_Z 28
_cell_length_a 5.287067
_cell_length_b 16.300345
_cell_length_c 15.307262
_cell_angle_alpha 90.000000
_cell_angle_beta 119.698732
_cell_angle_gamma 90.000000
_cell_volume 1145.909157
_symmetry_space_group_name_H-M "P 21/C"
_symmetry_group_IT_number 14
_symmetry_cell_setting 'monoclinic'
loop_
_space_group_symop_operation_xyz
x,y,z
-x,1/2+y,1/2-z
-x,-y,-z
x,1/2-y,1/2+z
loop_
_atom_site_type_symbol
_atom_site_label
_atom_site_fract_x
_atom_site_fract_y
_atom_site_fract_z
Si Si1 0.422664 0.691543 0.493120
Si Si2 0.774692 0.514429 0.286305
Si Si3 0.384116 0.133848 0.668901
Si Si4 0.353661 0.366208 0.965246
Si Si5 0.090248 0.520385 0.915584
Si Si6 0.286601 0.185611 0.150511
Si Si7 0.427711 0.032621 0.893067
O O1 0.536823 0.779397 0.546524
O O2 0.556396 0.673879 0.418045
O O3 0.552727 0.629196 0.586096
O O4 0.067895 0.690111 0.424578
O O5 0.629686 0.437504 0.208748
O O6 0.667397 0.609626 0.273715
O O7 0.679284 0.488824 0.368043
O O8 0.113617 0.507364 0.325653
O O9 0.266344 0.150146 0.550790
O O10 0.412541 0.226614 0.707090
O O11 0.135443 0.079613 0.670641
O O12 0.629380 0.424884 0.022024
O O13 0.132493 0.429590 0.881995
O O14 0.000000 0.500000 0.000000
O O15 0.500000 0.000000 0.000000
#
# Coordination Sequence:
#
# PCOD9249233 Si02
#       7
#     4   4   4   4   4   4   4
#     4  11  21  38  66  89 118 157 215 258 299 376
#     4  12  25  41  64  92 129 167 206 271 317 364
#     4  10  23  38  61  90 131 165 210 253 324 385
#     4   9  19  36  63  90 121 164 209 251 311 376
#     4   9  17  36  60  87 116 161 208 254 298 372
#     4  11  21  40  64  87 118 171 205 246 319 380
#     4  12  23  42  65  92 122 162 219 264 309 365
#
# _framework density 24.434747999999999
#
# number of rings (size 3 to 8) (size 9 to 14) (size 15 to 20)
#    0.000    1.429    4.286    1.286    2.000    0.000 
#    2.571    2.857    0.000    0.000    0.000    0.000 
#    0.000    0.000    0.000    0.000    0.000    0.000 
#
# Total GULP energy -155958.007092 kJ/mol
# GULP energy per Si atom -5569.928825 kJ/mol
# Density = 2.437913 g / cm^3
# Si number density = 24.434748 Si / 1000 Ang^3
#
#
#
# Elastic Constant Matrix: (Units=GPa)
#
#
# Indices 1 2 3 4 5 6 
#
# 1 106.1072 1.7627 10.1757 0.0000 -11.2660 0.0000
# 2 1.7627 206.6010 17.7841 0.0000 -2.7231 0.0000
# 3 10.1757 17.7841 43.4769 0.0000 -4.8236 0.0000
# 4 0.0000 0.0000 0.0000 37.1711 0.0000 -1.2363
# 5 -11.2660 -2.7231 -4.8236 0.0000 34.8747 0.0000
# 6 0.0000 0.0000 0.0000 -1.2363 0.0000 35.9714
#
#
#
# Elastic Compliance Matrix: (Units=1/GPa)
#
#
# Indices 1 2 3 4 5 6 
#
# 1 0.009931 0.000131 -0.002052 0.000000 0.002934 0.000000
# 2 0.000131 0.005019 -0.002067 0.000000 0.000148 0.000000
# 3 -0.002052 -0.002067 0.024613 0.000000 0.002580 0.000000
# 4 0.000000 0.000000 0.000000 0.026933 0.000000 0.000926
# 5 0.002934 0.000148 0.002580 0.000000 0.029990 0.000000
# 6 0.000000 0.000000 0.000000 0.000926 0.000000 0.027832
#
#
# Mechanical properties :
#
#
# Convention : Reuss Voigt Hill
#
# Bulk Modulus (GPa) = 31.66044 46.18109 38.92077
# Shear Modulus (GPa) = 35.00823 43.36763 39.18793
#
# Velocity S-wave (km/s) = 3.78924 4.21745 4.00907
# Velocity P-wave (km/s) = 5.66831 6.53120 6.11500
#
# Compressibility (1/GPa) = 0.03158516
#
# Stress axis : x y z
#
# Youngs Moduli (GPa) = 100.69862 199.24188 40.62923
#
# Poissons Ratio (x) = -0.02602 0.08338
# Poissons Ratio (y) = -0.01315 0.08399
# Poissons Ratio (z) = 0.20664 0.41186
#
# Static dielectric constant tensor:
#      x y z
#    x 2.219420 0.000000 0.192660 
#    y 0.000000 2.011910 0.000000 
#    z 0.192660 0.000000 2.246290 
# 
# From -- ./inp_files/53531.got.cif
#   From: 2010.05.17/outbox.cif.g08.bks.cpg/sg14_27_cif.got.tgz:53531.got - 2010.06.03 17:49:19.
