data_PCOD9249682
_publ_section_title
;
Structure prediction by ZEFSAII (Michael W. Deem and Ramdas Pophale) SiO2 
 PCOD9249682
Probable space group: P 21/C
;
_chemical_formula_sum "Si O2"
_cell_formula_units_Z 24
_cell_length_a 9.448021
_cell_length_b 5.512964
_cell_length_c 22.407618
_cell_angle_alpha 90.000000
_cell_angle_beta 78.851343
_cell_angle_gamma 90.000000
_cell_volume 1145.111377
_symmetry_space_group_name_H-M "P 21/C"
_symmetry_group_IT_number 14
_symmetry_cell_setting 'monoclinic'
loop_
_space_group_symop_operation_xyz
x,y,z
-x,1/2+y,1/2-z
-x,-y,-z
x,1/2-y,1/2+z
loop_
_atom_site_type_symbol
_atom_site_label
_atom_site_fract_x
_atom_site_fract_y
_atom_site_fract_z
Si Si1 0.512662 0.748014 0.823096
Si Si2 0.384037 0.487685 0.561976
Si Si3 0.943516 0.567736 0.439388
Si Si4 0.724241 0.137257 0.339516
Si Si5 0.270012 0.942755 0.271441
Si Si6 0.004203 0.449121 0.869906
O O1 0.544120 0.855254 0.886404
O O2 0.587157 0.487297 0.821543
O O3 0.350692 0.729279 0.812879
O O4 0.606287 0.889359 0.766615
O O5 0.500000 0.500000 0.500000
O O6 0.230232 0.387530 0.550593
O O7 0.336006 0.741632 0.595509
O O8 0.000000 0.500000 0.500000
O O9 0.976640 0.320572 0.398816
O O10 0.019270 0.819621 0.412704
O O11 0.785843 0.313857 0.283805
O O12 0.859834 0.974792 0.345375
O O13 0.141356 0.069394 0.316197
#
# Coordination Sequence:
#
# PCOD9249682 Si02
#       6
#     4   4   4   4   4   4
#     4  11  22  43  61  99 135 169 228 279 331 412
#     4  10  24  43  67  94 130 183 220 280 343 395
#     4  11  25  47  67 100 136 173 235 282 329 413
#     4  10  23  43  63  95 137 169 227 278 331 413
#     4  11  25  38  70  97 136 179 223 280 347 406
#     4  11  26  44  70  99 133 183 222 281 346 398
#
# _framework density 20.958662
#
# number of rings (size 3 to 8) (size 9 to 14) (size 15 to 20)
#    0.000    1.333    3.333    0.500    7.000    2.000 
#    0.000    0.000    0.000    0.000    0.000    0.000 
#    0.000    0.000    0.000    0.000    0.000    0.000 
#
# Total GULP energy -133753.356502 kJ/mol
# GULP energy per Si atom -5573.056521 kJ/mol
# Density = 2.091096 g / cm^3
# Si number density = 20.958662 Si / 1000 Ang^3
#
#
#
# Elastic Constant Matrix: (Units=GPa)
#
#
# Indices 1 2 3 4 5 6 
#
# 1 90.9540 7.5894 78.4686 0.0000 -3.2027 0.0000
# 2 7.5894 44.1482 22.2061 0.0000 -5.7047 0.0000
# 3 78.4686 22.2061 140.6505 0.0000 -13.0912 0.0000
# 4 0.0000 0.0000 0.0000 0.0990 0.0000 1.4376
# 5 -3.2027 -5.7047 -13.0912 0.0000 18.0614 0.0000
# 6 0.0000 0.0000 0.0000 1.4376 0.0000 28.7182
#
#
#
# Elastic Compliance Matrix: (Units=1/GPa)
#
#
# Indices 1 2 3 4 5 6 
#
# 1 0.021837 0.002144 -0.012973 0.000000 -0.004854 0.000000
# 2 0.002144 0.025301 -0.004731 0.000000 0.004943 0.000000
# 3 -0.012973 -0.004731 0.015808 0.000000 0.007663 0.000000
# 4 0.000000 0.000000 0.000000 37.036814 0.000000 -1.853973
# 5 -0.004854 0.004943 0.007663 0.000000 0.061621 0.000000
# 6 0.000000 0.000000 0.000000 -1.853973 0.000000 0.127627
#
#
# Mechanical properties :
#
#
# Convention : Reuss Voigt Hill
#
# Bulk Modulus (GPa) = 31.42088 54.69788 43.05938
# Shear Modulus (GPa) = 0.13394 20.54162 10.33778
#
# Velocity S-wave (km/s) = 0.25307 3.13405 2.22332
# Velocity P-wave (km/s) = 3.88713 6.26506 5.21348
#
# Compressibility (1/GPa) = 0.03182597
#
# Stress axis : x y z
#
# Youngs Moduli (GPa) = 45.79379 39.52487 63.26059
#
# Poissons Ratio (x) = -0.08475 0.82069
# Poissons Ratio (y) = -0.09819 0.29927
# Poissons Ratio (z) = 0.59409 0.18698
#
# Static dielectric constant tensor:
#      x y z
#    x 1.780280 0.000000 0.050870 
#    y 0.000000 1.873550 0.000000 
#    z 0.050870 0.000000 1.709590 
# 
# From -- ./inp_files/71585.got.cif
#   From: 2010.05.17/outbox.cif.g08.bks.cpg/sg14_36_cif.got.tgz:71585.got - 2010.06.03 17:49:19.
