data_PCOD9249605
_publ_section_title
;
Structure prediction by ZEFSAII (Michael W. Deem and Ramdas Pophale) SiO2 
 PCOD9249605
Probable space group: P 21/C
;
_chemical_formula_sum "Si O2"
_cell_formula_units_Z 30
_cell_length_a 16.560090
_cell_length_b 13.497465
_cell_length_c 9.065056
_cell_angle_alpha 90.000000
_cell_angle_beta 36.307978
_cell_angle_gamma 90.000000
_cell_volume 1199.772987
_symmetry_space_group_name_H-M "P 21/C"
_symmetry_group_IT_number 14
_symmetry_cell_setting 'monoclinic'
loop_
_space_group_symop_operation_xyz
x,y,z
-x,1/2+y,1/2-z
-x,-y,-z
x,1/2-y,1/2+z
loop_
_atom_site_type_symbol
_atom_site_label
_atom_site_fract_x
_atom_site_fract_y
_atom_site_fract_z
Si Si1 0.648350 0.695985 0.243252
Si Si2 0.276013 0.643847 0.622674
Si Si3 0.800371 0.009864 0.487896
Si Si4 0.466983 0.688068 0.785174
Si Si5 0.535392 0.530325 0.113091
Si Si6 0.195625 0.365041 0.373721
Si Si7 0.923962 0.470652 0.261116
Si Si8 0.000000 0.500000 0.500000
O O1 0.696501 0.581410 0.157664
O O2 0.518614 0.700509 0.542901
O O3 0.592927 0.767396 0.195130
O O4 0.780610 0.752846 0.112780
O O5 0.226788 0.593571 0.849284
O O6 0.332302 0.754202 0.534432
O O7 0.411247 0.584408 0.375008
O O8 0.165551 0.622000 0.656747
O O9 0.961030 0.966871 0.278462
O O10 0.841724 0.042590 0.263893
O O11 0.444859 0.572334 0.834272
O O12 0.500000 0.500000 0.000000
O O13 0.662285 0.602805 0.908242
O O14 0.171223 0.438728 0.548252
O O15 0.071521 0.390736 0.450322
O O16 0.000000 0.500000 0.000000
#
# Coordination Sequence:
#
# PCOD9249605 Si02
#       8
#     4   4   4   4   4   4   4   2
#     4  12  24  41  69 105 133 183 231 278 347 434
#     4  11  21  41  68  99 136 172 229 288 339 415
#     4  10  23  42  68  94 138 182 232 287 347 405
#     4  12  25  40  68 106 137 176 231 278 355 422
#     4  12  21  41  69  97 136 180 219 287 351 413
#     4  11  22  42  69  92 138 177 231 279 342 417
#     4   9  20  40  65  90 123 181 223 276 336 398
#     4  10  24  48  62  96 132 188 234 292 340 394
#
# _framework density 25.004732000000001
#
# number of rings (size 3 to 8) (size 9 to 14) (size 15 to 20)
#    0.000    1.067    5.333    0.800    1.867    1.600 
#    2.400    6.667    0.000    0.000    0.000    0.000 
#    0.000    0.000    0.000    0.000    0.000    0.000 
#
# Total GULP energy -167273.585114 kJ/mol
# GULP energy per Si atom -5575.786170 kJ/mol
# Density = 2.494782 g / cm^3
# Si number density = 25.004732 Si / 1000 Ang^3
#
#
#
# Elastic Constant Matrix: (Units=GPa)
#
#
# Indices 1 2 3 4 5 6 
#
# 1 37.1153 11.8266 5.7030 0.0000 -10.7415 0.0000
# 2 11.8266 105.5113 8.3539 0.0000 -7.0938 0.0000
# 3 5.7030 8.3539 119.3433 0.0000 7.8056 0.0000
# 4 0.0000 0.0000 0.0000 37.3878 0.0000 -9.1807
# 5 -10.7415 -7.0938 7.8056 0.0000 50.4244 0.0000
# 6 0.0000 0.0000 0.0000 -9.1807 0.0000 27.1487
#
#
#
# Elastic Compliance Matrix: (Units=1/GPa)
#
#
# Indices 1 2 3 4 5 6 
#
# 1 0.029890 -0.002802 -0.001639 0.000000 0.006227 0.000000
# 2 -0.002802 0.009901 -0.000617 0.000000 0.000892 0.000000
# 3 -0.001639 -0.000617 0.008617 0.000000 -0.001770 0.000000
# 4 0.000000 0.000000 0.000000 0.029169 0.000000 0.009864
# 5 0.006227 0.000892 -0.001770 0.000000 0.021558 0.000000
# 6 0.000000 0.000000 0.000000 0.009864 0.000000 0.040170
#
#
# Mechanical properties :
#
#
# Convention : Reuss Voigt Hill
#
# Bulk Modulus (GPa) = 26.11689 34.85965 30.48827
# Shear Modulus (GPa) = 30.82925 38.73129 34.78027
#
# Velocity S-wave (km/s) = 3.51513 3.93995 3.73359
# Velocity P-wave (km/s) = 5.19060 5.88805 5.55029
#
# Compressibility (1/GPa) = 0.03828940
#
# Stress axis : x y z
#
# Youngs Moduli (GPa) = 33.45611 101.00460 116.05615
#
# Poissons Ratio (x) = 0.28300 0.19027
# Poissons Ratio (y) = 0.09374 0.07166
# Poissons Ratio (z) = 0.05485 0.06237
#
# Static dielectric constant tensor:
#      x y z
#    x 1.783660 0.000000 -0.297850 
#    y 0.000000 1.980010 0.000000 
#    z -0.297850 0.000000 1.713330 
# 
# From -- ./inp_files/35172.got.cif
#   From: 2010.05.17/outbox.cif.g08.bks.cpg/sg14_18_cif.got.tgz:35172.got - 2010.06.03 17:49:19.
