data_PCOD9249397
_publ_section_title
;
Structure prediction by ZEFSAII (Michael W. Deem and Ramdas Pophale) SiO2 
 PCOD9249397
Probable space group: P 21/C
;
_chemical_formula_sum "Si O2"
_cell_formula_units_Z 20
_cell_length_a 11.072607
_cell_length_b 7.413725
_cell_length_c 9.446831
_cell_angle_alpha 90.000000
_cell_angle_beta 95.430603
_cell_angle_gamma 90.000000
_cell_volume 772.002685
_symmetry_space_group_name_H-M "P 21/C"
_symmetry_group_IT_number 14
_symmetry_cell_setting 'monoclinic'
loop_
_space_group_symop_operation_xyz
x,y,z
-x,1/2+y,1/2-z
-x,-y,-z
x,1/2-y,1/2+z
loop_
_atom_site_type_symbol
_atom_site_label
_atom_site_fract_x
_atom_site_fract_y
_atom_site_fract_z
Si Si1 0.412463 0.374254 0.169484
Si Si2 0.845860 0.592683 0.974332
Si Si3 0.046643 0.114298 0.811557
Si Si4 0.551924 0.277311 0.440482
Si Si5 0.821633 0.164867 0.979934
O O1 0.278100 0.326799 0.104210
O O2 0.442704 0.357950 0.336835
O O3 0.509503 0.254398 0.095190
O O4 0.431237 0.577607 0.120622
O O5 0.939331 0.612969 0.854449
O O6 0.891066 0.710240 0.110552
O O7 0.824361 0.381354 0.000205
O O8 0.877459 0.444715 0.617980
O O9 0.911218 0.112263 0.860781
O O10 0.680156 0.377118 0.439317
#
# Coordination Sequence:
#
# PCOD9249397 Si02
#       5
#     4   4   4   4   4
#     4  10  23  41  63 102 127 181 216 284 343 402
#     4  11  25  46  70 104 143 179 238 290 349 420
#     4  11  26  44  73 102 139 191 231 288 357 408
#     4  10  23  41  67  92 138 168 231 276 340 409
#     4  10  26  44  67 104 139 188 231 287 348 417
#
# _framework density 25.906645999999999
#
# number of rings (size 3 to 8) (size 9 to 14) (size 15 to 20)
#    0.000    1.600    0.000    1.800   14.000    2.400 
#    0.000    0.000    0.000    0.000    0.000    0.000 
#    0.000    0.000    0.000    0.000    0.000    0.000 
#
# Total GULP energy -112208.327797 kJ/mol
# GULP energy per Si atom -5610.416390 kJ/mol
# Density = 2.584768 g / cm^3
# Si number density = 25.906646 Si / 1000 Ang^3
#
#
#
# Elastic Constant Matrix: (Units=GPa)
#
#
# Indices 1 2 3 4 5 6 
#
# 1 129.8500 17.2676 -6.9907 0.0000 29.9298 0.0000
# 2 17.2676 108.0920 39.6817 0.0000 4.3124 0.0000
# 3 -6.9907 39.6817 74.4863 0.0000 3.3595 0.0000
# 4 0.0000 0.0000 0.0000 39.1982 0.0000 5.7405
# 5 29.9298 4.3124 3.3595 0.0000 26.2648 0.0000
# 6 0.0000 0.0000 0.0000 5.7405 0.0000 38.3811
#
#
#
# Elastic Compliance Matrix: (Units=1/GPa)
#
#
# Indices 1 2 3 4 5 6 
#
# 1 0.011062 -0.002305 0.002834 0.000000 -0.012590 0.000000
# 2 -0.002305 0.012013 -0.006684 0.000000 0.001510 0.000000
# 3 0.002834 -0.006684 0.017449 0.000000 -0.004364 0.000000
# 4 0.000000 0.000000 0.000000 0.026083 0.000000 -0.003901
# 5 -0.012590 0.001510 -0.004364 0.000000 0.052731 0.000000
# 6 0.000000 0.000000 0.000000 -0.003901 0.000000 0.026638
#
#
# Mechanical properties :
#
#
# Convention : Reuss Voigt Hill
#
# Bulk Modulus (GPa) = 35.44394 45.81618 40.63006
# Shear Modulus (GPa) = 29.81661 38.26680 34.04170
#
# Velocity S-wave (km/s) = 3.39621 3.84748 3.62887
# Velocity P-wave (km/s) = 5.39352 6.12054 5.76849
#
# Compressibility (1/GPa) = 0.02821357
#
# Stress axis : x y z
#
# Youngs Moduli (GPa) = 90.39751 83.24069 57.30937
#
# Poissons Ratio (x) = 0.19190 -0.16243
# Poissons Ratio (y) = 0.20840 0.38308
# Poissons Ratio (z) = -0.25621 0.55642
#
# Static dielectric constant tensor:
#      x y z
#    x 2.054690 0.000000 0.034820 
#    y 0.000000 2.059770 0.000000 
#    z 0.034820 0.000000 1.937560 
# 
# From -- ./inp_files/11862.got.cif
#   From: 2010.05.17/outbox.cif.g08.bks.cpg/sg14_6_cif.got.tgz:11862.got - 2010.06.03 17:49:19.
