data_PCOD9249688
_publ_section_title
;
Structure prediction by ZEFSAII (Michael W. Deem and Ramdas Pophale) SiO2 
 PCOD9249688
Probable space group: P 21/C
;
_chemical_formula_sum "Si O2"
_cell_formula_units_Z 24
_cell_length_a 13.870202
_cell_length_b 12.346028
_cell_length_c 19.178501
_cell_angle_alpha 90.000000
_cell_angle_beta 162.578929
_cell_angle_gamma 90.000000
_cell_volume 983.251148
_symmetry_space_group_name_H-M "P 21/C"
_symmetry_group_IT_number 14
_symmetry_cell_setting 'monoclinic'
loop_
_space_group_symop_operation_xyz
x,y,z
-x,1/2+y,1/2-z
-x,-y,-z
x,1/2-y,1/2+z
loop_
_atom_site_type_symbol
_atom_site_label
_atom_site_fract_x
_atom_site_fract_y
_atom_site_fract_z
Si Si1 0.862987 0.063920 0.971212
Si Si2 0.463485 0.895721 0.522825
Si Si3 0.204755 0.427746 0.943045
Si Si4 0.857867 0.562571 0.800968
Si Si5 0.495838 0.559223 0.330980
Si Si6 0.376844 0.238638 0.967498
O O1 0.518103 0.106220 0.705689
O O2 0.781032 0.983706 0.978776
O O3 0.171310 0.137007 0.202530
O O4 0.000000 0.000000 0.000000
O O5 0.354222 0.801296 0.394524
O O6 0.500000 0.000000 0.500000
O O7 0.279609 0.952492 0.460341
O O8 0.172077 0.337062 0.861279
O O9 0.912484 0.452929 0.793018
O O10 0.596979 0.537618 0.680087
O O11 0.782813 0.658195 0.697349
O O12 0.192967 0.579782 0.072053
O O13 0.541691 0.663588 0.410432
#
# Coordination Sequence:
#
# PCOD9249688 Si02
#       6
#     4   4   4   4   4   4
#     4   9  19  42  65  86 129 166 207 268 314 368
#     4   9  20  38  60  92 125 160 211 262 307 364
#     4   9  21  42  63  93 129 169 210 265 313 374
#     4  10  23  45  61  94 135 165 206 266 320 376
#     4  10  23  43  64  91 131 168 209 261 323 378
#     4  11  23  38  67  96 123 175 212 255 317 386
#
# _framework density 24.408819999999999
#
# number of rings (size 3 to 8) (size 9 to 14) (size 15 to 20)
#    0.000    2.333    0.000    0.500    7.000    1.333 
#    9.000    5.000    0.000    0.000    0.000    0.000 
#    0.000    0.000    0.000    0.000    0.000    0.000 
#
# Total GULP energy -133917.846299 kJ/mol
# GULP energy per Si atom -5579.910262 kJ/mol
# Density = 2.435326 g / cm^3
# Si number density = 24.408820 Si / 1000 Ang^3
#
#
#
# Elastic Constant Matrix: (Units=GPa)
#
#
# Indices 1 2 3 4 5 6 
#
# 1 163.4104 62.3499 44.1705 0.0000 0.1851 0.0000
# 2 62.3499 120.4294 31.8096 0.0000 -13.3780 0.0000
# 3 44.1705 31.8096 59.8785 0.0000 -9.3817 0.0000
# 4 0.0000 0.0000 0.0000 22.6108 0.0000 -11.5160
# 5 0.1851 -13.3780 -9.3817 0.0000 45.2810 0.0000
# 6 0.0000 0.0000 0.0000 -11.5160 0.0000 52.6572
#
#
#
# Elastic Compliance Matrix: (Units=1/GPa)
#
#
# Indices 1 2 3 4 5 6 
#
# 1 0.008789 -0.003470 -0.004967 0.000000 -0.002090 0.000000
# 2 -0.003470 0.011182 -0.002956 0.000000 0.002705 0.000000
# 3 -0.004967 -0.002956 0.022533 0.000000 0.003815 0.000000
# 4 0.000000 0.000000 0.000000 0.049770 0.000000 0.010885
# 5 -0.002090 0.002705 0.003815 0.000000 0.023683 0.000000
# 6 0.000000 0.000000 0.000000 0.010885 0.000000 0.021371
#
#
# Mechanical properties :
#
#
# Convention : Reuss Voigt Hill
#
# Bulk Modulus (GPa) = 50.72084 68.93093 59.82589
# Shear Modulus (GPa) = 29.99639 37.80237 33.89938
#
# Velocity S-wave (km/s) = 3.50939 3.93964 3.73073
# Velocity P-wave (km/s) = 6.10295 6.99971 6.56665
#
# Compressibility (1/GPa) = 0.01971576
#
# Stress axis : x y z
#
# Youngs Moduli (GPa) = 113.78262 89.43164 44.37980
#
# Poissons Ratio (x) = 0.31036 0.22044
# Poissons Ratio (y) = 0.39487 0.13120
# Poissons Ratio (z) = 0.56516 0.26438
#
# Static dielectric constant tensor:
#      x y z
#    x 1.985880 0.000000 -0.024520 
#    y 0.000000 1.928450 0.000000 
#    z -0.024520 0.000000 2.049710 
# 
# From -- ./inp_files/68543.got.cif
#   From: 2010.05.17/outbox.cif.g08.bks.cpg/sg14_35_cif.got.tgz:68543.got - 2010.06.03 17:49:19.
