data_PCOD9249666
_publ_section_title
;
Structure prediction by ZEFSAII (Michael W. Deem and Ramdas Pophale) SiO2 
 PCOD9249666
Probable space group: P 21/C
;
_chemical_formula_sum "Si O2"
_cell_formula_units_Z 32
_cell_length_a 14.896346
_cell_length_b 10.620266
_cell_length_c 9.518921
_cell_angle_alpha 90.000000
_cell_angle_beta 125.239703
_cell_angle_gamma 90.000000
_cell_volume 1229.955767
_symmetry_space_group_name_H-M "P 21/C"
_symmetry_group_IT_number 14
_symmetry_cell_setting 'monoclinic'
loop_
_space_group_symop_operation_xyz
x,y,z
-x,1/2+y,1/2-z
-x,-y,-z
x,1/2-y,1/2+z
loop_
_atom_site_type_symbol
_atom_site_label
_atom_site_fract_x
_atom_site_fract_y
_atom_site_fract_z
Si Si1 0.659418 0.572077 0.037484
Si Si2 0.010337 0.017507 0.749124
Si Si3 0.393194 0.779255 0.891845
Si Si4 0.586580 0.016637 0.756890
Si Si5 0.967552 0.240091 0.113085
Si Si6 0.265126 0.659198 0.032101
Si Si7 0.363568 0.150920 0.935783
Si Si8 0.861507 0.912937 0.371676
O O1 0.645715 0.569644 0.193633
O O2 0.749100 0.471173 0.068785
O O3 0.545539 0.510958 0.877810
O O4 0.667156 0.719071 0.008730
O O5 0.009676 0.906272 0.856610
O O6 0.916400 0.987018 0.548055
O O7 0.997713 0.164539 0.771833
O O8 0.121515 0.006311 0.756356
O O9 0.393124 0.655113 0.790785
O O10 0.328702 0.744351 0.974013
O O11 0.333137 0.874908 0.733734
O O12 0.518364 0.821492 0.028350
O O13 0.620261 0.963035 0.938483
O O14 0.052450 0.300122 0.080205
O O15 0.837791 0.264683 0.995856
O O16 0.262832 0.129661 0.739548
#
# Coordination Sequence:
#
# PCOD9249666 Si02
#       8
#     4   4   4   4   4   4   4   4
#     4   9  20  39  61  92 133 176 223 277 342 407
#     4   9  22  47  66 101 133 179 234 292 354 413
#     4  10  24  41  66 101 137 181 233 279 348 419
#     4   9  19  40  60  90 135 173 219 284 334 405
#     4  10  23  42  74  92 134 182 230 282 361 407
#     4  11  23  43  68  95 140 183 227 289 347 421
#     4  11  21  38  70  95 133 181 226 282 349 423
#     4   9  23  42  68  99 143 174 226 301 353 403
#
# _framework density 26.017195000000001
#
# number of rings (size 3 to 8) (size 9 to 14) (size 15 to 20)
#    0.750    1.500    1.250    0.750    5.250    1.000 
#    0.000    1.250    0.000    0.000    0.000    0.000 
#    0.000    0.000    0.000    0.000    0.000    0.000 
#
# Total GULP energy -178565.146444 kJ/mol
# GULP energy per Si atom -5580.160826 kJ/mol
# Density = 2.595798 g / cm^3
# Si number density = 26.017195 Si / 1000 Ang^3
#
#
#
# Elastic Constant Matrix: (Units=GPa)
#
#
# Indices 1 2 3 4 5 6 
#
# 1 104.1615 26.1580 48.6623 0.0000 12.5089 0.0000
# 2 26.1580 81.4343 18.9247 0.0000 5.4501 0.0000
# 3 48.6623 18.9247 68.0718 0.0000 10.0855 0.0000
# 4 0.0000 0.0000 0.0000 28.6599 0.0000 -19.0131
# 5 12.5089 5.4501 10.0855 0.0000 32.9015 0.0000
# 6 0.0000 0.0000 0.0000 -19.0131 0.0000 30.7984
#
#
#
# Elastic Compliance Matrix: (Units=1/GPa)
#
#
# Indices 1 2 3 4 5 6 
#
# 1 0.015032 -0.002411 -0.009730 0.000000 -0.002333 0.000000
# 2 -0.002411 0.013553 -0.001935 0.000000 -0.000735 0.000000
# 3 -0.009730 -0.001935 0.022615 0.000000 -0.002913 0.000000
# 4 0.000000 0.000000 0.000000 0.059093 0.000000 0.036481
# 5 -0.002333 -0.000735 -0.002913 0.000000 0.032295 0.000000
# 6 0.000000 0.000000 0.000000 0.036481 0.000000 0.054990
#
#
# Mechanical properties :
#
#
# Convention : Reuss Voigt Hill
#
# Bulk Modulus (GPa) = 43.38784 49.01751 46.20268
# Shear Modulus (GPa) = 21.42115 29.13348 25.27731
#
# Velocity S-wave (km/s) = 2.87251 3.34994 3.12037
# Velocity P-wave (km/s) = 5.26446 5.81757 5.54791
#
# Compressibility (1/GPa) = 0.02304793
#
# Stress axis : x y z
#
# Youngs Moduli (GPa) = 66.52618 73.78268 44.21775
#
# Poissons Ratio (x) = 0.17790 0.43022
# Poissons Ratio (y) = 0.16041 0.08558
# Poissons Ratio (z) = 0.64728 0.14280
#
# Static dielectric constant tensor:
#      x y z
#    x 2.112410 0.000000 0.043470 
#    y 0.000000 2.161490 0.000000 
#    z 0.043470 0.000000 2.075050 
# 
# From -- ./inp_files/32398.got.cif
#   From: 2010.05.17/outbox.cif.g08.bks.cpg/sg14_17_cif.got.tgz:32398.got - 2010.06.03 17:49:19.
