data_PCOD9249951
_publ_section_title
;
Structure prediction by ZEFSAII (Michael W. Deem and Ramdas Pophale) SiO2 
 PCOD9249951
Probable space group: P 21/C
;
_chemical_formula_sum "Si O2"
_cell_formula_units_Z 28
_cell_length_a 5.169016
_cell_length_b 18.205699
_cell_length_c 9.868719
_cell_angle_alpha 90.000000
_cell_angle_beta 69.817000
_cell_angle_gamma 90.000000
_cell_volume 871.674728
_symmetry_space_group_name_H-M "P 21/C"
_symmetry_group_IT_number 14
_symmetry_cell_setting 'monoclinic'
loop_
_space_group_symop_operation_xyz
x,y,z
-x,1/2+y,1/2-z
-x,-y,-z
x,1/2-y,1/2+z
loop_
_atom_site_type_symbol
_atom_site_label
_atom_site_fract_x
_atom_site_fract_y
_atom_site_fract_z
Si Si1 0.841440 0.873665 0.924189
Si Si2 0.980897 0.955561 0.645681
Si Si3 0.159380 0.592582 0.636664
Si Si4 0.378372 0.681847 0.028031
Si Si5 0.381576 0.054142 0.641232
Si Si6 0.820055 0.240526 0.697701
Si Si7 0.572154 0.449733 0.624638
O O1 0.739349 0.916433 0.776126
O O2 0.905377 0.790391 0.857221
O O3 0.174036 0.911332 0.834694
O O4 0.916827 0.876971 0.076087
O O5 0.154739 0.884442 0.572872
O O6 0.057660 0.032166 0.719349
O O7 0.000000 0.000000 0.500000
O O8 0.176910 0.657395 0.747238
O O9 0.249594 0.514359 0.533413
O O10 0.484873 0.614963 0.500000
O O11 0.617932 0.633706 0.919339
O O12 0.272550 0.738012 0.939018
O O13 0.401824 0.718624 0.166994
O O14 0.500000 0.000000 0.500000
O O15 0.506495 0.022075 0.756127
#
# Coordination Sequence:
#
# PCOD9249951 Si02
#       7
#     4   4   4   4   4   4   4
#     4   9  22  45  72 105 147 203 248 318 364 453
#     4   9  23  47  72 113 149 192 256 312 387 451
#     4  12  25  44  73 112 158 202 256 311 382 463
#     4  11  26  51  80 109 152 206 252 321 384 449
#     4  12  26  44  76 120 152 199 254 324 384 464
#     4  11  25  52  72 112 153 199 271 302 383 467
#     4  10  23  44  79 106 156 201 248 318 389 447
#
# _framework density 32.122073999999998
#
# number of rings (size 3 to 8) (size 9 to 14) (size 15 to 20)
#    0.857    0.571    2.857    0.857    4.000    2.857 
#    2.571    1.429    0.000    0.000    0.000    0.000 
#    0.000    0.000    0.000    0.000    0.000    0.000 
#
# Total GULP energy -155903.020657 kJ/mol
# GULP energy per Si atom -5567.965023 kJ/mol
# Density = 3.204896 g / cm^3
# Si number density = 32.122074 Si / 1000 Ang^3
#
#
#
# Elastic Constant Matrix: (Units=GPa)
#
#
# Indices 1 2 3 4 5 6 
#
# 1 230.8550 63.9502 44.4666 0.0000 -27.9870 0.0000
# 2 63.9502 197.4902 85.5679 0.0000 -3.9540 0.0000
# 3 44.4666 85.5679 200.8274 0.0000 -50.0264 0.0000
# 4 0.0000 0.0000 0.0000 87.6004 0.0000 -10.8685
# 5 -27.9870 -3.9540 -50.0264 0.0000 59.8424 0.0000
# 6 0.0000 0.0000 0.0000 -10.8685 0.0000 63.8335
#
#
#
# Elastic Compliance Matrix: (Units=1/GPa)
#
#
# Indices 1 2 3 4 5 6 
#
# 1 0.005050 -0.001672 0.000196 0.000000 0.002415 0.000000
# 2 -0.001672 0.007019 -0.003410 0.000000 -0.003168 0.000000
# 3 0.000196 -0.003410 0.008027 0.000000 0.006577 0.000000
# 4 0.000000 0.000000 0.000000 0.011662 0.000000 0.001986
# 5 0.002415 -0.003168 0.006577 0.000000 0.023128 0.000000
# 6 0.000000 0.000000 0.000000 0.001986 0.000000 0.016004
#
#
# Mechanical properties :
#
#
# Convention : Reuss Voigt Hill
#
# Bulk Modulus (GPa) = 96.85759 113.01578 104.93668
# Shear Modulus (GPa) = 59.45127 71.26779 65.35953
#
# Velocity S-wave (km/s) = 4.30675 4.71537 4.51568
# Velocity P-wave (km/s) = 7.41277 8.05642 7.74129
#
# Compressibility (1/GPa) = 0.01032444
#
# Stress axis : x y z
#
# Youngs Moduli (GPa) = 198.02532 142.47598 124.57806
#
# Poissons Ratio (x) = 0.23817 -0.02438
# Poissons Ratio (y) = 0.33103 0.42477
# Poissons Ratio (z) = -0.03875 0.48579
#
# Static dielectric constant tensor:
#      x y z
#    x 3.863730 0.000000 0.164730 
#    y 0.000000 2.576250 0.000000 
#    z 0.164730 0.000000 2.814280 
# 
# From -- ./inp_files/25832.got.cif
#   From: 2010.05.17/outbox.cif.g08.bks.cpg/sg14_13_cif.got.tgz:25832.got - 2010.06.03 17:49:19.
