data_PCOD9249264
_publ_section_title
;
Structure prediction by ZEFSAII (Michael W. Deem and Ramdas Pophale) SiO2 
 PCOD9249264
Probable space group: P 21/C
;
_chemical_formula_sum "Si O2"
_cell_formula_units_Z 24
_cell_length_a 11.105516
_cell_length_b 8.822041
_cell_length_c 13.134635
_cell_angle_alpha 90.000000
_cell_angle_beta 127.117932
_cell_angle_gamma 90.000000
_cell_volume 1026.122915
_symmetry_space_group_name_H-M "P 21/C"
_symmetry_group_IT_number 14
_symmetry_cell_setting 'monoclinic'
loop_
_space_group_symop_operation_xyz
x,y,z
-x,1/2+y,1/2-z
-x,-y,-z
x,1/2-y,1/2+z
loop_
_atom_site_type_symbol
_atom_site_label
_atom_site_fract_x
_atom_site_fract_y
_atom_site_fract_z
Si Si1 0.009503 0.170520 0.398826
Si Si2 0.225306 0.104817 0.134025
Si Si3 0.267255 0.745032 0.383622
Si Si4 0.225197 0.725982 0.597169
Si Si5 0.728320 0.587520 0.108464
Si Si6 0.511029 0.689886 0.371638
O O1 0.122052 0.278220 0.519735
O O2 0.117896 0.074753 0.380098
O O3 0.890002 0.239335 0.256630
O O4 0.882887 0.134966 0.421587
O O5 0.248230 0.148877 0.264295
O O6 0.379455 0.095014 0.145808
O O7 0.160870 0.935150 0.101372
O O8 0.237442 0.713548 0.484310
O O9 0.391268 0.633449 0.396306
O O10 0.329787 0.916328 0.409290
O O11 0.388843 0.740992 0.731092
O O12 0.619701 0.695026 0.987643
#
# Coordination Sequence:
#
# PCOD9249264 Si02
#       6
#     4   4   4   4   4   4
#     4  10  23  39  62  98 120 170 213 254 322 373
#     4  11  22  41  67  90 130 168 208 265 319 370
#     4  11  23  39  65  92 131 166 213 260 314 381
#     4  11  23  39  65  92 131 166 213 260 314 381
#     4  11  22  41  67  90 130 168 208 265 319 370
#     4  10  23  39  62  98 120 170 213 254 322 373
#
# _framework density 23.389011
#
# number of rings (size 3 to 8) (size 9 to 14) (size 15 to 20)
#    0.000    1.333    3.333    3.000    4.667    1.333 
#    0.000    0.000    0.000    0.000    0.000    0.000 
#    0.000    0.000    0.000    0.000    0.000    0.000 
#
# Total GULP energy -133743.562936 kJ/mol
# GULP energy per Si atom -5572.648456 kJ/mol
# Density = 2.333578 g / cm^3
# Si number density = 23.389011 Si / 1000 Ang^3
#
#
#
# Elastic Constant Matrix: (Units=GPa)
#
#
# Indices 1 2 3 4 5 6 
#
# 1 158.7107 19.8263 67.6195 0.0000 -25.1076 0.0000
# 2 19.8263 17.9113 6.9539 0.0000 3.4418 0.0000
# 3 67.6195 6.9539 132.3142 0.0000 -22.8350 0.0000
# 4 0.0000 0.0000 0.0000 27.9086 0.0000 -1.7717
# 5 -25.1076 3.4418 -22.8350 0.0000 41.2583 0.0000
# 6 0.0000 0.0000 0.0000 -1.7717 0.0000 34.3296
#
#
#
# Elastic Compliance Matrix: (Units=1/GPa)
#
#
# Indices 1 2 3 4 5 6 
#
# 1 0.009966 -0.010539 -0.003694 0.000000 0.004900 0.000000
# 2 -0.010539 0.070078 -0.000456 0.000000 -0.012512 0.000000
# 3 -0.003694 -0.000456 0.010048 0.000000 0.003351 0.000000
# 4 0.000000 0.000000 0.000000 0.035949 0.000000 0.001855
# 5 0.004900 -0.012512 0.003351 0.000000 0.030118 0.000000
# 6 0.000000 0.000000 0.000000 0.001855 0.000000 0.029225
#
#
# Mechanical properties :
#
#
# Convention : Reuss Voigt Hill
#
# Bulk Modulus (GPa) = 16.47071 55.30394 35.88732
# Shear Modulus (GPa) = 21.27652 35.00174 28.13913
#
# Velocity S-wave (km/s) = 3.01936 3.87266 3.47232
# Velocity P-wave (km/s) = 4.38324 6.61009 5.60830
#
# Compressibility (1/GPa) = 0.06071382
#
# Stress axis : x y z
#
# Youngs Moduli (GPa) = 100.33902 14.26975 99.52387
#
# Poissons Ratio (x) = 0.15039 0.36762
# Poissons Ratio (y) = 1.05750 0.04541
# Poissons Ratio (z) = 0.37063 0.00651
#
# Static dielectric constant tensor:
#      x y z
#    x 2.000240 0.000000 -0.025690 
#    y 0.000000 1.868300 0.000000 
#    z -0.025690 0.000000 1.851320 
# 
# From -- ./inp_files/24242.got.cif
#   From: 2010.05.17/outbox.cif.g08.bks.cpg/sg14_13_cif.got.tgz:24242.got - 2010.06.03 17:49:19.
