data_PCOD9249390
_publ_section_title
;
Structure prediction by ZEFSAII (Michael W. Deem and Ramdas Pophale) SiO2 
 PCOD9249390
Probable space group: P 21/C
;
_chemical_formula_sum "Si O2"
_cell_formula_units_Z 32
_cell_length_a 9.429808
_cell_length_b 20.007882
_cell_length_c 15.417830
_cell_angle_alpha 90.000000
_cell_angle_beta 35.947168
_cell_angle_gamma 90.000000
_cell_volume 1707.631610
_symmetry_space_group_name_H-M "P 21/C"
_symmetry_group_IT_number 14
_symmetry_cell_setting 'monoclinic'
loop_
_space_group_symop_operation_xyz
x,y,z
-x,1/2+y,1/2-z
-x,-y,-z
x,1/2-y,1/2+z
loop_
_atom_site_type_symbol
_atom_site_label
_atom_site_fract_x
_atom_site_fract_y
_atom_site_fract_z
Si Si1 0.617869 0.251915 0.287877
Si Si2 0.385874 0.492136 0.738361
Si Si3 0.118758 0.312354 0.600974
Si Si4 0.912807 0.959097 0.957267
Si Si5 0.064096 0.112356 0.306712
Si Si6 0.108150 0.872982 0.420672
Si Si7 0.310114 0.947227 0.623448
Si Si8 0.408041 0.121600 0.370537
O O1 0.368254 0.272430 0.460357
O O2 0.697395 0.317420 0.197050
O O3 0.530887 0.188700 0.273869
O O4 0.867338 0.229009 0.213191
O O5 0.638434 0.518978 0.578319
O O6 0.245872 0.448607 0.735999
O O7 0.225414 0.553709 0.853314
O O8 0.436140 0.441093 0.792668
O O9 0.093843 0.377281 0.547995
O O10 0.137393 0.341618 0.689624
O O11 0.098310 0.976990 0.788638
O O12 0.000000 0.000000 0.000000
O O13 0.012282 0.142471 0.426576
O O14 0.810719 0.083078 0.400869
O O15 0.876104 0.870494 0.472812
O O16 0.448795 0.893324 0.612765
O O17 0.500000 0.000000 0.500000
#
# Coordination Sequence:
#
# PCOD9249390 Si02
#       8
#     4   4   4   4   4   4   4   4
#     4  12  22  43  66  86 127 181 216 253 327 395
#     4  11  21  41  66  98 124 165 219 269 313 392
#     4  11  24  43  64  92 133 170 213 276 323 389
#     4  11  21  38  65  94 127 164 213 265 321 383
#     4  10  23  41  61  94 128 156 210 276 317 368
#     4  11  23  40  70  92 122 171 221 253 321 397
#     4  11  21  36  60  89 129 158 197 263 324 364
#     4  11  21  40  64  89 129 167 211 260 317 389
#
# _framework density 18.739402999999999
#
# number of rings (size 3 to 8) (size 9 to 14) (size 15 to 20)
#    0.000    1.000    6.250    3.000    0.000    2.000 
#    6.750    0.000    2.750    0.000    0.000    0.000 
#    0.000    0.000    0.000    0.000    0.000    0.000 
#
# Total GULP energy -178236.922505 kJ/mol
# GULP energy per Si atom -5569.903828 kJ/mol
# Density = 1.869675 g / cm^3
# Si number density = 18.739403 Si / 1000 Ang^3
#
#
#
# Elastic Constant Matrix: (Units=GPa)
#
#
# Indices 1 2 3 4 5 6 
#
# 1 86.5882 30.3405 23.4197 0.0000 -18.4945 0.0000
# 2 30.3405 108.5726 50.0892 0.0000 -10.7727 0.0000
# 3 23.4197 50.0892 98.5207 0.0000 -28.4208 0.0000
# 4 0.0000 0.0000 0.0000 41.1354 0.0000 -15.8252
# 5 -18.4945 -10.7727 -28.4208 0.0000 31.5377 0.0000
# 6 0.0000 0.0000 0.0000 -15.8252 0.0000 30.3392
#
#
#
# Elastic Compliance Matrix: (Units=1/GPa)
#
#
# Indices 1 2 3 4 5 6 
#
# 1 0.014259 -0.003504 0.000620 0.000000 0.007724 0.000000
# 2 -0.003504 0.012978 -0.006864 0.000000 -0.003807 0.000000
# 3 0.000620 -0.006864 0.017460 0.000000 0.013753 0.000000
# 4 0.000000 0.000000 0.000000 0.030413 0.000000 0.015864
# 5 0.007724 -0.003807 0.013753 0.000000 0.047331 0.000000
# 6 0.000000 0.000000 0.000000 0.015864 0.000000 0.041235
#
#
# Mechanical properties :
#
#
# Convention : Reuss Voigt Hill
#
# Bulk Modulus (GPa) = 39.68027 55.70894 47.69461
# Shear Modulus (GPa) = 26.09979 33.25794 29.67886
#
# Velocity S-wave (km/s) = 3.73604 4.21736 3.98398
# Velocity P-wave (km/s) = 6.31121 7.31489 6.83151
#
# Compressibility (1/GPa) = 0.02520144
#
# Stress axis : x y z
#
# Youngs Moduli (GPa) = 70.13218 77.05057 57.27438
#
# Poissons Ratio (x) = 0.27002 -0.03552
# Poissons Ratio (y) = 0.24577 0.39311
# Poissons Ratio (z) = -0.04350 0.52885
#
# Static dielectric constant tensor:
#      x y z
#    x 1.418510 0.000000 -0.034500 
#    y 0.000000 1.702370 0.000000 
#    z -0.034500 0.000000 1.650490 
# 
# From -- ./inp_files/42049.got.cif
#   From: 2010.05.17/outbox.cif.g08.bks.cpg/sg14_22_cif.got.tgz:42049.got - 2010.06.03 17:49:19.
