data_PCOD9249104
_publ_section_title
;
Structure prediction by ZEFSAII (Michael W. Deem and Ramdas Pophale) SiO2 
 PCOD9249104
Probable space group: P 21/C
;
_chemical_formula_sum "Si O2"
_cell_formula_units_Z 24
_cell_length_a 13.306956
_cell_length_b 14.375135
_cell_length_c 13.948897
_cell_angle_alpha 90.000000
_cell_angle_beta 21.489764
_cell_angle_gamma 90.000000
_cell_volume 977.482371
_symmetry_space_group_name_H-M "P 21/C"
_symmetry_group_IT_number 14
_symmetry_cell_setting 'monoclinic'
loop_
_space_group_symop_operation_xyz
x,y,z
-x,1/2+y,1/2-z
-x,-y,-z
x,1/2-y,1/2+z
loop_
_atom_site_type_symbol
_atom_site_label
_atom_site_fract_x
_atom_site_fract_y
_atom_site_fract_z
Si Si1 0.199704 0.062973 0.531945
Si Si2 0.880593 0.475222 0.707743
Si Si3 0.250478 0.058381 0.176969
Si Si4 0.548604 0.192255 0.535700
Si Si5 0.949930 0.694651 0.988202
Si Si6 0.398924 0.105297 0.851827
O O1 0.206097 0.158876 0.469506
O O2 0.453773 0.995455 0.284104
O O3 0.162703 0.058879 0.678696
O O4 0.941614 0.011355 0.711807
O O5 0.104666 0.409199 0.563071
O O6 0.000000 0.500000 0.500000
O O7 0.616907 0.408853 0.932815
O O8 0.072530 0.110933 0.415215
O O9 0.363917 0.128029 0.994177
O O10 0.500000 0.000000 0.000000
O O11 0.241240 0.227245 0.794690
O O12 0.573566 0.173047 0.628601
O O13 0.758952 0.266452 0.304226
#
# Coordination Sequence:
#
# PCOD9249104 Si02
#       6
#     4   4   4   4   4   4
#     4  10  23  40  73 101 133 185 233 284 339 427
#     4  10  23  49  73  93 134 192 244 274 337 419
#     4  11  22  41  73 106 136 184 232 279 347 425
#     4  11  25  45  65  99 147 174 222 295 343 401
#     4  12  24  43  68 107 141 174 225 289 354 410
#     4  10  22  46  69  99 138 186 229 285 342 409
#
# _framework density 24.552871
#
# number of rings (size 3 to 8) (size 9 to 14) (size 15 to 20)
#    0.000    1.333    3.333    1.500    4.667    2.667 
#    6.000    0.000    0.000    0.000    0.000    0.000 
#    0.000    0.000    0.000    0.000    0.000    0.000 
#
# Total GULP energy -134254.225613 kJ/mol
# GULP energy per Si atom -5593.926067 kJ/mol
# Density = 2.449699 g / cm^3
# Si number density = 24.552871 Si / 1000 Ang^3
#
#
#
# Elastic Constant Matrix: (Units=GPa)
#
#
# Indices 1 2 3 4 5 6 
#
# 1 117.8452 27.9820 49.1774 0.0000 36.4783 0.0000
# 2 27.9820 67.0211 29.4820 0.0000 18.2944 0.0000
# 3 49.1774 29.4820 144.0386 0.0000 35.8826 0.0000
# 4 0.0000 0.0000 0.0000 59.1782 0.0000 6.9962
# 5 36.4783 18.2944 35.8826 0.0000 65.8396 0.0000
# 6 0.0000 0.0000 0.0000 6.9962 0.0000 28.2897
#
#
#
# Elastic Compliance Matrix: (Units=1/GPa)
#
#
# Indices 1 2 3 4 5 6 
#
# 1 0.011395 -0.002565 -0.002280 0.000000 -0.004358 0.000000
# 2 -0.002565 0.017561 -0.002149 0.000000 -0.002287 0.000000
# 3 -0.002280 -0.002149 0.008907 0.000000 -0.002994 0.000000
# 4 0.000000 0.000000 0.000000 0.017407 0.000000 -0.004305
# 5 -0.004358 -0.002287 -0.002994 0.000000 0.019870 0.000000
# 6 0.000000 0.000000 0.000000 -0.004305 0.000000 0.036413
#
#
# Mechanical properties :
#
#
# Convention : Reuss Voigt Hill
#
# Bulk Modulus (GPa) = 41.88384 60.24308 51.06346
# Shear Modulus (GPa) = 37.45326 45.47908 41.46617
#
# Velocity S-wave (km/s) = 3.90989 4.30849 4.11402
# Velocity P-wave (km/s) = 6.12198 7.02426 6.58858
#
# Compressibility (1/GPa) = 0.02387555
#
# Stress axis : x y z
#
# Youngs Moduli (GPa) = 87.75596 56.94355 112.27614
#
# Poissons Ratio (x) = 0.14607 0.25597
# Poissons Ratio (y) = 0.22510 0.24127
# Poissons Ratio (z) = 0.20007 0.12236
#
# Static dielectric constant tensor:
#      x y z
#    x 1.977960 0.000000 -0.016400 
#    y 0.000000 2.065670 0.000000 
#    z -0.016400 0.000000 2.018920 
# 
# From -- ./inp_files/30366.got.cif
#   From: 2010.05.17/outbox.cif.g08.bks.cpg/sg14_16_cif.got.tgz:30366.got - 2010.06.03 17:49:19.
