data_PCOD9249521
_publ_section_title
;
Structure prediction by ZEFSAII (Michael W. Deem and Ramdas Pophale) SiO2 
 PCOD9249521
Probable space group: P 21/C
;
_chemical_formula_sum "Si O2"
_cell_formula_units_Z 32
_cell_length_a 10.734896
_cell_length_b 7.759648
_cell_length_c 27.416299
_cell_angle_alpha 90.000000
_cell_angle_beta 31.233814
_cell_angle_gamma 90.000000
_cell_volume 1184.197182
_symmetry_space_group_name_H-M "P 21/C"
_symmetry_group_IT_number 14
_symmetry_cell_setting 'monoclinic'
loop_
_space_group_symop_operation_xyz
x,y,z
-x,1/2+y,1/2-z
-x,-y,-z
x,1/2-y,1/2+z
loop_
_atom_site_type_symbol
_atom_site_label
_atom_site_fract_x
_atom_site_fract_y
_atom_site_fract_z
Si Si1 0.799401 0.139237 0.431194
Si Si2 0.730517 0.745509 0.169658
Si Si3 0.248291 0.624634 0.381601
Si Si4 0.971636 0.995443 0.733460
Si Si5 0.009981 0.132846 0.170594
Si Si6 0.777386 0.761015 0.488192
Si Si7 0.510941 0.916166 0.657348
Si Si8 0.480621 0.788711 0.895195
O O1 0.587200 0.251179 0.525884
O O2 0.044155 0.218489 0.370908
O O3 0.825942 0.112115 0.364488
O O4 0.791059 0.948517 0.458021
O O5 0.488975 0.718241 0.281537
O O6 0.709138 0.607108 0.132777
O O7 0.734816 0.929917 0.142731
O O8 0.269928 0.626307 0.433305
O O9 0.013876 0.721187 0.440788
O O10 0.718020 0.901291 0.809147
O O11 0.988303 0.001175 0.786070
O O12 0.999792 0.184450 0.701854
O O13 0.749595 0.116764 0.232781
O O14 0.208874 0.131176 0.062060
O O15 0.561156 0.774803 0.598465
O O16 0.505579 0.098188 0.632548
#
# Coordination Sequence:
#
# PCOD9249521 Si02
#       8
#     4   4   4   4   4   4   4   4
#     4  10  23  42  64  91 126 165 204 250 310 371
#     4  12  23  37  62  94 128 164 203 250 308 368
#     4  12  23  37  62  94 128 164 203 250 308 368
#     4  11  24  43  65  89 122 164 210 260 308 362
#     4  11  24  43  65  89 122 164 210 260 308 362
#     4  10  23  42  64  91 126 165 204 250 310 371
#     4  11  23  41  65  93 125 163 205 253 309 369
#     4  11  23  41  65  93 125 163 205 253 309 369
#
# _framework density 27.022525000000002
#
# number of rings (size 3 to 8) (size 9 to 14) (size 15 to 20)
#    0.000    1.000    2.500    4.500    0.000    7.000 
#    0.000    5.000    0.000    0.000    0.000    0.000 
#    0.000    0.000    0.000    0.000    0.000    0.000 
#
# Total GULP energy -179449.994794 kJ/mol
# GULP energy per Si atom -5607.812337 kJ/mol
# Density = 2.696102 g / cm^3
# Si number density = 27.022525 Si / 1000 Ang^3
#
#
#
# Elastic Constant Matrix: (Units=GPa)
#
#
# Indices 1 2 3 4 5 6 
#
# 1 92.8889 -6.3932 0.9579 0.0000 3.8165 0.0000
# 2 -6.3932 99.5551 23.1073 0.0000 -5.9341 0.0000
# 3 0.9579 23.1073 82.2174 0.0000 9.5885 0.0000
# 4 0.0000 0.0000 0.0000 28.3973 0.0000 6.5900
# 5 3.8165 -5.9341 9.5885 0.0000 23.6895 0.0000
# 6 0.0000 0.0000 0.0000 6.5900 0.0000 36.6982
#
#
#
# Elastic Compliance Matrix: (Units=1/GPa)
#
#
# Indices 1 2 3 4 5 6 
#
# 1 0.010874 0.000636 -0.000125 0.000000 -0.001542 0.000000
# 2 0.000636 0.011178 -0.003635 0.000000 0.004169 0.000000
# 3 -0.000125 -0.003635 0.013948 0.000000 -0.006536 0.000000
# 4 0.000000 0.000000 0.000000 0.036746 0.000000 -0.006599
# 5 -0.001542 0.004169 -0.006536 0.000000 0.046151 0.000000
# 6 0.000000 0.000000 0.000000 -0.006599 0.000000 0.028434
#
#
# Mechanical properties :
#
#
# Convention : Reuss Voigt Hill
#
# Bulk Modulus (GPa) = 33.61373 34.44504 34.02939
# Shear Modulus (GPa) = 30.58144 34.88962 32.73553
#
# Velocity S-wave (km/s) = 3.36773 3.59713 3.48432
# Velocity P-wave (km/s) = 5.25245 5.47968 5.36727
#
# Compressibility (1/GPa) = 0.02974975
#
# Stress axis : x y z
#
# Youngs Moduli (GPa) = 91.96300 89.46361 71.69355
#
# Poissons Ratio (x) = -0.05686 0.00900
# Poissons Ratio (y) = -0.05844 0.26061
# Poissons Ratio (z) = 0.01154 0.32521
#
# Static dielectric constant tensor:
#      x y z
#    x 2.135380 0.000000 0.033570 
#    y 0.000000 2.089980 0.000000 
#    z 0.033570 0.000000 2.085700 
# 
# From -- ./inp_files/79942.got.cif
#   From: 2010.05.17/outbox.cif.g08.bks.cpg/sg14_40_cif.got.tgz:79942.got - 2010.06.03 17:49:19.
