data_PCOD9249158
_publ_section_title
;
Structure prediction by ZEFSAII (Michael W. Deem and Ramdas Pophale) SiO2 
 PCOD9249158
Probable space group: P 21/C
;
_chemical_formula_sum "Si O2"
_cell_formula_units_Z 20
_cell_length_a 8.471022
_cell_length_b 7.495309
_cell_length_c 24.825491
_cell_angle_alpha 90.000000
_cell_angle_beta 145.802331
_cell_angle_gamma 90.000000
_cell_volume 885.927006
_symmetry_space_group_name_H-M "P 21/C"
_symmetry_group_IT_number 14
_symmetry_cell_setting 'monoclinic'
loop_
_space_group_symop_operation_xyz
x,y,z
-x,1/2+y,1/2-z
-x,-y,-z
x,1/2-y,1/2+z
loop_
_atom_site_type_symbol
_atom_site_label
_atom_site_fract_x
_atom_site_fract_y
_atom_site_fract_z
Si Si1 0.532602 0.691278 0.086841
Si Si2 0.697119 0.944876 0.947235
Si Si3 0.264223 0.556952 0.655073
Si Si4 0.804879 0.777601 0.776952
Si Si5 0.424704 0.693914 0.940248
O O1 0.748026 0.705123 0.197081
O O2 0.467580 0.481437 0.060338
O O3 0.308254 0.843416 0.040606
O O4 0.601585 0.735590 0.044074
O O5 0.683187 0.918774 0.879724
O O6 0.436605 0.859580 0.903704
O O7 0.973809 0.858250 0.051369
O O8 0.539795 0.677013 0.729223
O O9 0.198593 0.465154 0.692900
O O10 0.100676 0.676953 0.867321
#
# Coordination Sequence:
#
# PCOD9249158 Si02
#       5
#     4   4   4   4   4
#     4  10  24  41  65 101 126 167 225 267 321 394
#     4  10  22  47  68  89 136 180 212 273 333 384
#     4  10  24  43  64  98 134 171 219 271 332 393
#     4  11  25  42  67 100 132 175 224 268 332 392
#     4  11  24  43  70  96 132 173 223 272 326 388
#
# _framework density 22.575223000000001
#
# number of rings (size 3 to 8) (size 9 to 14) (size 15 to 20)
#    0.000    1.600    2.000    0.600    8.400    3.200 
#    0.000    4.000    0.000    0.000    0.000    0.000 
#    0.000    0.000    0.000    0.000    0.000    0.000 
#
# Total GULP energy -111373.511826 kJ/mol
# GULP energy per Si atom -5568.675591 kJ/mol
# Density = 2.252384 g / cm^3
# Si number density = 22.575223 Si / 1000 Ang^3
#
#
#
# Elastic Constant Matrix: (Units=GPa)
#
#
# Indices 1 2 3 4 5 6 
#
# 1 67.2206 31.4536 35.8735 0.0000 -20.4039 0.0000
# 2 31.4536 54.6554 14.1012 0.0000 7.0590 0.0000
# 3 35.8735 14.1012 72.4528 0.0000 -6.0379 0.0000
# 4 0.0000 0.0000 0.0000 17.4605 0.0000 2.0559
# 5 -20.4039 7.0590 -6.0379 0.0000 41.5310 0.0000
# 6 0.0000 0.0000 0.0000 2.0559 0.0000 40.7895
#
#
#
# Elastic Compliance Matrix: (Units=1/GPa)
#
#
# Indices 1 2 3 4 5 6 
#
# 1 0.037729 -0.020995 -0.012909 0.000000 0.020228 0.000000
# 2 -0.020995 0.031580 0.002978 0.000000 -0.015249 0.000000
# 3 -0.012909 0.002978 0.019277 0.000000 -0.004046 0.000000
# 4 0.000000 0.000000 0.000000 0.057614 0.000000 -0.002904
# 5 0.020228 -0.015249 -0.004046 0.000000 0.036020 0.000000
# 6 0.000000 0.000000 0.000000 -0.002904 0.000000 0.024662
#
#
# Mechanical properties :
#
#
# Convention : Reuss Voigt Hill
#
# Bulk Modulus (GPa) = 37.40468 39.68727 38.54597
# Shear Modulus (GPa) = 18.00864 27.48290 22.74577
#
# Velocity S-wave (km/s) = 2.82745 3.49290 3.17764
# Velocity P-wave (km/s) = 5.22151 5.82111 5.52944
#
# Compressibility (1/GPa) = 0.02673463
#
# Stress axis : x y z
#
# Youngs Moduli (GPa) = 26.50485 31.66593 51.87539
#
# Poissons Ratio (x) = 0.66481 0.66966
# Poissons Ratio (y) = 0.55646 -0.15449
# Poissons Ratio (z) = 0.34215 -0.09430
#
# Static dielectric constant tensor:
#      x y z
#    x 1.820580 0.000000 -0.002740 
#    y 0.000000 1.873770 0.000000 
#    z -0.002740 0.000000 1.862340 
# 
# From -- ./inp_files/38728.got.cif
#   From: 2010.05.17/outbox.cif.g08.bks.cpg/sg14_20_cif.got.tgz:38728.got - 2010.06.03 17:49:19.
