data_PCOD9249066
_publ_section_title
;
Structure prediction by ZEFSAII (Michael W. Deem and Ramdas Pophale) SiO2 
 PCOD9249066
Probable space group: P 21/C
;
_chemical_formula_sum "Si O2"
_cell_formula_units_Z 22
_cell_length_a 13.230492
_cell_length_b 5.194533
_cell_length_c 13.154005
_cell_angle_alpha 90.000000
_cell_angle_beta 73.080022
_cell_angle_gamma 90.000000
_cell_volume 864.891845
_symmetry_space_group_name_H-M "P 21/C"
_symmetry_group_IT_number 14
_symmetry_cell_setting 'monoclinic'
loop_
_space_group_symop_operation_xyz
x,y,z
-x,1/2+y,1/2-z
-x,-y,-z
x,1/2-y,1/2+z
loop_
_atom_site_type_symbol
_atom_site_label
_atom_site_fract_x
_atom_site_fract_y
_atom_site_fract_z
Si Si1 0.488851 0.971320 0.687320
Si Si2 0.691736 0.339247 0.349457
Si Si3 0.202184 0.221728 0.331667
Si Si4 0.142608 0.022864 0.648513
Si Si5 0.670516 0.810488 0.023542
Si Si6 0.000000 0.000000 0.500000
O O1 0.499104 0.759990 0.775764
O O2 0.376960 0.900464 0.669255
O O3 0.580899 0.887510 0.583247
O O4 0.718504 0.527630 0.248486
O O5 0.806577 0.259825 0.359033
O O6 0.630348 0.469904 0.460420
O O7 0.137306 0.379969 0.266109
O O8 0.270643 0.394916 0.389688
O O9 0.118735 0.067130 0.424041
O O10 0.237276 0.182438 0.569522
O O11 0.041669 0.036825 0.607315
#
# Coordination Sequence:
#
# PCOD9249066 Si02
#       6
#     4   4   4   4   4   2
#     4  12  26  43  73 107 147 195 241 298 363 440
#     4  11  24  42  71  98 139 191 234 295 363 437
#     4  10  22  46  63 103 138 179 236 297 358 437
#     4  10  24  43  69  97 142 178 240 297 363 437
#     4  10  23  44  65 101 141 183 236 295 360 430
#     4  10  24  42  70 102 132 184 236 298 372 430
#
# _framework density 25.436706999999998
#
# number of rings (size 3 to 8) (size 9 to 14) (size 15 to 20)
#    0.000    1.455    1.818    1.636    7.636    3.636 
#    0.000    3.636    0.000    0.000    0.000    0.000 
#    0.000    0.000    0.000    0.000    0.000    0.000 
#
# Total GULP energy -122635.089263 kJ/mol
# GULP energy per Si atom -5574.322239 kJ/mol
# Density = 2.537881 g / cm^3
# Si number density = 25.436707 Si / 1000 Ang^3
#
#
#
# Elastic Constant Matrix: (Units=GPa)
#
#
# Indices 1 2 3 4 5 6 
#
# 1 103.6136 8.9882 23.4831 0.0000 29.6964 0.0000
# 2 8.9882 46.5881 22.4353 0.0000 6.3333 0.0000
# 3 23.4831 22.4353 127.2288 0.0000 19.8163 0.0000
# 4 0.0000 0.0000 0.0000 34.2577 0.0000 7.7254
# 5 29.6964 6.3333 19.8163 0.0000 46.4439 0.0000
# 6 0.0000 0.0000 0.0000 7.7254 0.0000 15.8195
#
#
#
# Elastic Compliance Matrix: (Units=1/GPa)
#
#
# Indices 1 2 3 4 5 6 
#
# 1 0.011989 -0.000888 -0.000944 0.000000 -0.007142 0.000000
# 2 -0.000888 0.023625 -0.003844 0.000000 -0.001014 0.000000
# 3 -0.000944 -0.003844 0.009144 0.000000 -0.002774 0.000000
# 4 0.000000 0.000000 0.000000 0.032803 0.000000 -0.016019
# 5 -0.007142 -0.001014 -0.002774 0.000000 0.027420 0.000000
# 6 0.000000 0.000000 0.000000 -0.016019 0.000000 0.071036
#
#
# Mechanical properties :
#
#
# Convention : Reuss Voigt Hill
#
# Bulk Modulus (GPa) = 29.93421 43.02709 36.48065
# Shear Modulus (GPa) = 25.18842 34.13914 29.66378
#
# Velocity S-wave (km/s) = 3.15022 3.66747 3.41864
# Velocity P-wave (km/s) = 5.00255 5.90643 5.47318
#
# Compressibility (1/GPa) = 0.03340660
#
# Stress axis : x y z
#
# Youngs Moduli (GPa) = 83.40868 42.32799 109.36141
#
# Poissons Ratio (x) = 0.03757 0.10323
# Poissons Ratio (y) = 0.07403 0.42041
# Poissons Ratio (z) = 0.07874 0.16272
#
# Static dielectric constant tensor:
#      x y z
#    x 1.954300 0.000000 0.035270 
#    y 0.000000 2.065350 0.000000 
#    z 0.035270 0.000000 2.021820 
# 
# From -- ./inp_files/31086.got.cif
#   From: 2010.05.17/outbox.cif.g08.bks.cpg/sg14_16_cif.got.tgz:31086.got - 2010.06.03 17:49:19.
