data_PCOD9249261
_publ_section_title
;
Structure prediction by ZEFSAII (Michael W. Deem and Ramdas Pophale) SiO2 
 PCOD9249261
Probable space group: P 21/C
;
_chemical_formula_sum "Si O2"
_cell_formula_units_Z 28
_cell_length_a 6.854726
_cell_length_b 17.019983
_cell_length_c 17.167120
_cell_angle_alpha 90.000000
_cell_angle_beta 133.069672
_cell_angle_gamma 90.000000
_cell_volume 1463.123757
_symmetry_space_group_name_H-M "P 21/C"
_symmetry_group_IT_number 14
_symmetry_cell_setting 'monoclinic'
loop_
_space_group_symop_operation_xyz
x,y,z
-x,1/2+y,1/2-z
-x,-y,-z
x,1/2-y,1/2+z
loop_
_atom_site_type_symbol
_atom_site_label
_atom_site_fract_x
_atom_site_fract_y
_atom_site_fract_z
Si Si1 0.658803 0.324813 0.885669
Si Si2 0.537528 0.507069 0.216737
Si Si3 0.126803 0.047639 0.868799
Si Si4 0.544745 0.938727 0.896550
Si Si5 0.207179 0.204581 0.797721
Si Si6 0.216604 0.146428 0.622114
Si Si7 0.656754 0.271689 0.706350
O O1 0.520789 0.410216 0.840446
O O2 0.458413 0.263131 0.871275
O O3 0.706567 0.293852 0.810608
O O4 0.937195 0.334558 0.005538
O O5 0.561524 0.525000 0.315351
O O6 0.303906 0.444131 0.139334
O O7 0.817802 0.468780 0.268694
O O8 0.217668 0.130952 0.858665
O O9 0.302614 0.980710 0.875766
O O10 0.197149 0.048069 0.979401
O O11 0.480990 0.847128 0.869618
O O12 0.201673 0.170411 0.708742
O O13 0.934214 0.250411 0.741505
O O14 0.451597 0.199364 0.649393
#
# Coordination Sequence:
#
# PCOD9249261 Si02
#       7
#     4   4   4   4   4   4   4
#     4  10  25  41  63  92 125 165 204 255 312 366
#     4  11  21  44  61  91 126 161 209 252 303 371
#     4  11  22  39  65  91 123 164 202 257 311 359
#     4  10  23  39  62  93 121 160 205 257 306 366
#     4  11  23  41  62  93 127 158 210 257 303 371
#     4  11  23  40  65  90 124 166 205 258 308 364
#     4  10  23  42  62  90 125 162 210 255 304 375
#
# _framework density 19.137136999999999
#
# number of rings (size 3 to 8) (size 9 to 14) (size 15 to 20)
#    0.000    1.429    2.857    1.714    4.000    0.000 
#    5.143    0.714    0.000    0.000    0.000    0.000 
#    0.000    0.000    0.000    0.000    0.000    0.000 
#
# Total GULP energy -156486.398378 kJ/mol
# GULP energy per Si atom -5588.799942 kJ/mol
# Density = 1.909358 g / cm^3
# Si number density = 19.137137 Si / 1000 Ang^3
#
#
#
# Elastic Constant Matrix: (Units=GPa)
#
#
# Indices 1 2 3 4 5 6 
#
# 1 57.3748 10.4322 7.8791 0.0000 14.3016 0.0000
# 2 10.4322 88.1554 19.7251 0.0000 -2.2182 0.0000
# 3 7.8791 19.7251 84.1826 0.0000 21.9643 0.0000
# 4 0.0000 0.0000 0.0000 -5.2902 0.0000 33.8032
# 5 14.3016 -2.2182 21.9643 0.0000 22.4807 0.0000
# 6 0.0000 0.0000 0.0000 33.8032 0.0000 -15.0881
#
#
#
# Elastic Compliance Matrix: (Units=1/GPa)
#
#
# Indices 1 2 3 4 5 6 
#
# 1 0.022098 -0.003845 0.003489 0.000000 -0.017846 0.000000
# 2 -0.003845 0.013123 -0.004954 0.000000 0.008581 0.000000
# 3 0.003489 -0.004954 0.018011 0.000000 -0.020306 0.000000
# 4 0.000000 0.000000 0.000000 0.014196 0.000000 0.031805
# 5 -0.017846 0.008581 -0.020306 0.000000 0.076522 0.000000
# 6 0.000000 0.000000 0.000000 0.031805 0.000000 0.004977
#
#
# Mechanical properties :
#
#
# Convention : Reuss Voigt Hill
#
# Bulk Modulus (GPa) = 23.46740 33.97616 28.72178
# Shear Modulus (GPa) = 28.77691 13.19892 20.98792
#
# Velocity S-wave (km/s) = 3.88199 2.62907 3.31526
# Velocity P-wave (km/s) = 5.69056 5.19698 5.44936
#
# Compressibility (1/GPa) = 0.04261231
#
# Stress axis : x y z
#
# Youngs Moduli (GPa) = 45.25375 76.20238 55.52107
#
# Poissons Ratio (x) = 0.29298 -0.19371
# Poissons Ratio (y) = 0.17399 0.27504
# Poissons Ratio (z) = -0.15788 0.37750
#
# Static dielectric constant tensor:
#      x y z
#    x 1.640790 0.000000 -0.010170 
#    y 0.000000 1.652270 0.000000 
#    z -0.010170 0.000000 1.640660 
# 
# From -- ./inp_files/37785.got.cif
#   From: 2010.05.17/outbox.cif.g08.bks.cpg/sg14_19_cif.got.tgz:37785.got - 2010.06.03 17:49:19.
