data_PCOD9249502
_publ_section_title
;
Structure prediction by ZEFSAII (Michael W. Deem and Ramdas Pophale) SiO2 
 PCOD9249502
Probable space group: P 21/C
;
_chemical_formula_sum "Si O2"
_cell_formula_units_Z 30
_cell_length_a 17.333093
_cell_length_b 13.843995
_cell_length_c 8.463370
_cell_angle_alpha 90.000000
_cell_angle_beta 139.785084
_cell_angle_gamma 90.000000
_cell_volume 1311.240520
_symmetry_space_group_name_H-M "P 21/C"
_symmetry_group_IT_number 14
_symmetry_cell_setting 'monoclinic'
loop_
_space_group_symop_operation_xyz
x,y,z
-x,1/2+y,1/2-z
-x,-y,-z
x,1/2-y,1/2+z
loop_
_atom_site_type_symbol
_atom_site_label
_atom_site_fract_x
_atom_site_fract_y
_atom_site_fract_z
Si Si1 0.608026 0.376580 0.471692
Si Si2 0.150831 0.458447 0.954578
Si Si3 0.636192 0.583430 0.497307
Si Si4 0.292798 0.576022 0.912956
Si Si5 0.066060 0.656639 0.373820
Si Si6 0.545199 0.232123 0.166574
Si Si7 0.500000 0.500000 0.000000
Si Si8 0.893433 0.363317 0.926788
O O1 0.583324 0.483417 0.491336
O O2 0.553912 0.347271 0.215797
O O3 0.554365 0.294457 0.498332
O O4 0.749294 0.367679 0.683733
O O5 0.236125 0.504016 0.954131
O O6 0.053339 0.385857 0.735205
O O7 0.232023 0.413845 0.221821
O O8 0.076526 0.544453 0.921185
O O9 0.570356 0.679774 0.447286
O O10 0.611342 0.556247 0.277515
O O11 0.185858 0.608857 0.631152
O O12 0.343264 0.671377 0.085029
O O13 0.402680 0.532044 0.987959
O O14 0.074944 0.768666 0.427289
O O15 0.057725 0.640017 0.173349
#
# Coordination Sequence:
#
# PCOD9249502 Si02
#       8
#     4   4   4   4   4   4   2   4
#     4  11  21  37  63  92 125 164 215 276 323 385
#     4  11  24  44  69  94 136 184 222 280 341 404
#     4  10  23  42  62  94 132 176 214 273 341 399
#     4  11  21  40  64 102 127 172 223 278 339 397
#     4  12  24  41  69 101 132 174 229 282 330 402
#     4  11  22  36  64  94 126 164 218 268 333 395
#     4  10  24  36  68  98 132 164 226 278 332 408
#     4  11  22  40  66 100 128 169 235 279 329 385
#
# _framework density 22.879097000000002
#
# number of rings (size 3 to 8) (size 9 to 14) (size 15 to 20)
#    0.000    1.067    4.000    4.400    5.600    0.000 
#    0.000    1.333    5.867    0.000    0.000    0.000 
#    0.000    0.000    0.000    0.000    0.000    0.000 
#
# Total GULP energy -167293.478432 kJ/mol
# GULP energy per Si atom -5576.449281 kJ/mol
# Density = 2.282702 g / cm^3
# Si number density = 22.879097 Si / 1000 Ang^3
#
#
#
# Elastic Constant Matrix: (Units=GPa)
#
#
# Indices 1 2 3 4 5 6 
#
# 1 87.2146 15.2805 17.0397 0.0000 -11.0033 0.0000
# 2 15.2805 58.2608 22.4152 0.0000 18.4091 0.0000
# 3 17.0397 22.4152 73.4203 0.0000 16.8413 0.0000
# 4 0.0000 0.0000 0.0000 28.3840 0.0000 -2.1450
# 5 -11.0033 18.4091 16.8413 0.0000 29.0608 0.0000
# 6 0.0000 0.0000 0.0000 -2.1450 0.0000 21.1708
#
#
#
# Elastic Compliance Matrix: (Units=1/GPa)
#
#
# Indices 1 2 3 4 5 6 
#
# 1 0.014881 -0.006005 -0.004366 0.000000 0.011968 0.000000
# 2 -0.006005 0.024930 -0.002391 0.000000 -0.016680 0.000000
# 3 -0.004366 -0.002391 0.017755 0.000000 -0.010428 0.000000
# 4 0.000000 0.000000 0.000000 0.035503 0.000000 0.003597
# 5 0.011968 -0.016680 -0.010428 0.000000 0.055552 0.000000
# 6 0.000000 0.000000 0.000000 0.003597 0.000000 0.047599
#
#
# Mechanical properties :
#
#
# Convention : Reuss Voigt Hill
#
# Bulk Modulus (GPa) = 31.20878 36.48517 33.84697
# Shear Modulus (GPa) = 21.51234 26.66715 24.08975
#
# Velocity S-wave (km/s) = 3.06970 3.41775 3.24839
# Velocity P-wave (km/s) = 5.12195 5.61749 5.37544
#
# Compressibility (1/GPa) = 0.03204227
#
# Stress axis : x y z
#
# Youngs Moduli (GPa) = 67.19976 40.11274 56.32085
#
# Poissons Ratio (x) = 0.24088 0.24588
# Poissons Ratio (y) = 0.40354 0.13468
# Poissons Ratio (z) = 0.29337 0.09592
#
# Static dielectric constant tensor:
#      x y z
#    x 1.851840 0.000000 -0.046200 
#    y 0.000000 1.885020 0.000000 
#    z -0.046200 0.000000 1.886500 
# 
# From -- ./inp_files/18022.got.cif
#   From: 2010.05.17/outbox.cif.g08.bks.cpg/sg14_10_cif.got.tgz:18022.got - 2010.06.03 17:49:19.
