data_PCOD9249225
_publ_section_title
;
Structure prediction by ZEFSAII (Michael W. Deem and Ramdas Pophale) SiO2 
 PCOD9249225
Probable space group: P 21/C
;
_chemical_formula_sum "Si O2"
_cell_formula_units_Z 30
_cell_length_a 29.224206
_cell_length_b 4.917578
_cell_length_c 26.382574
_cell_angle_alpha 90.000000
_cell_angle_beta 19.654481
_cell_angle_gamma 90.000000
_cell_volume 1275.260631
_symmetry_space_group_name_H-M "P 21/C"
_symmetry_group_IT_number 14
_symmetry_cell_setting 'monoclinic'
loop_
_space_group_symop_operation_xyz
x,y,z
-x,1/2+y,1/2-z
-x,-y,-z
x,1/2-y,1/2+z
loop_
_atom_site_type_symbol
_atom_site_label
_atom_site_fract_x
_atom_site_fract_y
_atom_site_fract_z
Si Si1 0.230263 0.343979 0.679416
Si Si2 0.841487 0.661190 0.063130
Si Si3 0.397549 0.870196 0.487512
Si Si4 0.000000 0.500000 0.000000
Si Si5 0.941111 0.553602 0.237699
Si Si6 0.317313 0.856249 0.800372
Si Si7 0.412677 0.440245 0.855241
Si Si8 0.806683 0.255503 0.466027
O O1 0.286450 0.047687 0.633176
O O2 0.142265 0.306966 0.719968
O O3 0.353716 0.557220 0.540009
O O4 0.132603 0.451217 0.824574
O O5 0.907751 0.571149 0.045941
O O6 0.718108 0.456107 0.176030
O O7 0.791286 0.968115 0.117401
O O8 0.954934 0.643819 0.900596
O O9 0.540214 0.995675 0.357214
O O10 0.391571 0.956586 0.434540
O O11 0.834252 0.413829 0.385897
O O12 0.045154 0.722732 0.163435
O O13 0.283789 0.884892 0.895165
O O14 0.475044 0.141471 0.786869
O O15 0.275173 0.487064 0.966353
#
# Coordination Sequence:
#
# PCOD9249225 Si02
#       8
#     4   4   4   2   4   4   4   4
#     4  11  26  46  71 100 130 179 228 293 343 411
#     4  10  24  45  70  98 131 177 224 285 345 404
#     4  12  25  44  68 100 143 176 229 281 334 409
#     4  10  26  52  78 100 134 174 234 290 366 412
#     4  10  23  37  61  96 133 176 225 274 329 398
#     4  11  24  42  67 100 140 177 219 275 339 403
#     4  12  26  41  65  98 140 193 233 264 329 405
#     4  11  23  37  64  96 141 182 226 272 329 404
#
# _framework density 23.524605000000001
#
# number of rings (size 3 to 8) (size 9 to 14) (size 15 to 20)
#    0.000    1.067    2.667    2.400    5.600    8.533 
#    0.000    4.000    0.000    0.000    0.000    0.000 
#    0.000    0.000    0.000    0.000    0.000    0.000 
#
# Total GULP energy -167316.832725 kJ/mol
# GULP energy per Si atom -5577.227757 kJ/mol
# Density = 2.347106 g / cm^3
# Si number density = 23.524605 Si / 1000 Ang^3
#
#
#
# Elastic Constant Matrix: (Units=GPa)
#
#
# Indices 1 2 3 4 5 6 
#
# 1 108.4679 3.4633 20.5462 0.0000 15.0702 0.0000
# 2 3.4633 75.1618 9.5819 0.0000 -4.7439 0.0000
# 3 20.5462 9.5819 81.7052 0.0000 0.8721 0.0000
# 4 0.0000 0.0000 0.0000 9.7868 0.0000 -15.7104
# 5 15.0702 -4.7439 0.8721 0.0000 38.4148 0.0000
# 6 0.0000 0.0000 0.0000 -15.7104 0.0000 -21.8712
#
#
#
# Elastic Compliance Matrix: (Units=1/GPa)
#
#
# Indices 1 2 3 4 5 6 
#
# 1 0.010263 -0.000409 -0.002490 0.000000 -0.004020 0.000000
# 2 -0.000409 0.013635 -0.001516 0.000000 0.001879 0.000000
# 3 -0.002490 -0.001516 0.013038 0.000000 0.000494 0.000000
# 4 0.000000 0.000000 0.000000 0.047457 0.000000 -0.034089
# 5 -0.004020 0.001879 0.000494 0.000000 0.027829 0.000000
# 6 0.000000 0.000000 0.000000 -0.034089 0.000000 -0.021236
#
#
# Mechanical properties :
#
#
# Convention : Reuss Voigt Hill
#
# Bulk Modulus (GPa) = 35.58059 36.94642 36.26351
# Shear Modulus (GPa) = 45.79387 20.71566 33.25477
#
# Velocity S-wave (km/s) = 4.41686 2.97070 3.76389
# Velocity P-wave (km/s) = 6.41632 5.24464 5.85984
#
# Compressibility (1/GPa) = 0.02810521
#
# Stress axis : x y z
#
# Youngs Moduli (GPa) = 97.44181 73.33874 76.70023
#
# Poissons Ratio (x) = 0.03001 0.19097
# Poissons Ratio (y) = 0.03987 0.11630
# Poissons Ratio (z) = 0.24261 0.11120
#
# Static dielectric constant tensor:
#      x y z
#    x 1.845670 0.000000 -0.034460 
#    y 0.000000 1.901530 0.000000 
#    z -0.034460 0.000000 1.904840 
# 
# From -- ./inp_files/78422.got.cif
#   From: 2010.05.17/outbox.cif.g08.bks.cpg/sg14_40_cif.got.tgz:78422.got - 2010.06.03 17:49:19.
