data_PCOD9249923
_publ_section_title
;
Structure prediction by ZEFSAII (Michael W. Deem and Ramdas Pophale) SiO2 
 PCOD9249923
Probable space group: P 21/C
;
_chemical_formula_sum "Si O2"
_cell_formula_units_Z 20
_cell_length_a 28.169194
_cell_length_b 5.059437
_cell_length_c 18.504806
_cell_angle_alpha 90.000000
_cell_angle_beta 161.805872
_cell_angle_gamma 90.000000
_cell_volume 823.467174
_symmetry_space_group_name_H-M "P 21/C"
_symmetry_group_IT_number 14
_symmetry_cell_setting 'monoclinic'
loop_
_space_group_symop_operation_xyz
x,y,z
-x,1/2+y,1/2-z
-x,-y,-z
x,1/2-y,1/2+z
loop_
_atom_site_type_symbol
_atom_site_label
_atom_site_fract_x
_atom_site_fract_y
_atom_site_fract_z
Si Si1 0.649217 0.533009 0.834569
Si Si2 0.038821 0.728101 0.356263
Si Si3 0.884244 0.667879 0.283325
Si Si4 0.329616 0.532363 0.730653
Si Si5 0.415061 0.080814 0.096554
O O1 0.675224 0.299755 0.819380
O O2 0.473336 0.533092 0.604518
O O3 0.698620 0.798521 0.866436
O O4 0.758285 0.488285 0.060697
O O5 0.201681 0.582675 0.604838
O O6 0.966325 0.500737 0.197719
O O7 0.973901 0.779713 0.342912
O O8 0.000000 0.500000 0.500000
O O9 0.764526 0.867691 0.150501
O O10 0.500000 0.500000 0.000000
O O11 0.506256 0.362053 0.236827
#
# Coordination Sequence:
#
# PCOD9249923 Si02
#       5
#     4   4   4   4   4
#     4  11  23  47  72 104 144 191 242 306 361 435
#     4  12  25  49  74 104 150 197 244 309 371 434
#     4  11  25  47  74 110 149 194 246 303 372 438
#     4  12  25  45  76 104 142 194 252 298 366 441
#     4  10  23  44  71 101 146 191 239 298 366 430
#
# _framework density 24.28755
#
# number of rings (size 3 to 8) (size 9 to 14) (size 15 to 20)
#    0.000    0.800    4.000    3.000    2.800    0.000 
#    0.000   12.000    0.000    0.000    0.000    0.000 
#    0.000    0.000    0.000    0.000    0.000    0.000 
#
# Total GULP energy -111476.836921 kJ/mol
# GULP energy per Si atom -5573.841846 kJ/mol
# Density = 2.423227 g / cm^3
# Si number density = 24.287550 Si / 1000 Ang^3
#
#
#
# Elastic Constant Matrix: (Units=GPa)
#
#
# Indices 1 2 3 4 5 6 
#
# 1 97.6506 27.6707 32.3619 0.0000 40.0414 0.0000
# 2 27.6707 198.4039 22.6873 0.0000 -7.3159 0.0000
# 3 32.3619 22.6873 130.4734 0.0000 10.0608 0.0000
# 4 0.0000 0.0000 0.0000 36.6112 0.0000 11.9258
# 5 40.0414 -7.3159 10.0608 0.0000 55.8143 0.0000
# 6 0.0000 0.0000 0.0000 11.9258 0.0000 19.0750
#
#
#
# Elastic Compliance Matrix: (Units=1/GPa)
#
#
# Indices 1 2 3 4 5 6 
#
# 1 0.016700 -0.002443 -0.002808 0.000000 -0.011794 0.000000
# 2 -0.002443 0.005540 -0.000556 0.000000 0.002579 0.000000
# 3 -0.002808 -0.000556 0.008425 0.000000 0.000423 0.000000
# 4 0.000000 0.000000 0.000000 0.034299 0.000000 -0.021444
# 5 -0.011794 0.002579 0.000423 0.000000 0.026640 0.000000
# 6 0.000000 0.000000 0.000000 -0.021444 0.000000 0.065831
#
#
# Mechanical properties :
#
#
# Convention : Reuss Voigt Hill
#
# Bulk Modulus (GPa) = 52.49236 65.77418 59.13327
# Shear Modulus (GPa) = 28.50651 45.22065 36.86358
#
# Velocity S-wave (km/s) = 3.42966 4.31964 3.90012
# Velocity P-wave (km/s) = 6.11091 7.21244 6.68440
#
# Compressibility (1/GPa) = 0.01905039
#
# Stress axis : x y z
#
# Youngs Moduli (GPa) = 59.88160 180.51794 118.69516
#
# Poissons Ratio (x) = 0.44098 0.33328
# Poissons Ratio (y) = 0.14628 0.06602
# Poissons Ratio (z) = 0.16814 0.10040
#
# Static dielectric constant tensor:
#      x y z
#    x 2.060760 0.000000 0.141910 
#    y 0.000000 1.898890 0.000000 
#    z 0.141910 0.000000 2.161070 
# 
# From -- ./inp_files/62182.got.cif
#   From: 2010.05.17/outbox.cif.g08.bks.cpg/sg14_32_cif.got.tgz:62182.got - 2010.06.03 17:49:19.
