data_PCOD9249096
_publ_section_title
;
Structure prediction by ZEFSAII (Michael W. Deem and Ramdas Pophale) SiO2 
 PCOD9249096
Probable space group: P 21/C
;
_chemical_formula_sum "Si O2"
_cell_formula_units_Z 32
_cell_length_a 15.590984
_cell_length_b 11.076021
_cell_length_c 26.361155
_cell_angle_alpha 90.000000
_cell_angle_beta 160.792441
_cell_angle_gamma 90.000000
_cell_volume 1497.635267
_symmetry_space_group_name_H-M "P 21/C"
_symmetry_group_IT_number 14
_symmetry_cell_setting 'monoclinic'
loop_
_space_group_symop_operation_xyz
x,y,z
-x,1/2+y,1/2-z
-x,-y,-z
x,1/2-y,1/2+z
loop_
_atom_site_type_symbol
_atom_site_label
_atom_site_fract_x
_atom_site_fract_y
_atom_site_fract_z
Si Si1 0.659245 0.112174 0.566919
Si Si2 0.489242 0.177992 0.150540
Si Si3 0.854211 0.574307 0.728075
Si Si4 0.483853 0.086162 0.794282
Si Si5 0.006637 0.119776 0.036560
Si Si6 0.303597 0.240332 0.284453
Si Si7 0.883079 0.816415 0.482723
Si Si8 0.407276 0.832570 0.903759
O O1 0.502034 0.181770 0.434826
O O2 0.713104 0.210261 0.641039
O O3 0.916234 0.064827 0.683551
O O4 0.500000 0.000000 0.500000
O O5 0.308775 0.274474 0.079227
O O6 0.443247 0.189403 0.064991
O O7 0.807894 0.182944 0.332924
O O8 0.423184 0.045175 0.135213
O O9 0.895025 0.675875 0.793958
O O10 0.791286 0.443298 0.715678
O O11 0.606208 0.620476 0.557618
O O12 0.422224 0.165495 0.809797
O O13 0.247545 0.073313 0.621526
O O14 0.714699 0.148619 0.891424
O O15 0.172676 0.130997 0.180518
O O16 0.132700 0.215136 0.069398
O O17 0.000000 0.000000 0.000000
#
# Coordination Sequence:
#
# PCOD9249096 Si02
#       8
#     4   4   4   4   4   4   4   4
#     4  11  26  43  68 103 134 169 222 288 339 404
#     4  12  24  43  66  98 133 181 222 281 338 398
#     4  10  22  46  68  96 133 176 228 277 337 417
#     4  11  22  44  66  93 131 177 226 270 337 402
#     4  11  22  40  66  98 133 178 223 278 332 403
#     4  10  23  43  68  98 131 181 224 271 340 411
#     4  11  25  41  64  97 137 172 227 276 334 401
#     4  10  25  43  69  98 131 179 222 279 345 403
#
# _framework density 21.36702
#
# number of rings (size 3 to 8) (size 9 to 14) (size 15 to 20)
#    0.000    1.250    3.750    1.125    5.250    2.000 
#    2.250    0.000    0.000    0.000    0.000    0.000 
#    0.000    0.000    0.000    0.000    0.000    0.000 
#
# Total GULP energy -178518.711243 kJ/mol
# GULP energy per Si atom -5578.709726 kJ/mol
# Density = 2.131839 g / cm^3
# Si number density = 21.367020 Si / 1000 Ang^3
#
#
#
# Elastic Constant Matrix: (Units=GPa)
#
#
# Indices 1 2 3 4 5 6 
#
# 1 125.5780 36.7225 7.3749 0.0000 20.1261 0.0000
# 2 36.7225 55.9110 1.6347 0.0000 -0.2266 0.0000
# 3 7.3749 1.6347 35.4838 0.0000 11.9387 0.0000
# 4 0.0000 0.0000 0.0000 19.6209 0.0000 -4.4892
# 5 20.1261 -0.2266 11.9387 0.0000 42.4111 0.0000
# 6 0.0000 0.0000 0.0000 -4.4892 0.0000 21.9760
#
#
#
# Elastic Compliance Matrix: (Units=1/GPa)
#
#
# Indices 1 2 3 4 5 6 
#
# 1 0.010899 -0.007173 -0.000201 0.000000 -0.005154 0.000000
# 2 -0.007173 0.022636 -0.000815 0.000000 0.003754 0.000000
# 3 -0.000201 -0.000815 0.031184 0.000000 -0.008687 0.000000
# 4 0.000000 0.000000 0.000000 0.053465 0.000000 0.010922
# 5 -0.005154 0.003754 -0.008687 0.000000 0.028490 0.000000
# 6 0.000000 0.000000 0.000000 0.010922 0.000000 0.047735
#
#
# Mechanical properties :
#
#
# Convention : Reuss Voigt Hill
#
# Bulk Modulus (GPa) = 20.68656 34.27079 27.47868
# Shear Modulus (GPa) = 22.03611 28.21766 25.12688
#
# Velocity S-wave (km/s) = 3.21489 3.63797 3.43296
# Velocity P-wave (km/s) = 4.84595 5.80693 5.34807
#
# Compressibility (1/GPa) = 0.04834055
#
# Stress axis : x y z
#
# Youngs Moduli (GPa) = 91.75484 44.17739 32.06767
#
# Poissons Ratio (x) = 0.31690 0.00644
# Poissons Ratio (y) = 0.65818 0.02614
# Poissons Ratio (z) = 0.01842 0.03601
#
# Static dielectric constant tensor:
#      x y z
#    x 1.778090 0.000000 -0.043290 
#    y 0.000000 1.797510 0.000000 
#    z -0.043290 0.000000 1.856540 
# 
# From -- ./inp_files/77602.got.cif
#   From: 2010.05.17/outbox.cif.g08.bks.cpg/sg14_39_cif.got.tgz:77602.got - 2010.06.03 17:49:19.
