data_PCOD9249074
_publ_section_title
;
Structure prediction by ZEFSAII (Michael W. Deem and Ramdas Pophale) SiO2 
 PCOD9249074
Probable space group: P 21/C
;
_chemical_formula_sum "Si O2"
_cell_formula_units_Z 16
_cell_length_a 8.905939
_cell_length_b 12.671683
_cell_length_c 9.566905
_cell_angle_alpha 90.000000
_cell_angle_beta 146.017717
_cell_angle_gamma 90.000000
_cell_volume 603.459273
_symmetry_space_group_name_H-M "P 21/C"
_symmetry_group_IT_number 14
_symmetry_cell_setting 'monoclinic'
loop_
_space_group_symop_operation_xyz
x,y,z
-x,1/2+y,1/2-z
-x,-y,-z
x,1/2-y,1/2+z
loop_
_atom_site_type_symbol
_atom_site_label
_atom_site_fract_x
_atom_site_fract_y
_atom_site_fract_z
Si Si1 0.983441 0.809334 0.969789
Si Si2 0.465392 0.624661 0.964122
Si Si3 0.235410 0.587860 0.178152
Si Si4 0.619586 0.417763 0.393254
O O1 0.667548 0.813516 0.717522
O O2 0.153140 0.843395 0.236759
O O3 0.097947 0.694725 0.020903
O O4 0.080948 0.900146 0.935530
O O5 0.500000 0.500000 0.000000
O O6 0.527730 0.647343 0.845587
O O7 0.478295 0.531899 0.283698
O O8 0.356215 0.609615 0.425866
O O9 0.000000 0.500000 0.000000
#
# Coordination Sequence:
#
# PCOD9249074 Si02
#       4
#     4   4   4   4
#     4  10  24  43  66 100 132 181 222 271 346 393
#     4  10  22  46  66 102 133 174 227 279 333 404
#     4  11  23  44  69  99 143 173 229 282 336 411
#     4   9  24  42  66 101 134 181 222 278 339 397
#
# _framework density 26.513801000000001
#
# number of rings (size 3 to 8) (size 9 to 14) (size 15 to 20)
#    1.500    0.500    0.000    2.250    7.000    2.000 
#    4.500    0.000    0.000    0.000    0.000    0.000 
#    0.000    0.000    0.000    0.000    0.000    0.000 
#
# Total GULP energy -89226.758935 kJ/mol
# GULP energy per Si atom -5576.672433 kJ/mol
# Density = 2.645345 g / cm^3
# Si number density = 26.513801 Si / 1000 Ang^3
#
#
#
# Elastic Constant Matrix: (Units=GPa)
#
#
# Indices 1 2 3 4 5 6 
#
# 1 73.0697 30.3277 39.0579 0.0000 -23.7828 0.0000
# 2 30.3277 155.4908 74.8773 0.0000 14.1410 0.0000
# 3 39.0579 74.8773 210.0566 0.0000 8.9605 0.0000
# 4 0.0000 0.0000 0.0000 56.5124 0.0000 15.6471
# 5 -23.7828 14.1410 8.9605 0.0000 22.6322 0.0000
# 6 0.0000 0.0000 0.0000 15.6471 0.0000 35.8263
#
#
#
# Elastic Compliance Matrix: (Units=1/GPa)
#
#
# Indices 1 2 3 4 5 6 
#
# 1 0.033423 -0.007834 -0.005217 0.000000 0.042082 0.000000
# 2 -0.007834 0.009939 -0.001495 0.000000 -0.013850 0.000000
# 3 -0.005217 -0.001495 0.006569 0.000000 -0.007149 0.000000
# 4 0.000000 0.000000 0.000000 0.020129 0.000000 -0.008792
# 5 0.042082 -0.013850 -0.007149 0.000000 0.099890 0.000000
# 6 0.000000 0.000000 0.000000 -0.008792 0.000000 0.031752
#
#
# Mechanical properties :
#
#
# Convention : Reuss Voigt Hill
#
# Bulk Modulus (GPa) = 47.99054 80.79366 64.39210
# Shear Modulus (GPa) = 21.03136 42.61779 31.82457
#
# Velocity S-wave (km/s) = 2.81948 4.01357 3.46830
# Velocity P-wave (km/s) = 5.36086 7.21226 6.35435
#
# Compressibility (1/GPa) = 0.02083744
#
# Stress axis : x y z
#
# Youngs Moduli (GPa) = 29.91991 100.61522 152.23582
#
# Poissons Ratio (x) = 0.78818 0.79426
# Poissons Ratio (y) = 0.23438 0.22766
# Poissons Ratio (z) = 0.15610 0.15047
#
# Static dielectric constant tensor:
#      x y z
#    x 2.082140 0.000000 0.003190 
#    y 0.000000 2.111190 0.000000 
#    z 0.003190 0.000000 2.180870 
# 
# From -- ./inp_files/20240.got.cif
#   From: 2010.05.17/outbox.cif.g08.bks.cpg/sg14_11_cif.got.tgz:20240.got - 2010.06.03 17:49:19.
