data_PCOD9249370
_publ_section_title
;
Structure prediction by ZEFSAII (Michael W. Deem and Ramdas Pophale) SiO2 
 PCOD9249370
Probable space group: P 21/C
;
_chemical_formula_sum "Si O2"
_cell_formula_units_Z 32
_cell_length_a 9.072841
_cell_length_b 27.966667
_cell_length_c 5.452589
_cell_angle_alpha 90.000000
_cell_angle_beta 93.851484
_cell_angle_gamma 90.000000
_cell_volume 1380.399576
_symmetry_space_group_name_H-M "P 21/C"
_symmetry_group_IT_number 14
_symmetry_cell_setting 'monoclinic'
loop_
_space_group_symop_operation_xyz
x,y,z
-x,1/2+y,1/2-z
-x,-y,-z
x,1/2-y,1/2+z
loop_
_atom_site_type_symbol
_atom_site_label
_atom_site_fract_x
_atom_site_fract_y
_atom_site_fract_z
Si Si1 0.750000 0.613411 0.750000
Si Si2 0.572042 0.276287 0.699436
Si Si3 0.483929 0.367091 0.912159
Si Si4 0.750000 0.392165 0.250000
Si Si5 0.016070 0.132909 0.087840
Si Si6 0.072042 0.723713 0.199437
Si Si7 0.011434 0.943721 0.537693
Si Si8 0.488567 0.556279 0.462307
O O1 0.623029 0.580323 0.623159
O O2 0.834683 0.641036 0.544685
O O3 0.665317 0.641036 0.955315
O O4 0.876971 0.580323 0.876842
O O5 0.525753 0.250384 0.444759
O O6 0.507310 0.329682 0.698037
O O7 0.750000 0.278809 0.749999
O O8 0.493710 0.421001 0.806633
O O9 0.625443 0.360907 0.103990
O O10 0.874557 0.360907 0.396010
O O11 0.663331 0.424407 0.437224
O O12 0.836668 0.424408 0.062777
O O13 0.992689 0.170318 0.301962
O O14 0.006288 0.078999 0.193366
O O15 0.025753 0.750384 0.444760
O O16 0.000000 0.000000 0.500000
O O17 0.500000 0.500000 0.500000
#
# Coordination Sequence:
#
# PCOD9249370 Si02
#       8
#     4   4   4   4   4   4   4   4
#     4  10  26  42  68  94 140 182 224 282 358 412
#     4  10  23  40  72 106 141 182 238 299 355 417
#     4  11  24  45  67 101 139 182 230 289 353 419
#     4  10  24  38  68  98 130 176 226 278 350 406
#     4  11  24  45  67 101 139 182 230 289 353 419
#     4  10  23  40  72 106 141 182 238 299 355 417
#     4  11  25  41  69  95 135 177 230 283 345 416
#     4  11  25  41  69  95 135 177 230 283 345 416
#
# _framework density 23.181695999999999
#
# number of rings (size 3 to 8) (size 9 to 14) (size 15 to 20)
#    0.000    1.500    0.000    3.000   19.250    2.000 
#    0.000    1.250    0.000    0.000    0.000    0.000 
#    0.000    0.000    0.000    0.000    0.000    0.000 
#
# Total GULP energy -179128.435847 kJ/mol
# GULP energy per Si atom -5597.763620 kJ/mol
# Density = 2.312893 g / cm^3
# Si number density = 23.181696 Si / 1000 Ang^3
#
#
#
# Elastic Constant Matrix: (Units=GPa)
#
#
# Indices 1 2 3 4 5 6 
#
# 1 104.2707 12.4668 30.3633 0.0000 -15.0663 0.0000
# 2 12.4668 101.8502 30.2093 0.0000 -14.9792 0.0000
# 3 30.3633 30.2093 108.4055 0.0000 -21.0412 0.0000
# 4 0.0000 0.0000 0.0000 19.4719 0.0000 -0.0330
# 5 -15.0663 -14.9792 -21.0412 0.0000 39.8866 0.0000
# 6 0.0000 0.0000 0.0000 -0.0330 0.0000 9.5802
#
#
#
# Elastic Compliance Matrix: (Units=1/GPa)
#
#
# Indices 1 2 3 4 5 6 
#
# 1 0.010708 -0.000196 -0.002422 0.000000 0.002694 0.000000
# 2 -0.000196 0.010979 -0.002472 0.000000 0.002745 0.000000
# 3 -0.002422 -0.002472 0.011401 0.000000 0.004171 0.000000
# 4 0.000000 0.000000 0.000000 0.051356 0.000000 0.000177
# 5 0.002694 0.002745 0.004171 0.000000 0.029320 0.000000
# 6 0.000000 0.000000 0.000000 0.000177 0.000000 0.104383
#
#
# Mechanical properties :
#
#
# Convention : Reuss Voigt Hill
#
# Bulk Modulus (GPa) = 43.65041 51.17836 47.41438
# Shear Modulus (GPa) = 21.18964 29.88686 25.53825
#
# Velocity S-wave (km/s) = 3.02664 3.59450 3.32272
# Velocity P-wave (km/s) = 5.57536 6.27313 5.93451
#
# Compressibility (1/GPa) = 0.02290929
#
# Stress axis : x y z
#
# Youngs Moduli (GPa) = 93.38543 91.08101 87.70833
#
# Poissons Ratio (x) = 0.01788 0.21241
# Poissons Ratio (y) = 0.01833 0.21680
# Poissons Ratio (z) = 0.22616 0.22513
#
# Static dielectric constant tensor:
#      x y z
#    x 1.830860 0.000000 -0.012000 
#    y 0.000000 1.841350 0.000000 
#    z -0.012000 0.000000 1.957350 
# 
# From -- ./inp_files/2240.got.cif
#   From: 2010.05.17/outbox.cif.g08.bks.cpg/sg14_2_cif.got.tgz:2240.got - 2010.06.03 17:49:19.
