data_PCOD9249942
_publ_section_title
;
Structure prediction by ZEFSAII (Michael W. Deem and Ramdas Pophale) SiO2 
 PCOD9249942
Probable space group: P 21/C
;
_chemical_formula_sum "Si O2"
_cell_formula_units_Z 16
_cell_length_a 5.716847
_cell_length_b 25.099950
_cell_length_c 4.964723
_cell_angle_alpha 90.000000
_cell_angle_beta 124.764245
_cell_angle_gamma 90.000000
_cell_volume 585.241028
_symmetry_space_group_name_H-M "P 21/C"
_symmetry_group_IT_number 14
_symmetry_cell_setting 'monoclinic'
loop_
_space_group_symop_operation_xyz
x,y,z
-x,1/2+y,1/2-z
-x,-y,-z
x,1/2-y,1/2+z
loop_
_atom_site_type_symbol
_atom_site_label
_atom_site_fract_x
_atom_site_fract_y
_atom_site_fract_z
Si Si1 0.474465 0.645508 0.905248
Si Si2 0.359037 0.939728 0.723462
Si Si3 0.838065 0.548807 0.188087
Si Si4 0.986353 0.214620 0.185769
O O1 0.263903 0.825030 0.066778
O O2 0.303739 0.615157 0.028817
O O3 0.674859 0.597151 0.929168
O O4 0.707413 0.687593 0.162407
O O5 0.698539 0.946269 0.893274
O O6 0.170737 0.941337 0.867308
O O7 0.245165 0.991966 0.488912
O O8 0.963883 0.234261 0.476201
#
# Coordination Sequence:
#
# PCOD9249942 Si02
#       4
#     4   4   4   4
#     4  10  23  44  74 104 146 196 247 306 388 442
#     4   8  16  35  66 108 146 188 238 298 371 461
#     4   8  16  35  66 108 146 188 238 298 371 461
#     4  12  28  50  73 108 147 198 262 326 374 444
#
# _framework density 27.339165000000001
#
# number of rings (size 3 to 8) (size 9 to 14) (size 15 to 20)
#    1.500    1.000    0.000    1.500    3.500    0.000 
#    0.000    5.000    0.000    6.000    0.000    0.000 
#    0.000    0.000    0.000    0.000    0.000    0.000 
#
# Total GULP energy -89506.673717 kJ/mol
# GULP energy per Si atom -5594.167107 kJ/mol
# Density = 2.727694 g / cm^3
# Si number density = 27.339165 Si / 1000 Ang^3
#
#
#
# Elastic Constant Matrix: (Units=GPa)
#
#
# Indices 1 2 3 4 5 6 
#
# 1 227.0677 18.8850 57.7142 0.0000 -4.5912 0.0000
# 2 18.8850 142.3209 37.3185 0.0000 13.4761 0.0000
# 3 57.7142 37.3185 77.2435 0.0000 15.6427 0.0000
# 4 0.0000 0.0000 0.0000 66.8870 0.0000 11.3679
# 5 -4.5912 13.4761 15.6427 0.0000 38.2995 0.0000
# 6 0.0000 0.0000 0.0000 11.3679 0.0000 43.6795
#
#
#
# Elastic Compliance Matrix: (Units=1/GPa)
#
#
# Indices 1 2 3 4 5 6 
#
# 1 0.005679 0.000288 -0.004906 0.000000 0.002583 0.000000
# 2 0.000288 0.008125 -0.003891 0.000000 -0.001235 0.000000
# 3 -0.004906 -0.003891 0.019986 0.000000 -0.007382 0.000000
# 4 0.000000 0.000000 0.000000 0.015642 0.000000 -0.004071
# 5 0.002583 -0.001235 -0.007382 0.000000 0.029869 0.000000
# 6 0.000000 0.000000 0.000000 -0.004071 0.000000 0.023954
#
#
# Mechanical properties :
#
#
# Convention : Reuss Voigt Hill
#
# Bulk Modulus (GPa) = 59.61533 74.94083 67.27808
# Shear Modulus (GPa) = 39.72565 51.95418 45.83991
#
# Velocity S-wave (km/s) = 3.81605 4.36404 4.09921
# Velocity P-wave (km/s) = 6.42413 7.27077 6.86052
#
# Compressibility (1/GPa) = 0.01677421
#
# Stress axis : x y z
#
# Youngs Moduli (GPa) = 176.08470 123.07226 50.03508
#
# Poissons Ratio (x) = -0.03546 0.24545
# Poissons Ratio (y) = -0.05074 0.19467
# Poissons Ratio (z) = 0.86379 0.47884
#
# Static dielectric constant tensor:
#      x y z
#    x 2.089680 0.000000 -0.026970 
#    y 0.000000 2.124520 0.000000 
#    z -0.026970 0.000000 2.082040 
# 
# From -- ./inp_files/323.got.cif
#   From: 2010.05.17/outbox.cif.g08.bks.cpg/sg14_1_cif.got.tgz:323.got - 2010.06.03 17:49:19.
