data_PCOD9249995
_publ_section_title
;
Structure prediction by ZEFSAII (Michael W. Deem and Ramdas Pophale) SiO2 
 PCOD9249995
Probable space group: P 21/C
;
_chemical_formula_sum "Si O2"
_cell_formula_units_Z 28
_cell_length_a 7.541991
_cell_length_b 21.418917
_cell_length_c 8.230835
_cell_angle_alpha 90.000000
_cell_angle_beta 55.049676
_cell_angle_gamma 90.000000
_cell_volume 1089.821431
_symmetry_space_group_name_H-M "P 21/C"
_symmetry_group_IT_number 14
_symmetry_cell_setting 'monoclinic'
loop_
_space_group_symop_operation_xyz
x,y,z
-x,1/2+y,1/2-z
-x,-y,-z
x,1/2-y,1/2+z
loop_
_atom_site_type_symbol
_atom_site_label
_atom_site_fract_x
_atom_site_fract_y
_atom_site_fract_z
Si Si1 0.893018 0.194581 0.415038
Si Si2 0.307827 0.265223 0.068996
Si Si3 0.425685 0.804422 0.863833
Si Si4 0.145295 0.604673 0.355998
Si Si5 0.838080 0.982323 0.346230
Si Si6 0.206365 0.578010 0.836102
Si Si7 0.344110 0.116641 0.771051
O O1 0.079639 0.233235 0.223692
O O2 0.749563 0.249268 0.567300
O O3 0.792072 0.151531 0.325317
O O4 0.927016 0.139652 0.530790
O O5 0.476533 0.209662 0.012483
O O6 0.350632 0.315192 0.188605
O O7 0.375045 0.297164 0.866136
O O8 0.302564 0.869090 0.911080
O O9 0.170137 0.533947 0.289853
O O10 0.890884 0.612635 0.522707
O O11 0.670273 0.930157 0.376528
O O12 0.070586 0.949384 0.256131
O O13 0.797107 0.021432 0.530538
O O14 0.457252 0.598105 0.718028
#
# Coordination Sequence:
#
# PCOD9249995 Si02
#       7
#     4   4   4   4   4   4   4
#     4  11  24  45  67 101 144 174 235 297 349 423
#     4  12  26  41  71 105 137 187 235 283 366 422
#     4  12  24  45  69 100 144 182 227 294 352 420
#     4  11  24  47  65 103 142 177 242 297 337 437
#     4  10  24  45  69  99 141 189 238 289 352 416
#     4  10  23  45  69 101 142 183 235 299 344 420
#     4  12  23  44  73 100 140 189 236 289 358 418
#
# _framework density 25.692281999999999
#
# number of rings (size 3 to 8) (size 9 to 14) (size 15 to 20)
#    0.000    0.857    4.286    2.571    2.000    1.714 
#    5.143    0.000    0.000    0.000    0.000    0.000 
#    0.000    0.000    0.000    0.000    0.000    0.000 
#
# Total GULP energy -156600.731388 kJ/mol
# GULP energy per Si atom -5592.883264 kJ/mol
# Density = 2.563381 g / cm^3
# Si number density = 25.692282 Si / 1000 Ang^3
#
#
#
# Elastic Constant Matrix: (Units=GPa)
#
#
# Indices 1 2 3 4 5 6 
#
# 1 113.6496 52.3557 15.1100 0.0000 -24.4935 0.0000
# 2 52.3557 135.1864 29.7671 0.0000 -10.9823 0.0000
# 3 15.1100 29.7671 62.8458 0.0000 -24.5210 0.0000
# 4 0.0000 0.0000 0.0000 48.5790 0.0000 2.7677
# 5 -24.4935 -10.9823 -24.5210 0.0000 24.7561 0.0000
# 6 0.0000 0.0000 0.0000 2.7677 0.0000 61.8289
#
#
#
# Elastic Compliance Matrix: (Units=1/GPa)
#
#
# Indices 1 2 3 4 5 6 
#
# 1 0.014329 -0.005442 0.006067 0.000000 0.017772 0.000000
# 2 -0.005442 0.010327 -0.006350 0.000000 -0.007093 0.000000
# 3 0.006067 -0.006350 0.030486 0.000000 0.033381 0.000000
# 4 0.000000 0.000000 0.000000 0.020638 0.000000 -0.000924
# 5 0.017772 -0.007093 0.033381 0.000000 0.087896 0.000000
# 6 0.000000 0.000000 0.000000 -0.000924 0.000000 0.016215
#
#
# Mechanical properties :
#
#
# Convention : Reuss Voigt Hill
#
# Bulk Modulus (GPa) = 22.88791 56.23862 39.56326
# Shear Modulus (GPa) = 24.28302 41.32942 32.80622
#
# Velocity S-wave (km/s) = 3.07766 4.01513 3.57724
# Velocity P-wave (km/s) = 4.64297 6.59028 5.70039
#
# Compressibility (1/GPa) = 0.04369119
#
# Stress axis : x y z
#
# Youngs Moduli (GPa) = 69.78622 96.83580 32.80203
#
# Poissons Ratio (x) = 0.52694 -0.19900
# Poissons Ratio (y) = 0.37975 0.20831
# Poissons Ratio (z) = -0.42336 0.61495
#
# Static dielectric constant tensor:
#      x y z
#    x 2.076760 0.000000 0.006770 
#    y 0.000000 1.974200 0.000000 
#    z 0.006770 0.000000 2.086280 
# 
# From -- ./inp_files/10373.got.cif
#   From: 2010.05.17/outbox.cif.g08.bks.cpg/sg14_6_cif.got.tgz:10373.got - 2010.06.03 17:49:19.
