data_PCOD9249895
_publ_section_title
;
Structure prediction by ZEFSAII (Michael W. Deem and Ramdas Pophale) SiO2 
 PCOD9249895
Probable space group: P 21/C
;
_chemical_formula_sum "Si O2"
_cell_formula_units_Z 32
_cell_length_a 14.179276
_cell_length_b 13.103469
_cell_length_c 7.811722
_cell_angle_alpha 90.000000
_cell_angle_beta 68.705229
_cell_angle_gamma 90.000000
_cell_volume 1352.304766
_symmetry_space_group_name_H-M "P 21/C"
_symmetry_group_IT_number 14
_symmetry_cell_setting 'monoclinic'
loop_
_space_group_symop_operation_xyz
x,y,z
-x,1/2+y,1/2-z
-x,-y,-z
x,1/2-y,1/2+z
loop_
_atom_site_type_symbol
_atom_site_label
_atom_site_fract_x
_atom_site_fract_y
_atom_site_fract_z
Si Si1 0.957328 0.814753 0.073165
Si Si2 0.285741 0.829783 0.098575
Si Si3 0.895732 0.327122 0.802572
Si Si4 0.366209 0.331199 0.444731
Si Si5 0.502166 0.331408 0.660735
Si Si6 0.190748 0.322351 0.054314
Si Si7 0.343689 0.964124 0.763533
Si Si8 0.261200 0.966510 0.439601
O O1 0.877394 0.870036 0.248636
O O2 0.030996 0.744875 0.137208
O O3 0.886458 0.738534 0.012909
O O4 0.033925 0.870616 0.894874
O O5 0.197970 0.747857 0.187314
O O6 0.299205 0.904982 0.250364
O O7 0.396363 0.782631 0.990456
O O8 0.269766 0.896046 0.935171
O O9 0.846783 0.414521 0.948595
O O10 0.430377 0.374823 0.560378
O O11 0.440768 0.254049 0.298998
O O12 0.272170 0.260835 0.563845
O O13 0.334865 0.421092 0.337923
O O14 0.547008 0.418190 0.755460
O O15 0.245757 0.413936 0.921282
O O16 0.322163 0.956474 0.577474
#
# Coordination Sequence:
#
# PCOD9249895 Si02
#       8
#     4   4   4   4   4   4   4   4
#     4  10  23  44  69 101 146 183 240 292 362 423
#     4  10  26  44  73 107 144 184 240 300 364 427
#     4  11  22  45  70 103 144 185 229 308 363 421
#     4  12  24  49  70  99 153 194 236 301 365 418
#     4  10  27  42  71 106 138 195 237 294 362 430
#     4  11  26  44  71 106 139 197 241 295 355 440
#     4  10  26  44  72 107 143 193 240 303 351 440
#     4  12  25  45  76 106 144 191 239 296 370 428
#
# _framework density 23.663304
#
# number of rings (size 3 to 8) (size 9 to 14) (size 15 to 20)
#    0.750    0.500    1.250    3.375    7.000    1.000 
#    0.000    1.875    0.000    0.000    0.000    0.000 
#    0.000    0.000    0.000    0.000    0.000    0.000 
#
# Total GULP energy -178970.312260 kJ/mol
# GULP energy per Si atom -5592.822258 kJ/mol
# Density = 2.360945 g / cm^3
# Si number density = 23.663304 Si / 1000 Ang^3
#
#
#
# Elastic Constant Matrix: (Units=GPa)
#
#
# Indices 1 2 3 4 5 6 
#
# 1 119.3931 17.8974 35.4829 0.0000 -4.6311 0.0000
# 2 17.8974 81.4456 13.4286 0.0000 -13.5972 0.0000
# 3 35.4829 13.4286 105.1663 0.0000 -23.1281 0.0000
# 4 0.0000 0.0000 0.0000 33.7471 0.0000 0.3427
# 5 -4.6311 -13.5972 -23.1281 0.0000 39.2378 0.0000
# 6 0.0000 0.0000 0.0000 0.3427 0.0000 24.5248
#
#
#
# Elastic Compliance Matrix: (Units=1/GPa)
#
#
# Indices 1 2 3 4 5 6 
#
# 1 0.009576 -0.001799 -0.003320 0.000000 -0.001450 0.000000
# 2 -0.001799 0.013425 -0.000150 0.000000 0.004351 0.000000
# 3 -0.003320 -0.000150 0.012122 0.000000 0.006701 0.000000
# 4 0.000000 0.000000 0.000000 0.029636 0.000000 -0.000414
# 5 -0.001450 0.004351 0.006701 0.000000 0.030772 0.000000
# 6 0.000000 0.000000 0.000000 -0.000414 0.000000 0.040781
#
#
# Mechanical properties :
#
#
# Convention : Reuss Voigt Hill
#
# Bulk Modulus (GPa) = 40.67750 48.84699 44.76224
# Shear Modulus (GPa) = 32.24874 35.44835 33.84855
#
# Velocity S-wave (km/s) = 3.69564 3.87464 3.78620
# Velocity P-wave (km/s) = 5.95296 6.38000 6.17018
#
# Compressibility (1/GPa) = 0.02458361
#
# Stress axis : x y z
#
# Youngs Moduli (GPa) = 104.42978 74.48982 82.49585
#
# Poissons Ratio (x) = 0.13400 0.27389
# Poissons Ratio (y) = 0.18786 0.01240
# Poissons Ratio (z) = 0.34671 0.01120
#
# Static dielectric constant tensor:
#      x y z
#    x 1.882640 0.000000 0.003980 
#    y 0.000000 1.858500 0.000000 
#    z 0.003980 0.000000 1.953260 
# 
# From -- ./inp_files/15737.got.cif
#   From: 2010.05.17/outbox.cif.g08.bks.cpg/sg14_8_cif.got.tgz:15737.got - 2010.06.03 17:49:19.
