data_PCOD9249880
_publ_section_title
;
Structure prediction by ZEFSAII (Michael W. Deem and Ramdas Pophale) SiO2 
 PCOD9249880
Probable space group: P 21/C
;
_chemical_formula_sum "Si O2"
_cell_formula_units_Z 32
_cell_length_a 14.047491
_cell_length_b 8.485740
_cell_length_c 23.925901
_cell_angle_alpha 90.000000
_cell_angle_beta 149.862814
_cell_angle_gamma 90.000000
_cell_volume 1431.933666
_symmetry_space_group_name_H-M "P 21/C"
_symmetry_group_IT_number 14
_symmetry_cell_setting 'monoclinic'
loop_
_space_group_symop_operation_xyz
x,y,z
-x,1/2+y,1/2-z
-x,-y,-z
x,1/2-y,1/2+z
loop_
_atom_site_type_symbol
_atom_site_label
_atom_site_fract_x
_atom_site_fract_y
_atom_site_fract_z
Si Si1 0.964186 0.575887 0.647711
Si Si2 0.637215 0.401338 0.429073
Si Si3 0.618447 0.453232 0.615179
Si Si4 0.201316 0.044997 0.574015
Si Si5 0.038591 0.396705 0.789267
Si Si6 0.710379 0.444432 0.999318
Si Si7 0.635633 0.146991 0.691571
Si Si8 0.529947 0.253099 0.262231
O O1 0.020655 0.426774 0.714704
O O2 0.142962 0.616917 0.701001
O O3 0.780483 0.539083 0.518304
O O4 0.931097 0.719923 0.673732
O O5 0.445712 0.437517 0.365915
O O6 0.723936 0.239805 0.496490
O O7 0.607972 0.372245 0.349163
O O8 0.500000 0.500000 0.500000
O O9 0.579291 0.275862 0.616456
O O10 0.839520 0.455512 0.713916
O O11 0.302743 0.207504 0.645897
O O12 0.183582 0.037594 0.497463
O O13 0.362770 0.909854 0.667731
O O14 0.000000 0.000000 0.500000
O O15 0.204281 0.502303 0.899051
O O16 0.491848 0.494567 0.883413
O O17 0.590368 0.210609 0.729919
#
# Coordination Sequence:
#
# PCOD9249880 Si02
#       8
#     4   4   4   4   4   4   4   4
#     4  11  24  42  66  95 133 174 222 278 344 412
#     4  11  23  43  66  98 134 175 224 279 342 413
#     4  11  23  42  68  96 133 179 226 279 343 402
#     4  10  23  44  68 101 137 185 230 285 350 413
#     4  11  24  40  65  96 131 177 224 275 344 414
#     4  10  24  41  63  98 131 171 224 274 340 413
#     4  10  24  45  66  99 133 176 226 284 346 401
#     4  10  23  46  70 101 139 180 235 287 345 425
#
# _framework density 22.347401999999999
#
# number of rings (size 3 to 8) (size 9 to 14) (size 15 to 20)
#    0.000    1.500    1.250    2.250    7.000    4.000 
#   11.250    0.000    0.000    0.000    0.000    0.000 
#    0.000    0.000    0.000    0.000    0.000    0.000 
#
# Total GULP energy -178833.734740 kJ/mol
# GULP energy per Si atom -5588.554211 kJ/mol
# Density = 2.229654 g / cm^3
# Si number density = 22.347402 Si / 1000 Ang^3
#
#
#
# Elastic Constant Matrix: (Units=GPa)
#
#
# Indices 1 2 3 4 5 6 
#
# 1 66.3861 15.9509 4.7436 0.0000 -0.6431 0.0000
# 2 15.9509 54.3951 31.9402 0.0000 0.2537 0.0000
# 3 4.7436 31.9402 56.7515 0.0000 -14.3939 0.0000
# 4 0.0000 0.0000 0.0000 37.3261 0.0000 -2.1453
# 5 -0.6431 0.2537 -14.3939 0.0000 27.9410 0.0000
# 6 0.0000 0.0000 0.0000 -2.1453 0.0000 24.2480
#
#
#
# Elastic Compliance Matrix: (Units=1/GPa)
#
#
# Indices 1 2 3 4 5 6 
#
# 1 0.016428 -0.006410 0.002698 0.000000 0.001826 0.000000
# 2 -0.006410 0.032311 -0.020431 0.000000 -0.010966 0.000000
# 3 0.002698 -0.020431 0.033309 0.000000 0.017407 0.000000
# 4 0.000000 0.000000 0.000000 0.026928 0.000000 0.002382
# 5 0.001826 -0.010966 0.017407 0.000000 0.044898 0.000000
# 6 0.000000 0.000000 0.000000 0.002382 0.000000 0.041451
#
#
# Mechanical properties :
#
#
# Convention : Reuss Voigt Hill
#
# Bulk Modulus (GPa) = 29.61881 31.42247 30.52064
# Shear Modulus (GPa) = 19.61813 26.22957 22.92385
#
# Velocity S-wave (km/s) = 2.96610 3.42967 3.20628
# Velocity P-wave (km/s) = 5.00129 5.45665 5.23392
#
# Compressibility (1/GPa) = 0.03376233
#
# Stress axis : x y z
#
# Youngs Moduli (GPa) = 60.86986 30.94875 30.02231
#
# Poissons Ratio (x) = 0.19838 -0.08099
# Poissons Ratio (y) = 0.39018 0.61338
# Poissons Ratio (z) = -0.16420 0.63230
#
# Static dielectric constant tensor:
#      x y z
#    x 1.814140 0.000000 -0.002910 
#    y 0.000000 1.884390 0.000000 
#    z -0.002910 0.000000 1.809200 
# 
# From -- ./inp_files/73867.got.cif
#   From: 2010.05.17/outbox.cif.g08.bks.cpg/sg14_37_cif.got.tgz:73867.got - 2010.06.03 17:49:19.
