data_PCOD9249378
_publ_section_title
;
Structure prediction by ZEFSAII (Michael W. Deem and Ramdas Pophale) SiO2 
 PCOD9249378
Probable space group: P 21/C
;
_chemical_formula_sum "Si O2"
_cell_formula_units_Z 24
_cell_length_a 11.897555
_cell_length_b 18.255742
_cell_length_c 7.704592
_cell_angle_alpha 90.000000
_cell_angle_beta 142.614992
_cell_angle_gamma 90.000000
_cell_volume 1016.051442
_symmetry_space_group_name_H-M "P 21/C"
_symmetry_group_IT_number 14
_symmetry_cell_setting 'monoclinic'
loop_
_space_group_symop_operation_xyz
x,y,z
-x,1/2+y,1/2-z
-x,-y,-z
x,1/2-y,1/2+z
loop_
_atom_site_type_symbol
_atom_site_label
_atom_site_fract_x
_atom_site_fract_y
_atom_site_fract_z
Si Si1 0.758347 0.035515 0.969490
Si Si2 0.301027 0.657228 0.338167
Si Si3 0.920214 0.628703 0.285613
Si Si4 0.932808 0.767849 0.464829
Si Si5 0.398151 0.099019 0.363766
Si Si6 0.474052 0.218949 0.194669
O O1 0.726337 0.077119 0.112117
O O2 0.596573 0.064765 0.645379
O O3 0.722767 0.949068 0.920574
O O4 0.947877 0.063648 0.115671
O O5 0.099025 0.692288 0.069366
O O6 0.413557 0.667543 0.300047
O O7 0.408902 0.708561 0.612686
O O8 0.722724 0.600456 0.108909
O O9 0.985067 0.681376 0.524208
O O10 0.919097 0.686159 0.125194
O O11 0.730577 0.771476 0.132515
O O12 0.440935 0.176948 0.333881
#
# Coordination Sequence:
#
# PCOD9249378 Si02
#       6
#     4   4   4   4   4   4
#     4  10  23  41  60  83 119 160 199 242 295 356
#     4  11  23  40  60  91 121 153 199 248 299 351
#     4  11  21  38  59  86 118 151 196 247 296 349
#     4  11  22  36  62  90 116 152 197 250 298 346
#     4  11  23  39  60  86 117 160 199 239 299 356
#     4  12  23  38  63  90 120 154 198 250 297 351
#
# _framework density 23.620850999999998
#
# number of rings (size 3 to 8) (size 9 to 14) (size 15 to 20)
#    0.000    1.000    0.000    9.500    0.000    2.000 
#    0.000    3.333    0.000    0.000    0.000    0.000 
#    0.000    0.000    0.000    0.000    0.000    0.000 
#
# Total GULP energy -134177.258049 kJ/mol
# GULP energy per Si atom -5590.719085 kJ/mol
# Density = 2.356709 g / cm^3
# Si number density = 23.620851 Si / 1000 Ang^3
#
#
#
# Elastic Constant Matrix: (Units=GPa)
#
#
# Indices 1 2 3 4 5 6 
#
# 1 134.3347 -14.0450 27.8075 0.0000 28.3913 0.0000
# 2 -14.0450 22.6279 -14.9522 0.0000 4.0397 0.0000
# 3 27.8075 -14.9522 63.3248 0.0000 7.5116 0.0000
# 4 0.0000 0.0000 0.0000 13.7946 0.0000 1.7770
# 5 28.3913 4.0397 7.5116 0.0000 32.0874 0.0000
# 6 0.0000 0.0000 0.0000 1.7770 0.0000 23.6509
#
#
#
# Elastic Compliance Matrix: (Units=1/GPa)
#
#
# Indices 1 2 3 4 5 6 
#
# 1 0.010668 0.007198 -0.001808 0.000000 -0.009922 0.000000
# 2 0.007198 0.060369 0.013115 0.000000 -0.017040 0.000000
# 3 -0.001808 0.013115 0.020251 0.000000 -0.004792 0.000000
# 4 0.000000 0.000000 0.000000 0.073201 0.000000 -0.005500
# 5 -0.009922 -0.017040 -0.004792 0.000000 0.043211 0.000000
# 6 0.000000 0.000000 0.000000 -0.005500 0.000000 0.042695
#
#
# Mechanical properties :
#
#
# Convention : Reuss Voigt Hill
#
# Bulk Modulus (GPa) = 7.79439 24.21201 16.00320
# Shear Modulus (GPa) = 19.51978 28.67171 24.09575
#
# Velocity S-wave (km/s) = 2.87780 3.48779 3.19737
# Velocity P-wave (km/s) = 3.78804 5.14704 4.51892
#
# Compressibility (1/GPa) = 0.12829744
#
# Stress axis : x y z
#
# Youngs Moduli (GPa) = 93.73858 16.56475 49.38135
#
# Poissons Ratio (x) = -0.11924 0.08928
# Poissons Ratio (y) = -0.67475 -0.64762
# Poissons Ratio (z) = 0.16948 -0.21724
#
# Static dielectric constant tensor:
#      x y z
#    x 1.909690 0.000000 -0.035770 
#    y 0.000000 1.955690 0.000000 
#    z -0.035770 0.000000 1.907930 
# 
# From -- ./inp_files/14096.got.cif
#   From: 2010.05.17/outbox.cif.g08.bks.cpg/sg14_8_cif.got.tgz:14096.got - 2010.06.03 17:49:19.
