data_PCOD9249590
_publ_section_title
;
Structure prediction by ZEFSAII (Michael W. Deem and Ramdas Pophale) SiO2 
 PCOD9249590
Probable space group: P 21/C
;
_chemical_formula_sum "Si O2"
_cell_formula_units_Z 12
_cell_length_a 5.290803
_cell_length_b 9.090972
_cell_length_c 11.563737
_cell_angle_alpha 90.000000
_cell_angle_beta 122.202257
_cell_angle_gamma 90.000000
_cell_volume 470.640023
_symmetry_space_group_name_H-M "P 21/C"
_symmetry_group_IT_number 14
_symmetry_cell_setting 'monoclinic'
loop_
_space_group_symop_operation_xyz
x,y,z
-x,1/2+y,1/2-z
-x,-y,-z
x,1/2-y,1/2+z
loop_
_atom_site_type_symbol
_atom_site_label
_atom_site_fract_x
_atom_site_fract_y
_atom_site_fract_z
Si Si1 0.209272 0.603619 0.130640
Si Si2 0.614882 0.833183 0.545053
Si Si3 0.660096 0.946664 0.923130
O O1 0.386155 0.715530 0.089879
O O2 0.466461 0.520739 0.262962
O O3 0.966600 0.666015 0.162935
O O4 0.000000 0.500000 0.000000
O O5 0.626772 0.730383 0.435589
O O6 0.500000 0.000000 0.500000
O O7 0.500000 0.000000 0.000000
O O8 0.000000 0.000000 0.000000
#
# Coordination Sequence:
#
# PCOD9249590 Si02
#       3
#     4   4   4
#     4  10  23  44  70 100 141 190 238 300 374 443
#     4  10  23  42  67  98 139 187 233 289 367 445
#     4  12  26  44  71 108 143 185 249 315 369 440
#
# _framework density 25.497192999999999
#
# number of rings (size 3 to 8) (size 9 to 14) (size 15 to 20)
#    0.000    1.333    0.000    4.000    0.000   16.000 
#    0.000    0.000    0.000    0.000    0.000    0.000 
#    0.000    0.000    0.000    0.000    0.000    0.000 
#
# Total GULP energy -66946.791363 kJ/mol
# GULP energy per Si atom -5578.899280 kJ/mol
# Density = 2.543916 g / cm^3
# Si number density = 25.497193 Si / 1000 Ang^3
#
#
#
# Elastic Constant Matrix: (Units=GPa)
#
#
# Indices 1 2 3 4 5 6 
#
# 1 253.1689 38.5641 73.2512 0.0000 56.5325 0.0000
# 2 38.5641 112.4843 42.5697 0.0000 1.5276 0.0000
# 3 73.2512 42.5697 200.7994 0.0000 23.7573 0.0000
# 4 0.0000 0.0000 0.0000 28.2968 0.0000 -6.2265
# 5 56.5325 1.5276 23.7573 0.0000 49.2435 0.0000
# 6 0.0000 0.0000 0.0000 -6.2265 0.0000 55.7806
#
#
#
# Elastic Compliance Matrix: (Units=1/GPa)
#
#
# Indices 1 2 3 4 5 6 
#
# 1 0.005875 -0.001517 -0.001091 0.000000 -0.006171 0.000000
# 2 -0.001517 0.010082 -0.001859 0.000000 0.002326 0.000000
# 3 -0.001091 -0.001859 0.005957 0.000000 -0.001564 0.000000
# 4 0.000000 0.000000 0.000000 0.036230 0.000000 0.004044
# 5 -0.006171 0.002326 -0.001564 0.000000 0.028074 0.000000
# 6 0.000000 0.000000 0.000000 0.004044 0.000000 0.018379
#
#
# Mechanical properties :
#
#
# Convention : Reuss Voigt Hill
#
# Bulk Modulus (GPa) = 77.04852 97.24697 87.14774
# Shear Modulus (GPa) = 42.42387 54.13536 48.27962
#
# Velocity S-wave (km/s) = 4.08347 4.61281 4.35619
# Velocity P-wave (km/s) = 7.24687 8.16050 7.71721
#
# Compressibility (1/GPa) = 0.01297884
#
# Stress axis : x y z
#
# Youngs Moduli (GPa) = 170.22025 99.18348 167.85985
#
# Poissons Ratio (x) = 0.15049 0.18319
# Poissons Ratio (y) = 0.25827 0.31208
# Poissons Ratio (z) = 0.18577 0.18440
#
# Static dielectric constant tensor:
#      x y z
#    x 2.230540 0.000000 -0.018160 
#    y 0.000000 2.480910 0.000000 
#    z -0.018160 0.000000 2.000650 
# 
# From -- ./inp_files/20067.got.cif
#   From: 2010.05.17/outbox.cif.g08.bks.cpg/sg14_11_cif.got.tgz:20067.got - 2010.06.03 17:49:19.
