data_PCOD9249723
_publ_section_title
;
Structure prediction by ZEFSAII (Michael W. Deem and Ramdas Pophale) SiO2 
 PCOD9249723
Probable space group: P 21/C
;
_chemical_formula_sum "Si O2"
_cell_formula_units_Z 32
_cell_length_a 14.773969
_cell_length_b 8.351633
_cell_length_c 12.997352
_cell_angle_alpha 90.000000
_cell_angle_beta 113.844630
_cell_angle_gamma 90.000000
_cell_volume 1466.817408
_symmetry_space_group_name_H-M "P 21/C"
_symmetry_group_IT_number 14
_symmetry_cell_setting 'monoclinic'
loop_
_space_group_symop_operation_xyz
x,y,z
-x,1/2+y,1/2-z
-x,-y,-z
x,1/2-y,1/2+z
loop_
_atom_site_type_symbol
_atom_site_label
_atom_site_fract_x
_atom_site_fract_y
_atom_site_fract_z
Si Si1 0.148677 0.424554 0.348836
Si Si2 0.523904 0.871071 0.647176
Si Si3 0.606407 0.196538 0.591517
Si Si4 0.005387 0.917527 0.391417
Si Si5 0.327226 0.895960 0.690228
Si Si6 0.911286 0.628024 0.459289
Si Si7 0.213260 0.769159 0.461318
Si Si8 0.734288 0.733219 0.778174
O O1 0.104196 0.331006 0.427035
O O2 0.194732 0.587242 0.417069
O O3 0.223831 0.316245 0.315789
O O4 0.062074 0.483574 0.231257
O O5 0.478382 0.769347 0.531257
O O6 0.432246 0.900541 0.680527
O O7 0.620080 0.781025 0.730042
O O8 0.563897 0.044369 0.631620
O O9 0.643147 0.335080 0.683564
O O10 0.702715 0.151345 0.570021
O O11 0.115624 0.875637 0.409489
O O12 0.954579 0.751685 0.397701
O O13 0.000000 0.000000 0.500000
O O14 0.256117 0.773525 0.596762
O O15 0.266366 0.061818 0.663483
O O16 0.799497 0.627677 0.361904
O O17 0.000000 0.500000 0.500000
#
# Coordination Sequence:
#
# PCOD9249723 Si02
#       8
#     4   4   4   4   4   4   4   4
#     4  11  25  44  66 100 137 180 233 284 359 417
#     4  10  24  42  68 103 138 183 232 291 358 418
#     4  10  23  43  67 100 136 178 233 281 349 433
#     4  11  26  43  70 100 136 178 230 294 344 427
#     4  11  23  44  70 101 139 184 234 288 359 421
#     4  11  25  44  67 101 139 180 236 285 351 425
#     4  11  23  43  70  96 131 184 228 286 352 421
#     4  11  25  46  69 106 142 183 237 300 353 424
#
# _framework density 21.815937999999999
#
# number of rings (size 3 to 8) (size 9 to 14) (size 15 to 20)
#    0.000    1.250    2.500    2.250    3.500    6.500 
#    0.000    0.000    0.000    0.000    0.000    0.000 
#    0.000    0.000    0.000    0.000    0.000    0.000 
#
# Total GULP energy -178429.496139 kJ/mol
# GULP energy per Si atom -5575.921754 kJ/mol
# Density = 2.176628 g / cm^3
# Si number density = 21.815938 Si / 1000 Ang^3
#
#
#
# Elastic Constant Matrix: (Units=GPa)
#
#
# Indices 1 2 3 4 5 6 
#
# 1 105.2305 16.5519 41.6748 0.0000 8.9231 0.0000
# 2 16.5519 35.9242 18.5487 0.0000 4.2493 0.0000
# 3 41.6748 18.5487 90.2352 0.0000 3.9986 0.0000
# 4 0.0000 0.0000 0.0000 33.4336 0.0000 -0.2983
# 5 8.9231 4.2493 3.9986 0.0000 32.3224 0.0000
# 6 0.0000 0.0000 0.0000 -0.2983 0.0000 23.8749
#
#
#
# Elastic Compliance Matrix: (Units=1/GPa)
#
#
# Indices 1 2 3 4 5 6 
#
# 1 0.012080 -0.002752 -0.004909 0.000000 -0.002366 0.000000
# 2 -0.002752 0.032127 -0.005208 0.000000 -0.002820 0.000000
# 3 -0.004909 -0.005208 0.014408 0.000000 0.000257 0.000000
# 4 0.000000 0.000000 0.000000 0.029913 0.000000 0.000374
# 5 -0.002366 -0.002820 0.000257 0.000000 0.031930 0.000000
# 6 0.000000 0.000000 0.000000 0.000374 0.000000 0.041890
#
#
# Mechanical properties :
#
#
# Convention : Reuss Voigt Hill
#
# Bulk Modulus (GPa) = 30.41504 42.77118 36.59311
# Shear Modulus (GPa) = 25.11983 28.23382 26.67683
#
# Velocity S-wave (km/s) = 3.39697 3.60138 3.50067
# Velocity P-wave (km/s) = 5.41829 6.07793 5.75757
#
# Compressibility (1/GPa) = 0.03287847
#
# Stress axis : x y z
#
# Youngs Moduli (GPa) = 82.77841 31.12660 69.40352
#
# Poissons Ratio (x) = 0.08565 0.34069
# Poissons Ratio (y) = 0.22777 0.36147
# Poissons Ratio (z) = 0.40635 0.16212
#
# Static dielectric constant tensor:
#      x y z
#    x 1.890030 0.000000 0.042420 
#    y 0.000000 1.844840 0.000000 
#    z 0.042420 0.000000 1.861580 
# 
# From -- ./inp_files/31864.got.cif
#   From: 2010.05.17/outbox.cif.g08.bks.cpg/sg14_16_cif.got.tgz:31864.got - 2010.06.03 17:49:19.
