data_PCOD9249770
_publ_section_title
;
Structure prediction by ZEFSAII (Michael W. Deem and Ramdas Pophale) SiO2 
 PCOD9249770
Probable space group: P 21/C
;
_chemical_formula_sum "Si O2"
_cell_formula_units_Z 26
_cell_length_a 24.927405
_cell_length_b 7.924656
_cell_length_c 18.300269
_cell_angle_alpha 90.000000
_cell_angle_beta 17.853094
_cell_angle_gamma 90.000000
_cell_volume 1108.294583
_symmetry_space_group_name_H-M "P 21/C"
_symmetry_group_IT_number 14
_symmetry_cell_setting 'monoclinic'
loop_
_space_group_symop_operation_xyz
x,y,z
-x,1/2+y,1/2-z
-x,-y,-z
x,1/2-y,1/2+z
loop_
_atom_site_type_symbol
_atom_site_label
_atom_site_fract_x
_atom_site_fract_y
_atom_site_fract_z
Si Si1 0.000000 0.000000 0.500000
Si Si2 0.836929 0.989220 0.972375
Si Si3 0.394248 0.194153 0.204361
Si Si4 0.622130 0.948829 0.610821
Si Si5 0.956599 0.725363 0.694308
Si Si6 0.756293 0.034315 0.717676
Si Si7 0.249867 0.825779 0.053583
O O1 0.202698 0.068005 0.263374
O O2 0.099307 0.884182 0.303924
O O3 0.924146 0.849466 0.805528
O O4 0.946759 0.062045 0.897584
O O5 0.663158 0.887920 0.221219
O O6 0.804844 0.144161 0.959339
O O7 0.391347 0.106270 0.286891
O O8 0.257780 0.090488 0.331607
O O9 0.590136 0.154988 0.923909
O O10 0.430981 0.929553 0.825897
O O11 0.780222 0.826081 0.383116
O O12 0.692639 0.135267 0.507870
O O13 0.075787 0.840533 0.486803
#
# Coordination Sequence:
#
# PCOD9249770 Si02
#       7
#     2   4   4   4   4   4   4
#     4  12  26  42  68  92 134 176 204 272 336 388
#     4  11  22  40  67  94 125 166 224 266 316 379
#     4  10  23  43  69  94 129 175 213 269 322 385
#     4  11  24  42  69  96 128 172 222 264 326 384
#     4  11  22  39  67  98 125 171 221 271 314 386
#     4  11  23  43  65  94 134 171 215 262 335 383
#     4  12  25  44  67  96 131 173 214 272 327 393
#
# _framework density 23.459467
#
# number of rings (size 3 to 8) (size 9 to 14) (size 15 to 20)
#    0.000    0.923    3.077    5.538    2.154    0.615 
#    0.000    2.308    0.000    0.000    0.000    0.000 
#    0.000    0.000    0.000    0.000    0.000    0.000 
#
# Total GULP energy -144778.442245 kJ/mol
# GULP energy per Si atom -5568.401625 kJ/mol
# Density = 2.340607 g / cm^3
# Si number density = 23.459467 Si / 1000 Ang^3
#
#
#
# Elastic Constant Matrix: (Units=GPa)
#
#
# Indices 1 2 3 4 5 6 
#
# 1 39.5078 -20.2683 1.3101 0.0000 -13.9226 0.0000
# 2 -20.2683 92.0657 44.3129 0.0000 5.2501 0.0000
# 3 1.3101 44.3129 81.1670 0.0000 -17.8990 0.0000
# 4 0.0000 0.0000 0.0000 37.5342 0.0000 -12.0908
# 5 -13.9226 5.2501 -17.8990 0.0000 32.2292 0.0000
# 6 0.0000 0.0000 0.0000 -12.0908 0.0000 36.6672
#
#
#
# Elastic Compliance Matrix: (Units=1/GPa)
#
#
# Indices 1 2 3 4 5 6 
#
# 1 0.033600 0.007709 -0.002082 0.000000 0.012103 0.000000
# 2 0.007709 0.018465 -0.011549 0.000000 -0.006091 0.000000
# 3 -0.002082 -0.011549 0.021510 0.000000 0.012927 0.000000
# 4 0.000000 0.000000 0.000000 0.029809 0.000000 0.009829
# 5 0.012103 -0.006091 0.012927 0.000000 0.044428 0.000000
# 6 0.000000 0.000000 0.000000 0.009829 0.000000 0.030513
#
#
# Mechanical properties :
#
#
# Convention : Reuss Voigt Hill
#
# Bulk Modulus (GPa) = 16.19915 29.27223 22.73569
# Shear Modulus (GPa) = 23.72536 33.77851 28.75193
#
# Velocity S-wave (km/s) = 3.18360 3.79867 3.50466
# Velocity P-wave (km/s) = 4.52039 5.63425 5.10777
#
# Compressibility (1/GPa) = 0.06173164
#
# Stress axis : x y z
#
# Youngs Moduli (GPa) = 29.76151 54.15684 46.49098
#
# Poissons Ratio (x) = -0.41751 0.09681
# Poissons Ratio (y) = -0.22944 0.53690
# Poissons Ratio (z) = 0.06197 0.62543
#
# Static dielectric constant tensor:
#      x y z
#    x 0.740430 0.000000 -0.094320 
#    y 0.000000 1.239300 0.000000 
#    z -0.094320 0.000000 2.037860 
# 
# From -- ./inp_files/61791.got.cif
#   From: 2010.05.17/outbox.cif.g08.bks.cpg/sg14_31_cif.got.tgz:61791.got - 2010.06.03 17:49:19.
