data_PCOD9249584
_publ_section_title
;
Structure prediction by ZEFSAII (Michael W. Deem and Ramdas Pophale) SiO2 
 PCOD9249584
Probable space group: P 21/C
;
_chemical_formula_sum "Si O2"
_cell_formula_units_Z 24
_cell_length_a 15.201866
_cell_length_b 12.731205
_cell_length_c 8.939629
_cell_angle_alpha 90.000000
_cell_angle_beta 36.594917
_cell_angle_gamma 90.000000
_cell_volume 1031.440345
_symmetry_space_group_name_H-M "P 21/C"
_symmetry_group_IT_number 14
_symmetry_cell_setting 'monoclinic'
loop_
_space_group_symop_operation_xyz
x,y,z
-x,1/2+y,1/2-z
-x,-y,-z
x,1/2-y,1/2+z
loop_
_atom_site_type_symbol
_atom_site_label
_atom_site_fract_x
_atom_site_fract_y
_atom_site_fract_z
Si Si1 0.117384 0.409158 0.803604
Si Si2 0.746613 0.935723 0.208886
Si Si3 0.567363 0.121348 0.327859
Si Si4 0.364882 0.530249 0.582327
Si Si5 0.997277 0.823768 0.024166
Si Si6 0.196626 0.713001 0.979034
O O1 0.161521 0.421239 0.569193
O O2 0.260411 0.431107 0.705801
O O3 0.065736 0.293235 0.909850
O O4 0.000000 0.500000 0.000000
O O5 0.602645 0.861011 0.399755
O O6 0.862457 0.905834 0.182711
O O7 0.661140 0.048458 0.316310
O O8 0.656465 0.226369 0.176840
O O9 0.573309 0.059613 0.164122
O O10 0.500000 0.500000 0.500000
O O11 0.257016 0.624033 0.784826
O O12 0.088641 0.801818 0.052138
O O13 0.114222 0.838666 0.730985
#
# Coordination Sequence:
#
# PCOD9249584 Si02
#       6
#     4   4   4   4   4   4
#     4  11  21  44  65  93 140 177 223 281 343 413
#     4  10  23  42  67  96 134 181 222 280 348 402
#     4  10  24  46  65  98 142 173 227 292 337 408
#     4  11  25  44  68  96 133 186 225 270 351 415
#     4  12  23  40  70 102 130 180 229 278 343 407
#     4  12  24  43  69 101 135 173 231 284 340 406
#
# _framework density 23.268433000000002
#
# number of rings (size 3 to 8) (size 9 to 14) (size 15 to 20)
#    0.000    1.000    5.000    1.000    2.333    7.333 
#    0.000    0.000    0.000    0.000    0.000    0.000 
#    0.000    0.000    0.000    0.000    0.000    0.000 
#
# Total GULP energy -134057.418350 kJ/mol
# GULP energy per Si atom -5585.725765 kJ/mol
# Density = 2.321547 g / cm^3
# Si number density = 23.268433 Si / 1000 Ang^3
#
#
#
# Elastic Constant Matrix: (Units=GPa)
#
#
# Indices 1 2 3 4 5 6 
#
# 1 77.7874 12.5754 -0.2649 0.0000 -24.8297 0.0000
# 2 12.5754 45.6044 20.0619 0.0000 -13.7894 0.0000
# 3 -0.2649 20.0619 105.0567 0.0000 -8.3259 0.0000
# 4 0.0000 0.0000 0.0000 26.7488 0.0000 -10.2085
# 5 -24.8297 -13.7894 -8.3259 0.0000 31.3746 0.0000
# 6 0.0000 0.0000 0.0000 -10.2085 0.0000 39.2887
#
#
#
# Elastic Compliance Matrix: (Units=1/GPa)
#
#
# Indices 1 2 3 4 5 6 
#
# 1 0.017399 -0.001298 0.001367 0.000000 0.013561 0.000000
# 2 -0.001298 0.027177 -0.004421 0.000000 0.009744 0.000000
# 3 0.001367 -0.004421 0.010519 0.000000 0.001930 0.000000
# 4 0.000000 0.000000 0.000000 0.041500 0.000000 0.010783
# 5 0.013561 0.009744 0.001930 0.000000 0.047400 0.000000
# 6 0.000000 0.000000 0.000000 0.010783 0.000000 0.028254
#
#
# Mechanical properties :
#
#
# Convention : Reuss Voigt Hill
#
# Bulk Modulus (GPa) = 21.55650 32.57703 27.06676
# Shear Modulus (GPa) = 25.45594 32.55417 29.00505
#
# Velocity S-wave (km/s) = 3.31117 3.74447 3.53447
# Velocity P-wave (km/s) = 4.88906 5.72064 5.32112
#
# Compressibility (1/GPa) = 0.04638972
#
# Stress axis : x y z
#
# Youngs Moduli (GPa) = 57.47497 36.79616 95.06348
#
# Poissons Ratio (x) = 0.04777 -0.12991
# Poissons Ratio (y) = 0.07462 0.42026
# Poissons Ratio (z) = -0.07854 0.16267
#
# Static dielectric constant tensor:
#      x y z
#    x 1.944260 0.000000 -0.027680 
#    y 0.000000 2.416590 0.000000 
#    z -0.027680 0.000000 1.855500 
# 
# From -- ./inp_files/16125.got.cif
#   From: 2010.05.17/outbox.cif.g08.bks.cpg/sg14_9_cif.got.tgz:16125.got - 2010.06.03 17:49:19.
