data_PCOD9249780
_publ_section_title
;
Structure prediction by ZEFSAII (Michael W. Deem and Ramdas Pophale) SiO2 
 PCOD9249780
Probable space group: P 21/C
;
_chemical_formula_sum "Si O2"
_cell_formula_units_Z 32
_cell_length_a 14.678028
_cell_length_b 15.823830
_cell_length_c 12.068385
_cell_angle_alpha 90.000000
_cell_angle_beta 29.371623
_cell_angle_gamma 90.000000
_cell_volume 1374.810620
_symmetry_space_group_name_H-M "P 21/C"
_symmetry_group_IT_number 14
_symmetry_cell_setting 'monoclinic'
loop_
_space_group_symop_operation_xyz
x,y,z
-x,1/2+y,1/2-z
-x,-y,-z
x,1/2-y,1/2+z
loop_
_atom_site_type_symbol
_atom_site_label
_atom_site_fract_x
_atom_site_fract_y
_atom_site_fract_z
Si Si1 0.140516 0.077462 0.870146
Si Si2 0.833038 0.296849 0.752754
Si Si3 0.551592 0.989037 0.817474
Si Si4 0.912890 0.357280 0.310765
Si Si5 0.843008 0.384596 0.977565
Si Si6 0.622010 0.231572 0.280090
Si Si7 0.678756 0.853823 0.526965
Si Si8 0.215385 0.049988 0.045529
O O1 0.284216 0.082849 0.616452
O O2 0.223296 0.067637 0.905543
O O3 0.011724 0.161468 0.003976
O O4 0.000000 0.000000 0.000000
O O5 0.877442 0.201444 0.742149
O O6 0.645909 0.302072 0.878980
O O7 0.813940 0.351725 0.883794
O O8 0.554798 0.897751 0.754298
O O9 0.758638 0.023402 0.582012
O O10 0.500000 0.000000 0.000000
O O11 0.412343 0.047749 0.895231
O O12 0.766888 0.323895 0.555968
O O13 0.868399 0.455817 0.346709
O O14 0.120671 0.337721 0.132838
O O15 0.715074 0.323249 0.184499
O O16 0.063530 0.387154 0.760033
O O17 0.430693 0.222200 0.417100
#
# Coordination Sequence:
#
# PCOD9249780 Si02
#       8
#     4   4   4   4   4   4   4   4
#     4  11  21  43  75 106 140 179 243 291 359 417
#     4  10  23  43  70 100 140 186 232 290 354 431
#     4  12  28  44  67 105 137 183 242 284 353 431
#     4  11  22  45  69  98 145 180 231 284 362 425
#     4  10  25  45  65 101 139 178 236 288 349 421
#     4  11  24  42  69 103 138 185 233 283 361 415
#     4  12  24  44  73 104 142 186 231 308 353 421
#     4  11  23  45  72 101 140 186 236 291 352 432
#
# _framework density 23.275932000000001
#
# number of rings (size 3 to 8) (size 9 to 14) (size 15 to 20)
#    0.000    1.000    5.000    0.750    3.500    5.000 
#    4.500    0.000    0.000    0.000    0.000    0.000 
#    0.000    0.000    0.000    0.000    0.000    0.000 
#
# Total GULP energy -178786.512813 kJ/mol
# GULP energy per Si atom -5587.078525 kJ/mol
# Density = 2.322296 g / cm^3
# Si number density = 23.275932 Si / 1000 Ang^3
#
#
#
# Elastic Constant Matrix: (Units=GPa)
#
#
# Indices 1 2 3 4 5 6 
#
# 1 100.0659 -8.4496 39.2685 0.0000 11.0739 0.0000
# 2 -8.4496 57.9398 6.0947 0.0000 14.2507 0.0000
# 3 39.2685 6.0947 63.8194 0.0000 -6.9519 0.0000
# 4 0.0000 0.0000 0.0000 35.4594 0.0000 -1.3613
# 5 11.0739 14.2507 -6.9519 0.0000 28.0176 0.0000
# 6 0.0000 0.0000 0.0000 -1.3613 0.0000 21.1696
#
#
#
# Elastic Compliance Matrix: (Units=1/GPa)
#
#
# Indices 1 2 3 4 5 6 
#
# 1 0.017055 0.007141 -0.012648 0.000000 -0.013511 0.000000
# 2 0.007141 0.023316 -0.008448 0.000000 -0.016778 0.000000
# 3 -0.012648 -0.008448 0.025973 0.000000 0.015740 0.000000
# 4 0.000000 0.000000 0.000000 0.028271 0.000000 0.001818
# 5 -0.013511 -0.016778 0.015740 0.000000 0.053471 0.000000
# 6 0.000000 0.000000 0.000000 0.001818 0.000000 0.047354
#
#
# Mechanical properties :
#
#
# Convention : Reuss Voigt Hill
#
# Bulk Modulus (GPa) = 26.01883 32.85025 29.43454
# Shear Modulus (GPa) = 21.17195 29.25677 25.21436
#
# Velocity S-wave (km/s) = 3.01924 3.54920 3.29489
# Velocity P-wave (km/s) = 4.83292 5.56236 5.21042
#
# Compressibility (1/GPa) = 0.03843370
#
# Stress axis : x y z
#
# Youngs Moduli (GPa) = 58.63416 42.88923 38.50179
#
# Poissons Ratio (x) = -0.30626 0.48696
# Poissons Ratio (y) = -0.41869 0.32526
# Poissons Ratio (z) = 0.74159 0.36233
#
# Static dielectric constant tensor:
#      x y z
#    x 1.886450 0.000000 0.018860 
#    y 0.000000 1.974400 0.000000 
#    z 0.018860 0.000000 1.875010 
# 
# From -- ./inp_files/32969.got.cif
#   From: 2010.05.17/outbox.cif.g08.bks.cpg/sg14_17_cif.got.tgz:32969.got - 2010.06.03 17:49:19.
