data_PCOD9249836
_publ_section_title
;
Structure prediction by ZEFSAII (Michael W. Deem and Ramdas Pophale) SiO2 
 PCOD9249836
Probable space group: P 21/C
;
_chemical_formula_sum "Si O2"
_cell_formula_units_Z 32
_cell_length_a 15.396393
_cell_length_b 8.499330
_cell_length_c 22.632177
_cell_angle_alpha 90.000000
_cell_angle_beta 151.863455
_cell_angle_gamma 90.000000
_cell_volume 1396.626448
_symmetry_space_group_name_H-M "P 21/C"
_symmetry_group_IT_number 14
_symmetry_cell_setting 'monoclinic'
loop_
_space_group_symop_operation_xyz
x,y,z
-x,1/2+y,1/2-z
-x,-y,-z
x,1/2-y,1/2+z
loop_
_atom_site_type_symbol
_atom_site_label
_atom_site_fract_x
_atom_site_fract_y
_atom_site_fract_z
Si Si1 0.278942 0.024345 0.100553
Si Si2 0.975995 0.842019 0.862135
Si Si3 0.783050 0.427279 0.026665
Si Si4 0.361417 0.149085 0.846416
Si Si5 0.334740 0.234058 0.020378
Si Si6 0.024500 0.905132 0.232341
Si Si7 0.456029 0.280138 0.282285
Si Si8 0.337953 0.810416 0.874111
O O1 0.330533 0.104060 0.068848
O O2 0.311273 0.160575 0.167103
O O3 0.426806 0.882121 0.194358
O O4 0.075730 0.950798 0.970574
O O5 0.761793 0.805718 0.729294
O O6 0.068118 0.669660 0.922066
O O7 0.020348 0.930889 0.827186
O O8 0.866617 0.425683 0.142225
O O9 0.725103 0.606072 0.983151
O O10 0.602591 0.324539 0.906400
O O11 0.376787 0.111095 0.786175
O O12 0.281615 0.990827 0.828101
O O13 0.544955 0.183514 0.994592
O O14 0.519254 0.241095 0.091954
O O15 0.168185 0.184720 0.876801
O O16 0.162283 0.802103 0.274057
#
# Coordination Sequence:
#
# PCOD9249836 Si02
#       8
#     4   4   4   4   4   4   4   4
#     4  10  23  44  64  93 124 176 226 270 322 397
#     4  10  24  39  62  94 135 174 217 271 340 396
#     4  11  21  37  62  92 128 171 214 263 335 394
#     4  11  22  39  63  95 134 171 215 278 343 395
#     4  11  23  40  65  94 130 174 221 269 332 400
#     4  11  22  38  60  96 137 169 217 271 332 406
#     4  11  22  41  66  89 126 169 225 271 322 394
#     4  11  23  38  65 100 136 173 219 275 343 408
#
# _framework density 22.912353
#
# number of rings (size 3 to 8) (size 9 to 14) (size 15 to 20)
#    0.000    1.250    2.500    3.750    1.750    2.500 
#    0.000    0.000    2.750    6.750    0.000    0.000 
#    0.000    0.000    0.000    0.000    0.000    0.000 
#
# Total GULP energy -178675.712794 kJ/mol
# GULP energy per Si atom -5583.616025 kJ/mol
# Density = 2.286020 g / cm^3
# Si number density = 22.912353 Si / 1000 Ang^3
#
#
#
# Elastic Constant Matrix: (Units=GPa)
#
#
# Indices 1 2 3 4 5 6 
#
# 1 41.6824 8.1312 22.0121 0.0000 -3.7807 0.0000
# 2 8.1312 100.4444 29.6520 0.0000 -0.2086 0.0000
# 3 22.0121 29.6520 95.5799 0.0000 -11.3348 0.0000
# 4 0.0000 0.0000 0.0000 44.3525 0.0000 -0.5371
# 5 -3.7807 -0.2086 -11.3348 0.0000 33.2859 0.0000
# 6 0.0000 0.0000 0.0000 -0.5371 0.0000 30.6123
#
#
#
# Elastic Compliance Matrix: (Units=1/GPa)
#
#
# Indices 1 2 3 4 5 6 
#
# 1 0.027361 -0.000428 -0.006044 0.000000 0.001047 0.000000
# 2 -0.000428 0.011007 -0.003453 0.000000 -0.001156 0.000000
# 3 -0.006044 -0.003453 0.013382 0.000000 0.003849 0.000000
# 4 0.000000 0.000000 0.000000 0.022551 0.000000 0.000396
# 5 0.001047 -0.001156 0.003849 0.000000 0.031465 0.000000
# 6 0.000000 0.000000 0.000000 0.000396 0.000000 0.032674
#
#
# Mechanical properties :
#
#
# Convention : Reuss Voigt Hill
#
# Bulk Modulus (GPa) = 31.34886 39.69971 35.52428
# Shear Modulus (GPa) = 29.59874 33.51090 31.55482
#
# Velocity S-wave (km/s) = 3.59810 3.82850 3.71509
# Velocity P-wave (km/s) = 5.56538 6.07517 5.82585
#
# Compressibility (1/GPa) = 0.03189909
#
# Stress axis : x y z
#
# Youngs Moduli (GPa) = 36.54781 90.84741 74.72617
#
# Poissons Ratio (x) = 0.03893 0.45167
# Poissons Ratio (y) = 0.01566 0.25805
# Poissons Ratio (z) = 0.22090 0.31372
#
# Static dielectric constant tensor:
#      x y z
#    x 1.909270 0.000000 0.036160 
#    y 0.000000 1.870340 0.000000 
#    z 0.036160 0.000000 1.847840 
# 
# From -- ./inp_files/73874.got.cif
#   From: 2010.05.17/outbox.cif.g08.bks.cpg/sg14_37_cif.got.tgz:73874.got - 2010.06.03 17:49:19.
