data_PCOD9249317
_publ_section_title
;
Structure prediction by ZEFSAII (Michael W. Deem and Ramdas Pophale) SiO2 
 PCOD9249317
Probable space group: P 21/C
;
_chemical_formula_sum "Si O2"
_cell_formula_units_Z 16
_cell_length_a 12.980911
_cell_length_b 5.098196
_cell_length_c 13.539054
_cell_angle_alpha 90.000000
_cell_angle_beta 54.774817
_cell_angle_gamma 90.000000
_cell_volume 731.938139
_symmetry_space_group_name_H-M "P 21/C"
_symmetry_group_IT_number 14
_symmetry_cell_setting 'monoclinic'
loop_
_space_group_symop_operation_xyz
x,y,z
-x,1/2+y,1/2-z
-x,-y,-z
x,1/2-y,1/2+z
loop_
_atom_site_type_symbol
_atom_site_label
_atom_site_fract_x
_atom_site_fract_y
_atom_site_fract_z
Si Si1 0.603878 0.266194 0.514414
Si Si2 0.918560 0.695284 0.809151
Si Si3 0.317239 0.364522 0.687905
Si Si4 0.288198 0.233628 0.434170
O O1 0.453737 0.240886 0.588031
O O2 0.665714 0.352953 0.375872
O O3 0.636382 0.508613 0.571305
O O4 0.660109 0.011136 0.532464
O O5 0.804897 0.739283 0.795010
O O6 0.972896 0.404130 0.774996
O O7 0.855778 0.763454 0.949569
O O8 0.301924 0.339965 0.812931
#
# Coordination Sequence:
#
# PCOD9249317 Si02
#       4
#     4   4   4   4
#     4  10  23  40  64 100 125 149 202 255 310 377
#     4  11  25  42  59  88 126 165 214 251 287 360
#     4  10  23  41  67  91 126 164 195 255 315 355
#     4  11  23  41  66  93 123 160 203 252 310 369
#
# _framework density 21.859773000000001
#
# number of rings (size 3 to 8) (size 9 to 14) (size 15 to 20)
#    0.000    1.500    0.000    4.500    0.000   19.000 
#    0.000    0.000    0.000    0.000    0.000    0.000 
#    0.000    0.000    0.000    0.000    0.000    0.000 
#
# Total GULP energy -89481.070429 kJ/mol
# GULP energy per Si atom -5592.566902 kJ/mol
# Density = 2.181002 g / cm^3
# Si number density = 21.859773 Si / 1000 Ang^3
#
#
#
# Elastic Constant Matrix: (Units=GPa)
#
#
# Indices 1 2 3 4 5 6 
#
# 1 87.2783 28.0316 54.5405 0.0000 1.0309 0.0000
# 2 28.0316 100.6079 7.7627 0.0000 8.7187 0.0000
# 3 54.5405 7.7627 147.9263 0.0000 27.5336 0.0000
# 4 0.0000 0.0000 0.0000 15.1885 0.0000 -6.7357
# 5 1.0309 8.7187 27.5336 0.0000 37.2153 0.0000
# 6 0.0000 0.0000 0.0000 -6.7357 0.0000 36.7899
#
#
#
# Elastic Compliance Matrix: (Units=1/GPa)
#
#
# Indices 1 2 3 4 5 6 
#
# 1 0.017529 -0.004844 -0.007340 0.000000 0.006080 0.000000
# 2 -0.004844 0.011486 0.001924 0.000000 -0.003980 0.000000
# 3 -0.007340 0.001924 0.010915 0.000000 -0.008323 0.000000
# 4 0.000000 0.000000 0.000000 0.071658 0.000000 0.013119
# 5 0.006080 -0.003980 -0.008323 0.000000 0.033792 0.000000
# 6 0.000000 0.000000 0.000000 0.013119 0.000000 0.029583
#
#
# Mechanical properties :
#
#
# Convention : Reuss Voigt Hill
#
# Bulk Modulus (GPa) = 51.52465 57.38688 54.45577
# Shear Modulus (GPa) = 24.75828 34.20391 29.48109
#
# Velocity S-wave (km/s) = 3.36906 3.95992 3.67638
# Velocity P-wave (km/s) = 6.22541 6.87148 6.55641
#
# Compressibility (1/GPa) = 0.01940819
#
# Stress axis : x y z
#
# Youngs Moduli (GPa) = 57.04937 87.06397 91.62024
#
# Poissons Ratio (x) = 0.42177 0.67252
# Poissons Ratio (y) = 0.27637 -0.17630
# Poissons Ratio (z) = 0.41876 -0.16753
#
# Static dielectric constant tensor:
#      x y z
#    x 1.781930 0.000000 -0.008280 
#    y 0.000000 1.823880 0.000000 
#    z -0.008280 0.000000 1.839070 
# 
# From -- ./inp_files/27348.got.cif
#   From: 2010.05.17/outbox.cif.g08.bks.cpg/sg14_14_cif.got.tgz:27348.got - 2010.06.03 17:49:19.
