data_PCOD9249983
_publ_section_title
;
Structure prediction by ZEFSAII (Michael W. Deem and Ramdas Pophale) SiO2 
 PCOD9249983
Probable space group: P 21/C
;
_chemical_formula_sum "Si O2"
_cell_formula_units_Z 30
_cell_length_a 13.959312
_cell_length_b 10.900259
_cell_length_c 7.901311
_cell_angle_alpha 90.000000
_cell_angle_beta 59.450980
_cell_angle_gamma 90.000000
_cell_volume 1035.383628
_symmetry_space_group_name_H-M "P 21/C"
_symmetry_group_IT_number 14
_symmetry_cell_setting 'monoclinic'
loop_
_space_group_symop_operation_xyz
x,y,z
-x,1/2+y,1/2-z
-x,-y,-z
x,1/2-y,1/2+z
loop_
_atom_site_type_symbol
_atom_site_label
_atom_site_fract_x
_atom_site_fract_y
_atom_site_fract_z
Si Si1 0.624510 0.422588 0.029403
Si Si2 0.500000 0.000000 0.000000
Si Si3 0.210758 0.114302 0.760414
Si Si4 0.080510 0.605716 0.744736
Si Si5 0.330723 0.172025 0.995203
Si Si6 0.804691 0.298674 0.027711
Si Si7 0.473162 0.864625 0.750518
Si Si8 0.013670 0.143083 0.153238
O O1 0.721186 0.522427 0.918467
O O2 0.678047 0.313331 0.087783
O O3 0.581892 0.386451 0.882434
O O4 0.529804 0.491775 0.224121
O O5 0.382497 0.080350 0.080581
O O6 0.433259 0.873316 0.976815
O O7 0.278849 0.110817 0.876229
O O8 0.233971 0.248016 0.664938
O O9 0.081676 0.103497 0.925944
O O10 0.153887 0.657999 0.521178
O O11 0.053078 0.463164 0.749113
O O12 0.978158 0.705667 0.849041
O O13 0.156214 0.633852 0.840007
O O14 0.430813 0.264392 0.853907
O O15 0.882637 0.355675 0.809670
#
# Coordination Sequence:
#
# PCOD9249983 Si02
#       8
#     4   2   4   4   4   4   4   4
#     4  10  23  45  68 100 151 195 247 309 380 451
#     4  12  22  46  74 102 150 188 252 316 382 462
#     4  11  24  42  74 107 146 194 250 316 379 464
#     4  10  25  48  72 110 149 205 254 322 393 451
#     4  11  24  45  68 113 142 191 256 305 393 453
#     4  10  25  46  73 106 154 197 260 313 387 465
#     4  10  23  45  71 102 143 196 248 318 375 454
#     4  10  26  46  79 106 157 195 266 317 386 463
#
# _framework density 28.974767
#
# number of rings (size 3 to 8) (size 9 to 14) (size 15 to 20)
#    0.800    0.800    2.667    0.400    3.733    5.333 
#    7.200    0.000    0.000    0.000    0.000    0.000 
#    0.000    0.000    0.000    0.000    0.000    0.000 
#
# Total GULP energy -167455.600800 kJ/mol
# GULP energy per Si atom -5581.853360 kJ/mol
# Density = 2.890882 g / cm^3
# Si number density = 28.974767 Si / 1000 Ang^3
#
#
#
# Elastic Constant Matrix: (Units=GPa)
#
#
# Indices 1 2 3 4 5 6 
#
# 1 104.0253 37.1585 20.9276 0.0000 15.6953 0.0000
# 2 37.1585 128.5667 19.8778 0.0000 0.9982 0.0000
# 3 20.9276 19.8778 116.3463 0.0000 9.0534 0.0000
# 4 0.0000 0.0000 0.0000 50.6776 0.0000 7.5844
# 5 15.6953 0.9982 9.0534 0.0000 52.5977 0.0000
# 6 0.0000 0.0000 0.0000 7.5844 0.0000 41.7166
#
#
#
# Elastic Compliance Matrix: (Units=1/GPa)
#
#
# Indices 1 2 3 4 5 6 
#
# 1 0.011447 -0.003085 -0.001288 0.000000 -0.003136 0.000000
# 2 -0.003085 0.008821 -0.001024 0.000000 0.000930 0.000000
# 3 -0.001288 -0.001024 0.009092 0.000000 -0.001161 0.000000
# 4 0.000000 0.000000 0.000000 0.020285 0.000000 -0.003688
# 5 -0.003136 0.000930 -0.001161 0.000000 0.020130 0.000000
# 6 0.000000 0.000000 0.000000 -0.003688 0.000000 0.024642
#
#
# Mechanical properties :
#
#
# Convention : Reuss Voigt Hill
#
# Bulk Modulus (GPa) = 53.86397 56.09625 54.98011
# Shear Modulus (GPa) = 44.88330 47.06335 45.97333
#
# Velocity S-wave (km/s) = 3.94006 4.03462 3.98762
# Velocity P-wave (km/s) = 6.27129 6.41144 6.34176
#
# Compressibility (1/GPa) = 0.01856529
#
# Stress axis : x y z
#
# Youngs Moduli (GPa) = 87.35722 113.36743 109.98564
#
# Poissons Ratio (x) = 0.34974 0.14166
# Poissons Ratio (y) = 0.26950 0.11268
# Poissons Ratio (z) = 0.11251 0.11614
#
# Static dielectric constant tensor:
#      x y z
#    x 2.522980 0.000000 0.316040 
#    y 0.000000 2.504650 0.000000 
#    z 0.316040 0.000000 2.784490 
# 
# From -- ./inp_files/15546.got.cif
#   From: 2010.05.17/outbox.cif.g08.bks.cpg/sg14_8_cif.got.tgz:15546.got - 2010.06.03 17:49:19.
