data_PCOD9249175
_publ_section_title
;
Structure prediction by ZEFSAII (Michael W. Deem and Ramdas Pophale) SiO2 
 PCOD9249175
Probable space group: P 21/C
;
_chemical_formula_sum "Si O2"
_cell_formula_units_Z 20
_cell_length_a 14.910152
_cell_length_b 7.057432
_cell_length_c 18.511778
_cell_angle_alpha 90.000000
_cell_angle_beta 158.007638
_cell_angle_gamma 90.000000
_cell_volume 729.472629
_symmetry_space_group_name_H-M "P 21/C"
_symmetry_group_IT_number 14
_symmetry_cell_setting 'monoclinic'
loop_
_space_group_symop_operation_xyz
x,y,z
-x,1/2+y,1/2-z
-x,-y,-z
x,1/2-y,1/2+z
loop_
_atom_site_type_symbol
_atom_site_label
_atom_site_fract_x
_atom_site_fract_y
_atom_site_fract_z
Si Si1 0.050248 0.178135 0.685072
Si Si2 0.756943 0.095030 0.857098
Si Si3 0.308547 0.331794 0.519764
Si Si4 0.417205 0.772269 0.575793
Si Si5 0.834558 0.243200 0.256244
O O1 0.970222 0.332315 0.567319
O O2 0.811070 0.134436 0.553930
O O3 0.238354 0.239023 0.886853
O O4 0.141661 0.984491 0.718084
O O5 0.528197 0.213948 0.713407
O O6 0.804404 0.168144 0.811835
O O7 0.655352 0.882204 0.776450
O O8 0.390086 0.549722 0.573178
O O9 0.073430 0.308201 0.392198
O O10 0.374639 0.786835 0.457796
#
# Coordination Sequence:
#
# PCOD9249175 Si02
#       5
#     4   4   4   4   4
#     4  10  23  44  70 106 147 192 247 306 371 444
#     4  12  24  45  76 107 145 192 255 304 372 442
#     4  10  24  47  72  98 154 196 237 309 378 438
#     4  10  23  44  71 105 144 197 241 297 376 442
#     4  10  22  47  74 107 148 195 247 308 373 444
#
# _framework density 27.417065999999998
#
# number of rings (size 3 to 8) (size 9 to 14) (size 15 to 20)
#    0.000    1.600    2.000    1.200    5.600    3.200 
#    3.600    5.000    0.000    0.000    0.000    0.000 
#    0.000    0.000    0.000    0.000    0.000    0.000 
#
# Total GULP energy -112321.535993 kJ/mol
# GULP energy per Si atom -5616.076800 kJ/mol
# Density = 2.735466 g / cm^3
# Si number density = 27.417066 Si / 1000 Ang^3
#
#
#
# Elastic Constant Matrix: (Units=GPa)
#
#
# Indices 1 2 3 4 5 6 
#
# 1 125.7168 18.6700 40.3145 0.0000 -20.4685 0.0000
# 2 18.6700 130.5245 69.7055 0.0000 -16.2136 0.0000
# 3 40.3145 69.7055 154.1329 0.0000 -42.3614 0.0000
# 4 0.0000 0.0000 0.0000 43.1418 0.0000 -1.1641
# 5 -20.4685 -16.2136 -42.3614 0.0000 51.6065 0.0000
# 6 0.0000 0.0000 0.0000 -1.1641 0.0000 34.4796
#
#
#
# Elastic Compliance Matrix: (Units=1/GPa)
#
#
# Indices 1 2 3 4 5 6 
#
# 1 0.008853 -0.000101 -0.001696 0.000000 0.002087 0.000000
# 2 -0.000101 0.010124 -0.004764 0.000000 -0.000770 0.000000
# 3 -0.001696 -0.004764 0.010963 0.000000 0.006830 0.000000
# 4 0.000000 0.000000 0.000000 0.023201 0.000000 0.000783
# 5 0.002087 -0.000770 0.006830 0.000000 0.025570 0.000000
# 6 0.000000 0.000000 0.000000 0.000783 0.000000 0.029029
#
#
# Mechanical properties :
#
#
# Convention : Reuss Voigt Hill
#
# Bulk Modulus (GPa) = 59.45929 74.19490 66.82709
# Shear Modulus (GPa) = 39.53576 44.62452 42.08014
#
# Velocity S-wave (km/s) = 3.80150 4.03875 3.92192
# Velocity P-wave (km/s) = 6.40333 6.99064 6.70342
#
# Compressibility (1/GPa) = 0.01681823
#
# Stress axis : x y z
#
# Youngs Moduli (GPa) = 112.95376 98.77259 91.21677
#
# Poissons Ratio (x) = 0.01000 0.15472
# Poissons Ratio (y) = 0.01144 0.43453
# Poissons Ratio (z) = 0.19159 0.47052
#
# Static dielectric constant tensor:
#      x y z
#    x 2.132550 0.000000 -0.017980 
#    y 0.000000 2.098230 0.000000 
#    z -0.017980 0.000000 2.110760 
# 
# From -- ./inp_files/7948.got.cif
#   From: 2010.05.17/outbox.cif.g08.bks.cpg/sg14_4_cif.got.tgz:7948.got - 2010.06.03 17:49:19.
