data_PCOD9249039
_publ_section_title
;
Structure prediction by ZEFSAII (Michael W. Deem and Ramdas Pophale) SiO2 
 PCOD9249039
Probable space group: P 21/C
;
_chemical_formula_sum "Si O2"
_cell_formula_units_Z 30
_cell_length_a 10.100411
_cell_length_b 9.509081
_cell_length_c 13.383320
_cell_angle_alpha 90.000000
_cell_angle_beta 81.532067
_cell_angle_gamma 90.000000
_cell_volume 1271.396376
_symmetry_space_group_name_H-M "P 21/C"
_symmetry_group_IT_number 14
_symmetry_cell_setting 'monoclinic'
loop_
_space_group_symop_operation_xyz
x,y,z
-x,1/2+y,1/2-z
-x,-y,-z
x,1/2-y,1/2+z
loop_
_atom_site_type_symbol
_atom_site_label
_atom_site_fract_x
_atom_site_fract_y
_atom_site_fract_z
Si Si1 0.000000 0.500000 0.500000
Si Si2 0.598718 0.377298 0.890512
Si Si3 0.122528 0.199141 0.494641
Si Si4 0.774142 0.362157 0.581393
Si Si5 0.882061 0.070532 0.635421
Si Si6 0.385489 0.190962 0.567493
Si Si7 0.482148 0.088847 0.196189
Si Si8 0.249643 0.611499 0.648747
O O1 0.953877 0.662998 0.531277
O O2 0.906999 0.436875 0.605835
O O3 0.646528 0.526801 0.922738
O O4 0.496360 0.411665 0.812950
O O5 0.716293 0.276000 0.843199
O O6 0.518108 0.296753 0.985661
O O7 0.258653 0.255781 0.528080
O O8 0.029710 0.117403 0.585366
O O9 0.148918 0.081645 0.407635
O O10 0.787262 0.194709 0.598697
O O11 0.633100 0.416795 0.637054
O O12 0.790529 0.411343 0.462121
O O13 0.855711 0.068851 0.756071
O O14 0.417996 0.264473 0.667493
O O15 0.386400 0.970299 0.161521
#
# Coordination Sequence:
#
# PCOD9249039 Si02
#       8
#     2   4   4   4   4   4   4   4
#     4  10  24  44  66  96 130 174 216 282 342 410
#     4  11  24  41  68  97 136 179 226 287 346 415
#     4  10  22  45  72  95 135 181 229 283 345 419
#     4  11  23  44  64  93 136 177 223 282 352 409
#     4  10  23  46  68  95 137 182 235 284 344 422
#     4  11  24  44  66 101 134 180 232 282 347 428
#     4  12  24  40  64  99 136 173 226 291 355 414
#     4  12  23  41  66  98 134 182 226 289 350 413
#
# _framework density 23.5961
#
# number of rings (size 3 to 8) (size 9 to 14) (size 15 to 20)
#    0.000    1.067    2.667    3.600    3.733    0.000 
#    4.800   12.000    0.000    0.000    0.000    0.000 
#    0.000    0.000    0.000    0.000    0.000    0.000 
#
# Total GULP energy -167372.997324 kJ/mol
# GULP energy per Si atom -5579.099911 kJ/mol
# Density = 2.354239 g / cm^3
# Si number density = 23.596100 Si / 1000 Ang^3
#
#
#
# Elastic Constant Matrix: (Units=GPa)
#
#
# Indices 1 2 3 4 5 6 
#
# 1 36.9251 10.8443 0.5565 0.0000 -7.9087 0.0000
# 2 10.8443 94.5966 22.2250 0.0000 -10.0556 0.0000
# 3 0.5565 22.2250 79.4499 0.0000 5.5128 0.0000
# 4 0.0000 0.0000 0.0000 -16.0958 0.0000 -21.1460
# 5 -7.9087 -10.0556 5.5128 0.0000 29.4972 0.0000
# 6 0.0000 0.0000 0.0000 -21.1460 0.0000 2.4239
#
#
#
# Elastic Compliance Matrix: (Units=1/GPa)
#
#
# Indices 1 2 3 4 5 6 
#
# 1 0.029346 -0.002636 0.000049 0.000000 0.006961 0.000000
# 2 -0.002636 0.012176 -0.003674 0.000000 0.004131 0.000000
# 3 0.000049 -0.003674 0.013880 0.000000 -0.003833 0.000000
# 4 0.000000 0.000000 0.000000 -0.004986 0.000000 -0.043495
# 5 0.006961 0.004131 -0.003833 0.000000 0.037892 0.000000
# 6 0.000000 0.000000 0.000000 -0.043495 0.000000 0.033107
#
#
# Mechanical properties :
#
#
# Convention : Reuss Voigt Hill
#
# Bulk Modulus (GPa) = 23.32116 30.91369 27.11743
# Shear Modulus (GPa) = 33.73115 14.98810 24.35963
#
# Velocity S-wave (km/s) = 3.78500 2.52304 3.21652
# Velocity P-wave (km/s) = 5.38578 4.64944 5.03110
#
# Compressibility (1/GPa) = 0.04287951
#
# Stress axis : x y z
#
# Youngs Moduli (GPa) = 34.07623 82.13104 72.04617
#
# Poissons Ratio (x) = 0.21647 -0.00351
# Poissons Ratio (y) = 0.08981 0.26471
# Poissons Ratio (z) = -0.00166 0.30176
#
# Static dielectric constant tensor:
#      x y z
#    x 1.763150 0.000000 -0.056130 
#    y 0.000000 1.868000 0.000000 
#    z -0.056130 0.000000 1.896650 
# 
# From -- ./inp_files/43410.got.cif
#   From: 2010.05.17/outbox.cif.g08.bks.cpg/sg14_22_cif.got.tgz:43410.got - 2010.06.03 17:49:19.
