data_PCOD9249247
_publ_section_title
;
Structure prediction by ZEFSAII (Michael W. Deem and Ramdas Pophale) SiO2 
 PCOD9249247
Probable space group: P 21/C
;
_chemical_formula_sum "Si O2"
_cell_formula_units_Z 28
_cell_length_a 19.818536
_cell_length_b 9.149156
_cell_length_c 14.003338
_cell_angle_alpha 90.000000
_cell_angle_beta 26.206280
_cell_angle_gamma 90.000000
_cell_volume 1121.288492
_symmetry_space_group_name_H-M "P 21/C"
_symmetry_group_IT_number 14
_symmetry_cell_setting 'monoclinic'
loop_
_space_group_symop_operation_xyz
x,y,z
-x,1/2+y,1/2-z
-x,-y,-z
x,1/2-y,1/2+z
loop_
_atom_site_type_symbol
_atom_site_label
_atom_site_fract_x
_atom_site_fract_y
_atom_site_fract_z
Si Si1 0.203928 0.769172 0.324261
Si Si2 0.687560 0.533191 0.490367
Si Si3 0.144405 0.516940 0.535908
Si Si4 0.293326 0.463842 0.170299
Si Si5 0.574631 0.838728 0.681728
Si Si6 0.082894 0.208850 0.435093
Si Si7 0.175628 0.475921 0.995138
O O1 0.117525 0.665435 0.511766
O O2 0.301370 0.638531 0.152995
O O3 0.081908 0.818082 0.400503
O O4 0.256256 0.903640 0.324120
O O5 0.784955 0.463585 0.450778
O O6 0.587017 0.665830 0.660652
O O7 0.578837 0.411507 0.583899
O O8 0.798167 0.616128 0.278256
O O9 0.281622 0.440673 0.299771
O O10 0.974929 0.452800 0.764724
O O11 0.133211 0.377474 0.353059
O O12 0.409517 0.391459 0.949533
O O13 0.713044 0.906937 0.567713
O O14 0.110393 0.149337 0.506683
#
# Coordination Sequence:
#
# PCOD9249247 Si02
#       7
#     4   4   4   4   4   4   4
#     4  10  23  38  67 105 127 175 220 269 345 385
#     4  11  25  46  68  96 136 182 226 272 338 395
#     4  10  23  41  69  99 134 174 222 280 333 394
#     4   9  23  41  66  96 137 169 224 269 338 394
#     4  11  27  46  67  98 134 185 222 276 335 400
#     4  11  22  43  68 102 139 171 219 286 332 394
#     4  12  25  40  69 104 137 171 229 278 338 389
#
# _framework density 24.971274000000001
#
# number of rings (size 3 to 8) (size 9 to 14) (size 15 to 20)
#    0.857    0.571    1.429    3.429    6.000    2.286 
#    0.000    0.000    0.000    0.000    0.000    0.000 
#    0.000    0.000    0.000    0.000    0.000    0.000 
#
# Total GULP energy -156192.337880 kJ/mol
# GULP energy per Si atom -5578.297781 kJ/mol
# Density = 2.491444 g / cm^3
# Si number density = 24.971274 Si / 1000 Ang^3
#
#
#
# Elastic Constant Matrix: (Units=GPa)
#
#
# Indices 1 2 3 4 5 6 
#
# 1 83.3014 9.9857 13.8801 0.0000 13.5246 0.0000
# 2 9.9857 109.4590 -13.9561 0.0000 8.9043 0.0000
# 3 13.8801 -13.9561 47.1423 0.0000 17.6019 0.0000
# 4 0.0000 0.0000 0.0000 41.5333 0.0000 11.7883
# 5 13.5246 8.9043 17.6019 0.0000 32.4968 0.0000
# 6 0.0000 0.0000 0.0000 11.7883 0.0000 20.2108
#
#
#
# Elastic Compliance Matrix: (Units=1/GPa)
#
#
# Indices 1 2 3 4 5 6 
#
# 1 0.013228 -0.001294 -0.002952 0.000000 -0.003552 0.000000
# 2 -0.001294 0.010368 0.005403 0.000000 -0.005229 0.000000
# 3 -0.002952 0.005403 0.029802 0.000000 -0.016394 0.000000
# 4 0.000000 0.000000 0.000000 0.028854 0.000000 -0.016829
# 5 -0.003552 -0.005229 -0.016394 0.000000 0.042563 0.000000
# 6 0.000000 0.000000 0.000000 -0.016829 0.000000 0.059295
#
#
# Mechanical properties :
#
#
# Convention : Reuss Voigt Hill
#
# Bulk Modulus (GPa) = 17.94941 28.85800 23.40371
# Shear Modulus (GPa) = 24.95422 34.18105 29.56764
#
# Velocity S-wave (km/s) = 3.16463 3.70376 3.44476
# Velocity P-wave (km/s) = 4.53396 5.46553 5.02140
#
# Compressibility (1/GPa) = 0.05571213
#
# Stress axis : x y z
#
# Youngs Moduli (GPa) = 75.59581 96.44968 33.55467
#
# Poissons Ratio (x) = 0.12482 0.09904
# Poissons Ratio (y) = 0.09783 -0.18129
# Poissons Ratio (z) = 0.22314 -0.52109
#
# Static dielectric constant tensor:
#      x y z
#    x 1.893220 0.000000 0.050840 
#    y 0.000000 2.033960 0.000000 
#    z 0.050840 0.000000 2.057990 
# 
# From -- ./inp_files/50053.got.cif
#   From: 2010.05.17/outbox.cif.g08.bks.cpg/sg14_26_cif.got.tgz:50053.got - 2010.06.03 17:49:19.
