data_PCOD9249627
_publ_section_title
;
Structure prediction by ZEFSAII (Michael W. Deem and Ramdas Pophale) SiO2 
 PCOD9249627
Probable space group: P 21/C
;
_chemical_formula_sum "Si O2"
_cell_formula_units_Z 32
_cell_length_a 15.878349
_cell_length_b 7.284560
_cell_length_c 10.506931
_cell_angle_alpha 90.000000
_cell_angle_beta 102.561618
_cell_angle_gamma 90.000000
_cell_volume 1186.211838
_symmetry_space_group_name_H-M "P 21/C"
_symmetry_group_IT_number 14
_symmetry_cell_setting 'monoclinic'
loop_
_space_group_symop_operation_xyz
x,y,z
-x,1/2+y,1/2-z
-x,-y,-z
x,1/2-y,1/2+z
loop_
_atom_site_type_symbol
_atom_site_label
_atom_site_fract_x
_atom_site_fract_y
_atom_site_fract_z
Si Si1 0.607239 0.043123 0.774805
Si Si2 0.279095 0.995983 0.420777
Si Si3 0.906859 0.475829 0.402085
Si Si4 0.583042 0.894082 0.324888
Si Si5 0.208378 0.401800 0.415342
Si Si6 0.886284 0.108155 0.507480
Si Si7 0.601037 0.060422 0.056258
Si Si8 0.933428 0.839999 0.318432
O O1 0.682209 0.080752 0.697486
O O2 0.606215 0.820118 0.799595
O O3 0.518049 0.095481 0.675060
O O4 0.607904 0.143761 0.911508
O O5 0.358065 0.043978 0.539713
O O6 0.232997 0.191951 0.394915
O O7 0.205736 0.870552 0.457844
O O8 0.824876 0.547414 0.455988
O O9 0.896220 0.258486 0.398345
O O10 0.915317 0.625053 0.295309
O O11 0.000000 0.500000 0.500000
O O12 0.595150 0.028842 0.208987
O O13 0.298705 0.495119 0.415424
O O14 0.123556 0.443351 0.303633
O O15 0.964729 0.136495 0.631004
O O16 0.898173 0.913367 0.442711
O O17 0.500000 0.000000 0.000000
#
# Coordination Sequence:
#
# PCOD9249627 Si02
#       8
#     4   4   4   4   4   4   4   4
#     4  11  23  43  67 104 143 192 246 310 380 454
#     4  12  24  42  74 108 144 195 257 312 385 459
#     4  10  24  48  69 105 149 190 253 311 376 452
#     4  11  22  45  68 101 143 198 249 310 382 457
#     4  12  23  43  75 102 147 198 250 310 392 449
#     4  10  23  47  69 109 148 192 258 311 376 455
#     4  10  23  42  69  99 141 188 248 300 377 454
#     4  10  23  46  75 101 148 204 246 314 382 452
#
# _framework density 26.97663
#
# number of rings (size 3 to 8) (size 9 to 14) (size 15 to 20)
#    0.000    1.250    3.750    1.125    1.750    2.000 
#   11.250    0.000    0.000    0.000    0.000    0.000 
#    0.000    0.000    0.000    0.000    0.000    0.000 
#
# Total GULP energy -178485.490677 kJ/mol
# GULP energy per Si atom -5577.671584 kJ/mol
# Density = 2.691523 g / cm^3
# Si number density = 26.976630 Si / 1000 Ang^3
#
#
#
# Elastic Constant Matrix: (Units=GPa)
#
#
# Indices 1 2 3 4 5 6 
#
# 1 87.1633 41.6199 1.1046 0.0000 -12.1736 0.0000
# 2 41.6199 116.1838 13.6623 0.0000 2.4226 0.0000
# 3 1.1046 13.6623 91.7380 0.0000 26.0566 0.0000
# 4 0.0000 0.0000 0.0000 19.8015 0.0000 2.1763
# 5 -12.1736 2.4226 26.0566 0.0000 54.1753 0.0000
# 6 0.0000 0.0000 0.0000 2.1763 0.0000 31.6719
#
#
#
# Elastic Compliance Matrix: (Units=1/GPa)
#
#
# Indices 1 2 3 4 5 6 
#
# 1 0.014485 -0.005213 -0.000450 0.000000 0.003705 0.000000
# 2 -0.005213 0.010640 -0.001221 0.000000 -0.001060 0.000000
# 3 -0.000450 -0.001221 0.012858 0.000000 -0.006231 0.000000
# 4 0.000000 0.000000 0.000000 0.050886 0.000000 -0.003496
# 5 0.003705 -0.001060 -0.006231 0.000000 0.022335 0.000000
# 6 0.000000 0.000000 0.000000 -0.003496 0.000000 0.031814
#
#
# Mechanical properties :
#
#
# Convention : Reuss Voigt Hill
#
# Bulk Modulus (GPa) = 41.29768 45.31763 43.30766
# Shear Modulus (GPa) = 30.32924 37.04296 33.68610
#
# Velocity S-wave (km/s) = 3.35666 3.70962 3.53755
# Velocity P-wave (km/s) = 5.51043 5.93159 5.72488
#
# Compressibility (1/GPa) = 0.02421443
#
# Stress axis : x y z
#
# Youngs Moduli (GPa) = 69.03642 93.98307 77.77542
#
# Poissons Ratio (x) = 0.48995 0.03502
# Poissons Ratio (y) = 0.35990 0.09494
# Poissons Ratio (z) = 0.03108 0.11473
#
# Static dielectric constant tensor:
#      x y z
#    x 1.905990 0.000000 -0.075250 
#    y 0.000000 2.222570 0.000000 
#    z -0.075250 0.000000 2.092220 
# 
# From -- ./inp_files/31880.got.cif
#   From: 2010.05.17/outbox.cif.g08.bks.cpg/sg14_16_cif.got.tgz:31880.got - 2010.06.03 17:49:19.
