data_PCOD9249448
_publ_section_title
;
Structure prediction by ZEFSAII (Michael W. Deem and Ramdas Pophale) SiO2 
 PCOD9249448
Probable space group: P 21/C
;
_chemical_formula_sum "Si O2"
_cell_formula_units_Z 32
_cell_length_a 12.613942
_cell_length_b 11.888649
_cell_length_c 18.259397
_cell_angle_alpha 90.000000
_cell_angle_beta 30.739284
_cell_angle_gamma 90.000000
_cell_volume 1399.597405
_symmetry_space_group_name_H-M "P 21/C"
_symmetry_group_IT_number 14
_symmetry_cell_setting 'monoclinic'
loop_
_space_group_symop_operation_xyz
x,y,z
-x,1/2+y,1/2-z
-x,-y,-z
x,1/2-y,1/2+z
loop_
_atom_site_type_symbol
_atom_site_label
_atom_site_fract_x
_atom_site_fract_y
_atom_site_fract_z
Si Si1 0.251902 0.943638 0.184568
Si Si2 0.397979 0.536083 0.439024
Si Si3 0.809993 0.096471 0.206986
Si Si4 0.238911 0.346935 0.262314
Si Si5 0.429648 0.335017 0.306283
Si Si6 0.546385 0.722723 0.006673
Si Si7 0.881691 0.710612 0.924188
Si Si8 0.195711 0.701455 0.447155
O O1 0.366757 0.033681 0.168179
O O2 0.026143 0.899088 0.340591
O O3 0.408776 0.835271 0.095310
O O4 0.260643 0.977860 0.094083
O O5 0.384678 0.432352 0.390897
O O6 0.323375 0.643298 0.437120
O O7 0.586170 0.128316 0.372496
O O8 0.819313 0.118592 0.114305
O O9 0.968608 0.184887 0.147493
O O10 0.855172 0.969132 0.201463
O O11 0.347074 0.363930 0.275875
O O12 0.405635 0.307504 0.104844
O O13 0.036217 0.269955 0.390656
O O14 0.304735 0.223906 0.407072
O O15 0.671097 0.306059 0.160375
O O16 0.768453 0.727020 0.914233
#
# Coordination Sequence:
#
# PCOD9249448 Si02
#       8
#     4   4   4   4   4   4   4   4
#     4  10  23  41  67  95 132 179 224 273 335 413
#     4  11  22  42  67  94 134 175 222 272 335 402
#     4  11  22  42  68  97 128 178 227 273 336 407
#     4  12  25  40  68 103 132 173 232 280 328 412
#     4  12  23  41  70  96 139 175 218 283 344 394
#     4  11  23  42  66  96 137 174 221 286 334 392
#     4  11  21  40  66  93 130 181 217 270 341 395
#     4  12  23  41  69  99 128 180 222 275 339 407
#
# _framework density 22.863717999999999
#
# number of rings (size 3 to 8) (size 9 to 14) (size 15 to 20)
#    0.000    0.750    5.000    3.750    0.000    1.000 
#    0.000    0.625    8.250    0.000    0.000    0.000 
#    0.000    0.000    0.000    0.000    0.000    0.000 
#
# Total GULP energy -179011.316625 kJ/mol
# GULP energy per Si atom -5594.103645 kJ/mol
# Density = 2.281168 g / cm^3
# Si number density = 22.863718 Si / 1000 Ang^3
#
#
#
# Elastic Constant Matrix: (Units=GPa)
#
#
# Indices 1 2 3 4 5 6 
#
# 1 123.5376 0.9475 13.4015 0.0000 11.7352 0.0000
# 2 0.9475 18.3486 2.1566 0.0000 -3.9928 0.0000
# 3 13.4015 2.1566 87.6919 0.0000 4.1837 0.0000
# 4 0.0000 0.0000 0.0000 21.8484 0.0000 -1.8771
# 5 11.7352 -3.9928 4.1837 0.0000 33.6367 0.0000
# 6 0.0000 0.0000 0.0000 -1.8771 0.0000 32.6802
#
#
#
# Elastic Compliance Matrix: (Units=1/GPa)
#
#
# Indices 1 2 3 4 5 6 
#
# 1 0.008504 -0.000945 -0.001136 0.000000 -0.002938 0.000000
# 2 -0.000945 0.056304 -0.001584 0.000000 0.007210 0.000000
# 3 -0.001136 -0.001584 0.011676 0.000000 -0.001244 0.000000
# 4 0.000000 0.000000 0.000000 0.045997 0.000000 0.002642
# 5 -0.002938 0.007210 -0.001244 0.000000 0.031765 0.000000
# 6 0.000000 0.000000 0.000000 0.002642 0.000000 0.030751
#
#
# Mechanical properties :
#
#
# Convention : Reuss Voigt Hill
#
# Bulk Modulus (GPa) = 14.46068 29.17660 21.81864
# Shear Modulus (GPa) = 23.21488 31.83789 27.52638
#
# Velocity S-wave (km/s) = 3.18993 3.73568 3.47354
# Velocity P-wave (km/s) = 4.46161 5.60320 5.06467
#
# Compressibility (1/GPa) = 0.06915303
#
# Stress axis : x y z
#
# Youngs Moduli (GPa) = 117.58779 17.76068 85.64931
#
# Poissons Ratio (x) = 0.01678 0.09732
# Poissons Ratio (y) = 0.11111 0.13569
# Poissons Ratio (z) = 0.13361 0.02814
#
# Static dielectric constant tensor:
#      x y z
#    x 1.866390 0.000000 -0.022080 
#    y 0.000000 1.890240 0.000000 
#    z -0.022080 0.000000 1.859910 
# 
# From -- ./inp_files/57976.got.cif
#   From: 2010.05.17/outbox.cif.g08.bks.cpg/sg14_29_cif.got.tgz:57976.got - 2010.06.03 17:49:19.
