data_PCOD9249856
_publ_section_title
;
Structure prediction by ZEFSAII (Michael W. Deem and Ramdas Pophale) SiO2 
 PCOD9249856
Probable space group: P 21/C
;
_chemical_formula_sum "Si O2"
_cell_formula_units_Z 32
_cell_length_a 13.242593
_cell_length_b 16.690804
_cell_length_c 11.935860
_cell_angle_alpha 90.000000
_cell_angle_beta 143.726380
_cell_angle_gamma 90.000000
_cell_volume 1560.856725
_symmetry_space_group_name_H-M "P 21/C"
_symmetry_group_IT_number 14
_symmetry_cell_setting 'monoclinic'
loop_
_space_group_symop_operation_xyz
x,y,z
-x,1/2+y,1/2-z
-x,-y,-z
x,1/2-y,1/2+z
loop_
_atom_site_type_symbol
_atom_site_label
_atom_site_fract_x
_atom_site_fract_y
_atom_site_fract_z
Si Si1 0.756223 0.525927 0.452651
Si Si2 0.693803 0.342889 0.431699
Si Si3 0.693375 0.608950 0.913654
Si Si4 0.225912 0.815556 0.612091
Si Si5 0.019406 0.789784 0.633622
Si Si6 0.694889 0.975862 0.651099
Si Si7 0.083148 0.886882 0.259540
Si Si8 0.563109 0.462113 0.671622
O O1 0.756203 0.429738 0.446839
O O2 0.758014 0.557016 0.326680
O O3 0.588589 0.546940 0.373494
O O4 0.923743 0.560890 0.659134
O O5 0.493026 0.353183 0.279085
O O6 0.711411 0.274213 0.354104
O O7 0.819931 0.318236 0.645724
O O8 0.694721 0.525498 0.845118
O O9 0.701835 0.584013 0.052105
O O10 0.848343 0.667017 0.021954
O O11 0.062121 0.812870 0.544783
O O12 0.189173 0.854957 0.459449
O O13 0.361108 0.875577 0.786473
O O14 0.015548 0.693795 0.640581
O O15 0.500000 0.000000 0.500000
O O16 0.803031 0.054302 0.713831
O O17 0.500000 0.500000 0.500000
#
# Coordination Sequence:
#
# PCOD9249856 Si02
#       8
#     4   4   4   4   4   4   4   4
#     4  11  23  42  69  98 129 174 229 284 338 403
#     4  10  23  44  66  97 137 169 227 286 340 397
#     4  11  24  44  69  99 133 181 228 280 350 403
#     4  11  23  44  67  94 141 178 220 283 348 407
#     4  11  26  43  65 101 140 181 218 287 344 408
#     4  12  21  43  68  97 129 174 230 282 340 404
#     4  11  25  42  66 102 133 174 234 284 339 412
#     4  11  24  42  68 101 134 180 233 276 341 420
#
# _framework density 20.501562
#
# number of rings (size 3 to 8) (size 9 to 14) (size 15 to 20)
#    0.000    1.000    3.750    3.375    3.500    2.500 
#    0.000    1.250    0.000    0.000    0.000    0.000 
#    0.000    0.000    0.000    0.000    0.000    0.000 
#
# Total GULP energy -178800.956274 kJ/mol
# GULP energy per Si atom -5587.529884 kJ/mol
# Density = 2.045490 g / cm^3
# Si number density = 20.501562 Si / 1000 Ang^3
#
#
#
# Elastic Constant Matrix: (Units=GPa)
#
#
# Indices 1 2 3 4 5 6 
#
# 1 101.7382 41.3670 14.6106 0.0000 12.7385 0.0000
# 2 41.3670 86.4217 34.6273 0.0000 33.9103 0.0000
# 3 14.6106 34.6273 47.0911 0.0000 12.3537 0.0000
# 4 0.0000 0.0000 0.0000 25.5843 0.0000 -2.9711
# 5 12.7385 33.9103 12.3537 0.0000 37.8560 0.0000
# 6 0.0000 0.0000 0.0000 -2.9711 0.0000 27.3165
#
#
#
# Elastic Compliance Matrix: (Units=1/GPa)
#
#
# Indices 1 2 3 4 5 6 
#
# 1 0.012300 -0.006908 0.000794 0.000000 0.001790 0.000000
# 2 -0.006908 0.027053 -0.013126 0.000000 -0.017625 0.000000
# 3 0.000794 -0.013126 0.030213 0.000000 0.001631 0.000000
# 4 0.000000 0.000000 0.000000 0.039586 0.000000 0.004306
# 5 0.001790 -0.017625 0.001631 0.000000 0.041069 0.000000
# 6 0.000000 0.000000 0.000000 0.004306 0.000000 0.037076
#
#
# Mechanical properties :
#
#
# Convention : Reuss Voigt Hill
#
# Bulk Modulus (GPa) = 32.16878 46.27344 39.22111
# Shear Modulus (GPa) = 21.17399 27.79443 24.48421
#
# Velocity S-wave (km/s) = 3.21721 3.68601 3.45956
# Velocity P-wave (km/s) = 5.43374 6.38242 5.92709
#
# Compressibility (1/GPa) = 0.03108604
#
# Stress axis : x y z
#
# Youngs Moduli (GPa) = 81.30214 36.96494 33.09850
#
# Poissons Ratio (x) = 0.25535 -0.02627
# Poissons Ratio (y) = 0.56163 0.43444
# Poissons Ratio (z) = -0.06454 0.48519
#
# Static dielectric constant tensor:
#      x y z
#    x 1.724910 0.000000 -0.042870 
#    y 0.000000 1.729170 0.000000 
#    z -0.042870 0.000000 1.800090 
# 
# From -- ./inp_files/30459.got.cif
#   From: 2010.05.17/outbox.cif.g08.bks.cpg/sg14_16_cif.got.tgz:30459.got - 2010.06.03 17:49:19.
