data_PCOD9249976
_publ_section_title
;
Structure prediction by ZEFSAII (Michael W. Deem and Ramdas Pophale) SiO2 
 PCOD9249976
Probable space group: P 21/C
;
_chemical_formula_sum "Si O2"
_cell_formula_units_Z 16
_cell_length_a 5.637950
_cell_length_b 9.551852
_cell_length_c 13.351025
_cell_angle_alpha 90.000000
_cell_angle_beta 124.291479
_cell_angle_gamma 90.000000
_cell_volume 594.017434
_symmetry_space_group_name_H-M "P 21/C"
_symmetry_group_IT_number 14
_symmetry_cell_setting 'monoclinic'
loop_
_space_group_symop_operation_xyz
x,y,z
-x,1/2+y,1/2-z
-x,-y,-z
x,1/2-y,1/2+z
loop_
_atom_site_type_symbol
_atom_site_label
_atom_site_fract_x
_atom_site_fract_y
_atom_site_fract_z
Si Si1 0.495327 0.317142 0.346774
Si Si2 0.248496 0.394871 0.658546
Si Si3 0.652029 0.816560 0.480503
Si Si4 0.085365 0.524881 0.809118
O O1 0.679593 0.455248 0.372400
O O2 0.517702 0.180549 0.280797
O O3 0.484175 0.267349 0.458388
O O4 0.174672 0.370884 0.243502
O O5 0.184183 0.286871 0.554607
O O6 0.034937 0.429925 0.698837
O O7 0.386689 0.894329 0.364310
O O8 0.854914 0.931299 0.579766
#
# Coordination Sequence:
#
# PCOD9249976 Si02
#       4
#     4   4   4   4
#     4  11  25  44  71  97 141 176 224 280 331 402
#     4  11  23  45  67 102 135 174 227 277 326 408
#     4  10  23  45  67 101 136 176 225 279 328 406
#     4  10  24  46  66 102 142 172 220 281 339 394
#
# _framework density 26.935237999999998
#
# number of rings (size 3 to 8) (size 9 to 14) (size 15 to 20)
#    0.000    1.500    2.500    0.750    7.000    2.000 
#    4.500    0.000    0.000    0.000    0.000    0.000 
#    0.000    0.000    0.000    0.000    0.000    0.000 
#
# Total GULP energy -89698.409650 kJ/mol
# GULP energy per Si atom -5606.150603 kJ/mol
# Density = 2.687393 g / cm^3
# Si number density = 26.935238 Si / 1000 Ang^3
#
#
#
# Elastic Constant Matrix: (Units=GPa)
#
#
# Indices 1 2 3 4 5 6 
#
# 1 51.9542 31.3902 27.9950 0.0000 11.6484 0.0000
# 2 31.3902 141.3167 51.5745 0.0000 -4.9937 0.0000
# 3 27.9950 51.5745 101.1164 0.0000 -22.2811 0.0000
# 4 0.0000 0.0000 0.0000 81.4018 0.0000 -15.1203
# 5 11.6484 -4.9937 -22.2811 0.0000 48.3812 0.0000
# 6 0.0000 0.0000 0.0000 -15.1203 0.0000 32.3607
#
#
#
# Elastic Compliance Matrix: (Units=1/GPa)
#
#
# Indices 1 2 3 4 5 6 
#
# 1 0.028524 -0.003626 -0.008507 0.000000 -0.011159 0.000000
# 2 -0.003626 0.009227 -0.003673 0.000000 0.000134 0.000000
# 3 -0.008507 -0.003673 0.016122 0.000000 0.009094 0.000000
# 4 0.000000 0.000000 0.000000 0.013452 0.000000 0.006285
# 5 -0.011159 0.000134 0.009094 0.000000 0.027558 0.000000
# 6 0.000000 0.000000 0.000000 0.006285 0.000000 0.033839
#
#
# Mechanical properties :
#
#
# Convention : Reuss Voigt Hill
#
# Bulk Modulus (GPa) = 44.91938 57.36739 51.14339
# Shear Modulus (GPa) = 29.80570 44.65723 37.23146
#
# Velocity S-wave (km/s) = 3.33012 4.07621 3.72191
# Velocity P-wave (km/s) = 5.61242 6.59534 6.12363
#
# Compressibility (1/GPa) = 0.02226210
#
# Stress axis : x y z
#
# Youngs Moduli (GPa) = 35.05798 108.37956 62.02714
#
# Poissons Ratio (x) = 0.39295 0.52766
# Poissons Ratio (y) = 0.12711 0.22782
# Poissons Ratio (z) = 0.29823 0.39806
#
# Static dielectric constant tensor:
#      x y z
#    x 2.057620 0.000000 0.021460 
#    y 0.000000 2.072470 0.000000 
#    z 0.021460 0.000000 2.103980 
# 
# From -- ./inp_files/36657.got.cif
#   From: 2010.05.17/outbox.cif.g08.bks.cpg/sg14_19_cif.got.tgz:36657.got - 2010.06.03 17:49:19.
