data_PCOD9249630
_publ_section_title
;
Structure prediction by ZEFSAII (Michael W. Deem and Ramdas Pophale) SiO2 
 PCOD9249630
Probable space group: P 21/C
;
_chemical_formula_sum "Si O2"
_cell_formula_units_Z 20
_cell_length_a 6.516292
_cell_length_b 7.380532
_cell_length_c 19.917336
_cell_angle_alpha 90.000000
_cell_angle_beta 114.348223
_cell_angle_gamma 90.000000
_cell_volume 872.699676
_symmetry_space_group_name_H-M "P 21/C"
_symmetry_group_IT_number 14
_symmetry_cell_setting 'monoclinic'
loop_
_space_group_symop_operation_xyz
x,y,z
-x,1/2+y,1/2-z
-x,-y,-z
x,1/2-y,1/2+z
loop_
_atom_site_type_symbol
_atom_site_label
_atom_site_fract_x
_atom_site_fract_y
_atom_site_fract_z
Si Si1 0.504501 0.585569 0.331367
Si Si2 0.256868 0.715819 0.167371
Si Si3 0.804381 0.693856 0.547908
Si Si4 0.321685 0.796463 0.952613
Si Si5 0.872586 0.857802 0.413038
O O1 0.335426 0.645247 0.250164
O O2 0.581795 0.378256 0.334388
O O3 0.402677 0.640505 0.389723
O O4 0.732000 0.703644 0.355630
O O5 0.257011 0.542805 0.118478
O O6 0.996283 0.780614 0.129081
O O7 0.785349 0.478639 0.530220
O O8 0.545702 0.752623 0.524114
O O9 0.877196 0.800050 0.491021
O O10 0.129764 0.646420 0.922868
#
# Coordination Sequence:
#
# PCOD9249630 Si02
#       5
#     4   4   4   4   4
#     4  11  25  45  66 100 136 181 226 281 337 408
#     4  12  24  45  70  95 140 184 223 279 345 401
#     4  10  23  42  70 102 137 173 223 289 339 402
#     4  10  23  43  70 100 136 175 226 283 340 404
#     4  11  23  46  68 101 135 176 225 280 345 402
#
# _framework density 22.917390999999999
#
# number of rings (size 3 to 8) (size 9 to 14) (size 15 to 20)
#    0.000    1.200    4.000    1.200    5.600    2.400 
#    7.200    0.000    0.000    0.000    0.000    0.000 
#    0.000    0.000    0.000    0.000    0.000    0.000 
#
# Total GULP energy -111880.547671 kJ/mol
# GULP energy per Si atom -5594.027384 kJ/mol
# Density = 2.286523 g / cm^3
# Si number density = 22.917391 Si / 1000 Ang^3
#
#
#
# Elastic Constant Matrix: (Units=GPa)
#
#
# Indices 1 2 3 4 5 6 
#
# 1 107.0233 49.7221 66.0196 0.0000 19.1356 0.0000
# 2 49.7221 115.0442 46.6984 0.0000 8.1436 0.0000
# 3 66.0196 46.6984 181.7743 0.0000 35.3493 0.0000
# 4 0.0000 0.0000 0.0000 41.1477 0.0000 10.1119
# 5 19.1356 8.1436 35.3493 0.0000 32.6127 0.0000
# 6 0.0000 0.0000 0.0000 10.1119 0.0000 31.2729
#
#
#
# Elastic Compliance Matrix: (Units=1/GPa)
#
#
# Indices 1 2 3 4 5 6 
#
# 1 0.014097 -0.004515 -0.003257 0.000000 -0.003613 0.000000
# 2 -0.004515 0.011153 -0.001519 0.000000 0.001511 0.000000
# 3 -0.003257 -0.001519 0.008400 0.000000 -0.006814 0.000000
# 4 0.000000 0.000000 0.000000 0.026401 0.000000 -0.008536
# 5 -0.003613 0.001511 -0.006814 0.000000 0.039792 0.000000
# 6 0.000000 0.000000 0.000000 -0.008536 0.000000 0.034737
#
#
# Mechanical properties :
#
#
# Convention : Reuss Voigt Hill
#
# Bulk Modulus (GPa) = 66.37022 80.96910 73.66966
# Shear Modulus (GPa) = 31.60880 37.10010 34.35445
#
# Velocity S-wave (km/s) = 3.71785 4.02787 3.87596
# Velocity P-wave (km/s) = 6.88864 7.55243 7.22816
#
# Compressibility (1/GPa) = 0.01506700
#
# Stress axis : x y z
#
# Youngs Moduli (GPa) = 70.93910 89.65926 119.04977
#
# Poissons Ratio (x) = 0.40477 0.38779
# Poissons Ratio (y) = 0.32026 0.18089
# Poissons Ratio (z) = 0.23107 0.13623
#
# Static dielectric constant tensor:
#      x y z
#    x 1.876150 0.000000 0.025100 
#    y 0.000000 1.911650 0.000000 
#    z 0.025100 0.000000 1.842930 
# 
# From -- ./inp_files/63164.got.cif
#   From: 2010.05.17/outbox.cif.g08.bks.cpg/sg14_32_cif.got.tgz:63164.got - 2010.06.03 17:49:19.
