data_PCOD9249234
_publ_section_title
;
Structure prediction by ZEFSAII (Michael W. Deem and Ramdas Pophale) SiO2 
 PCOD9249234
Probable space group: P 21/C
;
_chemical_formula_sum "Si O2"
_cell_formula_units_Z 24
_cell_length_a 8.837875
_cell_length_b 5.034901
_cell_length_c 23.954119
_cell_angle_alpha 90.000000
_cell_angle_beta 108.596750
_cell_angle_gamma 90.000000
_cell_volume 1010.251518
_symmetry_space_group_name_H-M "P 21/C"
_symmetry_group_IT_number 14
_symmetry_cell_setting 'monoclinic'
loop_
_space_group_symop_operation_xyz
x,y,z
-x,1/2+y,1/2-z
-x,-y,-z
x,1/2-y,1/2+z
loop_
_atom_site_type_symbol
_atom_site_label
_atom_site_fract_x
_atom_site_fract_y
_atom_site_fract_z
Si Si1 0.648548 0.817756 0.031867
Si Si2 0.610499 0.337805 0.698477
Si Si3 0.451679 0.464437 0.086345
Si Si4 0.843207 0.056480 0.373528
Si Si5 0.016742 0.560538 0.436208
Si Si6 0.290201 0.320116 0.736284
O O1 0.588167 0.642406 0.075565
O O2 0.802876 0.994139 0.058529
O O3 0.659627 0.634564 0.977682
O O4 0.500000 0.000000 0.000000
O O5 0.545059 0.261532 0.630682
O O6 0.452765 0.345109 0.719178
O O7 0.727571 0.115233 0.740061
O O8 0.682382 0.628542 0.708065
O O9 0.329793 0.583979 0.117280
O O10 0.818430 0.873647 0.315321
O O11 0.912730 0.353734 0.386119
O O12 0.961447 0.861844 0.421159
O O13 0.000000 0.500000 0.500000
#
# Coordination Sequence:
#
# PCOD9249234 Si02
#       6
#     4   4   4   4   4   4
#     4  11  25  40  60  90 127 167 209 251 311 381
#     4   9  18  33  58  89 118 154 197 256 305 355
#     4  10  23  38  62  92 125 163 207 260 311 370
#     4  11  23  40  65  94 125 161 203 264 314 366
#     4  12  24  40  63  91 128 165 206 252 316 372
#     4   9  18  34  57  90 120 148 201 253 309 355
#
# _framework density 23.756460000000001
#
# number of rings (size 3 to 8) (size 9 to 14) (size 15 to 20)
#    0.000    1.667    1.667    2.500    7.000    2.667 
#    0.000    0.000    0.000    4.000    0.000    0.000 
#    0.000    0.000    0.000    0.000    0.000    0.000 
#
# Total GULP energy -134042.311944 kJ/mol
# GULP energy per Si atom -5585.096331 kJ/mol
# Density = 2.370239 g / cm^3
# Si number density = 23.756460 Si / 1000 Ang^3
#
#
#
# Elastic Constant Matrix: (Units=GPa)
#
#
# Indices 1 2 3 4 5 6 
#
# 1 72.0381 2.6100 5.3413 0.0000 2.2009 0.0000
# 2 2.6100 102.9157 7.4166 0.0000 -9.7182 0.0000
# 3 5.3413 7.4166 78.2732 0.0000 -2.3273 0.0000
# 4 0.0000 0.0000 0.0000 45.1022 0.0000 9.5266
# 5 2.2009 -9.7182 -2.3273 0.0000 13.7975 0.0000
# 6 0.0000 0.0000 0.0000 9.5266 0.0000 31.8409
#
#
#
# Elastic Compliance Matrix: (Units=1/GPa)
#
#
# Indices 1 2 3 4 5 6 
#
# 1 0.014060 -0.000549 -0.000991 0.000000 -0.002797 0.000000
# 2 -0.000549 0.010477 -0.000737 0.000000 0.007343 0.000000
# 3 -0.000991 -0.000737 0.012967 0.000000 0.001826 0.000000
# 4 0.000000 0.000000 0.000000 0.023668 0.000000 -0.007081
# 5 -0.002797 0.007343 0.001826 0.000000 0.078403 0.000000
# 6 0.000000 0.000000 0.000000 -0.007081 0.000000 0.033525
#
#
# Mechanical properties :
#
#
# Convention : Reuss Voigt Hill
#
# Bulk Modulus (GPa) = 30.34779 31.55144 30.94962
# Shear Modulus (GPa) = 26.50586 34.00539 30.25562
#
# Velocity S-wave (km/s) = 3.34388 3.78751 3.57259
# Velocity P-wave (km/s) = 5.26412 5.69535 5.48398
#
# Compressibility (1/GPa) = 0.03295133
#
# Stress axis : x y z
#
# Youngs Moduli (GPa) = 71.12202 95.44631 77.11593
#
# Poissons Ratio (x) = 0.05243 0.07639
# Poissons Ratio (y) = 0.03907 0.05683
# Poissons Ratio (z) = 0.07045 0.07034
#
# Static dielectric constant tensor:
#      x y z
#    x 1.989300 0.000000 -0.042340 
#    y 0.000000 1.899790 0.000000 
#    z -0.042340 0.000000 2.039120 
# 
# From -- ./inp_files/71663.got.cif
#   From: 2010.05.17/outbox.cif.g08.bks.cpg/sg14_36_cif.got.tgz:71663.got - 2010.06.03 17:49:19.
