data_PCOD9249022
_publ_section_title
;
Structure prediction by ZEFSAII (Michael W. Deem and Ramdas Pophale) SiO2 
 PCOD9249022
Probable space group: P 21/C
;
_chemical_formula_sum "Si O2"
_cell_formula_units_Z 30
_cell_length_a 12.423222
_cell_length_b 13.746630
_cell_length_c 15.832580
_cell_angle_alpha 90.000000
_cell_angle_beta 26.662027
_cell_angle_gamma 90.000000
_cell_volume 1213.288841
_symmetry_space_group_name_H-M "P 21/C"
_symmetry_group_IT_number 14
_symmetry_cell_setting 'monoclinic'
loop_
_space_group_symop_operation_xyz
x,y,z
-x,1/2+y,1/2-z
-x,-y,-z
x,1/2-y,1/2+z
loop_
_atom_site_type_symbol
_atom_site_label
_atom_site_fract_x
_atom_site_fract_y
_atom_site_fract_z
Si Si1 0.036741 0.430025 0.784220
Si Si2 0.261877 0.592948 0.162966
Si Si3 0.000000 0.500000 0.000000
Si Si4 0.759754 0.905776 0.234215
Si Si5 0.372319 0.242263 0.812484
Si Si6 0.475565 0.614564 0.640071
Si Si7 0.919162 0.194558 0.695886
Si Si8 0.109450 0.705274 0.598103
O O1 0.053297 0.486885 0.859947
O O2 0.286662 0.437631 0.558717
O O3 0.829286 0.454170 0.861531
O O4 0.990278 0.315618 0.839349
O O5 0.225454 0.521271 0.266737
O O6 0.106408 0.688715 0.281793
O O7 0.539064 0.618022 0.953165
O O8 0.272839 0.547024 0.823351
O O9 0.693952 0.853529 0.194198
O O10 0.998686 0.857629 0.101982
O O11 0.448884 0.202300 0.850252
O O12 0.604265 0.289384 0.607480
O O13 0.147815 0.317376 0.973670
O O14 0.333612 0.661154 0.661540
O O15 0.964778 0.163257 0.759060
#
# Coordination Sequence:
#
# PCOD9249022 Si02
#       8
#     4   4   2   4   4   4   4   4
#     4  11  23  46  69 100 143 183 230 295 354 419
#     4  10  22  45  71 100 142 183 232 298 347 416
#     4  12  26  42  72 102 138 186 230 292 356 434
#     4  11  23  42  73 102 139 186 234 287 353 412
#     4  12  23  44  70 102 139 183 235 291 345 422
#     4  12  25  46  69 102 144 184 233 294 358 425
#     4  11  25  44  72  99 137 191 232 289 361 416
#     4  11  23  44  71  98 143 184 233 292 348 424
#
# _framework density 24.726181
#
# number of rings (size 3 to 8) (size 9 to 14) (size 15 to 20)
#    0.000    0.800    6.667    2.000    1.867    0.533 
#    2.400    0.000    0.000    0.000    0.000    0.000 
#    0.000    0.000    0.000    0.000    0.000    0.000 
#
# Total GULP energy -167552.222350 kJ/mol
# GULP energy per Si atom -5585.074078 kJ/mol
# Density = 2.466990 g / cm^3
# Si number density = 24.726181 Si / 1000 Ang^3
#
#
#
# Elastic Constant Matrix: (Units=GPa)
#
#
# Indices 1 2 3 4 5 6 
#
# 1 89.3906 -8.2550 -8.0656 0.0000 2.0548 0.0000
# 2 -8.2550 29.7793 -11.2820 0.0000 0.7270 0.0000
# 3 -8.0656 -11.2820 84.0889 0.0000 -4.3330 0.0000
# 4 0.0000 0.0000 0.0000 27.5066 0.0000 0.2968
# 5 2.0548 0.7270 -4.3330 0.0000 33.9534 0.0000
# 6 0.0000 0.0000 0.0000 0.2968 0.0000 25.6483
#
#
#
# Elastic Compliance Matrix: (Units=1/GPa)
#
#
# Indices 1 2 3 4 5 6 
#
# 1 0.011703 0.003869 0.001611 0.000000 -0.000585 0.000000
# 2 0.003869 0.036658 0.005272 0.000000 -0.000346 0.000000
# 3 0.001611 0.005272 0.012828 0.000000 0.001427 0.000000
# 4 0.000000 0.000000 0.000000 0.036359 0.000000 -0.000421
# 5 -0.000585 -0.000346 0.001427 0.000000 0.029677 0.000000
# 6 0.000000 0.000000 0.000000 -0.000421 0.000000 0.038994
#
#
# Mechanical properties :
#
#
# Convention : Reuss Voigt Hill
#
# Bulk Modulus (GPa) = 12.09293 16.45039 14.27166
# Shear Modulus (GPa) = 29.02259 32.81242 30.91751
#
# Velocity S-wave (km/s) = 3.42973 3.64680 3.53993
# Velocity P-wave (km/s) = 4.53712 4.93960 4.74263
#
# Compressibility (1/GPa) = 0.08269297
#
# Stress axis : x y z
#
# Youngs Moduli (GPa) = 85.44813 27.27885 77.95727
#
# Poissons Ratio (x) = -0.10554 -0.12562
# Poissons Ratio (y) = -0.33059 -0.41096
# Poissons Ratio (z) = -0.13770 -0.14380
#
# Static dielectric constant tensor:
#      x y z
#    x 1.808910 0.000000 0.046970 
#    y 0.000000 1.966850 0.000000 
#    z 0.046970 0.000000 1.920810 
# 
# From -- ./inp_files/45354.got.cif
#   From: 2010.05.17/outbox.cif.g08.bks.cpg/sg14_23_cif.got.tgz:45354.got - 2010.06.03 17:49:19.
