data_PCOD9249705
_publ_section_title
;
Structure prediction by ZEFSAII (Michael W. Deem and Ramdas Pophale) SiO2 
 PCOD9249705
Probable space group: P 21/C
;
_chemical_formula_sum "Si O2"
_cell_formula_units_Z 32
_cell_length_a 27.147508
_cell_length_b 8.202805
_cell_length_c 10.930292
_cell_angle_alpha 90.000000
_cell_angle_beta 145.933029
_cell_angle_gamma 90.000000
_cell_volume 1363.444359
_symmetry_space_group_name_H-M "P 21/C"
_symmetry_group_IT_number 14
_symmetry_cell_setting 'monoclinic'
loop_
_space_group_symop_operation_xyz
x,y,z
-x,1/2+y,1/2-z
-x,-y,-z
x,1/2-y,1/2+z
loop_
_atom_site_type_symbol
_atom_site_label
_atom_site_fract_x
_atom_site_fract_y
_atom_site_fract_z
Si Si1 0.707998 0.352191 0.382214
Si Si2 0.981212 0.192757 0.462543
Si Si3 0.828924 0.362954 0.823423
Si Si4 0.534432 0.482679 0.935432
Si Si5 0.923099 0.703598 0.093768
Si Si6 0.460647 0.339840 0.561301
Si Si7 0.207571 0.506247 0.657478
Si Si8 0.647740 0.457823 0.847436
O O1 0.730559 0.397095 0.569749
O O2 0.763119 0.485846 0.421952
O O3 0.711527 0.156156 0.397344
O O4 0.615494 0.364104 0.120040
O O5 0.009967 0.237687 0.383325
O O6 0.882255 0.195768 0.310803
O O7 0.033644 0.284440 0.681154
O O8 0.000000 0.000000 0.500000
O O9 0.875535 0.526558 0.972693
O O10 0.825192 0.194581 0.891621
O O11 0.461289 0.434290 0.689185
O O12 0.565393 0.659030 0.960615
O O13 0.500000 0.500000 0.000000
O O14 0.858918 0.859799 0.956995
O O15 0.562507 0.358366 0.724390
O O16 0.397302 0.406727 0.327578
O O17 0.290297 0.483656 0.916782
#
# Coordination Sequence:
#
# PCOD9249705 Si02
#       8
#     4   4   4   4   4   4   4   4
#     4  11  23  45  65  98 145 178 232 302 359 420
#     4  10  24  48  74 110 144 188 244 303 347 452
#     4  10  26  43  70 104 144 185 238 293 361 430
#     4  12  25  42  71  95 135 187 236 298 359 427
#     4  11  25  47  76 103 150 184 244 293 369 434
#     4  11  24  42  67  97 133 179 247 286 353 431
#     4  11  24  43  69 101 142 187 230 297 362 431
#     4  10  23  43  65  95 137 182 234 291 355 426
#
# _framework density 23.469971000000001
#
# number of rings (size 3 to 8) (size 9 to 14) (size 15 to 20)
#    0.000    1.250    2.500    2.250    8.750    2.500 
#    2.250    0.000    0.000    0.000    0.000    0.000 
#    0.000    0.000    0.000    0.000    0.000    0.000 
#
# Total GULP energy -178314.969069 kJ/mol
# GULP energy per Si atom -5572.342783 kJ/mol
# Density = 2.341655 g / cm^3
# Si number density = 23.469971 Si / 1000 Ang^3
#
#
#
# Elastic Constant Matrix: (Units=GPa)
#
#
# Indices 1 2 3 4 5 6 
#
# 1 52.9582 13.0820 1.5867 0.0000 -8.4927 0.0000
# 2 13.0820 95.8845 40.2599 0.0000 -13.9074 0.0000
# 3 1.5867 40.2599 141.9462 0.0000 -25.4509 0.0000
# 4 0.0000 0.0000 0.0000 37.6990 0.0000 -3.5299
# 5 -8.4927 -13.9074 -25.4509 0.0000 28.1528 0.0000
# 6 0.0000 0.0000 0.0000 -3.5299 0.0000 34.2009
#
#
#
# Elastic Compliance Matrix: (Units=1/GPa)
#
#
# Indices 1 2 3 4 5 6 
#
# 1 0.020493 -0.002557 0.001645 0.000000 0.006405 0.000000
# 2 -0.002557 0.012430 -0.003025 0.000000 0.002635 0.000000
# 3 0.001645 -0.003025 0.009196 0.000000 0.007316 0.000000
# 4 0.000000 0.000000 0.000000 0.026785 0.000000 0.002764
# 5 0.006405 0.002635 0.007316 0.000000 0.045368 0.000000
# 6 0.000000 0.000000 0.000000 0.002764 0.000000 0.029524
#
#
# Mechanical properties :
#
#
# Convention : Reuss Voigt Hill
#
# Bulk Modulus (GPa) = 29.20192 44.51624 36.85908
# Shear Modulus (GPa) = 30.65889 35.73456 33.19673
#
# Velocity S-wave (km/s) = 3.61820 3.90624 3.76498
# Velocity P-wave (km/s) = 5.47032 6.27323 5.88549
#
# Compressibility (1/GPa) = 0.03424433
#
# Stress axis : x y z
#
# Youngs Moduli (GPa) = 48.79833 80.44897 108.74226
#
# Poissons Ratio (x) = 0.20574 -0.17886
# Poissons Ratio (y) = 0.12480 0.32890
# Poissons Ratio (z) = -0.08026 0.24332
#
# Static dielectric constant tensor:
#      x y z
#    x 2.114500 0.000000 0.130270 
#    y 0.000000 1.920880 0.000000 
#    z 0.130270 0.000000 1.917870 
# 
# From -- ./inp_files/36511.got.cif
#   From: 2010.05.17/outbox.cif.g08.bks.cpg/sg14_19_cif.got.tgz:36511.got - 2010.06.03 17:49:19.
