data_PCOD9249929
_publ_section_title
;
Structure prediction by ZEFSAII (Michael W. Deem and Ramdas Pophale) SiO2 
 PCOD9249929
Probable space group: P 21/C
;
_chemical_formula_sum "Si O2"
_cell_formula_units_Z 20
_cell_length_a 15.909940
_cell_length_b 7.322988
_cell_length_c 10.356723
_cell_angle_alpha 90.000000
_cell_angle_beta 45.074095
_cell_angle_gamma 90.000000
_cell_volume 854.328967
_symmetry_space_group_name_H-M "P 21/C"
_symmetry_group_IT_number 14
_symmetry_cell_setting 'monoclinic'
loop_
_space_group_symop_operation_xyz
x,y,z
-x,1/2+y,1/2-z
-x,-y,-z
x,1/2-y,1/2+z
loop_
_atom_site_type_symbol
_atom_site_label
_atom_site_fract_x
_atom_site_fract_y
_atom_site_fract_z
Si Si1 0.980966 0.151234 0.128027
Si Si2 0.509957 0.781324 0.957828
Si Si3 0.661069 0.731730 0.535628
Si Si4 0.259791 0.857294 0.179779
Si Si5 0.851964 0.553945 0.965340
O O1 0.858635 0.258773 0.237867
O O2 0.092212 0.284879 0.011146
O O3 0.961649 0.056968 0.287509
O O4 0.000000 0.000000 0.000000
O O5 0.590989 0.739006 0.746803
O O6 0.572300 0.705471 0.018327
O O7 0.375156 0.730594 0.069820
O O8 0.500000 0.000000 0.000000
O O9 0.706279 0.529049 0.448269
O O10 0.773986 0.861201 0.435419
O O11 0.229468 0.933525 0.354739
#
# Coordination Sequence:
#
# PCOD9249929 Si02
#       5
#     4   4   4   4   4
#     4  12  27  46  73 106 143 194 245 308 374 432
#     4  10  23  44  71 111 148 186 241 302 368 437
#     4  11  22  46  76 105 149 191 243 307 361 444
#     4  11  25  46  73 105 149 193 244 300 370 441
#     4  12  24  47  71 105 147 186 254 302 364 442
#
# _framework density 23.410185999999999
#
# number of rings (size 3 to 8) (size 9 to 14) (size 15 to 20)
#    0.000    0.800    4.000    4.200    2.800    0.000 
#    3.600    5.000    0.000    0.000    0.000    0.000 
#    0.000    0.000    0.000    0.000    0.000    0.000 
#
# Total GULP energy -112003.647840 kJ/mol
# GULP energy per Si atom -5600.182392 kJ/mol
# Density = 2.335690 g / cm^3
# Si number density = 23.410186 Si / 1000 Ang^3
#
#
#
# Elastic Constant Matrix: (Units=GPa)
#
#
# Indices 1 2 3 4 5 6 
#
# 1 74.1127 1.8204 5.3610 0.0000 6.9206 0.0000
# 2 1.8204 61.0452 23.5208 0.0000 8.3196 0.0000
# 3 5.3610 23.5208 115.7037 0.0000 12.5870 0.0000
# 4 0.0000 0.0000 0.0000 46.9502 0.0000 -5.4146
# 5 6.9206 8.3196 12.5870 0.0000 40.0843 0.0000
# 6 0.0000 0.0000 0.0000 -5.4146 0.0000 36.9537
#
#
#
# Elastic Compliance Matrix: (Units=1/GPa)
#
#
# Indices 1 2 3 4 5 6 
#
# 1 0.013731 0.000053 -0.000402 0.000000 -0.002256 0.000000
# 2 0.000053 0.018049 -0.003378 0.000000 -0.002694 0.000000
# 3 -0.000402 -0.003378 0.009592 0.000000 -0.002242 0.000000
# 4 0.000000 0.000000 0.000000 0.021665 0.000000 0.003174
# 5 -0.002256 -0.002694 -0.002242 0.000000 0.026600 0.000000
# 6 0.000000 0.000000 0.000000 0.003174 0.000000 0.027526
#
#
# Mechanical properties :
#
#
# Convention : Reuss Voigt Hill
#
# Bulk Modulus (GPa) = 29.48338 34.69622 32.08980
# Shear Modulus (GPa) = 36.78541 39.47493 38.13017
#
# Velocity S-wave (km/s) = 3.96832 4.11083 4.04020
# Velocity P-wave (km/s) = 5.79813 6.11433 5.95833
#
# Compressibility (1/GPa) = 0.03391741
#
# Stress axis : x y z
#
# Youngs Moduli (GPa) = 72.82611 55.40595 104.25379
#
# Poissons Ratio (x) = -0.00292 0.04186
# Poissons Ratio (y) = -0.00383 0.35220
# Poissons Ratio (z) = 0.02924 0.18718
#
# Static dielectric constant tensor:
#      x y z
#    x 1.901940 0.000000 -0.010270 
#    y 0.000000 1.962700 0.000000 
#    z -0.010270 0.000000 1.821840 
# 
# From -- ./inp_files/31295.got.cif
#   From: 2010.05.17/outbox.cif.g08.bks.cpg/sg14_16_cif.got.tgz:31295.got - 2010.06.03 17:49:19.
