data_PCOD9249597
_publ_section_title
;
Structure prediction by ZEFSAII (Michael W. Deem and Ramdas Pophale) SiO2 
 PCOD9249597
Probable space group: P 21/C
;
_chemical_formula_sum "Si O2"
_cell_formula_units_Z 28
_cell_length_a 12.523706
_cell_length_b 8.471098
_cell_length_c 12.571737
_cell_angle_alpha 90.000000
_cell_angle_beta 52.292251
_cell_angle_gamma 90.000000
_cell_volume 1055.168092
_symmetry_space_group_name_H-M "P 21/C"
_symmetry_group_IT_number 14
_symmetry_cell_setting 'monoclinic'
loop_
_space_group_symop_operation_xyz
x,y,z
-x,1/2+y,1/2-z
-x,-y,-z
x,1/2-y,1/2+z
loop_
_atom_site_type_symbol
_atom_site_label
_atom_site_fract_x
_atom_site_fract_y
_atom_site_fract_z
Si Si1 0.802746 0.443100 0.569138
Si Si2 0.631894 0.476471 0.493033
Si Si3 0.756545 0.775701 0.686220
Si Si4 0.384257 0.179668 0.542586
Si Si5 0.303866 0.658896 0.153962
Si Si6 0.906287 0.530948 0.952175
Si Si7 0.004176 0.227123 0.799656
O O1 0.659940 0.418097 0.595217
O O2 0.810715 0.623763 0.594555
O O3 0.793394 0.352068 0.685608
O O4 0.926829 0.403203 0.417096
O O5 0.500000 0.500000 0.500000
O O6 0.670491 0.662356 0.480241
O O7 0.712077 0.335392 0.383845
O O8 0.618231 0.732592 0.829805
O O9 0.768396 0.917744 0.596454
O O10 0.861533 0.785730 0.720893
O O11 0.536510 0.155870 0.411808
O O12 0.304646 0.013126 0.592604
O O13 0.907056 0.376323 0.877983
O O14 0.962986 0.664151 0.837184
O O15 0.000000 0.500000 0.000000
#
# Coordination Sequence:
#
# PCOD9249597 Si02
#       7
#     4   4   4   4   4   4   4
#     4  11  24  42  71  98 137 181 231 287 354 417
#     4  10  23  44  66  97 135 177 229 290 341 410
#     4  10  23  42  68 102 135 183 233 279 358 421
#     4   9  20  42  71  91 140 171 225 291 337 413
#     4   9  21  45  64 104 132 173 232 287 349 413
#     4  10  24  42  66 100 142 186 233 284 354 422
#     4  11  24  41  67 100 142 181 229 293 339 432
#
# _framework density 26.536058000000001
#
# number of rings (size 3 to 8) (size 9 to 14) (size 15 to 20)
#    0.000    2.000    0.000    1.286    8.000    4.571 
#   25.714    0.000    0.000    0.000    0.000    0.000 
#    0.000    0.000    0.000    0.000    0.000    0.000 
#
# Total GULP energy -156067.570372 kJ/mol
# GULP energy per Si atom -5573.841799 kJ/mol
# Density = 2.647566 g / cm^3
# Si number density = 26.536058 Si / 1000 Ang^3
#
#
#
# Elastic Constant Matrix: (Units=GPa)
#
#
# Indices 1 2 3 4 5 6 
#
# 1 68.5372 9.1403 8.5736 0.0000 8.8286 0.0000
# 2 9.1403 132.3281 20.2219 0.0000 20.9531 0.0000
# 3 8.5736 20.2219 122.4399 0.0000 5.2326 0.0000
# 4 0.0000 0.0000 0.0000 54.6962 0.0000 2.3181
# 5 8.8286 20.9531 5.2326 0.0000 28.7086 0.0000
# 6 0.0000 0.0000 0.0000 2.3181 0.0000 32.0918
#
#
#
# Elastic Compliance Matrix: (Units=1/GPa)
#
#
# Indices 1 2 3 4 5 6 
#
# 1 0.015291 -0.000234 -0.000845 0.000000 -0.004378 0.000000
# 2 -0.000234 0.008713 -0.001163 0.000000 -0.006075 0.000000
# 3 -0.000845 -0.001163 0.008437 0.000000 -0.000429 0.000000
# 4 0.000000 0.000000 0.000000 0.018339 0.000000 -0.001325
# 5 -0.004378 -0.006075 -0.000429 0.000000 0.040691 0.000000
# 6 0.000000 0.000000 0.000000 -0.001325 0.000000 0.031256
#
#
# Mechanical properties :
#
#
# Convention : Reuss Voigt Hill
#
# Bulk Modulus (GPa) = 35.76888 44.35299 40.06094
# Shear Modulus (GPa) = 36.62183 42.12392 39.37287
#
# Velocity S-wave (km/s) = 3.71897 3.98857 3.85613
# Velocity P-wave (km/s) = 5.65240 6.16134 5.91235
#
# Compressibility (1/GPa) = 0.02795726
#
# Stress axis : x y z
#
# Youngs Moduli (GPa) = 65.39605 114.77349 118.52752
#
# Poissons Ratio (x) = 0.02685 0.10016
# Poissons Ratio (y) = 0.01530 0.13785
# Poissons Ratio (z) = 0.05526 0.13348
#
# Static dielectric constant tensor:
#      x y z
#    x 2.249290 0.000000 -0.042540 
#    y 0.000000 2.129510 0.000000 
#    z -0.042540 0.000000 2.053360 
# 
# From -- ./inp_files/31475.got.cif
#   From: 2010.05.17/outbox.cif.g08.bks.cpg/sg14_16_cif.got.tgz:31475.got - 2010.06.03 17:49:19.
