data_PCOD9249188
_publ_section_title
;
Structure prediction by ZEFSAII (Michael W. Deem and Ramdas Pophale) SiO2 
 PCOD9249188
Probable space group: P 21/C
;
_chemical_formula_sum "Si O2"
_cell_formula_units_Z 30
_cell_length_a 13.514557
_cell_length_b 7.745588
_cell_length_c 19.262384
_cell_angle_alpha 90.000000
_cell_angle_beta 34.186679
_cell_angle_gamma 90.000000
_cell_volume 1132.969904
_symmetry_space_group_name_H-M "P 21/C"
_symmetry_group_IT_number 14
_symmetry_cell_setting 'monoclinic'
loop_
_space_group_symop_operation_xyz
x,y,z
-x,1/2+y,1/2-z
-x,-y,-z
x,1/2-y,1/2+z
loop_
_atom_site_type_symbol
_atom_site_label
_atom_site_fract_x
_atom_site_fract_y
_atom_site_fract_z
Si Si1 0.912054 0.216386 0.982140
Si Si2 0.896254 0.728258 0.266608
Si Si3 0.768001 0.131760 0.352545
Si Si4 0.369616 0.239911 0.954365
Si Si5 0.000000 0.000000 0.500000
Si Si6 0.560605 0.596532 0.873010
Si Si7 0.757543 0.857863 0.120350
Si Si8 0.283956 0.943812 0.215618
O O1 0.991415 0.170744 0.860771
O O2 0.062194 0.235844 0.957873
O O3 0.875565 0.418175 0.003482
O O4 0.798077 0.059406 0.078378
O O5 0.794154 0.756142 0.399083
O O6 0.756302 0.614186 0.304652
O O7 0.059253 0.611852 0.202561
O O8 0.705596 0.959225 0.347265
O O9 0.791107 0.281453 0.283546
O O10 0.602523 0.187686 0.495817
O O11 0.482938 0.410989 0.897838
O O12 0.313300 0.218368 0.908367
O O13 0.509339 0.088916 0.892011
O O14 0.169874 0.957818 0.350408
O O15 0.635559 0.665760 0.757938
#
# Coordination Sequence:
#
# PCOD9249188 Si02
#       8
#     4   4   4   4   2   4   4   4
#     4  10  25  44  71 109 138 190 245 304 368 450
#     4  11  26  42  72 102 143 188 237 298 371 444
#     4  10  24  42  74 103 136 187 247 294 369 447
#     4  11  26  44  68 104 146 189 240 302 376 444
#     4  10  22  48  70  96 148 184 232 304 382 430
#     4  10  25  46  68 101 145 184 241 313 365 434
#     4  11  26  44  74 103 146 192 250 307 372 457
#     4  10  24  45  68 103 141 185 237 305 362 446
#
# _framework density 26.479078999999999
#
# number of rings (size 3 to 8) (size 9 to 14) (size 15 to 20)
#    0.000    1.600    0.000    2.000   14.933    6.400 
#    0.000    0.000    0.000    0.000    0.000    0.000 
#    0.000    0.000    0.000    0.000    0.000    0.000 
#
# Total GULP energy -167493.891760 kJ/mol
# GULP energy per Si atom -5583.129725 kJ/mol
# Density = 2.641881 g / cm^3
# Si number density = 26.479079 Si / 1000 Ang^3
#
#
#
# Elastic Constant Matrix: (Units=GPa)
#
#
# Indices 1 2 3 4 5 6 
#
# 1 90.2703 -30.1469 47.9240 0.0000 66.3331 0.0000
# 2 -30.1469 45.0295 22.4868 0.0000 27.8727 0.0000
# 3 47.9240 22.4868 179.6666 0.0000 53.4335 0.0000
# 4 0.0000 0.0000 0.0000 43.7701 0.0000 18.2773
# 5 66.3331 27.8727 53.4335 0.0000 18.6465 0.0000
# 6 0.0000 0.0000 0.0000 18.2773 0.0000 12.5273
#
#
#
# Elastic Compliance Matrix: (Units=1/GPa)
#
#
# Indices 1 2 3 4 5 6 
#
# 1 0.001487 -0.005379 -0.003666 0.000000 0.013256 0.000000
# 2 -0.005379 0.011174 -0.004650 0.000000 0.015759 0.000000
# 3 -0.003666 -0.004650 0.007987 0.000000 -0.002895 0.000000
# 4 0.000000 0.000000 0.000000 0.058468 0.000000 -0.085305
# 5 0.013256 0.015759 -0.002895 0.000000 -0.008786 0.000000
# 6 0.000000 0.000000 0.000000 -0.085305 0.000000 0.204287
#
#
# Mechanical properties :
#
#
# Convention : Reuss Voigt Hill
#
# Bulk Modulus (GPa) = -148.31599 43.94380 -52.18610
# Shear Modulus (GPa) = 16.68000 33.30226 24.99113
#
# Velocity S-wave (km/s) = 2.51257 3.55023 3.07548
# Velocity P-wave (km/s) = 6.90773 5.78249 2.67204
#
# Compressibility (1/GPa) = -0.00674236
#
# Stress axis : x y z
#
# Youngs Moduli (GPa) = 672.56641 89.49049 125.20766
#
# Poissons Ratio (x) = 0.48138 0.45897
# Poissons Ratio (y) = 3.61782 0.58226
# Poissons Ratio (z) = 2.46539 0.41617
#
# Static dielectric constant tensor:
#      x y z
#    x 2.114200 0.000000 -0.098880 
#    y 0.000000 0.302650 0.000000 
#    z -0.098880 0.000000 1.959260 
# 
# From -- ./inp_files/68324.got.cif
#   From: 2010.05.17/outbox.cif.g08.bks.cpg/sg14_35_cif.got.tgz:68324.got - 2010.06.03 17:49:19.
