data_PCOD9249403
_publ_section_title
;
Structure prediction by ZEFSAII (Michael W. Deem and Ramdas Pophale) SiO2 
 PCOD9249403
Probable space group: P 21/C
;
_chemical_formula_sum "Si O2"
_cell_formula_units_Z 28
_cell_length_a 24.047654
_cell_length_b 9.288313
_cell_length_c 10.866262
_cell_angle_alpha 90.000000
_cell_angle_beta 152.158168
_cell_angle_gamma 90.000000
_cell_volume 1133.539599
_symmetry_space_group_name_H-M "P 21/C"
_symmetry_group_IT_number 14
_symmetry_cell_setting 'monoclinic'
loop_
_space_group_symop_operation_xyz
x,y,z
-x,1/2+y,1/2-z
-x,-y,-z
x,1/2-y,1/2+z
loop_
_atom_site_type_symbol
_atom_site_label
_atom_site_fract_x
_atom_site_fract_y
_atom_site_fract_z
Si Si1 0.329578 0.173827 0.436028
Si Si2 0.800296 0.136340 0.224423
Si Si3 0.895548 0.852696 0.461152
Si Si4 0.937239 0.640913 0.317028
Si Si5 0.370358 0.502362 0.805829
Si Si6 0.248639 0.940899 0.463177
Si Si7 0.396810 0.802675 0.955905
O O1 0.243587 0.305054 0.299511
O O2 0.336482 0.145020 0.304478
O O3 0.270346 0.036805 0.386222
O O4 0.465861 0.173733 0.745406
O O5 0.701286 0.147155 0.137861
O O6 0.903178 0.025225 0.462653
O O7 0.733927 0.053779 0.985171
O O8 0.824938 0.297764 0.222650
O O9 0.939351 0.765403 0.426025
O O10 0.957079 0.815054 0.712923
O O11 0.000000 0.500000 0.500000
O O12 0.807664 0.560374 0.057233
O O13 0.382869 0.631744 0.926076
O O14 0.500000 0.500000 0.000000
O O15 0.360844 0.872005 0.754328
#
# Coordination Sequence:
#
# PCOD9249403 Si02
#       7
#     4   4   4   4   4   4   4
#     4  11  22  37  61  94 138 183 227 278 340 403
#     4  11  21  39  62  93 134 176 228 274 337 402
#     4  11  25  46  73 106 139 180 230 296 347 430
#     4  11  26  51  75 103 137 179 233 296 366 413
#     4  11  21  34  52  87 128 179 232 272 323 397
#     4  10  23  41  63  94 133 179 231 283 335 418
#     4  11  21  35  60  89 134 184 229 271 331 406
#
# _framework density 24.701387
#
# number of rings (size 3 to 8) (size 9 to 14) (size 15 to 20)
#    0.000    1.143    4.286    2.143    0.000    2.286 
#    0.000    1.429    0.000    0.000    0.000    0.000 
#    0.000    0.000    0.000    0.000    0.000    0.000 
#
# Total GULP energy -156381.576915 kJ/mol
# GULP energy per Si atom -5585.056318 kJ/mol
# Density = 2.464517 g / cm^3
# Si number density = 24.701387 Si / 1000 Ang^3
#
#
#
# Elastic Constant Matrix: (Units=GPa)
#
#
# Indices 1 2 3 4 5 6 
#
# 1 69.5517 47.4291 12.5284 0.0000 -15.2376 0.0000
# 2 47.4291 154.5706 35.8775 0.0000 -13.0671 0.0000
# 3 12.5284 35.8775 51.6777 0.0000 -22.6017 0.0000
# 4 0.0000 0.0000 0.0000 22.1231 0.0000 -6.0134
# 5 -15.2376 -13.0671 -22.6017 0.0000 27.0563 0.0000
# 6 0.0000 0.0000 0.0000 -6.0134 0.0000 42.3670
#
#
#
# Elastic Compliance Matrix: (Units=1/GPa)
#
#
# Indices 1 2 3 4 5 6 
#
# 1 0.020639 -0.006422 0.005014 0.000000 0.012710 0.000000
# 2 -0.006422 0.009735 -0.007448 0.000000 -0.005137 0.000000
# 3 0.005014 -0.007448 0.036190 0.000000 0.029458 0.000000
# 4 0.000000 0.000000 0.000000 0.047015 0.000000 0.006673
# 5 0.012710 -0.005137 0.029458 0.000000 0.066245 0.000000
# 6 0.000000 0.000000 0.000000 0.006673 0.000000 0.024550
#
#
# Mechanical properties :
#
#
# Convention : Reuss Voigt Hill
#
# Bulk Modulus (GPa) = 20.47070 51.94111 36.20590
# Shear Modulus (GPa) = 20.97579 30.30696 25.64138
#
# Velocity S-wave (km/s) = 2.91722 3.50656 3.22538
# Velocity P-wave (km/s) = 4.43308 6.12110 5.34416
#
# Compressibility (1/GPa) = 0.04885030
#
# Stress axis : x y z
#
# Youngs Moduli (GPa) = 48.45285 102.72582 27.63212
#
# Poissons Ratio (x) = 0.65972 -0.13855
# Poissons Ratio (y) = 0.31117 0.20581
# Poissons Ratio (z) = -0.24294 0.76513
#
# Static dielectric constant tensor:
#      x y z
#    x 2.307860 0.000000 0.129840 
#    y 0.000000 1.951870 0.000000 
#    z 0.129840 0.000000 2.023790 
# 
# From -- ./inp_files/36179.got.cif
#   From: 2010.05.17/outbox.cif.g08.bks.cpg/sg14_19_cif.got.tgz:36179.got - 2010.06.03 17:49:19.
