data_PCOD9249196
_publ_section_title
;
Structure prediction by ZEFSAII (Michael W. Deem and Ramdas Pophale) SiO2 
 PCOD9249196
Probable space group: P 21/C
;
_chemical_formula_sum "Si O2"
_cell_formula_units_Z 32
_cell_length_a 7.154729
_cell_length_b 18.675543
_cell_length_c 8.567197
_cell_angle_alpha 90.000000
_cell_angle_beta 101.848665
_cell_angle_gamma 90.000000
_cell_volume 1120.345089
_symmetry_space_group_name_H-M "P 21/C"
_symmetry_group_IT_number 14
_symmetry_cell_setting 'monoclinic'
loop_
_space_group_symop_operation_xyz
x,y,z
-x,1/2+y,1/2-z
-x,-y,-z
x,1/2-y,1/2+z
loop_
_atom_site_type_symbol
_atom_site_label
_atom_site_fract_x
_atom_site_fract_y
_atom_site_fract_z
Si Si1 0.480252 0.794189 0.827021
Si Si2 0.741987 0.968791 0.885565
Si Si3 0.851281 0.396887 0.990000
Si Si4 0.900096 0.240242 0.829877
Si Si5 0.099654 0.013806 0.768974
Si Si6 0.751327 0.813196 0.327189
Si Si7 0.374428 0.870976 0.087254
Si Si8 0.431949 0.382256 0.931458
O O1 0.286739 0.749510 0.812460
O O2 0.679961 0.758821 0.905586
O O3 0.510365 0.810468 0.650921
O O4 0.429925 0.864034 0.915934
O O5 0.237936 0.048565 0.924333
O O6 0.659542 0.048297 0.875009
O O7 0.955137 0.969593 0.852162
O O8 0.638505 0.929488 0.724304
O O9 0.906453 0.318000 0.923515
O O10 0.838557 0.456282 0.850488
O O11 0.639719 0.402820 0.029232
O O12 0.272014 0.371049 0.033739
O O13 0.820970 0.174370 0.919476
O O14 0.080342 0.215498 0.756872
O O15 0.990360 0.075393 0.651921
O O16 0.557165 0.835758 0.202836
#
# Coordination Sequence:
#
# PCOD9249196 Si02
#       8
#     4   4   4   4   4   4   4   4
#     4  10  23  46  76 113 160 202 270 349 429 501
#     4  11  25  49  75 114 173 224 279 351 417 518
#     4  10  22  48  84 123 163 214 284 365 430 515
#     4  10  24  47  82 119 162 213 275 358 432 498
#     4  10  24  47  77 119 163 217 285 347 436 517
#     4  11  24  47  78 122 157 212 280 352 414 512
#     4  11  25  48  76 115 161 219 279 346 422 496
#     4  11  25  48  80 115 163 220 277 345 426 501
#
# _framework density 28.562626000000002
#
# number of rings (size 3 to 8) (size 9 to 14) (size 15 to 20)
#    0.000    1.500    0.000    4.500    1.750    7.000 
#   15.750    0.000    8.250    0.000    0.000    0.000 
#    0.000    0.000    0.000    0.000    0.000    0.000 
#
# Total GULP energy -178798.970446 kJ/mol
# GULP energy per Si atom -5587.467826 kJ/mol
# Density = 2.849762 g / cm^3
# Si number density = 28.562626 Si / 1000 Ang^3
#
#
#
# Elastic Constant Matrix: (Units=GPa)
#
#
# Indices 1 2 3 4 5 6 
#
# 1 183.1299 76.9260 93.0449 0.0000 -26.9312 0.0000
# 2 76.9260 104.2796 68.5653 0.0000 18.7254 0.0000
# 3 93.0449 68.5653 189.4135 0.0000 -2.1546 0.0000
# 4 0.0000 0.0000 0.0000 56.4000 0.0000 1.0909
# 5 -26.9312 18.7254 -2.1546 0.0000 45.3898 0.0000
# 6 0.0000 0.0000 0.0000 1.0909 0.0000 45.3132
#
#
#
# Elastic Compliance Matrix: (Units=1/GPa)
#
#
# Indices 1 2 3 4 5 6 
#
# 1 0.012334 -0.009435 -0.002517 0.000000 0.011091 0.000000
# 2 -0.009435 0.021288 -0.003236 0.000000 -0.014534 0.000000
# 3 -0.002517 -0.003236 0.007690 0.000000 0.000207 0.000000
# 4 0.000000 0.000000 0.000000 0.017739 0.000000 -0.000427
# 5 0.011091 -0.014534 0.000207 0.000000 0.034618 0.000000
# 6 0.000000 0.000000 0.000000 -0.000427 0.000000 0.022079
#
#
# Mechanical properties :
#
#
# Convention : Reuss Voigt Hill
#
# Bulk Modulus (GPa) = 91.45810 105.98839 98.72324
# Shear Modulus (GPa) = 33.38472 45.30639 39.34555
#
# Velocity S-wave (km/s) = 3.42252 3.98705 3.71552
# Velocity P-wave (km/s) = 6.90709 7.64090 7.28324
#
# Compressibility (1/GPa) = 0.01093397
#
# Stress axis : x y z
#
# Youngs Moduli (GPa) = 81.07687 46.97557 130.04155
#
# Poissons Ratio (x) = 0.44322 0.32734
# Poissons Ratio (y) = 0.76497 0.42086
# Poissons Ratio (z) = 0.20409 0.15203
#
# Static dielectric constant tensor:
#      x y z
#    x 2.396200 0.000000 0.154790 
#    y 0.000000 2.453860 0.000000 
#    z 0.154790 0.000000 2.220870 
# 
# From -- ./inp_files/38010.got.cif
#   From: 2010.05.17/outbox.cif.g08.bks.cpg/sg14_20_cif.got.tgz:38010.got - 2010.06.03 17:49:19.
