data_PCOD9249944
_publ_section_title
;
Structure prediction by ZEFSAII (Michael W. Deem and Ramdas Pophale) SiO2 
 PCOD9249944
Probable space group: P 21/C
;
_chemical_formula_sum "Si O2"
_cell_formula_units_Z 20
_cell_length_a 21.314838
_cell_length_b 8.376480
_cell_length_c 9.157763
_cell_angle_alpha 90.000000
_cell_angle_beta 31.185896
_cell_angle_gamma 90.000000
_cell_volume 846.659573
_symmetry_space_group_name_H-M "P 21/C"
_symmetry_group_IT_number 14
_symmetry_cell_setting 'monoclinic'
loop_
_space_group_symop_operation_xyz
x,y,z
-x,1/2+y,1/2-z
-x,-y,-z
x,1/2-y,1/2+z
loop_
_atom_site_type_symbol
_atom_site_label
_atom_site_fract_x
_atom_site_fract_y
_atom_site_fract_z
Si Si1 0.423758 0.111459 0.759349
Si Si2 0.989284 0.744901 0.772295
Si Si3 0.842475 0.296895 0.817079
Si Si4 0.411309 0.590623 0.568276
Si Si5 0.833187 0.588180 0.333106
O O1 0.513320 0.252592 0.627444
O O2 0.500000 0.000000 0.500000
O O3 0.300993 0.159673 0.920179
O O4 0.384190 0.012156 0.979474
O O5 0.901356 0.838075 0.836816
O O6 0.069304 0.847035 0.726946
O O7 0.090686 0.664423 0.466760
O O8 0.910566 0.635672 0.036581
O O9 0.828271 0.103627 0.852333
O O10 0.711354 0.368600 0.102943
O O11 0.500000 0.500000 0.500000
#
# Coordination Sequence:
#
# PCOD9249944 Si02
#       5
#     4   4   4   4   4
#     4  12  27  50  77 110 155 198 259 313 377 456
#     4  10  23  44  74 113 147 201 250 309 385 447
#     4  11  24  49  75 109 155 195 251 315 383 454
#     4  12  29  49  79 113 148 208 253 315 387 448
#     4  11  25  47  74 109 156 198 253 320 376 455
#
# _framework density 23.622247000000002
#
# number of rings (size 3 to 8) (size 9 to 14) (size 15 to 20)
#    0.000    0.800    2.000    4.800    8.400    0.000 
#    3.600    9.000    0.000    0.000    0.000    0.000 
#    0.000    0.000    0.000    0.000    0.000    0.000 
#
# Total GULP energy -112141.211535 kJ/mol
# GULP energy per Si atom -5607.060577 kJ/mol
# Density = 2.356848 g / cm^3
# Si number density = 23.622247 Si / 1000 Ang^3
#
#
#
# Elastic Constant Matrix: (Units=GPa)
#
#
# Indices 1 2 3 4 5 6 
#
# 1 121.5356 21.3116 58.5608 0.0000 2.4819 0.0000
# 2 21.3116 67.9850 21.7871 0.0000 4.8217 0.0000
# 3 58.5608 21.7871 146.8824 0.0000 -9.3399 0.0000
# 4 0.0000 0.0000 0.0000 42.4843 0.0000 -5.0939
# 5 2.4819 4.8217 -9.3399 0.0000 53.2263 0.0000
# 6 0.0000 0.0000 0.0000 -5.0939 0.0000 37.4017
#
#
#
# Elastic Compliance Matrix: (Units=1/GPa)
#
#
# Indices 1 2 3 4 5 6 
#
# 1 0.010499 -0.001950 -0.003961 0.000000 -0.001008 0.000000
# 2 -0.001950 0.015982 -0.001698 0.000000 -0.001655 0.000000
# 3 -0.003961 -0.001698 0.008758 0.000000 0.001875 0.000000
# 4 0.000000 0.000000 0.000000 0.023929 0.000000 0.003259
# 5 -0.001008 -0.001655 0.001875 0.000000 0.019314 0.000000
# 6 0.000000 0.000000 0.000000 0.003259 0.000000 0.027181
#
#
# Mechanical properties :
#
#
# Convention : Reuss Voigt Hill
#
# Bulk Modulus (GPa) = 49.94777 59.96911 54.95844
# Shear Modulus (GPa) = 39.19877 42.27205 40.73541
#
# Velocity S-wave (km/s) = 4.07799 4.23484 4.15716
# Velocity P-wave (km/s) = 6.58511 7.02521 6.80872
#
# Compressibility (1/GPa) = 0.02002091
#
# Stress axis : x y z
#
# Youngs Moduli (GPa) = 95.24674 62.56983 114.17604
#
# Poissons Ratio (x) = 0.12204 0.45221
# Poissons Ratio (y) = 0.18577 0.19390
# Poissons Ratio (z) = 0.37724 0.10626
#
# Static dielectric constant tensor:
#      x y z
#    x 1.888420 0.000000 -0.024500 
#    y 0.000000 1.968270 0.000000 
#    z -0.024500 0.000000 1.842060 
# 
# From -- ./inp_files/19346.got.cif
#   From: 2010.05.17/outbox.cif.g08.bks.cpg/sg14_10_cif.got.tgz:19346.got - 2010.06.03 17:49:19.
