data_PCOD9249713
_publ_section_title
;
Structure prediction by ZEFSAII (Michael W. Deem and Ramdas Pophale) SiO2 
 PCOD9249713
Probable space group: P 21/C
;
_chemical_formula_sum "Si O2"
_cell_formula_units_Z 32
_cell_length_a 8.361122
_cell_length_b 34.239845
_cell_length_c 4.921480
_cell_angle_alpha 90.000000
_cell_angle_beta 87.846031
_cell_angle_gamma 90.000000
_cell_volume 1407.943117
_symmetry_space_group_name_H-M "P 21/C"
_symmetry_group_IT_number 14
_symmetry_cell_setting 'monoclinic'
loop_
_space_group_symop_operation_xyz
x,y,z
-x,1/2+y,1/2-z
-x,-y,-z
x,1/2-y,1/2+z
loop_
_atom_site_type_symbol
_atom_site_label
_atom_site_fract_x
_atom_site_fract_y
_atom_site_fract_z
Si Si1 0.966401 0.579666 0.794581
Si Si2 0.038637 0.274892 0.529542
Si Si3 0.527508 0.431514 0.905800
Si Si4 0.718092 0.452978 0.394064
Si Si5 0.184768 0.040461 0.211835
Si Si6 0.452433 0.347930 0.730533
Si Si7 0.767180 0.844753 0.249809
Si Si8 0.339636 0.724035 0.490737
O O1 0.858284 0.558135 0.576437
O O2 0.894097 0.622647 0.833148
O O3 0.146901 0.579128 0.675018
O O4 0.950667 0.555588 0.073463
O O5 0.069193 0.262823 0.836803
O O6 0.145046 0.309183 0.403850
O O7 0.850176 0.284285 0.515149
O O8 0.653484 0.452877 0.702159
O O9 0.350106 0.443586 0.827480
O O10 0.543049 0.385364 0.847690
O O11 0.569032 0.443839 0.207273
O O12 0.797182 0.494274 0.317856
O O13 0.348975 0.361671 0.477195
O O14 0.562550 0.313224 0.613548
O O15 0.336916 0.333863 0.980933
O O16 0.375248 0.760582 0.289370
#
# Coordination Sequence:
#
# PCOD9249713 Si02
#       8
#     4   4   4   4   4   4   4   4
#     4  12  24  44  65  98 131 172 220 275 330 391
#     4  10  23  43  66  96 129 164 209 262 319 383
#     4  12  24  44  63 100 132 170 223 273 329 389
#     4  12  26  41  69  98 126 178 227 273 331 393
#     4  12  23  46  68  91 137 172 220 278 335 389
#     4  12  25  43  67  94 135 174 213 269 322 387
#     4  12  24  43  65  95 130 174 212 265 323 385
#     4  10  23  44  67  98 130 167 210 263 323 383
#
# _framework density 22.728187999999999
#
# number of rings (size 3 to 8) (size 9 to 14) (size 15 to 20)
#    0.000    0.500    2.500    6.000    1.750    3.000 
#    4.500    0.000    0.000    0.000    0.000    0.000 
#    0.000    0.000    0.000    0.000    0.000    0.000 
#
# Total GULP energy -179294.038391 kJ/mol
# GULP energy per Si atom -5602.938700 kJ/mol
# Density = 2.267646 g / cm^3
# Si number density = 22.728188 Si / 1000 Ang^3
#
#
#
# Elastic Constant Matrix: (Units=GPa)
#
#
# Indices 1 2 3 4 5 6 
#
# 1 32.1162 0.9052 18.0119 0.0000 -8.7266 0.0000
# 2 0.9052 50.0874 -3.4675 0.0000 0.7447 0.0000
# 3 18.0119 -3.4675 80.8960 0.0000 -14.1151 0.0000
# 4 0.0000 0.0000 0.0000 23.4662 0.0000 -12.2931
# 5 -8.7266 0.7447 -14.1151 0.0000 27.3863 0.0000
# 6 0.0000 0.0000 0.0000 -12.2931 0.0000 15.1427
#
#
#
# Elastic Compliance Matrix: (Units=1/GPa)
#
#
# Indices 1 2 3 4 5 6 
#
# 1 0.037319 -0.001277 -0.006904 0.000000 0.008368 0.000000
# 2 -0.001277 0.020069 0.001075 0.000000 -0.000399 0.000000
# 3 -0.006904 0.001075 0.014895 0.000000 0.005448 0.000000
# 4 0.000000 0.000000 0.000000 0.074149 0.000000 0.060195
# 5 0.008368 -0.000399 0.005448 0.000000 0.042000 0.000000
# 6 0.000000 0.000000 0.000000 0.060195 0.000000 0.114906
#
#
# Mechanical properties :
#
#
# Convention : Reuss Voigt Hill
#
# Bulk Modulus (GPa) = 17.22025 21.55543 19.38784
# Shear Modulus (GPa) = 14.84097 23.04238 18.94168
#
# Velocity S-wave (km/s) = 2.55811 3.18751 2.89000
# Velocity P-wave (km/s) = 4.03959 4.80121 4.43677
#
# Compressibility (1/GPa) = 0.05807116
#
# Stress axis : x y z
#
# Youngs Moduli (GPa) = 26.79631 49.82931 67.13484
#
# Poissons Ratio (x) = 0.06362 0.46349
# Poissons Ratio (y) = 0.03421 -0.07217
# Poissons Ratio (z) = 0.18500 -0.05356
#
# Static dielectric constant tensor:
#      x y z
#    x 1.836860 0.000000 0.004480 
#    y 0.000000 1.823010 0.000000 
#    z 0.004480 0.000000 1.797280 
# 
# From -- ./inp_files/2239.got.cif
#   From: 2010.05.17/outbox.cif.g08.bks.cpg/sg14_2_cif.got.tgz:2239.got - 2010.06.03 17:49:19.
