data_PCOD9249882
_publ_section_title
;
Structure prediction by ZEFSAII (Michael W. Deem and Ramdas Pophale) SiO2 
 PCOD9249882
Probable space group: P 21/C
;
_chemical_formula_sum "Si O2"
_cell_formula_units_Z 32
_cell_length_a 12.118759
_cell_length_b 8.694982
_cell_length_c 12.895302
_cell_angle_alpha 90.000000
_cell_angle_beta 103.101934
_cell_angle_gamma 90.000000
_cell_volume 1323.436728
_symmetry_space_group_name_H-M "P 21/C"
_symmetry_group_IT_number 14
_symmetry_cell_setting 'monoclinic'
loop_
_space_group_symop_operation_xyz
x,y,z
-x,1/2+y,1/2-z
-x,-y,-z
x,1/2-y,1/2+z
loop_
_atom_site_type_symbol
_atom_site_label
_atom_site_fract_x
_atom_site_fract_y
_atom_site_fract_z
Si Si1 0.232340 0.039458 0.485363
Si Si2 0.037039 0.990263 0.125576
Si Si3 0.648262 0.076175 0.962372
Si Si4 0.569213 0.356887 0.061171
Si Si5 0.189531 0.971982 0.814719
Si Si6 0.212381 0.197193 0.272303
Si Si7 0.823943 0.286070 0.874984
Si Si8 0.604329 0.737124 0.340630
O O1 0.186823 0.146775 0.384381
O O2 0.309156 0.149729 0.576197
O O3 0.304394 0.918219 0.429550
O O4 0.156860 0.928620 0.541754
O O5 0.069116 0.810835 0.142337
O O6 0.932920 0.063443 0.165154
O O7 0.147752 0.085115 0.180883
O O8 0.000000 0.000000 0.000000
O O9 0.561733 0.203443 0.988792
O O10 0.719291 0.012256 0.075439
O O11 0.738770 0.170648 0.913565
O O12 0.601045 0.931833 0.890431
O O13 0.516744 0.315769 0.161820
O O14 0.500000 0.500000 0.000000
O O15 0.168683 0.131406 0.752717
O O16 0.232896 0.853456 0.739703
O O17 0.343363 0.211938 0.262366
#
# Coordination Sequence:
#
# PCOD9249882 Si02
#       8
#     4   4   4   4   4   4   4   4
#     4  10  23  44  68 102 142 184 229 287 358 411
#     4  12  26  46  69 103 138 178 237 284 345 421
#     4  11  22  42  72  97 143 183 233 285 350 416
#     4   9  22  41  69 103 139 180 233 285 345 424
#     4  12  25  45  69 105 136 186 236 283 351 419
#     4  12  25  44  72  99 141 182 231 293 342 421
#     4  11  24  42  71  96 142 181 223 293 349 411
#     4  11  20  45  66 101 141 183 227 286 352 412
#
# _framework density 24.179470999999999
#
# number of rings (size 3 to 8) (size 9 to 14) (size 15 to 20)
#    0.000    1.000    5.000    1.125    3.500    1.000 
#    2.250    1.875    0.000    0.000    0.000    0.000 
#    0.000    0.000    0.000    0.000    0.000    0.000 
#
# Total GULP energy -178745.809424 kJ/mol
# GULP energy per Si atom -5585.806545 kJ/mol
# Density = 2.412444 g / cm^3
# Si number density = 24.179471 Si / 1000 Ang^3
#
#
#
# Elastic Constant Matrix: (Units=GPa)
#
#
# Indices 1 2 3 4 5 6 
#
# 1 53.4133 11.6395 17.2350 0.0000 -14.6425 0.0000
# 2 11.6395 108.1161 23.9797 0.0000 -2.5841 0.0000
# 3 17.2350 23.9797 76.5260 0.0000 -14.6650 0.0000
# 4 0.0000 0.0000 0.0000 43.1340 0.0000 -13.7912
# 5 -14.6425 -2.5841 -14.6650 0.0000 23.5776 0.0000
# 6 0.0000 0.0000 0.0000 -13.7912 0.0000 35.7247
#
#
#
# Elastic Compliance Matrix: (Units=1/GPa)
#
#
# Indices 1 2 3 4 5 6 
#
# 1 0.023362 -0.001707 -0.002250 0.000000 0.012922 0.000000
# 2 -0.001707 0.010084 -0.003141 0.000000 -0.001909 0.000000
# 3 -0.002250 -0.003141 0.016150 0.000000 0.008303 0.000000
# 4 0.000000 0.000000 0.000000 0.026448 0.000000 0.010210
# 5 0.012922 -0.001909 0.008303 0.000000 0.055393 0.000000
# 6 0.000000 0.000000 0.000000 0.010210 0.000000 0.031933
#
#
# Mechanical properties :
#
#
# Convention : Reuss Voigt Hill
#
# Bulk Modulus (GPa) = 28.24944 38.19599 33.22272
# Shear Modulus (GPa) = 26.40355 32.83400 29.61877
#
# Velocity S-wave (km/s) = 3.30810 3.68901 3.50373
# Velocity P-wave (km/s) = 5.12835 5.82891 5.48982
#
# Compressibility (1/GPa) = 0.03539893
#
# Stress axis : x y z
#
# Youngs Moduli (GPa) = 42.80365 99.16511 61.92039
#
# Poissons Ratio (x) = 0.16929 0.13934
# Poissons Ratio (y) = 0.07307 0.19451
# Poissons Ratio (z) = 0.09632 0.31150
#
# Static dielectric constant tensor:
#      x y z
#    x 2.001990 0.000000 -0.077080 
#    y 0.000000 1.932640 0.000000 
#    z -0.077080 0.000000 1.800300 
# 
# From -- ./inp_files/43736.got.cif
#   From: 2010.05.17/outbox.cif.g08.bks.cpg/sg14_22_cif.got.tgz:43736.got - 2010.06.03 17:49:19.
