data_PCOD9249823
_publ_section_title
;
Structure prediction by ZEFSAII (Michael W. Deem and Ramdas Pophale) SiO2 
 PCOD9249823
Probable space group: P 21/C
;
_chemical_formula_sum "Si O2"
_cell_formula_units_Z 20
_cell_length_a 14.320415
_cell_length_b 5.975172
_cell_length_c 19.292354
_cell_angle_alpha 90.000000
_cell_angle_beta 147.406257
_cell_angle_gamma 90.000000
_cell_volume 889.244334
_symmetry_space_group_name_H-M "P 21/C"
_symmetry_group_IT_number 14
_symmetry_cell_setting 'monoclinic'
loop_
_space_group_symop_operation_xyz
x,y,z
-x,1/2+y,1/2-z
-x,-y,-z
x,1/2-y,1/2+z
loop_
_atom_site_type_symbol
_atom_site_label
_atom_site_fract_x
_atom_site_fract_y
_atom_site_fract_z
Si Si1 0.733777 0.905858 0.816577
Si Si2 0.215627 0.336298 0.007140
Si Si3 0.419266 0.939521 0.522978
Si Si4 0.912865 0.200798 0.487849
Si Si5 0.940050 0.264406 0.238179
O O1 0.571247 0.851134 0.667676
O O2 0.914497 0.843446 0.891704
O O3 0.719194 0.785424 0.882770
O O4 0.767092 0.165035 0.855208
O O5 0.179382 0.594710 0.004086
O O6 0.028915 0.239035 0.869422
O O7 0.339087 0.351515 0.017493
O O8 0.262768 0.776445 0.404199
O O9 0.500000 0.000000 0.500000
O O10 0.000000 0.000000 0.500000
O O11 0.002467 0.513866 0.251440
#
# Coordination Sequence:
#
# PCOD9249823 Si02
#       5
#     4   4   4   4   4
#     4  10  23  43  75 102 142 185 257 305 367 447
#     4  10  24  44  74  99 141 198 247 296 376 458
#     4  11  27  44  68 112 149 188 246 319 377 436
#     4   9  21  42  72 103 134 186 249 301 366 438
#     4  10  25  49  72 104 148 198 242 303 385 448
#
# _framework density 22.491005000000001
#
# number of rings (size 3 to 8) (size 9 to 14) (size 15 to 20)
#    0.000    2.000    0.000    0.000   16.800    3.200 
#   10.800    5.000    0.000    0.000    0.000    0.000 
#    0.000    0.000    0.000    0.000    0.000    0.000 
#
# Total GULP energy -111345.024275 kJ/mol
# GULP energy per Si atom -5567.251214 kJ/mol
# Density = 2.243981 g / cm^3
# Si number density = 22.491005 Si / 1000 Ang^3
#
#
#
# Elastic Constant Matrix: (Units=GPa)
#
#
# Indices 1 2 3 4 5 6 
#
# 1 112.2959 35.6111 30.3829 0.0000 -23.3011 0.0000
# 2 35.6111 96.6107 26.0365 0.0000 -5.2000 0.0000
# 3 30.3829 26.0365 191.6599 0.0000 -32.9142 0.0000
# 4 0.0000 0.0000 0.0000 24.4381 0.0000 -12.4710
# 5 -23.3011 -5.2000 -32.9142 0.0000 28.4610 0.0000
# 6 0.0000 0.0000 0.0000 -12.4710 0.0000 17.3430
#
#
#
# Elastic Compliance Matrix: (Units=1/GPa)
#
#
# Indices 1 2 3 4 5 6 
#
# 1 0.012066 -0.004008 0.000253 0.000000 0.009438 0.000000
# 2 -0.004008 0.012078 -0.001485 0.000000 -0.002792 0.000000
# 3 0.000253 -0.001485 0.006699 0.000000 0.007682 0.000000
# 4 0.000000 0.000000 0.000000 0.064639 0.000000 0.046481
# 5 0.009438 -0.002792 0.007682 0.000000 0.051237 0.000000
# 6 0.000000 0.000000 0.000000 0.046481 0.000000 0.091084
#
#
# Mechanical properties :
#
#
# Convention : Reuss Voigt Hill
#
# Bulk Modulus (GPa) = 49.10962 64.95861 57.03412
# Shear Modulus (GPa) = 19.60245 34.61749 27.10997
#
# Velocity S-wave (km/s) = 2.95544 3.92748 3.47561
# Velocity P-wave (km/s) = 5.79040 7.03645 6.44361
#
# Compressibility (1/GPa) = 0.02036261
#
# Stress axis : x y z
#
# Youngs Moduli (GPa) = 82.87720 82.79538 149.28672
#
# Poissons Ratio (x) = 0.33181 -0.03770
# Poissons Ratio (y) = 0.33214 0.22167
# Poissons Ratio (z) = -0.02093 0.12294
#
# Static dielectric constant tensor:
#      x y z
#    x 1.912910 0.000000 0.011100 
#    y 0.000000 1.831400 0.000000 
#    z 0.011100 0.000000 1.849410 
# 
# From -- ./inp_files/67925.got.cif
#   From: 2010.05.17/outbox.cif.g08.bks.cpg/sg14_34_cif.got.tgz:67925.got - 2010.06.03 17:49:19.
