data_PCOD9249625
_publ_section_title
;
Structure prediction by ZEFSAII (Michael W. Deem and Ramdas Pophale) SiO2 
 PCOD9249625
Probable space group: P 21/C
;
_chemical_formula_sum "Si O2"
_cell_formula_units_Z 20
_cell_length_a 12.403883
_cell_length_b 7.509177
_cell_length_c 8.416449
_cell_angle_alpha 90.000000
_cell_angle_beta 69.096591
_cell_angle_gamma 90.000000
_cell_volume 732.336994
_symmetry_space_group_name_H-M "P 21/C"
_symmetry_group_IT_number 14
_symmetry_cell_setting 'monoclinic'
loop_
_space_group_symop_operation_xyz
x,y,z
-x,1/2+y,1/2-z
-x,-y,-z
x,1/2-y,1/2+z
loop_
_atom_site_type_symbol
_atom_site_label
_atom_site_fract_x
_atom_site_fract_y
_atom_site_fract_z
Si Si1 0.767566 0.561043 0.342603
Si Si2 0.109256 0.170599 0.525611
Si Si3 0.126374 0.827250 0.730330
Si Si4 0.642417 0.063086 0.313180
Si Si5 0.574034 0.054356 0.720835
O O1 0.785750 0.708227 0.466061
O O2 0.646108 0.563943 0.309798
O O3 0.808573 0.356782 0.354771
O O4 0.863244 0.632550 0.169059
O O5 0.990383 0.274266 0.620037
O O6 0.105146 0.975538 0.607984
O O7 0.221708 0.929152 0.785308
O O8 0.621072 0.035051 0.513820
O O9 0.597698 0.255822 0.284696
O O10 0.562699 0.951881 0.236922
#
# Coordination Sequence:
#
# PCOD9249625 Si02
#       5
#     4   4   4   4   4
#     4  11  26  45  68 104 139 184 236 282 350 412
#     4  12  25  44  72  99 142 186 232 286 344 412
#     4  11  24  44  69 102 141 182 231 287 340 412
#     4  10  23  42  69  97 134 176 222 285 341 406
#     4  10  23  45  68  98 136 176 229 285 344 409
#
# _framework density 27.309829000000001
#
# number of rings (size 3 to 8) (size 9 to 14) (size 15 to 20)
#    0.000    1.200    4.000    0.600    2.800    3.200 
#    3.600    0.000    0.000    0.000    0.000    0.000 
#    0.000    0.000    0.000    0.000    0.000    0.000 
#
# Total GULP energy -111959.983668 kJ/mol
# GULP energy per Si atom -5597.999183 kJ/mol
# Density = 2.724767 g / cm^3
# Si number density = 27.309829 Si / 1000 Ang^3
#
#
#
# Elastic Constant Matrix: (Units=GPa)
#
#
# Indices 1 2 3 4 5 6 
#
# 1 183.9952 42.0011 39.7907 0.0000 24.3917 0.0000
# 2 42.0011 112.7652 39.2511 0.0000 12.9555 0.0000
# 3 39.7907 39.2511 86.7202 0.0000 19.5459 0.0000
# 4 0.0000 0.0000 0.0000 26.7174 0.0000 7.9234
# 5 24.3917 12.9555 19.5459 0.0000 22.5928 0.0000
# 6 0.0000 0.0000 0.0000 7.9234 0.0000 43.4923
#
#
#
# Elastic Compliance Matrix: (Units=1/GPa)
#
#
# Indices 1 2 3 4 5 6 
#
# 1 0.006748 -0.001471 -0.001216 0.000000 -0.005390 0.000000
# 2 -0.001471 0.010951 -0.004005 0.000000 -0.001226 0.000000
# 3 -0.001216 -0.004005 0.016259 0.000000 -0.010457 0.000000
# 4 0.000000 0.000000 0.000000 0.039566 0.000000 -0.007208
# 5 -0.005390 -0.001226 -0.010457 0.000000 0.059831 0.000000
# 6 0.000000 0.000000 0.000000 -0.007208 0.000000 0.024306
#
#
# Mechanical properties :
#
#
# Convention : Reuss Voigt Hill
#
# Bulk Modulus (GPa) = 48.60445 69.50741 59.05593
# Shear Modulus (GPa) = 28.10519 36.05637 32.08078
#
# Velocity S-wave (km/s) = 3.21148 3.63750 3.43110
# Velocity P-wave (km/s) = 5.62028 6.56875 6.11294
#
# Compressibility (1/GPa) = 0.02057425
#
# Stress axis : x y z
#
# Youngs Moduli (GPa) = 148.18802 91.31659 61.50510
#
# Poissons Ratio (x) = 0.13433 0.07477
# Poissons Ratio (y) = 0.21799 0.24634
# Poissons Ratio (z) = 0.18014 0.36574
#
# Static dielectric constant tensor:
#      x y z
#    x 2.321650 0.000000 -0.003610 
#    y 0.000000 2.318730 0.000000 
#    z -0.003610 0.000000 2.127080 
# 
# From -- ./inp_files/11803.got.cif
#   From: 2010.05.17/outbox.cif.g08.bks.cpg/sg14_6_cif.got.tgz:11803.got - 2010.06.03 17:49:19.
