data_PCOD9249847
_publ_section_title
;
Structure prediction by ZEFSAII (Michael W. Deem and Ramdas Pophale) SiO2 
 PCOD9249847
Probable space group: P 21/C
;
_chemical_formula_sum "Si O2"
_cell_formula_units_Z 16
_cell_length_a 7.807164
_cell_length_b 8.586874
_cell_length_c 16.467982
_cell_angle_alpha 90.000000
_cell_angle_beta 36.490274
_cell_angle_gamma 90.000000
_cell_volume 656.533251
_symmetry_space_group_name_H-M "P 21/C"
_symmetry_group_IT_number 14
_symmetry_cell_setting 'monoclinic'
loop_
_space_group_symop_operation_xyz
x,y,z
-x,1/2+y,1/2-z
-x,-y,-z
x,1/2-y,1/2+z
loop_
_atom_site_type_symbol
_atom_site_label
_atom_site_fract_x
_atom_site_fract_y
_atom_site_fract_z
Si Si1 0.423591 0.241702 0.576134
Si Si2 0.264998 0.886740 0.890869
Si Si3 0.870544 0.435526 0.806294
Si Si4 0.155701 0.936560 0.361786
O O1 0.639725 0.315918 0.558750
O O2 0.617903 0.187100 0.425726
O O3 0.156647 0.357792 0.660043
O O4 0.280147 0.088321 0.673205
O O5 0.193374 0.747158 0.857063
O O6 0.535887 0.984222 0.758799
O O7 0.000000 0.000000 0.000000
O O8 0.982114 0.506643 0.849527
O O9 0.000000 0.000000 0.500000
#
# Coordination Sequence:
#
# PCOD9249847 Si02
#       4
#     4   4   4   4
#     4  10  23  44  65  95 129 173 219 268 331 389
#     4  11  24  42  67  95 131 173 219 276 330 397
#     4  10  23  44  65  96 133 173 218 276 323 397
#     4  11  22  41  66  95 132 173 220 273 333 394
#
# _framework density 24.370435000000001
#
# number of rings (size 3 to 8) (size 9 to 14) (size 15 to 20)
#    0.000    1.500    2.500    1.500    3.500    3.000 
#   18.000    0.000    0.000    0.000    0.000    0.000 
#    0.000    0.000    0.000    0.000    0.000    0.000 
#
# Total GULP energy -89716.822905 kJ/mol
# GULP energy per Si atom -5607.301432 kJ/mol
# Density = 2.431497 g / cm^3
# Si number density = 24.370435 Si / 1000 Ang^3
#
#
#
# Elastic Constant Matrix: (Units=GPa)
#
#
# Indices 1 2 3 4 5 6 
#
# 1 90.0072 43.8674 35.6363 0.0000 -19.1495 0.0000
# 2 43.8674 142.8612 51.4124 0.0000 -22.6730 0.0000
# 3 35.6363 51.4124 104.4677 0.0000 -41.5613 0.0000
# 4 0.0000 0.0000 0.0000 57.2969 0.0000 -19.6632
# 5 -19.1495 -22.6730 -41.5613 0.0000 34.2953 0.0000
# 6 0.0000 0.0000 0.0000 -19.6632 0.0000 53.1917
#
#
#
# Elastic Compliance Matrix: (Units=1/GPa)
#
#
# Indices 1 2 3 4 5 6 
#
# 1 0.014120 -0.003095 -0.001875 0.000000 0.003566 0.000000
# 2 -0.003095 0.009205 -0.003361 0.000000 0.000284 0.000000
# 3 -0.001875 -0.003361 0.020402 0.000000 0.021455 0.000000
# 4 0.000000 0.000000 0.000000 0.019989 0.000000 0.007389
# 5 0.003566 0.000284 0.021455 0.000000 0.057338 0.000000
# 6 0.000000 0.000000 0.000000 0.007389 0.000000 0.021531
#
#
# Mechanical properties :
#
#
# Convention : Reuss Voigt Hill
#
# Bulk Modulus (GPa) = 36.94924 66.57425 51.76174
# Shear Modulus (GPa) = 29.71447 42.71811 36.21629
#
# Velocity S-wave (km/s) = 3.49561 4.19127 3.85915
# Velocity P-wave (km/s) = 5.61131 7.12736 6.41428
#
# Compressibility (1/GPa) = 0.02706416
#
# Stress axis : x y z
#
# Youngs Moduli (GPa) = 70.82373 108.63795 49.01521
#
# Poissons Ratio (x) = 0.33624 0.09189
# Poissons Ratio (y) = 0.21920 0.16476
# Poissons Ratio (z) = 0.13277 0.36518
#
# Static dielectric constant tensor:
#      x y z
#    x 1.958200 0.000000 0.018760 
#    y 0.000000 2.086210 0.000000 
#    z 0.018760 0.000000 1.909930 
# 
# From -- ./inp_files/11549.got.cif
#   From: 2010.05.17/outbox.cif.g08.bks.cpg/sg14_6_cif.got.tgz:11549.got - 2010.06.03 17:49:19.
