data_PCOD9249309
_publ_section_title
;
Structure prediction by ZEFSAII (Michael W. Deem and Ramdas Pophale) SiO2 
 PCOD9249309
Probable space group: P 21/C
;
_chemical_formula_sum "Si O2"
_cell_formula_units_Z 28
_cell_length_a 22.237383
_cell_length_b 14.327008
_cell_length_c 9.943999
_cell_angle_alpha 90.000000
_cell_angle_beta 25.577925
_cell_angle_gamma 90.000000
_cell_volume 1367.794288
_symmetry_space_group_name_H-M "P 21/C"
_symmetry_group_IT_number 14
_symmetry_cell_setting 'monoclinic'
loop_
_space_group_symop_operation_xyz
x,y,z
-x,1/2+y,1/2-z
-x,-y,-z
x,1/2-y,1/2+z
loop_
_atom_site_type_symbol
_atom_site_label
_atom_site_fract_x
_atom_site_fract_y
_atom_site_fract_z
Si Si1 0.625182 0.667935 0.271515
Si Si2 0.683204 0.336484 0.178391
Si Si3 0.772144 0.163253 0.814205
Si Si4 0.269613 0.193273 0.156199
Si Si5 0.098127 0.363644 0.611200
Si Si6 0.156493 0.030248 0.234755
Si Si7 0.149583 0.012066 0.762762
O O1 0.476944 0.634328 0.516835
O O2 0.624944 0.683279 0.431871
O O3 0.655252 0.760931 0.123906
O O4 0.748992 0.593803 0.996109
O O5 0.719896 0.329787 0.264227
O O6 0.713142 0.241534 0.033795
O O7 0.773614 0.415522 0.921689
O O8 0.940990 0.164641 0.465302
O O9 0.751944 0.060777 0.921434
O O10 0.161339 0.272734 0.417058
O O11 0.183033 0.098053 0.307539
O O12 0.191679 0.398110 0.545417
O O13 0.109074 0.452692 0.492328
O O14 0.000000 0.000000 0.500000
O O15 0.000000 0.000000 0.000000
#
# Coordination Sequence:
#
# PCOD9249309 Si02
#       7
#     4   4   4   4   4   4   4
#     4  11  25  44  70  98 138 184 233 287 348 419
#     4  12  26  46  66 101 140 189 232 286 351 418
#     4  11  26  40  69  98 143 181 233 289 344 415
#     4  11  22  43  71  97 135 179 229 282 351 412
#     4  10  23  40  68 108 128 176 224 299 343 414
#     4  10  23  40  63 101 139 171 221 290 348 398
#     4  11  24  42  70 101 132 175 239 288 350 406
#
# _framework density 20.470915000000002
#
# number of rings (size 3 to 8) (size 9 to 14) (size 15 to 20)
#    0.000    1.143    2.857    2.143   10.000    0.000 
#    0.000    0.714    0.000    0.000    0.000    0.000 
#    0.000    0.000    0.000    0.000    0.000    0.000 
#
# Total GULP energy -155998.786577 kJ/mol
# GULP energy per Si atom -5571.385235 kJ/mol
# Density = 2.042432 g / cm^3
# Si number density = 20.470915 Si / 1000 Ang^3
#
#
#
# Elastic Constant Matrix: (Units=GPa)
#
#
# Indices 1 2 3 4 5 6 
#
# 1 129.9416 37.4303 27.0052 0.0000 -2.8180 0.0000
# 2 37.4303 77.4988 22.4193 0.0000 -18.5049 0.0000
# 3 27.0052 22.4193 55.3515 0.0000 -18.3007 0.0000
# 4 0.0000 0.0000 0.0000 26.8750 0.0000 -0.1850
# 5 -2.8180 -18.5049 -18.3007 0.0000 22.9289 0.0000
# 6 0.0000 0.0000 0.0000 -0.1850 0.0000 21.4642
#
#
#
# Elastic Compliance Matrix: (Units=1/GPa)
#
#
# Indices 1 2 3 4 5 6 
#
# 1 0.010068 -0.005025 -0.005174 0.000000 -0.006947 0.000000
# 2 -0.005025 0.018867 -0.000489 0.000000 0.014219 0.000000
# 3 -0.005174 -0.000489 0.027778 0.000000 0.021141 0.000000
# 4 0.000000 0.000000 0.000000 0.037212 0.000000 0.000321
# 5 -0.006947 0.014219 0.021141 0.000000 0.071108 0.000000
# 6 0.000000 0.000000 0.000000 0.000321 0.000000 0.046592
#
#
# Mechanical properties :
#
#
# Convention : Reuss Voigt Hill
#
# Bulk Modulus (GPa) = 28.29836 48.50017 38.39927
# Shear Modulus (GPa) = 20.42665 25.98276 23.20470
#
# Velocity S-wave (km/s) = 3.16228 3.56652 3.37047
# Velocity P-wave (km/s) = 5.21412 6.37995 5.82627
#
# Compressibility (1/GPa) = 0.03533773
#
# Stress axis : x y z
#
# Youngs Moduli (GPa) = 99.32756 53.00317 35.99933
#
# Poissons Ratio (x) = 0.26632 0.18625
# Poissons Ratio (y) = 0.49909 0.01761
# Poissons Ratio (z) = 0.51389 0.02593
#
# Static dielectric constant tensor:
#      x y z
#    x 1.552450 0.000000 0.023170 
#    y 0.000000 1.698870 0.000000 
#    z 0.023170 0.000000 1.749040 
# 
# From -- ./inp_files/19111.got.cif
#   From: 2010.05.17/outbox.cif.g08.bks.cpg/sg14_10_cif.got.tgz:19111.got - 2010.06.03 17:49:19.
