data_PCOD9249583
_publ_section_title
;
Structure prediction by ZEFSAII (Michael W. Deem and Ramdas Pophale) SiO2 
 PCOD9249583
Probable space group: P 21/C
;
_chemical_formula_sum "Si O2"
_cell_formula_units_Z 32
_cell_length_a 15.744152
_cell_length_b 11.561229
_cell_length_c 18.385247
_cell_angle_alpha 90.000000
_cell_angle_beta 152.504979
_cell_angle_gamma 90.000000
_cell_volume 1544.990596
_symmetry_space_group_name_H-M "P 21/C"
_symmetry_group_IT_number 14
_symmetry_cell_setting 'monoclinic'
loop_
_space_group_symop_operation_xyz
x,y,z
-x,1/2+y,1/2-z
-x,-y,-z
x,1/2-y,1/2+z
loop_
_atom_site_type_symbol
_atom_site_label
_atom_site_fract_x
_atom_site_fract_y
_atom_site_fract_z
Si Si1 0.644097 0.781243 0.801367
Si Si2 0.709528 0.281620 0.268289
Si Si3 0.677124 0.807428 0.997437
Si Si4 0.999130 0.058685 0.688289
Si Si5 0.800765 0.971604 0.812842
Si Si6 0.108973 0.407319 0.779322
Si Si7 0.026996 0.106544 0.464231
Si Si8 0.765071 0.222202 0.978007
O O1 0.695489 0.885054 0.786437
O O2 0.430942 0.745505 0.634877
O O3 0.676055 0.822380 0.909437
O O4 0.776194 0.671560 0.885208
O O5 0.700343 0.405901 0.223158
O O6 0.731059 0.315578 0.369538
O O7 0.880457 0.206745 0.370664
O O8 0.528545 0.203020 0.128688
O O9 0.802116 0.897892 0.135466
O O10 0.770823 0.684355 0.085818
O O11 0.887533 0.161798 0.565758
O O12 0.886760 0.027645 0.675710
O O13 0.003335 0.950403 0.637703
O O14 0.831826 0.912429 0.758844
O O15 0.000000 0.000000 0.000000
O O16 0.896171 0.367009 0.618567
O O17 0.000000 0.000000 0.500000
#
# Coordination Sequence:
#
# PCOD9249583 Si02
#       8
#     4   4   4   4   4   4   4   4
#     4  11  24  44  70  99 126 178 225 267 328 401
#     4  11  24  44  68  99 127 175 224 274 322 395
#     4  10  25  44  64  98 137 166 220 276 334 390
#     4  11  24  43  65  95 134 180 212 275 338 392
#     4  12  23  41  74  95 129 172 225 273 323 392
#     4  11  23  44  64  98 136 169 216 278 334 388
#     4  12  24  43  67  96 133 175 221 264 329 399
#     4  10  23  42  67  96 132 171 222 268 332 399
#
# _framework density 20.7121
#
# number of rings (size 3 to 8) (size 9 to 14) (size 15 to 20)
#    0.000    1.000    5.000    0.750    3.500    2.000 
#    2.250    0.000    0.000    0.000    0.000    0.000 
#    0.000    0.000    0.000    0.000    0.000    0.000 
#
# Total GULP energy -178860.219361 kJ/mol
# GULP energy per Si atom -5589.381855 kJ/mol
# Density = 2.066496 g / cm^3
# Si number density = 20.712100 Si / 1000 Ang^3
#
#
#
# Elastic Constant Matrix: (Units=GPa)
#
#
# Indices 1 2 3 4 5 6 
#
# 1 107.8388 34.0041 37.2874 0.0000 12.4239 0.0000
# 2 34.0041 77.5915 2.5426 0.0000 6.4499 0.0000
# 3 37.2874 2.5426 51.1111 0.0000 10.3879 0.0000
# 4 0.0000 0.0000 0.0000 1.2969 0.0000 -5.6193
# 5 12.4239 6.4499 10.3879 0.0000 27.4218 0.0000
# 6 0.0000 0.0000 0.0000 -5.6193 0.0000 37.4423
#
#
#
# Elastic Compliance Matrix: (Units=1/GPa)
#
#
# Indices 1 2 3 4 5 6 
#
# 1 0.014911 -0.006079 -0.010285 0.000000 -0.001430 0.000000
# 2 -0.006079 0.015623 0.004165 0.000000 -0.002499 0.000000
# 3 -0.010285 0.004165 0.028292 0.000000 -0.007037 0.000000
# 4 0.000000 0.000000 0.000000 2.204984 0.000000 0.330921
# 5 -0.001430 -0.002499 -0.007037 0.000000 0.040369 0.000000
# 6 0.000000 0.000000 0.000000 0.330921 0.000000 0.076372
#
#
# Mechanical properties :
#
#
# Convention : Reuss Voigt Hill
#
# Bulk Modulus (GPa) = 29.04557 42.68995 35.86776
# Shear Modulus (GPa) = 2.06917 24.07934 13.07426
#
# Velocity S-wave (km/s) = 1.00059 3.41335 2.51517
# Velocity P-wave (km/s) = 3.92286 6.01585 5.07835
#
# Compressibility (1/GPa) = 0.03442866
#
# Stress axis : x y z
#
# Youngs Moduli (GPa) = 67.06539 64.00741 35.34615
#
# Poissons Ratio (x) = 0.38908 0.36354
# Poissons Ratio (y) = 0.40767 -0.14723
# Poissons Ratio (z) = 0.68977 -0.26661
#
# Static dielectric constant tensor:
#      x y z
#    x 1.739920 0.000000 0.003680 
#    y 0.000000 1.734530 0.000000 
#    z 0.003680 0.000000 1.737080 
# 
# From -- ./inp_files/59406.got.cif
#   From: 2010.05.17/outbox.cif.g08.bks.cpg/sg14_30_cif.got.tgz:59406.got - 2010.06.03 17:49:19.
