data_PCOD9249483
_publ_section_title
;
Structure prediction by ZEFSAII (Michael W. Deem and Ramdas Pophale) SiO2 
 PCOD9249483
Probable space group: P 21/C
;
_chemical_formula_sum "Si O2"
_cell_formula_units_Z 32
_cell_length_a 10.577018
_cell_length_b 14.038671
_cell_length_c 9.591398
_cell_angle_alpha 90.000000
_cell_angle_beta 97.572153
_cell_angle_gamma 90.000000
_cell_volume 1411.781108
_symmetry_space_group_name_H-M "P 21/C"
_symmetry_group_IT_number 14
_symmetry_cell_setting 'monoclinic'
loop_
_space_group_symop_operation_xyz
x,y,z
-x,1/2+y,1/2-z
-x,-y,-z
x,1/2-y,1/2+z
loop_
_atom_site_type_symbol
_atom_site_label
_atom_site_fract_x
_atom_site_fract_y
_atom_site_fract_z
Si Si1 0.698484 0.406682 0.137481
Si Si2 0.848857 0.866293 0.359106
Si Si3 0.374964 0.235148 0.210215
Si Si4 0.543167 0.244032 0.989819
Si Si5 0.082142 0.944668 0.780096
Si Si6 0.189255 0.095480 0.345423
Si Si7 0.768303 0.110203 0.952060
Si Si8 0.916668 0.277100 0.258561
O O1 0.584522 0.346567 0.057011
O O2 0.729432 0.508378 0.078747
O O3 0.695041 0.427033 0.303664
O O4 0.820520 0.336549 0.144828
O O5 0.706243 0.831751 0.308068
O O6 0.868930 0.852041 0.527584
O O7 0.944738 0.802668 0.279830
O O8 0.876739 0.974719 0.321551
O O9 0.498621 0.244859 0.325186
O O10 0.424142 0.209378 0.064233
O O11 0.281377 0.340873 0.766728
O O12 0.660988 0.171878 0.014675
O O13 0.111054 0.834779 0.746524
O O14 0.928236 0.947035 0.760554
O O15 0.159246 0.960696 0.934394
O O16 0.879023 0.178066 0.902448
#
# Coordination Sequence:
#
# PCOD9249483 Si02
#       8
#     4   4   4   4   4   4   4   4
#     4  10  24  44  71 106 138 191 247 298 347 438
#     4  12  27  45  68 111 150 184 241 305 369 446
#     4  12  27  49  71 103 146 195 239 308 361 423
#     4  12  24  50  74  98 149 196 249 292 355 429
#     4  12  24  40  76 108 141 193 230 301 375 436
#     4  12  27  44  73 106 150 189 239 305 379 434
#     4  10  23  43  71 104 142 189 242 301 348 431
#     4  10  23  41  71 104 144 183 234 302 361 432
#
# _framework density 22.666404
#
# number of rings (size 3 to 8) (size 9 to 14) (size 15 to 20)
#    0.750    0.000    6.250    0.375    3.500    4.500 
#    2.250    1.250    0.000    0.000    0.000    0.000 
#    0.000    0.000    0.000    0.000    0.000    0.000 
#
# Total GULP energy -178745.726540 kJ/mol
# GULP energy per Si atom -5585.803954 kJ/mol
# Density = 2.261481 g / cm^3
# Si number density = 22.666404 Si / 1000 Ang^3
#
#
#
# Elastic Constant Matrix: (Units=GPa)
#
#
# Indices 1 2 3 4 5 6 
#
# 1 71.9353 15.4653 0.6313 0.0000 -13.6804 0.0000
# 2 15.4653 74.4648 0.5979 0.0000 -9.8239 0.0000
# 3 0.6313 0.5979 46.8039 0.0000 -8.4562 0.0000
# 4 0.0000 0.0000 0.0000 22.8936 0.0000 -6.4599
# 5 -13.6804 -9.8239 -8.4562 0.0000 40.8503 0.0000
# 6 0.0000 0.0000 0.0000 -6.4599 0.0000 35.4132
#
#
#
# Elastic Compliance Matrix: (Units=1/GPa)
#
#
# Indices 1 2 3 4 5 6 
#
# 1 0.015334 -0.002576 0.000667 0.000000 0.004654 0.000000
# 2 -0.002576 0.014311 0.000330 0.000000 0.002647 0.000000
# 3 0.000667 0.000330 0.022239 0.000000 0.004906 0.000000
# 4 0.000000 0.000000 0.000000 0.046051 0.000000 0.008400
# 5 0.004654 0.002647 0.004906 0.000000 0.027690 0.000000
# 6 0.000000 0.000000 0.000000 0.008400 0.000000 0.029770
#
#
# Mechanical properties :
#
#
# Convention : Reuss Voigt Hill
#
# Bulk Modulus (GPa) = 20.52288 25.17701 22.84995
# Shear Modulus (GPa) = 28.60481 31.59870 30.10175
#
# Velocity S-wave (km/s) = 3.55631 3.73778 3.64817
# Velocity P-wave (km/s) = 5.09284 5.45525 5.27716
#
# Compressibility (1/GPa) = 0.04872610
#
# Stress axis : x y z
#
# Youngs Moduli (GPa) = 65.21270 69.87743 44.96611
#
# Poissons Ratio (x) = 0.18001 -0.02999
# Poissons Ratio (y) = 0.16800 -0.01485
# Poissons Ratio (z) = -0.04349 -0.02307
#
# Static dielectric constant tensor:
#      x y z
#    x 1.827310 0.000000 0.005170 
#    y 0.000000 1.841690 0.000000 
#    z 0.005170 0.000000 1.875810 
# 
# From -- ./inp_files/25249.got.cif
#   From: 2010.05.17/outbox.cif.g08.bks.cpg/sg14_13_cif.got.tgz:25249.got - 2010.06.03 17:49:19.
