data_PCOD9249543
_publ_section_title
;
Structure prediction by ZEFSAII (Michael W. Deem and Ramdas Pophale) SiO2 
 PCOD9249543
Probable space group: P 21/C
;
_chemical_formula_sum "Si O2"
_cell_formula_units_Z 20
_cell_length_a 18.712927
_cell_length_b 6.602111
_cell_length_c 9.668502
_cell_angle_alpha 90.000000
_cell_angle_beta 126.892406
_cell_angle_gamma 90.000000
_cell_volume 955.313057
_symmetry_space_group_name_H-M "P 21/C"
_symmetry_group_IT_number 14
_symmetry_cell_setting 'monoclinic'
loop_
_space_group_symop_operation_xyz
x,y,z
-x,1/2+y,1/2-z
-x,-y,-z
x,1/2-y,1/2+z
loop_
_atom_site_type_symbol
_atom_site_label
_atom_site_fract_x
_atom_site_fract_y
_atom_site_fract_z
Si Si1 0.380173 0.913791 0.930993
Si Si2 0.889941 0.452906 0.499461
Si Si3 0.692886 0.383136 0.379606
Si Si4 0.986161 0.193717 0.387882
Si Si5 0.553649 0.808910 0.623640
O O1 0.354918 0.799976 0.758750
O O2 0.398415 0.149248 0.922758
O O3 0.305333 0.851191 0.954232
O O4 0.474380 0.824193 0.098119
O O5 0.787916 0.423739 0.422102
O O6 0.918319 0.339842 0.392005
O O7 0.948283 0.363503 0.694252
O O8 0.921420 0.684338 0.520795
O O9 0.631502 0.583739 0.298142
O O10 0.000000 0.000000 0.500000
O O11 0.500000 0.000000 0.500000
#
# Coordination Sequence:
#
# PCOD9249543 Si02
#       5
#     4   4   4   4   4
#     4  10  23  42  65  94 134 171 217 270 324 382
#     4  11  24  42  67 100 130 171 220 268 335 397
#     4  11  24  40  67 100 127 169 221 269 321 396
#     4  11  23  45  68  93 132 174 212 275 338 398
#     4   9  22  40  61  91 132 177 213 261 323 379
#
# _framework density 20.935545999999999
#
# number of rings (size 3 to 8) (size 9 to 14) (size 15 to 20)
#    0.000    1.600    2.000    1.200    8.400    4.800 
#    0.000    0.000    0.000    0.000    0.000    0.000 
#    0.000    0.000    0.000    0.000    0.000    0.000 
#
# Total GULP energy -111621.431016 kJ/mol
# GULP energy per Si atom -5581.071551 kJ/mol
# Density = 2.088790 g / cm^3
# Si number density = 20.935546 Si / 1000 Ang^3
#
#
#
# Elastic Constant Matrix: (Units=GPa)
#
#
# Indices 1 2 3 4 5 6 
#
# 1 95.1603 17.7106 9.1608 0.0000 -6.5086 0.0000
# 2 17.7106 109.2517 27.6620 0.0000 -8.5104 0.0000
# 3 9.1608 27.6620 33.2458 0.0000 -4.2159 0.0000
# 4 0.0000 0.0000 0.0000 25.8286 0.0000 -5.2185
# 5 -6.5086 -8.5104 -4.2159 0.0000 37.1284 0.0000
# 6 0.0000 0.0000 0.0000 -5.2185 0.0000 30.8173
#
#
#
# Elastic Compliance Matrix: (Units=1/GPa)
#
#
# Indices 1 2 3 4 5 6 
#
# 1 0.011009 -0.001204 -0.001849 0.000000 0.001444 0.000000
# 2 -0.001204 0.011821 -0.009321 0.000000 0.001440 0.000000
# 3 -0.001849 -0.009321 0.038587 0.000000 0.001921 0.000000
# 4 0.000000 0.000000 0.000000 0.040088 0.000000 0.006788
# 5 0.001444 0.001440 0.001921 0.000000 0.027735 0.000000
# 6 0.000000 0.000000 0.000000 0.006788 0.000000 0.033599
#
#
# Mechanical properties :
#
#
# Convention : Reuss Voigt Hill
#
# Bulk Modulus (GPa) = 27.27017 38.52495 32.89756
# Shear Modulus (GPa) = 25.02382 30.96316 27.99349
#
# Velocity S-wave (km/s) = 3.46103 3.84992 3.66064
# Velocity P-wave (km/s) = 5.38755 6.18095 5.79784
#
# Compressibility (1/GPa) = 0.03667010
#
# Stress axis : x y z
#
# Youngs Moduli (GPa) = 90.83132 84.59859 25.91532
#
# Poissons Ratio (x) = 0.10187 0.04791
# Poissons Ratio (y) = 0.10938 0.24155
# Poissons Ratio (z) = 0.16791 0.78852
#
# Static dielectric constant tensor:
#      x y z
#    x 1.780360 0.000000 -0.033530 
#    y 0.000000 1.761230 0.000000 
#    z -0.033530 0.000000 1.765270 
# 
# From -- ./inp_files/17262.got.cif
#   From: 2010.05.17/outbox.cif.g08.bks.cpg/sg14_9_cif.got.tgz:17262.got - 2010.06.03 17:49:19.
