data_PCOD9249628
_publ_section_title
;
Structure prediction by ZEFSAII (Michael W. Deem and Ramdas Pophale) SiO2 
 PCOD9249628
Probable space group: P 21/C
;
_chemical_formula_sum "Si O2"
_cell_formula_units_Z 30
_cell_length_a 11.894413
_cell_length_b 14.308948
_cell_length_c 8.853576
_cell_angle_alpha 90.000000
_cell_angle_beta 127.277853
_cell_angle_gamma 90.000000
_cell_volume 1199.010476
_symmetry_space_group_name_H-M "P 21/C"
_symmetry_group_IT_number 14
_symmetry_cell_setting 'monoclinic'
loop_
_space_group_symop_operation_xyz
x,y,z
-x,1/2+y,1/2-z
-x,-y,-z
x,1/2-y,1/2+z
loop_
_atom_site_type_symbol
_atom_site_label
_atom_site_fract_x
_atom_site_fract_y
_atom_site_fract_z
Si Si1 0.226864 0.647973 0.497777
Si Si2 0.065572 0.964630 0.214072
Si Si3 0.000000 0.500000 0.000000
Si Si4 0.421198 0.299293 0.757373
Si Si5 0.203322 0.340107 0.184390
Si Si6 0.031792 0.240721 0.800952
Si Si7 0.615121 0.283620 0.650562
Si Si8 0.658532 0.988060 0.692301
O O1 0.065148 0.682615 0.360728
O O2 0.292168 0.730956 0.651943
O O3 0.290689 0.652015 0.380444
O O4 0.288526 0.557277 0.631727
O O5 0.053863 0.852561 0.225424
O O6 0.228372 0.993560 0.344871
O O7 0.999414 0.001883 0.314343
O O8 0.000000 0.000000 0.000000
O O9 0.841330 0.552967 0.863884
O O10 0.343500 0.199444 0.718362
O O11 0.487121 0.322636 0.648497
O O12 0.323696 0.382954 0.732968
O O13 0.546871 0.291666 0.981812
O O14 0.077575 0.291263 0.988999
O O15 0.169637 0.295716 0.321533
O O16 0.500000 0.000000 0.500000
#
# Coordination Sequence:
#
# PCOD9249628 Si02
#       8
#     4   4   2   4   4   4   4   4
#     4  11  23  45  70 101 147 190 251 307 379 477
#     4  11  26  48  77 110 152 201 261 323 395 472
#     4  10  28  46  72 114 150 194 264 320 390 468
#     4  11  24  43  70 103 141 197 245 303 400 450
#     4  11  24  44  69 103 143 186 246 319 376 462
#     4  11  24  43  72 103 136 195 247 306 390 457
#     4  10  23  42  69  99 142 195 242 303 378 462
#     4  12  26  44  73 111 151 201 255 325 394 472
#
# _framework density 25.020633
#
# number of rings (size 3 to 8) (size 9 to 14) (size 15 to 20)
#    0.000    1.067    1.333    4.000    9.333    1.600 
#    0.000    0.000    0.000    0.000    0.000    0.000 
#    0.000    0.000    0.000    0.000    0.000    0.000 
#
# Total GULP energy -167154.356034 kJ/mol
# GULP energy per Si atom -5571.811868 kJ/mol
# Density = 2.496368 g / cm^3
# Si number density = 25.020633 Si / 1000 Ang^3
#
#
#
# Elastic Constant Matrix: (Units=GPa)
#
#
# Indices 1 2 3 4 5 6 
#
# 1 114.8496 -1.5905 26.8696 0.0000 -23.5053 0.0000
# 2 -1.5905 62.8252 15.7253 0.0000 -5.0454 0.0000
# 3 26.8696 15.7253 102.4951 0.0000 -13.0133 0.0000
# 4 0.0000 0.0000 0.0000 31.1042 0.0000 1.9878
# 5 -23.5053 -5.0454 -13.0133 0.0000 48.4646 0.0000
# 6 0.0000 0.0000 0.0000 1.9878 0.0000 19.4140
#
#
#
# Elastic Compliance Matrix: (Units=1/GPa)
#
#
# Indices 1 2 3 4 5 6 
#
# 1 0.010167 0.001186 -0.002283 0.000000 0.004441 0.000000
# 2 0.001186 0.016746 -0.002677 0.000000 0.001600 0.000000
# 3 -0.002283 -0.002677 0.010964 0.000000 0.001558 0.000000
# 4 0.000000 0.000000 0.000000 0.032362 0.000000 -0.003313
# 5 0.004441 0.001600 0.001558 0.000000 0.023372 0.000000
# 6 0.000000 0.000000 0.000000 -0.003313 0.000000 0.051849
#
#
# Mechanical properties :
#
#
# Convention : Reuss Voigt Hill
#
# Bulk Modulus (GPa) = 32.97429 40.24207 36.60818
# Shear Modulus (GPa) = 30.65293 35.74094 33.19694
#
# Velocity S-wave (km/s) = 3.50395 3.78360 3.64645
# Velocity P-wave (km/s) = 5.43853 5.93346 5.69138
#
# Compressibility (1/GPa) = 0.03032665
#
# Stress axis : x y z
#
# Youngs Moduli (GPa) = 98.36165 59.71685 91.21079
#
# Poissons Ratio (x) = -0.07080 0.20826
# Poissons Ratio (y) = -0.11661 0.24416
# Poissons Ratio (z) = 0.22458 0.15986
#
# Static dielectric constant tensor:
#      x y z
#    x 1.939730 0.000000 -0.161050 
#    y 0.000000 1.914790 0.000000 
#    z -0.161050 0.000000 1.568220 
# 
# From -- ./inp_files/13451.got.cif
#   From: 2010.05.17/outbox.cif.g08.bks.cpg/sg14_7_cif.got.tgz:13451.got - 2010.06.03 17:49:19.
