data_PCOD9249345
_publ_section_title
;
Structure prediction by ZEFSAII (Michael W. Deem and Ramdas Pophale) SiO2 
 PCOD9249345
Probable space group: P 21/C
;
_chemical_formula_sum "Si O2"
_cell_formula_units_Z 24
_cell_length_a 20.889819
_cell_length_b 5.796095
_cell_length_c 21.805525
_cell_angle_alpha 90.000000
_cell_angle_beta 25.087802
_cell_angle_gamma 90.000000
_cell_volume 1119.462007
_symmetry_space_group_name_H-M "P 21/C"
_symmetry_group_IT_number 14
_symmetry_cell_setting 'monoclinic'
loop_
_space_group_symop_operation_xyz
x,y,z
-x,1/2+y,1/2-z
-x,-y,-z
x,1/2-y,1/2+z
loop_
_atom_site_type_symbol
_atom_site_label
_atom_site_fract_x
_atom_site_fract_y
_atom_site_fract_z
Si Si1 0.660514 0.900918 0.685729
Si Si2 0.650874 0.548436 0.603016
Si Si3 0.320671 0.512651 0.143016
Si Si4 0.810310 0.875463 0.366458
Si Si5 0.335582 0.011745 0.174840
Si Si6 0.103928 0.848766 0.596800
O O1 0.653895 0.635611 0.670713
O O2 0.518605 0.995117 0.770029
O O3 0.644156 0.965984 0.769932
O O4 0.817218 0.992428 0.522248
O O5 0.708464 0.730715 0.501960
O O6 0.770680 0.344643 0.498788
O O7 0.285635 0.509328 0.100813
O O8 0.265006 0.759603 0.218842
O O9 0.264911 0.260721 0.216300
O O10 0.500000 0.500000 0.000000
O O11 0.937857 0.726438 0.221965
O O12 0.909910 0.031194 0.325214
O O13 0.500000 0.000000 0.000000
#
# Coordination Sequence:
#
# PCOD9249345 Si02
#       6
#     4   4   4   4   4   4
#     4  11  24  39  67  99 136 169 233 285 343 405
#     4  11  22  39  65  98 132 175 215 291 341 401
#     4  10  23  40  67  98 128 181 230 281 323 404
#     4  11  24  42  69  98 137 174 232 274 350 419
#     4  10  23  41  65  97 131 179 228 281 333 400
#     4  11  24  41  65 101 134 176 215 291 352 399
#
# _framework density 21.438870000000001
#
# number of rings (size 3 to 8) (size 9 to 14) (size 15 to 20)
#    0.000    1.333    3.333    2.000    9.333    0.000 
#    0.000    1.667    0.000    0.000    0.000    0.000 
#    0.000    0.000    0.000    0.000    0.000    0.000 
#
# Total GULP energy -133786.411164 kJ/mol
# GULP energy per Si atom -5574.433798 kJ/mol
# Density = 2.139007 g / cm^3
# Si number density = 21.438870 Si / 1000 Ang^3
#
#
#
# Elastic Constant Matrix: (Units=GPa)
#
#
# Indices 1 2 3 4 5 6 
#
# 1 72.6038 1.8567 13.2404 0.0000 15.5756 0.0000
# 2 1.8567 99.3602 -7.7001 0.0000 7.8523 0.0000
# 3 13.2404 -7.7001 62.8314 0.0000 0.8629 0.0000
# 4 0.0000 0.0000 0.0000 20.2182 0.0000 -7.2892
# 5 15.5756 7.8523 0.8629 0.0000 34.9174 0.0000
# 6 0.0000 0.0000 0.0000 -7.2892 0.0000 16.4617
#
#
#
# Elastic Compliance Matrix: (Units=1/GPa)
#
#
# Indices 1 2 3 4 5 6 
#
# 1 0.015867 0.000005 -0.003247 0.000000 -0.006999 0.000000
# 2 0.000005 0.010352 0.001300 0.000000 -0.002362 0.000000
# 3 -0.003247 0.001300 0.016749 0.000000 0.000742 0.000000
# 4 0.000000 0.000000 0.000000 0.058856 0.000000 0.026061
# 5 -0.006999 -0.002362 0.000742 0.000000 0.032274 0.000000
# 6 0.000000 0.000000 0.000000 0.026061 0.000000 0.072287
#
#
# Mechanical properties :
#
#
# Convention : Reuss Voigt Hill
#
# Bulk Modulus (GPa) = 25.58610 27.73213 26.65912
# Shear Modulus (GPa) = 22.39185 29.47935 25.93560
#
# Velocity S-wave (km/s) = 3.23530 3.71218 3.48191
# Velocity P-wave (km/s) = 5.09083 5.59797 5.35041
#
# Compressibility (1/GPa) = 0.03908372
#
# Stress axis : x y z
#
# Youngs Moduli (GPa) = 63.02482 96.60215 59.70525
#
# Poissons Ratio (x) = -0.00048 0.19385
# Poissons Ratio (y) = -0.00031 -0.07762
# Poissons Ratio (z) = 0.20463 -0.12558
#
# Static dielectric constant tensor:
#      x y z
#    x 1.734990 0.000000 -0.015960 
#    y 0.000000 1.937640 0.000000 
#    z -0.015960 0.000000 1.758100 
# 
# From -- ./inp_files/69506.got.cif
#   From: 2010.05.17/outbox.cif.g08.bks.cpg/sg14_35_cif.got.tgz:69506.got - 2010.06.03 17:49:19.
