data_PCOD9249318
_publ_section_title
;
Structure prediction by ZEFSAII (Michael W. Deem and Ramdas Pophale) SiO2 
 PCOD9249318
Probable space group: P 21/C
;
_chemical_formula_sum "Si O2"
_cell_formula_units_Z 16
_cell_length_a 6.969931
_cell_length_b 20.079974
_cell_length_c 4.788373
_cell_angle_alpha 90.000000
_cell_angle_beta 108.803093
_cell_angle_gamma 90.000000
_cell_volume 634.396409
_symmetry_space_group_name_H-M "P 21/C"
_symmetry_group_IT_number 14
_symmetry_cell_setting 'monoclinic'
loop_
_space_group_symop_operation_xyz
x,y,z
-x,1/2+y,1/2-z
-x,-y,-z
x,1/2-y,1/2+z
loop_
_atom_site_type_symbol
_atom_site_label
_atom_site_fract_x
_atom_site_fract_y
_atom_site_fract_z
Si Si1 0.900837 0.114030 0.907830
Si Si2 0.273766 0.954539 0.674310
Si Si3 0.314479 0.094152 0.400079
Si Si4 0.538208 0.206545 0.842732
O O1 0.786524 0.056080 0.034484
O O2 0.125973 0.117219 0.126521
O O3 0.873733 0.092878 0.576246
O O4 0.765260 0.178845 0.902602
O O5 0.497669 0.928064 0.708147
O O6 0.258991 0.028826 0.554561
O O7 0.391753 0.150971 0.646830
O O8 0.509066 0.273308 0.647682
#
# Coordination Sequence:
#
# PCOD9249318 Si02
#       4
#     4   4   4   4
#     4  11  23  41  65  92 126 162 201 255 313 367
#     4  10  23  40  64 101 127 149 203 258 309 381
#     4  10  23  41  68  92 125 166 198 253 320 363
#     4  11  25  42  59  88 124 163 216 256 288 360
#
# _framework density 25.220821999999998
#
# number of rings (size 3 to 8) (size 9 to 14) (size 15 to 20)
#    0.000    1.500    0.000    4.500    0.000   19.000 
#    0.000    0.000    0.000    0.000    0.000    0.000 
#    0.000    0.000    0.000    0.000    0.000    0.000 
#
# Total GULP energy -89858.490426 kJ/mol
# GULP energy per Si atom -5616.155652 kJ/mol
# Density = 2.516342 g / cm^3
# Si number density = 25.220822 Si / 1000 Ang^3
#
#
#
# Elastic Constant Matrix: (Units=GPa)
#
#
# Indices 1 2 3 4 5 6 
#
# 1 83.6428 -0.0113 24.4385 0.0000 18.3445 0.0000
# 2 -0.0113 72.4755 16.5721 0.0000 9.9610 0.0000
# 3 24.4385 16.5721 102.1235 0.0000 16.2573 0.0000
# 4 0.0000 0.0000 0.0000 42.9706 0.0000 -2.0805
# 5 18.3445 9.9610 16.2573 0.0000 58.2717 0.0000
# 6 0.0000 0.0000 0.0000 -2.0805 0.0000 14.5840
#
#
#
# Elastic Compliance Matrix: (Units=1/GPa)
#
#
# Indices 1 2 3 4 5 6 
#
# 1 0.013598 0.001161 -0.002856 0.000000 -0.003682 0.000000
# 2 0.001161 0.014629 -0.002298 0.000000 -0.002225 0.000000
# 3 -0.002856 -0.002298 0.011137 0.000000 -0.001815 0.000000
# 4 0.000000 0.000000 0.000000 0.023434 0.000000 0.003343
# 5 -0.003682 -0.002225 -0.001815 0.000000 0.019207 0.000000
# 6 0.000000 0.000000 0.000000 0.003343 0.000000 0.069045
#
#
# Mechanical properties :
#
#
# Convention : Reuss Voigt Hill
#
# Bulk Modulus (GPa) = 31.86804 37.80448 34.83626
# Shear Modulus (GPa) = 29.49934 37.64809 33.57371
#
# Velocity S-wave (km/s) = 3.42371 3.86779 3.65251
# Velocity P-wave (km/s) = 5.31903 5.91340 5.62408
#
# Compressibility (1/GPa) = 0.03137940
#
# Stress axis : x y z
#
# Youngs Moduli (GPa) = 73.54063 68.35659 89.78746
#
# Poissons Ratio (x) = -0.07939 0.25646
# Poissons Ratio (y) = -0.08541 0.20630
# Poissons Ratio (z) = 0.21005 0.15706
#
# Static dielectric constant tensor:
#      x y z
#    x 1.983100 0.000000 0.019100 
#    y 0.000000 1.977770 0.000000 
#    z 0.019100 0.000000 1.917540 
# 
# From -- ./inp_files/1026.got.cif
#   From: 2010.05.17/outbox.cif.g08.bks.cpg/sg14_1_cif.got.tgz:1026.got - 2010.06.03 17:49:19.
