data_PCOD9249289
_publ_section_title
;
Structure prediction by ZEFSAII (Michael W. Deem and Ramdas Pophale) SiO2 
 PCOD9249289
Probable space group: P 21/C
;
_chemical_formula_sum "Si O2"
_cell_formula_units_Z 28
_cell_length_a 11.295261
_cell_length_b 5.260884
_cell_length_c 21.760937
_cell_angle_alpha 90.000000
_cell_angle_beta 109.467541
_cell_angle_gamma 90.000000
_cell_volume 1219.175388
_symmetry_space_group_name_H-M "P 21/C"
_symmetry_group_IT_number 14
_symmetry_cell_setting 'monoclinic'
loop_
_space_group_symop_operation_xyz
x,y,z
-x,1/2+y,1/2-z
-x,-y,-z
x,1/2-y,1/2+z
loop_
_atom_site_type_symbol
_atom_site_label
_atom_site_fract_x
_atom_site_fract_y
_atom_site_fract_z
Si Si1 0.050999 0.104545 0.443272
Si Si2 0.279877 0.354596 0.896137
Si Si3 0.773530 0.976324 0.954769
Si Si4 0.324580 0.509715 0.770694
Si Si5 0.397110 0.177371 0.662794
Si Si6 0.625629 0.160506 0.033747
Si Si7 0.807922 0.287101 0.845789
O O1 0.161840 0.037218 0.414097
O O2 0.121002 0.355263 0.483888
O O3 0.930260 0.050614 0.378859
O O4 0.000000 0.000000 0.500000
O O5 0.276982 0.369391 0.822475
O O6 0.383925 0.564361 0.936311
O O7 0.300672 0.058383 0.915307
O O8 0.664305 0.792736 0.909406
O O9 0.833698 0.077333 0.902673
O O10 0.700473 0.184847 0.982182
O O11 0.359898 0.338722 0.717251
O O12 0.453793 0.651390 0.811038
O O13 0.214754 0.687659 0.725772
O O14 0.324411 0.913047 0.659173
O O15 0.500000 0.000000 0.000000
#
# Coordination Sequence:
#
# PCOD9249289 Si02
#       7
#     4   4   4   4   4   4   4
#     4  11  22  46  69 101 138 177 236 283 348 419
#     4  11  27  44  69 102 143 186 225 295 342 416
#     4  10  23  39  69 101 128 175 231 284 350 412
#     4  11  25  43  65 101 138 181 236 280 349 416
#     4  11  22  40  68  97 132 179 225 290 339 413
#     4  11  24  42  68 104 139 181 225 289 359 412
#     4  11  23  41  68  94 132 185 227 284 341 407
#
# _framework density 22.966342999999998
#
# number of rings (size 3 to 8) (size 9 to 14) (size 15 to 20)
#    0.000    1.143    2.857    2.571    6.000    1.143 
#    2.571    0.000    0.000    0.000    0.000    0.000 
#    0.000    0.000    0.000    0.000    0.000    0.000 
#
# Total GULP energy -155911.675700 kJ/mol
# GULP energy per Si atom -5568.274132 kJ/mol
# Density = 2.291407 g / cm^3
# Si number density = 22.966343 Si / 1000 Ang^3
#
#
#
# Elastic Constant Matrix: (Units=GPa)
#
#
# Indices 1 2 3 4 5 6 
#
# 1 60.7116 -24.8201 26.2764 0.0000 -0.4546 0.0000
# 2 -24.8201 38.4142 13.2820 0.0000 -0.4395 0.0000
# 3 26.2764 13.2820 99.1025 0.0000 2.7520 0.0000
# 4 0.0000 0.0000 0.0000 31.4742 0.0000 -5.1610
# 5 -0.4546 -0.4395 2.7520 0.0000 37.3808 0.0000
# 6 0.0000 0.0000 0.0000 -5.1610 0.0000 13.4711
#
#
#
# Elastic Compliance Matrix: (Units=1/GPa)
#
#
# Indices 1 2 3 4 5 6 
#
# 1 0.031516 0.024416 -0.011671 0.000000 0.001529 0.000000
# 2 0.024416 0.046225 -0.012718 0.000000 0.001777 0.000000
# 3 -0.011671 -0.012718 0.014928 0.000000 -0.001390 0.000000
# 4 0.000000 0.000000 0.000000 0.033902 0.000000 0.012988
# 5 0.001529 0.001777 -0.001390 0.000000 0.026894 0.000000
# 6 0.000000 0.000000 0.000000 0.012988 0.000000 0.079209
#
#
# Mechanical properties :
#
#
# Convention : Reuss Voigt Hill
#
# Bulk Modulus (GPa) = 10.78494 25.30054 18.04274
# Shear Modulus (GPa) = 18.97337 28.69790 23.83564
#
# Velocity S-wave (km/s) = 2.87738 3.53875 3.22506
# Velocity P-wave (km/s) = 3.96803 5.26662 4.66275
#
# Compressibility (1/GPa) = 0.09272190
#
# Stress axis : x y z
#
# Youngs Moduli (GPa) = 31.73036 21.63324 66.98749
#
# Poissons Ratio (x) = -0.52819 0.78180
# Poissons Ratio (y) = -0.77472 0.85196
# Poissons Ratio (z) = 0.37032 0.27514
#
# Static dielectric constant tensor:
#      x y z
#    x 1.827930 0.000000 0.214460 
#    y 0.000000 1.887630 0.000000 
#    z 0.214460 0.000000 1.679910 
# 
# From -- ./inp_files/66262.got.cif
#   From: 2010.05.17/outbox.cif.g08.bks.cpg/sg14_34_cif.got.tgz:66262.got - 2010.06.03 17:49:19.
