data_PCOD9249680
_publ_section_title
;
Structure prediction by ZEFSAII (Michael W. Deem and Ramdas Pophale) SiO2 
 PCOD9249680
Probable space group: P 21/C
;
_chemical_formula_sum "Si O2"
_cell_formula_units_Z 30
_cell_length_a 25.688432
_cell_length_b 5.123550
_cell_length_c 9.407675
_cell_angle_alpha 90.000000
_cell_angle_beta 122.809453
_cell_angle_gamma 90.000000
_cell_volume 1040.679085
_symmetry_space_group_name_H-M "P 21/C"
_symmetry_group_IT_number 14
_symmetry_cell_setting 'monoclinic'
loop_
_space_group_symop_operation_xyz
x,y,z
-x,1/2+y,1/2-z
-x,-y,-z
x,1/2-y,1/2+z
loop_
_atom_site_type_symbol
_atom_site_label
_atom_site_fract_x
_atom_site_fract_y
_atom_site_fract_z
Si Si1 0.904743 0.763425 0.423741
Si Si2 0.539859 0.957975 0.801610
Si Si3 0.641078 0.892540 0.504187
Si Si4 0.228514 0.161611 0.736138
Si Si5 0.779780 0.154864 0.954097
Si Si6 0.642215 0.237208 0.772076
Si Si7 0.082780 0.759029 0.857851
Si Si8 0.000000 0.000000 0.000000
O O1 0.833301 0.748278 0.274463
O O2 0.927352 0.489159 0.536562
O O3 0.952466 0.734885 0.368294
O O4 0.910241 0.004716 0.533867
O O5 0.492746 0.722971 0.690276
O O6 0.587111 0.062211 0.753258
O O7 0.586359 0.799157 0.972494
O O8 0.705768 0.743369 0.605774
O O9 0.644478 0.144682 0.612149
O O10 0.628585 0.986107 0.325073
O O11 0.223510 0.353305 0.593679
O O12 0.223937 0.862432 0.681972
O O13 0.713931 0.203749 0.930779
O O14 0.849167 0.198620 0.112386
O O15 0.033416 0.711283 0.664006
#
# Coordination Sequence:
#
# PCOD9249680 Si02
#       8
#     4   4   4   4   4   4   4   2
#     4  10  23  43  62  97 140 184 236 300 359 433
#     4  12  28  52  73 117 157 204 247 312 382 469
#     4  11  27  47  82 110 153 196 259 317 383 455
#     4   9  21  42  70 101 139 184 239 305 375 430
#     4   9  21  42  70 101 139 184 237 307 374 430
#     4  11  27  49  81 112 150 197 257 315 384 454
#     4  10  23  43  63  96 142 180 240 300 358 433
#     4  12  24  38  70  96 136 198 242 284 370 428
#
# _framework density 28.827327
#
# number of rings (size 3 to 8) (size 9 to 14) (size 15 to 20)
#    0.000    1.600    1.333    0.800    9.333    3.200 
#    0.000    0.000    0.000    0.000    0.000    0.000 
#    0.000    0.000    0.000    0.000    0.000    0.000 
#
# Total GULP energy -167565.309521 kJ/mol
# GULP energy per Si atom -5585.510317 kJ/mol
# Density = 2.876171 g / cm^3
# Si number density = 28.827327 Si / 1000 Ang^3
#
#
#
# Elastic Constant Matrix: (Units=GPa)
#
#
# Indices 1 2 3 4 5 6 
#
# 1 146.7221 47.3148 54.9492 0.0000 46.1246 0.0000
# 2 47.3148 150.3385 67.6249 0.0000 5.9180 0.0000
# 3 54.9492 67.6249 138.7436 0.0000 16.6818 0.0000
# 4 0.0000 0.0000 0.0000 18.7841 0.0000 -34.1531
# 5 46.1246 5.9180 16.6818 0.0000 60.7706 0.0000
# 6 0.0000 0.0000 0.0000 -34.1531 0.0000 3.8168
#
#
#
# Elastic Compliance Matrix: (Units=1/GPa)
#
#
# Indices 1 2 3 4 5 6 
#
# 1 0.010610 -0.001992 -0.002364 0.000000 -0.007210 0.000000
# 2 -0.001992 0.008900 -0.003750 0.000000 0.001675 0.000000
# 3 -0.002364 -0.003750 0.010044 0.000000 -0.000597 0.000000
# 4 0.000000 0.000000 0.000000 -0.003486 0.000000 -0.031197
# 5 -0.007210 0.001675 -0.000597 0.000000 0.021929 0.000000
# 6 0.000000 0.000000 0.000000 -0.031197 0.000000 -0.017159
#
#
# Mechanical properties :
#
#
# Convention : Reuss Voigt Hill
#
# Bulk Modulus (GPa) = 74.96040 86.17578 80.56809
# Shear Modulus (GPa) = 97.09449 34.40197 65.74823
#
# Velocity S-wave (km/s) = 5.80986 3.45828 4.78091
# Velocity P-wave (km/s) = 8.43005 6.77532 7.64757
#
# Compressibility (1/GPa) = 0.01334038
#
# Stress axis : x y z
#
# Youngs Moduli (GPa) = 94.25086 112.36563 99.56575
#
# Poissons Ratio (x) = 0.22382 0.23541
# Poissons Ratio (y) = 0.18773 0.37339
# Poissons Ratio (z) = 0.22284 0.42139
#
# Static dielectric constant tensor:
#      x y z
#    x -1.237610 0.000000 -0.110490 
#    y 0.000000 2.237410 0.000000 
#    z -0.110490 0.000000 2.190470 
# 
# From -- ./inp_files/36329.got.cif
#   From: 2010.05.17/outbox.cif.g08.bks.cpg/sg14_19_cif.got.tgz:36329.got - 2010.06.03 17:49:19.
