data_PCOD9249484
_publ_section_title
;
Structure prediction by ZEFSAII (Michael W. Deem and Ramdas Pophale) SiO2 
 PCOD9249484
Probable space group: P 21/C
;
_chemical_formula_sum "Si O2"
_cell_formula_units_Z 28
_cell_length_a 6.322584
_cell_length_b 26.885147
_cell_length_c 7.398879
_cell_angle_alpha 90.000000
_cell_angle_beta 59.903781
_cell_angle_gamma 90.000000
_cell_volume 1088.132259
_symmetry_space_group_name_H-M "P 21/C"
_symmetry_group_IT_number 14
_symmetry_cell_setting 'monoclinic'
loop_
_space_group_symop_operation_xyz
x,y,z
-x,1/2+y,1/2-z
-x,-y,-z
x,1/2-y,1/2+z
loop_
_atom_site_type_symbol
_atom_site_label
_atom_site_fract_x
_atom_site_fract_y
_atom_site_fract_z
Si Si1 0.184328 0.554025 0.666488
Si Si2 0.807922 0.195053 0.547744
Si Si3 0.621705 0.977447 0.165502
Si Si4 0.270934 0.239449 0.847279
Si Si5 0.496512 0.832275 0.631901
Si Si6 0.722504 0.939251 0.523242
Si Si7 0.896074 0.340411 0.415564
O O1 0.187764 0.502831 0.552600
O O2 0.457650 0.561097 0.624207
O O3 0.105421 0.600018 0.575695
O O4 0.011600 0.553704 0.916338
O O5 0.712957 0.159790 0.428511
O O6 0.034801 0.227880 0.372505
O O7 0.554204 0.224139 0.693835
O O8 0.876074 0.172381 0.711827
O O9 0.445507 0.024237 0.291225
O O10 0.690515 0.954773 0.326887
O O11 0.340921 0.282329 0.969871
O O12 0.125470 0.186643 0.913582
O O13 0.651759 0.882110 0.578185
O O14 0.353205 0.824460 0.879791
#
# Coordination Sequence:
#
# PCOD9249484 Si02
#       7
#     4   4   4   4   4   4   4
#     4  11  22  44  69 104 143 183 236 297 365 436
#     4  12  27  45  70 102 140 192 244 307 363 434
#     4  10  23  41  72 102 140 184 234 299 361 436
#     4  12  26  48  72 102 144 194 248 304 364 432
#     4  12  27  46  73 105 148 193 249 302 369 442
#     4  11  22  44  69 104 143 183 236 297 365 436
#     4  12  27  46  73 105 148 193 249 302 369 442
#
# _framework density 25.732165999999999
#
# number of rings (size 3 to 8) (size 9 to 14) (size 15 to 20)
#    0.000    0.571    2.857    5.143    4.000    0.000 
#    0.000    0.000    0.000    0.000    0.000    0.000 
#    0.000    0.000    0.000    0.000    0.000    0.000 
#
# Total GULP energy -156129.539633 kJ/mol
# GULP energy per Si atom -5576.054987 kJ/mol
# Density = 2.567360 g / cm^3
# Si number density = 25.732166 Si / 1000 Ang^3
#
#
#
# Elastic Constant Matrix: (Units=GPa)
#
#
# Indices 1 2 3 4 5 6 
#
# 1 88.4741 22.0180 19.0290 0.0000 -11.0299 0.0000
# 2 22.0180 92.9074 9.2414 0.0000 -8.7491 0.0000
# 3 19.0290 9.2414 70.5249 0.0000 -10.7672 0.0000
# 4 0.0000 0.0000 0.0000 -5.3857 0.0000 -2.5406
# 5 -11.0299 -8.7491 -10.7672 0.0000 45.6183 0.0000
# 6 0.0000 0.0000 0.0000 -2.5406 0.0000 35.3473
#
#
#
# Elastic Compliance Matrix: (Units=1/GPa)
#
#
# Indices 1 2 3 4 5 6 
#
# 1 0.012789 -0.002568 -0.002819 0.000000 0.001934 0.000000
# 2 -0.002568 0.011569 -0.000601 0.000000 0.001456 0.000000
# 3 -0.002819 -0.000601 0.015454 0.000000 0.002851 0.000000
# 4 0.000000 0.000000 0.000000 -0.179587 0.000000 -0.012908
# 5 0.001934 0.001456 0.002851 0.000000 0.023341 0.000000
# 6 0.000000 0.000000 0.000000 -0.012908 0.000000 0.027363
#
#
# Mechanical properties :
#
#
# Convention : Reuss Voigt Hill
#
# Bulk Modulus (GPa) = 35.92437 39.16480 37.54459
# Shear Modulus (GPa) = -73.72925 28.55717 -22.58604
#
# Velocity S-wave (km/s) = -5.35862 3.33496 -2.96587
# Velocity P-wave (km/s) = 4.92901 5.48475 1.70107
#
# Compressibility (1/GPa) = 0.02783626
#
# Stress axis : x y z
#
# Youngs Moduli (GPa) = 78.18987 86.43828 64.70840
#
# Poissons Ratio (x) = 0.22201 0.18241
# Poissons Ratio (y) = 0.20082 0.03887
# Poissons Ratio (z) = 0.22041 0.05192
#
# Static dielectric constant tensor:
#      x y z
#    x 2.078390 0.000000 0.008890 
#    y 0.000000 2.066470 0.000000 
#    z 0.008890 0.000000 2.133870 
# 
# From -- ./inp_files/6737.got.cif
#   From: 2010.05.17/outbox.cif.g08.bks.cpg/sg14_4_cif.got.tgz:6737.got - 2010.06.03 17:49:19.
