data_PCOD9249925
_publ_section_title
;
Structure prediction by ZEFSAII (Michael W. Deem and Ramdas Pophale) SiO2 
 PCOD9249925
Probable space group: P 21/C
;
_chemical_formula_sum "Si O2"
_cell_formula_units_Z 26
_cell_length_a 9.762356
_cell_length_b 19.902750
_cell_length_c 8.724117
_cell_angle_alpha 90.000000
_cell_angle_beta 138.471331
_cell_angle_gamma 90.000000
_cell_volume 1123.826527
_symmetry_space_group_name_H-M "P 21/C"
_symmetry_group_IT_number 14
_symmetry_cell_setting 'monoclinic'
loop_
_space_group_symop_operation_xyz
x,y,z
-x,1/2+y,1/2-z
-x,-y,-z
x,1/2-y,1/2+z
loop_
_atom_site_type_symbol
_atom_site_label
_atom_site_fract_x
_atom_site_fract_y
_atom_site_fract_z
Si Si1 0.964542 0.237338 0.677384
Si Si2 0.653832 0.654851 0.570547
Si Si3 0.534480 0.086553 0.619697
Si Si4 0.866164 0.620756 0.069878
Si Si5 0.561649 0.037420 0.298856
Si Si6 0.000000 0.000000 0.500000
Si Si7 0.684376 0.229563 0.696433
O O1 0.750414 0.216711 0.577864
O O2 0.896979 0.243108 0.445143
O O3 0.142452 0.182687 0.844612
O O4 0.037544 0.310795 0.787700
O O5 0.724388 0.636163 0.801043
O O6 0.560570 0.591165 0.405406
O O7 0.494314 0.716169 0.443754
O O8 0.286137 0.094414 0.424485
O O9 0.598784 0.065317 0.502561
O O10 0.625705 0.159915 0.726794
O O11 0.576103 0.028900 0.779523
O O12 0.021617 0.565526 0.134420
O O13 0.775596 0.018263 0.395998
#
# Coordination Sequence:
#
# PCOD9249925 Si02
#       7
#     4   4   4   4   4   2   4
#     4  12  26  42  67 109 138 190 242 298 359 441
#     4  12  26  45  72 105 143 193 240 304 365 436
#     4  10  23  44  71 103 140 190 232 302 361 417
#     4  11  24  45  69 103 145 185 241 299 363 433
#     4  10  24  45  74 103 147 186 241 302 361 432
#     4  10  24  46  72 106 140 188 248 286 362 448
#     4  12  25  42  72  99 146 187 241 299 366 425
#
# _framework density 23.135242000000002
#
# number of rings (size 3 to 8) (size 9 to 14) (size 15 to 20)
#    0.000    0.923    3.077    2.769    6.462    3.692 
#    0.000    0.769    0.000    0.000    0.000    0.000 
#    0.000    0.000    0.000    0.000    0.000    0.000 
#
# Total GULP energy -144853.064965 kJ/mol
# GULP energy per Si atom -5571.271729 kJ/mol
# Density = 2.308259 g / cm^3
# Si number density = 23.135242 Si / 1000 Ang^3
#
#
#
# Elastic Constant Matrix: (Units=GPa)
#
#
# Indices 1 2 3 4 5 6 
#
# 1 110.0972 34.3848 25.8946 0.0000 8.7908 0.0000
# 2 34.3848 93.1307 14.3443 0.0000 8.6686 0.0000
# 3 25.8946 14.3443 58.2085 0.0000 -1.8456 0.0000
# 4 0.0000 0.0000 0.0000 27.0572 0.0000 3.5331
# 5 8.7908 8.6686 -1.8456 0.0000 14.2233 0.0000
# 6 0.0000 0.0000 0.0000 3.5331 0.0000 37.3577
#
#
#
# Elastic Compliance Matrix: (Units=1/GPa)
#
#
# Indices 1 2 3 4 5 6 
#
# 1 0.011578 -0.003017 -0.004595 0.000000 -0.005913 0.000000
# 2 -0.003017 0.012731 -0.001990 0.000000 -0.006153 0.000000
# 3 -0.004595 -0.001990 0.019925 0.000000 0.006638 0.000000
# 4 0.000000 0.000000 0.000000 0.037421 0.000000 -0.003539
# 5 -0.005913 -0.006153 0.006638 0.000000 0.078573 0.000000
# 6 0.000000 0.000000 0.000000 -0.003539 0.000000 0.027103
#
#
# Mechanical properties :
#
#
# Convention : Reuss Voigt Hill
#
# Bulk Modulus (GPa) = 39.95221 45.63154 42.79188
# Shear Modulus (GPa) = 23.26920 28.18182 25.72551
#
# Velocity S-wave (km/s) = 3.17486 3.49396 3.33823
# Velocity P-wave (km/s) = 5.54492 6.00364 5.77883
#
# Compressibility (1/GPa) = 0.02502990
#
# Stress axis : x y z
#
# Youngs Moduli (GPa) = 86.37217 78.55099 50.18934
#
# Poissons Ratio (x) = 0.23695 0.23060
# Poissons Ratio (y) = 0.26054 0.09989
# Poissons Ratio (z) = 0.39685 0.15634
#
# Static dielectric constant tensor:
#      x y z
#    x 1.862680 0.000000 -0.000600 
#    y 0.000000 1.927020 0.000000 
#    z -0.000600 0.000000 1.847580 
# 
# From -- ./inp_files/10310.got.cif
#   From: 2010.05.17/outbox.cif.g08.bks.cpg/sg14_6_cif.got.tgz:10310.got - 2010.06.03 17:49:19.
