data_PCOD9249487
_publ_section_title
;
Structure prediction by ZEFSAII (Michael W. Deem and Ramdas Pophale) SiO2 
 PCOD9249487
Probable space group: P 21/C
;
_chemical_formula_sum "Si O2"
_cell_formula_units_Z 28
_cell_length_a 17.256217
_cell_length_b 8.218551
_cell_length_c 13.528177
_cell_angle_alpha 90.000000
_cell_angle_beta 146.934853
_cell_angle_gamma 90.000000
_cell_volume 1046.762940
_symmetry_space_group_name_H-M "P 21/C"
_symmetry_group_IT_number 14
_symmetry_cell_setting 'monoclinic'
loop_
_space_group_symop_operation_xyz
x,y,z
-x,1/2+y,1/2-z
-x,-y,-z
x,1/2-y,1/2+z
loop_
_atom_site_type_symbol
_atom_site_label
_atom_site_fract_x
_atom_site_fract_y
_atom_site_fract_z
Si Si1 0.666290 0.989845 0.932196
Si Si2 0.018720 0.716688 0.939742
Si Si3 0.801693 0.217168 0.674845
Si Si4 0.503407 0.266122 0.130267
Si Si5 0.246060 0.970399 0.565460
Si Si6 0.246500 0.256941 0.217801
Si Si7 0.934771 0.945679 0.094432
O O1 0.570029 0.069736 0.743903
O O2 0.593962 0.830238 0.895476
O O3 0.824267 0.959245 0.063376
O O4 0.692810 0.136670 0.038349
O O5 0.871435 0.660666 0.834769
O O6 0.139025 0.762697 0.150839
O O7 0.095608 0.590182 0.949325
O O8 0.990657 0.884003 0.850231
O O9 0.739658 0.069334 0.537261
O O10 0.958738 0.206233 0.792452
O O11 0.635723 0.145152 0.258480
O O12 0.398721 0.277147 0.926502
O O13 0.265212 0.144819 0.635735
O O14 0.167013 0.090861 0.107937
#
# Coordination Sequence:
#
# PCOD9249487 Si02
#       7
#     4   4   4   4   4   4   4
#     4  11  26  47  70 105 139 196 234 293 357 429
#     4  11  23  47  69 106 138 184 240 289 358 418
#     4  10  23  41  74 100 142 179 234 299 345 423
#     4  11  26  47  69 102 145 185 242 284 358 433
#     4  11  24  45  70 103 144 186 235 291 358 413
#     4  11  25  40  71 105 137 187 229 299 352 426
#     4  11  25  45  69 105 141 182 237 289 369 413
#
# _framework density 26.749133
#
# number of rings (size 3 to 8) (size 9 to 14) (size 15 to 20)
#    0.000    1.143    2.857    3.429    8.000    5.143 
#    2.571    0.000    0.000    0.000    0.000    0.000 
#    0.000    0.000    0.000    0.000    0.000    0.000 
#
# Total GULP energy -156401.092385 kJ/mol
# GULP energy per Si atom -5585.753299 kJ/mol
# Density = 2.668825 g / cm^3
# Si number density = 26.749133 Si / 1000 Ang^3
#
#
#
# Elastic Constant Matrix: (Units=GPa)
#
#
# Indices 1 2 3 4 5 6 
#
# 1 87.9633 8.8445 -3.0886 0.0000 6.9270 0.0000
# 2 8.8445 59.2755 2.1264 0.0000 -6.2886 0.0000
# 3 -3.0886 2.1264 134.7780 0.0000 19.1514 0.0000
# 4 0.0000 0.0000 0.0000 40.7105 0.0000 5.4787
# 5 6.9270 -6.2886 19.1514 0.0000 38.9048 0.0000
# 6 0.0000 0.0000 0.0000 5.4787 0.0000 33.4898
#
#
#
# Elastic Compliance Matrix: (Units=1/GPa)
#
#
# Indices 1 2 3 4 5 6 
#
# 1 0.011822 -0.002085 0.000700 0.000000 -0.002786 0.000000
# 2 -0.002085 0.017597 -0.000841 0.000000 0.003630 0.000000
# 3 0.000700 -0.000841 0.008049 0.000000 -0.004223 0.000000
# 4 0.000000 0.000000 0.000000 0.025117 0.000000 -0.004109
# 5 -0.002786 0.003630 -0.004223 0.000000 0.028865 0.000000
# 6 0.000000 0.000000 0.000000 -0.004109 0.000000 0.030532
#
#
# Mechanical properties :
#
#
# Convention : Reuss Voigt Hill
#
# Bulk Modulus (GPa) = 30.28886 33.08682 31.68784
# Shear Modulus (GPa) = 36.37979 40.89663 38.63821
#
# Velocity S-wave (km/s) = 3.69187 3.91435 3.80474
# Velocity P-wave (km/s) = 5.43333 5.72937 5.58331
#
# Compressibility (1/GPa) = 0.03301544
#
# Stress axis : x y z
#
# Youngs Moduli (GPa) = 84.58822 56.82891 124.23977
#
# Poissons Ratio (x) = 0.11847 -0.08693
# Poissons Ratio (y) = 0.17634 0.10450
# Poissons Ratio (z) = -0.05919 0.04780
#
# Static dielectric constant tensor:
#      x y z
#    x 2.097810 0.000000 -0.088240 
#    y 0.000000 2.058330 0.000000 
#    z -0.088240 0.000000 2.208150 
# 
# From -- ./inp_files/50261.got.cif
#   From: 2010.05.17/outbox.cif.g08.bks.cpg/sg14_26_cif.got.tgz:50261.got - 2010.06.03 17:49:19.
