data_PCOD9249950
_publ_section_title
;
Structure prediction by ZEFSAII (Michael W. Deem and Ramdas Pophale) SiO2 
 PCOD9249950
Probable space group: P 21/C
;
_chemical_formula_sum "Si O2"
_cell_formula_units_Z 20
_cell_length_a 10.485678
_cell_length_b 11.398686
_cell_length_c 9.139577
_cell_angle_alpha 90.000000
_cell_angle_beta 140.336137
_cell_angle_gamma 90.000000
_cell_volume 697.252834
_symmetry_space_group_name_H-M "P 21/C"
_symmetry_group_IT_number 14
_symmetry_cell_setting 'monoclinic'
loop_
_space_group_symop_operation_xyz
x,y,z
-x,1/2+y,1/2-z
-x,-y,-z
x,1/2-y,1/2+z
loop_
_atom_site_type_symbol
_atom_site_label
_atom_site_fract_x
_atom_site_fract_y
_atom_site_fract_z
Si Si1 0.721429 0.101962 0.271814
Si Si2 0.533827 0.260940 0.338415
Si Si3 0.761245 0.436892 0.357231
Si Si4 0.839665 0.896519 0.200964
Si Si5 0.806601 0.841010 0.761562
O O1 0.594405 0.145380 0.298349
O O2 0.945989 0.104532 0.531820
O O3 0.699576 0.969010 0.191023
O O4 0.680630 0.190401 0.099013
O O5 0.577100 0.362001 0.255340
O O6 0.338429 0.225468 0.254458
O O7 0.831025 0.523523 0.550179
O O8 0.731979 0.524659 0.195978
O O9 0.956321 0.357930 0.500254
O O10 0.800685 0.759628 0.133748
#
# Coordination Sequence:
#
# PCOD9249950 Si02
#       5
#     4   4   4   4   4
#     4  10  24  45  70 110 143 196 251 305 369 448
#     4  11  25  46  73 109 155 188 249 314 364 447
#     4  10  25  48  74 113 148 192 263 298 373 457
#     4  10  23  44  78  96 146 203 242 310 372 438
#     4  11  25  44  77 105 149 202 238 320 375 433
#
# _framework density 28.683999
#
# number of rings (size 3 to 8) (size 9 to 14) (size 15 to 20)
#    0.000    1.600    2.000    0.000    8.400    3.200 
#    0.000    2.000    0.000    0.000    0.000    0.000 
#    0.000    0.000    0.000    0.000    0.000    0.000 
#
# Total GULP energy -111810.596578 kJ/mol
# GULP energy per Si atom -5590.529829 kJ/mol
# Density = 2.861871 g / cm^3
# Si number density = 28.683999 Si / 1000 Ang^3
#
#
#
# Elastic Constant Matrix: (Units=GPa)
#
#
# Indices 1 2 3 4 5 6 
#
# 1 99.5771 50.2197 44.7586 0.0000 17.4970 0.0000
# 2 50.2197 195.4592 44.1697 0.0000 4.6981 0.0000
# 3 44.7586 44.1697 105.8009 0.0000 3.4872 0.0000
# 4 0.0000 0.0000 0.0000 68.9310 0.0000 -2.0920
# 5 17.4970 4.6981 3.4872 0.0000 51.7506 0.0000
# 6 0.0000 0.0000 0.0000 -2.0920 0.0000 62.2592
#
#
#
# Elastic Compliance Matrix: (Units=1/GPa)
#
#
# Indices 1 2 3 4 5 6 
#
# 1 0.014205 -0.002452 -0.004845 0.000000 -0.004253 0.000000
# 2 -0.002452 0.006079 -0.001513 0.000000 0.000379 0.000000
# 3 -0.004845 -0.001513 0.012101 0.000000 0.000960 0.000000
# 4 0.000000 0.000000 0.000000 0.014522 0.000000 0.000488
# 5 -0.004253 0.000379 0.000960 0.000000 0.020662 0.000000
# 6 0.000000 0.000000 0.000000 0.000488 0.000000 0.016078
#
#
# Mechanical properties :
#
#
# Convention : Reuss Voigt Hill
#
# Bulk Modulus (GPa) = 67.73217 75.45926 71.59572
# Shear Modulus (GPa) = 47.08541 54.03410 50.55976
#
# Velocity S-wave (km/s) = 4.05597 4.34495 4.20294
# Velocity P-wave (km/s) = 6.75270 7.17884 6.96903
#
# Compressibility (1/GPa) = 0.01476403
#
# Stress axis : x y z
#
# Youngs Moduli (GPa) = 70.40002 164.49974 82.63521
#
# Poissons Ratio (x) = 0.40343 0.40038
# Poissons Ratio (y) = 0.17265 0.12502
# Poissons Ratio (z) = 0.34110 0.24887
#
# Static dielectric constant tensor:
#      x y z
#    x 2.200180 0.000000 0.000530 
#    y 0.000000 2.273170 0.000000 
#    z 0.000530 0.000000 2.294340 
# 
# From -- ./inp_files/28811.got.cif
#   From: 2010.05.17/outbox.cif.g08.bks.cpg/sg14_15_cif.got.tgz:28811.got - 2010.06.03 17:49:19.
