data_PCOD9249785
_publ_section_title
;
Structure prediction by ZEFSAII (Michael W. Deem and Ramdas Pophale) SiO2 
 PCOD9249785
Probable space group: P 21/C
;
_chemical_formula_sum "Si O2"
_cell_formula_units_Z 28
_cell_length_a 8.347809
_cell_length_b 10.767867
_cell_length_c 17.925484
_cell_angle_alpha 90.000000
_cell_angle_beta 43.994075
_cell_angle_gamma 90.000000
_cell_volume 1119.174585
_symmetry_space_group_name_H-M "P 21/C"
_symmetry_group_IT_number 14
_symmetry_cell_setting 'monoclinic'
loop_
_space_group_symop_operation_xyz
x,y,z
-x,1/2+y,1/2-z
-x,-y,-z
x,1/2-y,1/2+z
loop_
_atom_site_type_symbol
_atom_site_label
_atom_site_fract_x
_atom_site_fract_y
_atom_site_fract_z
Si Si1 0.173845 0.418526 0.639259
Si Si2 0.185349 0.887138 0.636049
Si Si3 0.552967 0.048112 0.758323
Si Si4 0.555287 0.036499 0.584655
Si Si5 0.877537 0.101972 0.094192
Si Si6 0.543097 0.162008 0.911650
Si Si7 0.023786 0.385039 0.049227
O O1 0.307632 0.545523 0.608525
O O2 0.345753 0.325844 0.539973
O O3 0.077696 0.380218 0.751597
O O4 0.969088 0.429235 0.647003
O O5 0.278609 0.875942 0.520869
O O6 0.288663 0.775174 0.647638
O O7 0.046943 0.755546 0.946822
O O8 0.521599 0.078942 0.680846
O O9 0.399340 0.922355 0.817475
O O10 0.453986 0.130420 0.858857
O O11 0.830059 0.071117 0.673916
O O12 0.313773 0.010358 0.624562
O O13 0.703648 0.906650 0.529566
O O14 0.000000 0.000000 0.000000
O O15 0.000000 0.500000 0.000000
#
# Coordination Sequence:
#
# PCOD9249785 Si02
#       7
#     4   4   4   4   4   4   4
#     4  11  24  44  66 106 140 192 245 300 379 440
#     4  11  23  44  73  99 144 196 245 307 376 451
#     4  11  23  43  70 107 143 195 244 309 374 449
#     4  10  23  43  70 105 138 191 255 302 368 454
#     4  12  24  43  74 105 149 198 251 311 379 455
#     4  11  25  44  71 101 149 189 243 313 378 445
#     4  10  24  44  71 104 149 190 249 312 369 443
#
# _framework density 25.018438
#
# number of rings (size 3 to 8) (size 9 to 14) (size 15 to 20)
#    0.000    1.143    2.857    2.571    0.000    5.714 
#    0.000    0.000    0.000    0.000    0.000    0.000 
#    0.000    0.000    0.000    0.000    0.000    0.000 
#
# Total GULP energy -156023.663071 kJ/mol
# GULP energy per Si atom -5572.273681 kJ/mol
# Density = 2.496150 g / cm^3
# Si number density = 25.018438 Si / 1000 Ang^3
#
#
#
# Elastic Constant Matrix: (Units=GPa)
#
#
# Indices 1 2 3 4 5 6 
#
# 1 57.6312 35.9813 18.7672 0.0000 30.6248 0.0000
# 2 35.9813 94.7512 53.9907 0.0000 11.0444 0.0000
# 3 18.7672 53.9907 144.2754 0.0000 14.0024 0.0000
# 4 0.0000 0.0000 0.0000 25.4980 0.0000 -5.3679
# 5 30.6248 11.0444 14.0024 0.0000 53.9634 0.0000
# 6 0.0000 0.0000 0.0000 -5.3679 0.0000 39.9170
#
#
#
# Elastic Compliance Matrix: (Units=1/GPa)
#
#
# Indices 1 2 3 4 5 6 
#
# 1 0.032866 -0.011464 0.001639 0.000000 -0.016731 0.000000
# 2 -0.011464 0.017530 -0.005490 0.000000 0.004343 0.000000
# 3 0.001639 -0.005490 0.008980 0.000000 -0.002137 0.000000
# 4 0.000000 0.000000 0.000000 0.040361 0.000000 0.005428
# 5 -0.016731 0.004343 -0.002137 0.000000 0.027692 0.000000
# 6 0.000000 0.000000 0.000000 0.005428 0.000000 0.025782
#
#
# Mechanical properties :
#
#
# Convention : Reuss Voigt Hill
#
# Bulk Modulus (GPa) = 34.78954 57.12623 45.95788
# Shear Modulus (GPa) = 25.84996 36.40361 31.12679
#
# Velocity S-wave (km/s) = 3.21789 3.81868 3.53108
# Velocity P-wave (km/s) = 5.26708 6.50587 5.91897
#
# Compressibility (1/GPa) = 0.02874427
#
# Stress axis : x y z
#
# Youngs Moduli (GPa) = 30.42621 57.04611 111.35980
#
# Poissons Ratio (x) = 0.65400 -0.18250
# Poissons Ratio (y) = 0.34882 0.61139
# Poissons Ratio (z) = -0.04986 0.31319
#
# Static dielectric constant tensor:
#      x y z
#    x 2.148780 0.000000 -0.090740 
#    y 0.000000 1.970840 0.000000 
#    z -0.090740 0.000000 2.095490 
# 
# From -- ./inp_files/65718.got.cif
#   From: 2010.05.17/outbox.cif.g08.bks.cpg/sg14_33_cif.got.tgz:65718.got - 2010.06.03 17:49:19.
