data_PCOD9249593
_publ_section_title
;
Structure prediction by ZEFSAII (Michael W. Deem and Ramdas Pophale) SiO2 
 PCOD9249593
Probable space group: P 21/C
;
_chemical_formula_sum "Si O2"
_cell_formula_units_Z 24
_cell_length_a 5.114846
_cell_length_b 11.217887
_cell_length_c 16.846848
_cell_angle_alpha 90.000000
_cell_angle_beta 68.096929
_cell_angle_gamma 90.000000
_cell_volume 896.859185
_symmetry_space_group_name_H-M "P 21/C"
_symmetry_group_IT_number 14
_symmetry_cell_setting 'monoclinic'
loop_
_space_group_symop_operation_xyz
x,y,z
-x,1/2+y,1/2-z
-x,-y,-z
x,1/2-y,1/2+z
loop_
_atom_site_type_symbol
_atom_site_label
_atom_site_fract_x
_atom_site_fract_y
_atom_site_fract_z
Si Si1 0.492375 0.385338 0.759295
Si Si2 0.404929 0.250812 0.429201
Si Si3 0.183474 0.091279 0.695885
Si Si4 0.263509 0.970888 0.142411
Si Si5 0.806183 0.058634 0.452591
Si Si6 0.942634 0.697104 0.390329
O O1 0.370850 0.310190 0.846831
O O2 0.582531 0.510857 0.789648
O O3 0.325234 0.430736 0.702509
O O4 0.758689 0.313363 0.689726
O O5 0.481347 0.388134 0.408036
O O6 0.678748 0.189343 0.441672
O O7 0.124778 0.246407 0.515652
O O8 0.242216 0.212641 0.643525
O O9 0.965567 0.113849 0.790969
O O10 0.070436 0.002077 0.640695
O O11 0.142386 0.058738 0.090634
O O12 0.500000 0.000000 0.500000
O O13 0.000000 0.000000 0.500000
#
# Coordination Sequence:
#
# PCOD9249593 Si02
#       6
#     4   4   4   4   4   4
#     4  10  25  44  69 106 143 196 253 319 390 462
#     4  11  24  47  71 109 149 197 255 322 393 459
#     4  10  23  42  67  99 144 187 249 316 377 459
#     4  11  25  44  69 102 150 198 252 317 397 468
#     4  11  25  46  73 113 149 194 259 316 380 456
#     4  11  23  45  69 102 147 191 261 310 399 466
#
# _framework density 26.760054
#
# number of rings (size 3 to 8) (size 9 to 14) (size 15 to 20)
#    0.000    1.333    3.333    0.500    7.000    2.000 
#    6.000    0.000    0.000    0.000    0.000    0.000 
#    0.000    0.000    0.000    0.000    0.000    0.000 
#
# Total GULP energy -133895.801922 kJ/mol
# GULP energy per Si atom -5578.991747 kJ/mol
# Density = 2.669915 g / cm^3
# Si number density = 26.760054 Si / 1000 Ang^3
#
#
#
# Elastic Constant Matrix: (Units=GPa)
#
#
# Indices 1 2 3 4 5 6 
#
# 1 82.3615 6.7565 20.3745 0.0000 14.1329 0.0000
# 2 6.7565 107.4247 52.0148 0.0000 -3.8784 0.0000
# 3 20.3745 52.0148 150.7343 0.0000 -21.3200 0.0000
# 4 0.0000 0.0000 0.0000 15.2766 0.0000 -12.4957
# 5 14.1329 -3.8784 -21.3200 0.0000 28.2090 0.0000
# 6 0.0000 0.0000 0.0000 -12.4957 0.0000 19.3759
#
#
#
# Elastic Compliance Matrix: (Units=1/GPa)
#
#
# Indices 1 2 3 4 5 6 
#
# 1 0.014697 0.000433 -0.003549 0.000000 -0.009986 0.000000
# 2 0.000433 0.011249 -0.004202 0.000000 -0.001846 0.000000
# 3 -0.003549 -0.004202 0.009779 0.000000 0.008591 0.000000
# 4 0.000000 0.000000 0.000000 0.138543 0.000000 0.089348
# 5 -0.009986 -0.001846 0.008591 0.000000 0.046692 0.000000
# 6 0.000000 0.000000 0.000000 0.089348 0.000000 0.109232
#
#
# Mechanical properties :
#
#
# Convention : Reuss Voigt Hill
#
# Bulk Modulus (GPa) = 47.41147 55.42357 51.41752
# Shear Modulus (GPa) = 14.21033 29.99728 22.10381
#
# Velocity S-wave (km/s) = 2.30690 3.35172 2.87714
# Velocity P-wave (km/s) = 4.98512 5.97788 5.50393
#
# Compressibility (1/GPa) = 0.02109194
#
# Stress axis : x y z
#
# Youngs Moduli (GPa) = 68.03905 88.89427 102.26218
#
# Poissons Ratio (x) = -0.03852 0.36288
# Poissons Ratio (y) = -0.02948 0.42966
# Poissons Ratio (z) = 0.24144 0.37349
#
# Static dielectric constant tensor:
#      x y z
#    x 1.706680 0.000000 0.237080 
#    y 0.000000 1.994690 0.000000 
#    z 0.237080 0.000000 2.054240 
# 
# From -- ./inp_files/52945.got.cif
#   From: 2010.05.17/outbox.cif.g08.bks.cpg/sg14_27_cif.got.tgz:52945.got - 2010.06.03 17:49:19.
