data_PCOD9249613
_publ_section_title
;
Structure prediction by ZEFSAII (Michael W. Deem and Ramdas Pophale) SiO2 
 PCOD9249613
Probable space group: P 21/C
;
_chemical_formula_sum "Si O2"
_cell_formula_units_Z 30
_cell_length_a 21.425427
_cell_length_b 11.520392
_cell_length_c 11.427230
_cell_angle_alpha 90.000000
_cell_angle_beta 151.971878
_cell_angle_gamma 90.000000
_cell_volume 1325.402126
_symmetry_space_group_name_H-M "P 21/C"
_symmetry_group_IT_number 14
_symmetry_cell_setting 'monoclinic'
loop_
_space_group_symop_operation_xyz
x,y,z
-x,1/2+y,1/2-z
-x,-y,-z
x,1/2-y,1/2+z
loop_
_atom_site_type_symbol
_atom_site_label
_atom_site_fract_x
_atom_site_fract_y
_atom_site_fract_z
Si Si1 0.473550 0.499644 0.642386
Si Si2 0.261458 0.456399 0.801190
Si Si3 0.191183 0.851595 0.006912
Si Si4 0.567687 0.184159 0.123016
Si Si5 0.084637 0.089099 0.387047
Si Si6 0.279607 0.224938 0.125051
Si Si7 0.000000 0.000000 0.000000
Si Si8 0.792185 0.959566 0.167045
O O1 0.418574 0.582454 0.449640
O O2 0.527668 0.380576 0.676182
O O3 0.359307 0.478080 0.545609
O O4 0.597394 0.561870 0.906040
O O5 0.256152 0.579062 0.723241
O O6 0.247206 0.360647 0.678285
O O7 0.149331 0.458041 0.713391
O O8 0.294192 0.752541 0.141673
O O9 0.040580 0.823419 0.797109
O O10 0.175924 0.941749 0.874526
O O11 0.438581 0.261332 0.875454
O O12 0.214252 0.155247 0.556037
O O13 0.121219 0.033758 0.572322
O O14 0.034498 0.006815 0.200506
O O15 0.207844 0.166695 0.894603
#
# Coordination Sequence:
#
# PCOD9249613 Si02
#       8
#     4   4   4   4   4   4   2   4
#     4  11  24  41  68 101 138 182 231 289 348 409
#     4  10  23  42  68  99 136 183 227 287 347 413
#     4  10  24  46  66 103 140 178 231 290 348 407
#     4  11  24  42  66 102 137 180 232 288 341 413
#     4  11  24  45  70 101 136 186 223 284 352 415
#     4  11  24  43  71  99 135 182 235 273 347 421
#     4  10  24  42  68  92 138 178 228 284 340 416
#     4  11  24  45  71 101 138 183 228 288 346 422
#
# _framework density 22.634640000000001
#
# number of rings (size 3 to 8) (size 9 to 14) (size 15 to 20)
#    0.000    1.333    1.333    2.800    5.600    6.400 
#    9.600    0.000    0.000    0.000    0.000    0.000 
#    0.000    0.000    0.000    0.000    0.000    0.000 
#
# Total GULP energy -167272.785542 kJ/mol
# GULP energy per Si atom -5575.759518 kJ/mol
# Density = 2.258312 g / cm^3
# Si number density = 22.634640 Si / 1000 Ang^3
#
#
#
# Elastic Constant Matrix: (Units=GPa)
#
#
# Indices 1 2 3 4 5 6 
#
# 1 91.2239 10.6522 30.6482 0.0000 -1.4102 0.0000
# 2 10.6522 37.4188 12.8088 0.0000 -2.7641 0.0000
# 3 30.6482 12.8088 107.1498 0.0000 -6.7167 0.0000
# 4 0.0000 0.0000 0.0000 11.0371 0.0000 -7.3163
# 5 -1.4102 -2.7641 -6.7167 0.0000 48.8575 0.0000
# 6 0.0000 0.0000 0.0000 -7.3163 0.0000 5.5768
#
#
#
# Elastic Compliance Matrix: (Units=1/GPa)
#
#
# Indices 1 2 3 4 5 6 
#
# 1 0.012333 -0.002414 -0.003253 0.000000 -0.000228 0.000000
# 2 -0.002414 0.028399 -0.002631 0.000000 0.001175 0.000000
# 3 -0.003253 -0.002631 0.010654 0.000000 0.001222 0.000000
# 4 0.000000 0.000000 0.000000 0.694986 0.000000 0.911755
# 5 -0.000228 0.001175 0.001222 0.000000 0.020696 0.000000
# 6 0.000000 0.000000 0.000000 0.911755 0.000000 1.375449
#
#
# Mechanical properties :
#
#
# Convention : Reuss Voigt Hill
#
# Bulk Modulus (GPa) = 28.74357 38.22344 33.48350
# Shear Modulus (GPa) = 2.30339 25.20652 13.75496
#
# Velocity S-wave (km/s) = 1.00988 3.34072 2.46782
# Velocity P-wave (km/s) = 3.75317 5.63954 4.79013
#
# Compressibility (1/GPa) = 0.03479039
#
# Stress axis : x y z
#
# Youngs Moduli (GPa) = 81.08014 35.21236 93.85808
#
# Poissons Ratio (x) = 0.08501 0.30536
# Poissons Ratio (y) = 0.19574 0.24691
# Poissons Ratio (z) = 0.26379 0.09263
#
# Static dielectric constant tensor:
#      x y z
#    x 1.828390 0.000000 -0.019870 
#    y 0.000000 1.850200 0.000000 
#    z -0.019870 0.000000 1.824860 
# 
# From -- ./inp_files/35274.got.cif
#   From: 2010.05.17/outbox.cif.g08.bks.cpg/sg14_18_cif.got.tgz:35274.got - 2010.06.03 17:49:19.
