data_PCOD9249236
_publ_section_title
;
Structure prediction by ZEFSAII (Michael W. Deem and Ramdas Pophale) SiO2 
 PCOD9249236
Probable space group: P 21/C
;
_chemical_formula_sum "Si O2"
_cell_formula_units_Z 24
_cell_length_a 9.529184
_cell_length_b 8.283480
_cell_length_c 20.850747
_cell_angle_alpha 90.000000
_cell_angle_beta 46.971385
_cell_angle_gamma 90.000000
_cell_volume 1203.137495
_symmetry_space_group_name_H-M "P 21/C"
_symmetry_group_IT_number 14
_symmetry_cell_setting 'monoclinic'
loop_
_space_group_symop_operation_xyz
x,y,z
-x,1/2+y,1/2-z
-x,-y,-z
x,1/2-y,1/2+z
loop_
_atom_site_type_symbol
_atom_site_label
_atom_site_fract_x
_atom_site_fract_y
_atom_site_fract_z
Si Si1 0.500204 0.824881 0.777617
Si Si2 0.049404 0.898566 0.921909
Si Si3 0.487784 0.509532 0.153282
Si Si4 0.916834 0.114519 0.229920
Si Si5 0.114468 0.451868 0.027811
Si Si6 0.146364 0.995282 0.273691
O O1 0.274333 0.854561 0.858442
O O2 0.535653 0.648515 0.795167
O O3 0.532225 0.849198 0.691508
O O4 0.645382 0.947352 0.767598
O O5 0.035772 0.967720 0.853707
O O6 0.915466 0.740633 0.960010
O O7 0.000000 0.000000 0.000000
O O8 0.284571 0.540677 0.183697
O O9 0.666086 0.498072 0.050095
O O10 0.873581 0.303559 0.231774
O O11 0.081142 0.086263 0.230125
O O12 0.005086 0.529435 0.122023
O O13 0.000000 0.500000 0.000000
#
# Coordination Sequence:
#
# PCOD9249236 Si02
#       6
#     4   4   4   4   4   4
#     4  11  21  37  62  91 121 159 206 246 304 363
#     4  10  23  38  63  93 120 154 205 256 305 359
#     4  11  22  38  63  92 123 162 206 249 304 364
#     4  10  24  41  62  90 121 164 204 249 312 365
#     4  11  21  39  63  93 123 158 204 250 306 362
#     4  11  23  43  63  88 126 162 205 252 308 370
#
# _framework density 19.947845000000001
#
# number of rings (size 3 to 8) (size 9 to 14) (size 15 to 20)
#    0.000    1.333    3.333    3.000    7.000    2.000 
#    0.000    0.833    0.000    0.000    0.000    0.000 
#    0.000    0.000    0.000    0.000    0.000    0.000 
#
# Total GULP energy -133988.816544 kJ/mol
# GULP energy per Si atom -5582.867356 kJ/mol
# Density = 1.990244 g / cm^3
# Si number density = 19.947845 Si / 1000 Ang^3
#
#
#
# Elastic Constant Matrix: (Units=GPa)
#
#
# Indices 1 2 3 4 5 6 
#
# 1 85.2377 -0.9618 -2.9350 0.0000 10.0092 0.0000
# 2 -0.9618 41.9294 14.6971 0.0000 5.5875 0.0000
# 3 -2.9350 14.6971 57.7830 0.0000 8.5199 0.0000
# 4 0.0000 0.0000 0.0000 21.3706 0.0000 -0.1484
# 5 10.0092 5.5875 8.5199 0.0000 20.7780 0.0000
# 6 0.0000 0.0000 0.0000 -0.1484 0.0000 31.3204
#
#
#
# Elastic Compliance Matrix: (Units=1/GPa)
#
#
# Indices 1 2 3 4 5 6 
#
# 1 0.012596 0.000685 0.001477 0.000000 -0.006857 0.000000
# 2 0.000685 0.026639 -0.005999 0.000000 -0.005034 0.000000
# 3 0.001477 -0.005999 0.019982 0.000000 -0.007292 0.000000
# 4 0.000000 0.000000 0.000000 0.046795 0.000000 0.000222
# 5 -0.006857 -0.005034 -0.007292 0.000000 0.055775 0.000000
# 6 0.000000 0.000000 0.000000 0.000222 0.000000 0.031929
#
#
# Mechanical properties :
#
#
# Convention : Reuss Voigt Hill
#
# Bulk Modulus (GPa) = 19.40128 22.95006 21.17567
# Shear Modulus (GPa) = 22.87599 26.30379 24.58989
#
# Velocity S-wave (km/s) = 3.39010 3.63523 3.51480
# Velocity P-wave (km/s) = 5.00708 5.39906 5.20676
#
# Compressibility (1/GPa) = 0.05154298
#
# Stress axis : x y z
#
# Youngs Moduli (GPa) = 79.39210 37.53929 50.04504
#
# Poissons Ratio (x) = -0.02572 -0.07390
# Poissons Ratio (y) = -0.05440 0.30020
# Poissons Ratio (z) = -0.11723 0.22518
#
# Static dielectric constant tensor:
#      x y z
#    x 1.695240 0.000000 -0.020950 
#    y 0.000000 1.790640 0.000000 
#    z -0.020950 0.000000 1.766130 
# 
# From -- ./inp_files/46360.got.cif
#   From: 2010.05.17/outbox.cif.g08.bks.cpg/sg14_24_cif.got.tgz:46360.got - 2010.06.03 17:49:19.
