data_PCOD9249656
_publ_section_title
;
Structure prediction by ZEFSAII (Michael W. Deem and Ramdas Pophale) SiO2 
 PCOD9249656
Probable space group: P 21/C
;
_chemical_formula_sum "Si O2"
_cell_formula_units_Z 28
_cell_length_a 7.833509
_cell_length_b 28.963142
_cell_length_c 6.916263
_cell_angle_alpha 90.000000
_cell_angle_beta 44.683042
_cell_angle_gamma 90.000000
_cell_volume 1103.424651
_symmetry_space_group_name_H-M "P 21/C"
_symmetry_group_IT_number 14
_symmetry_cell_setting 'monoclinic'
loop_
_space_group_symop_operation_xyz
x,y,z
-x,1/2+y,1/2-z
-x,-y,-z
x,1/2-y,1/2+z
loop_
_atom_site_type_symbol
_atom_site_label
_atom_site_fract_x
_atom_site_fract_y
_atom_site_fract_z
Si Si1 0.511196 0.975695 0.706357
Si Si2 0.845140 0.657232 0.630752
Si Si3 0.724947 0.208749 0.141639
Si Si4 0.014970 0.005887 0.221376
Si Si5 0.385919 0.686925 0.826801
Si Si6 0.033441 0.892226 0.627184
Si Si7 0.581616 0.624794 0.211616
O O1 0.429413 0.922435 0.812329
O O2 0.500000 0.000000 0.500000
O O3 0.807670 0.973207 0.483118
O O4 0.309577 0.002011 0.001341
O O5 0.673267 0.682101 0.613729
O O6 0.992744 0.621881 0.383005
O O7 0.999658 0.694838 0.623800
O O8 0.698146 0.629233 0.905809
O O9 0.689307 0.191854 0.388242
O O10 0.684404 0.262981 0.192198
O O11 0.555423 0.174425 0.152756
O O12 0.921083 0.054002 0.386018
O O13 0.000000 0.000000 0.000000
O O14 0.248506 0.640405 0.872272
O O15 0.792284 0.881616 0.698874
#
# Coordination Sequence:
#
# PCOD9249656 Si02
#       7
#     4   4   4   4   4   4   4
#     4  10  23  42  72 100 145 187 245 301 375 438
#     4  10  24  44  68  94 146 184 234 300 364 428
#     4  10  25  42  69 100 141 187 241 297 368 432
#     4  10  23  42  72 100 145 187 245 301 375 438
#     4  10  25  42  69 100 141 187 241 297 368 432
#     4  11  26  43  70 106 137 191 242 297 366 443
#     4  11  26  43  70 106 137 191 242 297 366 443
#
# _framework density 25.375546
#
# number of rings (size 3 to 8) (size 9 to 14) (size 15 to 20)
#    0.000    1.714    0.000    1.714   22.000    3.429 
#    0.000    0.000    0.000    0.000    0.000    0.000 
#    0.000    0.000    0.000    0.000    0.000    0.000 
#
# Total GULP energy -156121.088163 kJ/mol
# GULP energy per Si atom -5575.753149 kJ/mol
# Density = 2.531779 g / cm^3
# Si number density = 25.375546 Si / 1000 Ang^3
#
#
#
# Elastic Constant Matrix: (Units=GPa)
#
#
# Indices 1 2 3 4 5 6 
#
# 1 96.2597 43.5676 2.2020 0.0000 -16.7774 0.0000
# 2 43.5676 150.9842 5.6187 0.0000 -15.4584 0.0000
# 3 2.2020 5.6187 81.7575 0.0000 -6.2596 0.0000
# 4 0.0000 0.0000 0.0000 33.5752 0.0000 2.7384
# 5 -16.7774 -15.4584 -6.2596 0.0000 41.7235 0.0000
# 6 0.0000 0.0000 0.0000 2.7384 0.0000 39.4313
#
#
#
# Elastic Compliance Matrix: (Units=1/GPa)
#
#
# Indices 1 2 3 4 5 6 
#
# 1 0.012517 -0.003223 0.000180 0.000000 0.003866 0.000000
# 2 -0.003223 0.007720 -0.000328 0.000000 0.001515 0.000000
# 3 0.000180 -0.000328 0.012388 0.000000 0.001810 0.000000
# 4 0.000000 0.000000 0.000000 0.029954 0.000000 -0.002080
# 5 0.003866 0.001515 0.001810 0.000000 0.026355 0.000000
# 6 0.000000 0.000000 0.000000 -0.002080 0.000000 0.025505
#
#
# Mechanical properties :
#
#
# Convention : Reuss Voigt Hill
#
# Bulk Modulus (GPa) = 38.63288 47.97531 43.30410
# Shear Modulus (GPa) = 38.51877 41.45353 39.98615
#
# Velocity S-wave (km/s) = 3.90031 4.04617 3.97391
# Velocity P-wave (km/s) = 5.96161 6.38559 6.17724
#
# Compressibility (1/GPa) = 0.02588469
#
# Stress axis : x y z
#
# Youngs Moduli (GPa) = 79.89191 129.52536 80.72646
#
# Poissons Ratio (x) = 0.41742 -0.01456
# Poissons Ratio (y) = 0.25747 0.02646
# Poissons Ratio (z) = -0.01441 0.04245
#
# Static dielectric constant tensor:
#      x y z
#    x 2.221750 0.000000 -0.111230 
#    y 0.000000 2.153110 0.000000 
#    z -0.111230 0.000000 2.077810 
# 
# From -- ./inp_files/11008.got.cif
#   From: 2010.05.17/outbox.cif.g08.bks.cpg/sg14_6_cif.got.tgz:11008.got - 2010.06.03 17:49:19.
