data_PCOD9249473
_publ_section_title
;
Structure prediction by ZEFSAII (Michael W. Deem and Ramdas Pophale) SiO2 
 PCOD9249473
Probable space group: P 21/C
;
_chemical_formula_sum "Si O2"
_cell_formula_units_Z 24
_cell_length_a 7.925418
_cell_length_b 13.935437
_cell_length_c 8.993759
_cell_angle_alpha 90.000000
_cell_angle_beta 102.288599
_cell_angle_gamma 90.000000
_cell_volume 970.549455
_symmetry_space_group_name_H-M "P 21/C"
_symmetry_group_IT_number 14
_symmetry_cell_setting 'monoclinic'
loop_
_space_group_symop_operation_xyz
x,y,z
-x,1/2+y,1/2-z
-x,-y,-z
x,1/2-y,1/2+z
loop_
_atom_site_type_symbol
_atom_site_label
_atom_site_fract_x
_atom_site_fract_y
_atom_site_fract_z
Si Si1 0.586684 0.474538 0.175873
Si Si2 0.982352 0.778856 0.207207
Si Si3 0.777272 0.260888 0.491454
Si Si4 0.892000 0.570343 0.088828
Si Si5 0.341751 0.180239 0.691679
Si Si6 0.557913 0.350512 0.704317
O O1 0.487796 0.540652 0.275863
O O2 0.500000 0.500000 0.000000
O O3 0.782390 0.507212 0.185493
O O4 0.468849 0.631198 0.781981
O O5 0.791056 0.819926 0.196065
O O6 0.088609 0.816608 0.087636
O O7 0.981600 0.661748 0.185863
O O8 0.759258 0.627291 0.957532
O O9 0.658644 0.325614 0.573805
O O10 0.663209 0.189906 0.367937
O O11 0.902179 0.202568 0.626002
O O12 0.000000 0.500000 0.000000
O O13 0.380726 0.290796 0.670386
#
# Coordination Sequence:
#
# PCOD9249473 Si02
#       6
#     4   4   4   4   4   4
#     4  10  23  41  70 102 129 186 239 280 332 434
#     4  11  22  43  64 105 136 180 226 290 355 408
#     4  10  24  37  71  93 135 183 220 281 354 414
#     4  11  24  41  74 101 136 183 246 286 333 434
#     4  11  24  40  73  99 138 179 238 288 352 396
#     4  11  23  46  68 102 139 180 237 289 347 420
#
# _framework density 24.728261
#
# number of rings (size 3 to 8) (size 9 to 14) (size 15 to 20)
#    0.000    1.333    3.333    2.000   11.667    0.000 
#    0.000    1.667    0.000    0.000    0.000    0.000 
#    0.000    0.000    0.000    0.000    0.000    0.000 
#
# Total GULP energy -134169.084131 kJ/mol
# GULP energy per Si atom -5590.378505 kJ/mol
# Density = 2.467198 g / cm^3
# Si number density = 24.728261 Si / 1000 Ang^3
#
#
#
# Elastic Constant Matrix: (Units=GPa)
#
#
# Indices 1 2 3 4 5 6 
#
# 1 90.7982 7.1757 39.5932 0.0000 -25.5229 0.0000
# 2 7.1757 72.9108 8.6742 0.0000 9.0249 0.0000
# 3 39.5932 8.6742 125.2408 0.0000 -27.5407 0.0000
# 4 0.0000 0.0000 0.0000 36.0825 0.0000 -14.2066
# 5 -25.5229 9.0249 -27.5407 0.0000 50.2851 0.0000
# 6 0.0000 0.0000 0.0000 -14.2066 0.0000 32.0808
#
#
#
# Elastic Compliance Matrix: (Units=1/GPa)
#
#
# Indices 1 2 3 4 5 6 
#
# 1 0.014119 -0.001742 -0.003068 0.000000 0.005799 0.000000
# 2 -0.001742 0.014581 -0.001397 0.000000 -0.004267 0.000000
# 3 -0.003068 -0.001397 0.009964 0.000000 0.004151 0.000000
# 4 0.000000 0.000000 0.000000 0.033567 0.000000 0.014865
# 5 0.005799 -0.004267 0.004151 0.000000 0.025869 0.000000
# 6 0.000000 0.000000 0.000000 0.014865 0.000000 0.037754
#
#
# Mechanical properties :
#
#
# Convention : Reuss Voigt Hill
#
# Bulk Modulus (GPa) = 38.09609 44.42623 41.26116
# Shear Modulus (GPa) = 31.84342 39.25681 35.55011
#
# Velocity S-wave (km/s) = 3.59239 3.98870 3.79572
# Velocity P-wave (km/s) = 5.71370 6.26241 5.99434
#
# Compressibility (1/GPa) = 0.02624942
#
# Stress axis : x y z
#
# Youngs Moduli (GPa) = 70.82756 68.58133 100.36143
#
# Poissons Ratio (x) = 0.11949 0.30787
# Poissons Ratio (y) = 0.12341 0.14024
# Poissons Ratio (z) = 0.21727 0.09583
#
# Static dielectric constant tensor:
#      x y z
#    x 2.058020 0.000000 0.008330 
#    y 0.000000 1.953750 0.000000 
#    z 0.008330 0.000000 1.965280 
# 
# From -- ./inp_files/9051.got.cif
#   From: 2010.05.17/outbox.cif.g08.bks.cpg/sg14_5_cif.got.tgz:9051.got - 2010.06.03 17:49:19.
