data_PCOD9249677
_publ_section_title
;
Structure prediction by ZEFSAII (Michael W. Deem and Ramdas Pophale) SiO2 
 PCOD9249677
Probable space group: P 21/C
;
_chemical_formula_sum "Si O2"
_cell_formula_units_Z 24
_cell_length_a 15.259471
_cell_length_b 18.299908
_cell_length_c 8.859554
_cell_angle_alpha 90.000000
_cell_angle_beta 32.401567
_cell_angle_gamma 90.000000
_cell_volume 1325.694295
_symmetry_space_group_name_H-M "P 21/C"
_symmetry_group_IT_number 14
_symmetry_cell_setting 'monoclinic'
loop_
_space_group_symop_operation_xyz
x,y,z
-x,1/2+y,1/2-z
-x,-y,-z
x,1/2-y,1/2+z
loop_
_atom_site_type_symbol
_atom_site_label
_atom_site_fract_x
_atom_site_fract_y
_atom_site_fract_z
Si Si1 0.515857 0.575761 0.066298
Si Si2 0.953862 0.444923 0.842939
Si Si3 0.827029 0.831790 0.605015
Si Si4 0.853673 0.084105 0.833523
Si Si5 0.212678 0.173578 0.977417
Si Si6 0.344350 0.033214 0.313368
O O1 0.331546 0.602765 0.361480
O O2 0.599709 0.559417 0.104528
O O3 0.500000 0.500000 0.000000
O O4 0.627215 0.632116 0.813745
O O5 0.086412 0.509927 0.670831
O O6 0.054841 0.373276 0.650673
O O7 0.877570 0.431658 0.120484
O O8 0.804127 0.474625 0.961560
O O9 0.791453 0.755386 0.577935
O O10 0.725643 0.898355 0.679674
O O11 0.016904 0.853945 0.311112
O O12 0.792126 0.827935 0.834158
O O13 0.500000 0.000000 0.000000
#
# Coordination Sequence:
#
# PCOD9249677 Si02
#       6
#     4   4   4   4   4   4
#     4  12  22  37  62  96 123 155 201 259 296 358
#     4   9  18  37  64  84 118 158 195 244 300 362
#     4  10  23  43  62  83 122 168 197 246 306 366
#     4   9  18  38  61  87 119 158 196 242 302 356
#     4  11  22  41  62  87 124 157 203 246 309 355
#     4  11  21  38  65  91 119 157 207 247 302 352
#
# _framework density 18.103722000000001
#
# number of rings (size 3 to 8) (size 9 to 14) (size 15 to 20)
#    0.000    1.667    3.333    3.000    0.000    0.667 
#    6.000    1.667    0.000    0.000    0.000    0.000 
#    0.000    0.000    0.000    0.000    0.000    0.000 
#
# Total GULP energy -134053.742430 kJ/mol
# GULP energy per Si atom -5585.572601 kJ/mol
# Density = 1.806252 g / cm^3
# Si number density = 18.103722 Si / 1000 Ang^3
#
#
#
# Elastic Constant Matrix: (Units=GPa)
#
#
# Indices 1 2 3 4 5 6 
#
# 1 103.7178 51.1893 57.9828 0.0000 -12.4404 0.0000
# 2 51.1893 122.1307 62.1654 0.0000 -10.0829 0.0000
# 3 57.9828 62.1654 134.3215 0.0000 -23.9991 0.0000
# 4 0.0000 0.0000 0.0000 26.8307 0.0000 -0.6140
# 5 -12.4404 -10.0829 -23.9991 0.0000 27.1392 0.0000
# 6 0.0000 0.0000 0.0000 -0.6140 0.0000 32.1891
#
#
#
# Elastic Compliance Matrix: (Units=1/GPa)
#
#
# Indices 1 2 3 4 5 6 
#
# 1 0.013871 -0.003634 -0.004051 0.000000 0.001426 0.000000
# 2 -0.003634 0.011669 -0.003984 0.000000 -0.000854 0.000000
# 3 -0.004051 -0.003984 0.012400 0.000000 0.007628 0.000000
# 4 0.000000 0.000000 0.000000 0.037287 0.000000 0.000711
# 5 0.001426 -0.000854 0.007628 0.000000 0.043929 0.000000
# 6 0.000000 0.000000 0.000000 0.000711 0.000000 0.031080
#
#
# Mechanical properties :
#
#
# Convention : Reuss Voigt Hill
#
# Bulk Modulus (GPa) = 68.48677 78.09390 73.29034
# Shear Modulus (GPa) = 28.02032 29.82061 28.92047
#
# Velocity S-wave (km/s) = 3.93843 4.06299 4.00119
# Velocity P-wave (km/s) = 7.65467 8.07719 7.86877
#
# Compressibility (1/GPa) = 0.01460136
#
# Stress axis : x y z
#
# Youngs Moduli (GPa) = 72.09378 85.70010 80.64229
#
# Poissons Ratio (x) = 0.31144 0.32668
# Poissons Ratio (y) = 0.26199 0.32129
# Poissons Ratio (z) = 0.29205 0.34145
#
# Static dielectric constant tensor:
#      x y z
#    x 1.617150 0.000000 -0.000830 
#    y 0.000000 1.598430 0.000000 
#    z -0.000830 0.000000 1.613410 
# 
# From -- ./inp_files/16608.got.cif
#   From: 2010.05.17/outbox.cif.g08.bks.cpg/sg14_9_cif.got.tgz:16608.got - 2010.06.03 17:49:19.
