data_PCOD9249000
_publ_section_title
;
Structure prediction by ZEFSAII (Michael W. Deem and Ramdas Pophale) SiO2 
 PCOD9249000
Probable space group: P 21/C
;
_chemical_formula_sum "Si O2"
_cell_formula_units_Z 24
_cell_length_a 22.946226
_cell_length_b 10.067683
_cell_length_c 18.128789
_cell_angle_alpha 90.000000
_cell_angle_beta 13.784026
_cell_angle_gamma 90.000000
_cell_volume 997.850886
_symmetry_space_group_name_H-M "P 21/C"
_symmetry_group_IT_number 14
_symmetry_cell_setting 'monoclinic'
loop_
_space_group_symop_operation_xyz
x,y,z
-x,1/2+y,1/2-z
-x,-y,-z
x,1/2-y,1/2+z
loop_
_atom_site_type_symbol
_atom_site_label
_atom_site_fract_x
_atom_site_fract_y
_atom_site_fract_z
Si Si1 0.477471 0.082605 0.345925
Si Si2 0.066198 0.822568 0.119291
Si Si3 0.305293 0.572532 0.187920
Si Si4 0.374602 0.161500 0.223624
Si Si5 0.243920 0.073714 0.226792
Si Si6 0.718045 0.826469 0.976577
O O1 0.413535 0.183134 0.357888
O O2 0.282040 0.020945 0.644766
O O3 0.584380 0.950455 0.175661
O O4 0.689444 0.150682 0.135525
O O5 0.849491 0.840937 0.444203
O O6 0.988599 0.679689 0.180263
O O7 0.090506 0.903033 0.011949
O O8 0.500000 0.500000 0.000000
O O9 0.442317 0.711176 0.997513
O O10 0.251285 0.152675 0.294143
O O11 0.541504 0.033415 0.030980
O O12 0.281382 0.168464 0.111936
O O13 0.000000 0.000000 0.500000
#
# Coordination Sequence:
#
# PCOD9249000 Si02
#       6
#     4   4   4   4   4   4
#     4  11  26  47  74 109 155 191 259 314 383 458
#     4  11  24  44  74 103 149 200 248 307 379 448
#     4  10  22  45  69 103 147 193 245 305 372 452
#     4  11  23  46  70 106 148 197 248 309 377 451
#     4  11  24  42  72 106 151 192 249 315 379 451
#     4  12  25  46  74 114 145 200 255 314 378 458
#
# _framework density 24.051690000000001
#
# number of rings (size 3 to 8) (size 9 to 14) (size 15 to 20)
#    0.000    1.000    1.667    5.000    0.000    6.000 
#    3.000    0.000    0.000    0.000    0.000    0.000 
#    0.000    0.000    0.000    0.000    0.000    0.000 
#
# Total GULP energy -133901.844990 kJ/mol
# GULP energy per Si atom -5579.243541 kJ/mol
# Density = 2.399695 g / cm^3
# Si number density = 24.051690 Si / 1000 Ang^3
#
#
#
# Elastic Constant Matrix: (Units=GPa)
#
#
# Indices 1 2 3 4 5 6 
#
# 1 149.5441 24.1283 60.1473 0.0000 -6.5001 0.0000
# 2 24.1283 84.7764 15.7894 0.0000 -3.7105 0.0000
# 3 60.1473 15.7894 76.2539 0.0000 19.2017 0.0000
# 4 0.0000 0.0000 0.0000 18.6670 0.0000 -5.0463
# 5 -6.5001 -3.7105 19.2017 0.0000 34.4586 0.0000
# 6 0.0000 0.0000 0.0000 -5.0463 0.0000 50.8137
#
#
#
# Elastic Compliance Matrix: (Units=1/GPa)
#
#
# Indices 1 2 3 4 5 6 
#
# 1 0.011652 -0.000888 -0.011093 0.000000 0.008284 0.000000
# 2 -0.000888 0.012644 -0.002581 0.000000 0.002632 0.000000
# 3 -0.011093 -0.002581 0.026749 0.000000 -0.017276 0.000000
# 4 0.000000 0.000000 0.000000 0.055048 0.000000 0.005467
# 5 0.008284 0.002632 -0.017276 0.000000 0.040493 0.000000
# 6 0.000000 0.000000 0.000000 0.005467 0.000000 0.020223
#
#
# Mechanical properties :
#
#
# Convention : Reuss Voigt Hill
#
# Bulk Modulus (GPa) = 45.61642 56.74491 51.18066
# Shear Modulus (GPa) = 24.60158 34.82182 29.71170
#
# Velocity S-wave (km/s) = 3.20169 3.80911 3.51853
# Velocity P-wave (km/s) = 5.71620 6.55667 6.15081
#
# Compressibility (1/GPa) = 0.02192193
#
# Stress axis : x y z
#
# Youngs Moduli (GPa) = 85.82300 79.08728 37.38521
#
# Poissons Ratio (x) = 0.07020 0.41471
# Poissons Ratio (y) = 0.07618 0.09648
# Poissons Ratio (z) = 0.95203 0.20411
#
# Static dielectric constant tensor:
#      x y z
#    x 1.932530 0.000000 0.045990 
#    y 0.000000 2.143370 0.000000 
#    z 0.045990 0.000000 1.803810 
# 
# From -- ./inp_files/70575.got.cif
#   From: 2010.05.17/outbox.cif.g08.bks.cpg/sg14_36_cif.got.tgz:70575.got - 2010.06.03 17:49:19.
