data_PCOD9249862
_publ_section_title
;
Structure prediction by ZEFSAII (Michael W. Deem and Ramdas Pophale) SiO2 
 PCOD9249862
Probable space group: P 21/C
;
_chemical_formula_sum "Si O2"
_cell_formula_units_Z 32
_cell_length_a 17.553503
_cell_length_b 8.630487
_cell_length_c 20.629420
_cell_angle_alpha 90.000000
_cell_angle_beta 27.333962
_cell_angle_gamma 90.000000
_cell_volume 1435.044897
_symmetry_space_group_name_H-M "P 21/C"
_symmetry_group_IT_number 14
_symmetry_cell_setting 'monoclinic'
loop_
_space_group_symop_operation_xyz
x,y,z
-x,1/2+y,1/2-z
-x,-y,-z
x,1/2-y,1/2+z
loop_
_atom_site_type_symbol
_atom_site_label
_atom_site_fract_x
_atom_site_fract_y
_atom_site_fract_z
Si Si1 0.397794 0.442137 0.765268
Si Si2 0.208711 0.913906 0.603314
Si Si3 0.171053 0.956573 0.839522
Si Si4 0.181276 0.174983 0.722914
Si Si5 0.191280 0.795289 0.234047
Si Si6 0.439944 0.432460 0.225560
Si Si7 0.482773 0.382838 0.453494
Si Si8 0.056979 0.572793 0.075469
O O1 0.501998 0.500876 0.748764
O O2 0.395733 0.253060 0.763357
O O3 0.480074 0.522659 0.639960
O O4 0.211380 0.511779 0.916449
O O5 0.201542 0.758742 0.652200
O O6 0.399955 0.943923 0.441988
O O7 0.117311 0.913979 0.604082
O O8 0.136258 0.051547 0.701922
O O9 0.257749 0.079680 0.724632
O O10 0.300507 0.955813 0.800990
O O11 0.094905 0.828721 0.848237
O O12 0.000000 0.000000 0.000000
O O13 0.311124 0.292050 0.590929
O O14 0.026172 0.261619 0.872898
O O15 0.362855 0.774677 0.144367
O O16 0.096991 0.955031 0.312991
O O17 0.500000 0.500000 0.500000
#
# Coordination Sequence:
#
# PCOD9249862 Si02
#       8
#     4   4   4   4   4   4   4   4
#     4  11  28  44  73 101 139 185 230 297 353 422
#     4  10  23  44  67 101 137 186 226 289 343 415
#     4  11  25  43  67 101 142 180 227 291 353 414
#     4  11  24  43  69  99 137 181 232 286 343 421
#     4  11  23  40  71  99 135 186 229 286 347 416
#     4  11  25  47  68 101 140 181 241 283 360 419
#     4  12  24  43  70 100 131 182 236 282 343 412
#     4  11  24  43  67 104 142 174 235 285 356 413
#
# _framework density 22.298953999999998
#
# number of rings (size 3 to 8) (size 9 to 14) (size 15 to 20)
#    0.000    1.000    1.250    4.500    7.000    3.500 
#    4.500    0.000    0.000    0.000    0.000    0.000 
#    0.000    0.000    0.000    0.000    0.000    0.000 
#
# Total GULP energy -178478.466605 kJ/mol
# GULP energy per Si atom -5577.452081 kJ/mol
# Density = 2.224820 g / cm^3
# Si number density = 22.298954 Si / 1000 Ang^3
#
#
#
# Elastic Constant Matrix: (Units=GPa)
#
#
# Indices 1 2 3 4 5 6 
#
# 1 64.2834 12.7436 14.4470 0.0000 3.9553 0.0000
# 2 12.7436 67.4297 6.3985 0.0000 10.5294 0.0000
# 3 14.4470 6.3985 46.8115 0.0000 8.5571 0.0000
# 4 0.0000 0.0000 0.0000 3.5678 0.0000 2.4071
# 5 3.9553 10.5294 8.5571 0.0000 38.6933 0.0000
# 6 0.0000 0.0000 0.0000 2.4071 0.0000 29.2758
#
#
#
# Elastic Compliance Matrix: (Units=1/GPa)
#
#
# Indices 1 2 3 4 5 6 
#
# 1 0.017217 -0.002799 -0.004949 0.000000 0.000096 0.000000
# 2 -0.002799 0.016033 -0.000607 0.000000 -0.003943 0.000000
# 3 -0.004949 -0.000607 0.023812 0.000000 -0.004595 0.000000
# 4 0.000000 0.000000 0.000000 0.296748 0.000000 -0.024399
# 5 0.000096 -0.003943 -0.004595 0.000000 0.027924 0.000000
# 6 0.000000 0.000000 0.000000 -0.024399 0.000000 0.036164
#
#
# Mechanical properties :
#
#
# Convention : Reuss Voigt Hill
#
# Bulk Modulus (GPa) = 24.78140 27.30030 26.04085
# Shear Modulus (GPa) = 11.15926 23.96975 17.56450
#
# Velocity S-wave (km/s) = 2.23948 3.28216 2.80961
# Velocity P-wave (km/s) = 4.22189 5.16071 4.71473
#
# Compressibility (1/GPa) = 0.04035285
#
# Stress axis : x y z
#
# Youngs Moduli (GPa) = 58.08120 62.37316 41.99486
#
# Poissons Ratio (x) = 0.17461 0.20781
# Poissons Ratio (y) = 0.16259 0.02548
# Poissons Ratio (z) = 0.28742 0.03785
#
# Static dielectric constant tensor:
#      x y z
#    x 1.703410 0.000000 0.032420 
#    y 0.000000 1.701670 0.000000 
#    z 0.032420 0.000000 1.705660 
# 
# From -- ./inp_files/69148.got.cif
#   From: 2010.05.17/outbox.cif.g08.bks.cpg/sg14_35_cif.got.tgz:69148.got - 2010.06.03 17:49:19.
