data_PCOD9249932
_publ_section_title
;
Structure prediction by ZEFSAII (Michael W. Deem and Ramdas Pophale) SiO2 
 PCOD9249932
Probable space group: P 21/C
;
_chemical_formula_sum "Si O2"
_cell_formula_units_Z 16
_cell_length_a 23.144217
_cell_length_b 5.031825
_cell_length_c 12.797698
_cell_angle_alpha 90.000000
_cell_angle_beta 155.475204
_cell_angle_gamma 90.000000
_cell_volume 618.641458
_symmetry_space_group_name_H-M "P 21/C"
_symmetry_group_IT_number 14
_symmetry_cell_setting 'monoclinic'
loop_
_space_group_symop_operation_xyz
x,y,z
-x,1/2+y,1/2-z
-x,-y,-z
x,1/2-y,1/2+z
loop_
_atom_site_type_symbol
_atom_site_label
_atom_site_fract_x
_atom_site_fract_y
_atom_site_fract_z
Si Si1 0.482243 0.012858 0.652935
Si Si2 0.823809 0.570810 0.342923
Si Si3 0.872075 0.212113 0.582252
Si Si4 0.252529 0.277716 0.510541
O O1 0.452124 0.778015 0.688104
O O2 0.331902 0.109605 0.367486
O O3 0.589288 0.870375 0.751487
O O4 0.847910 0.264553 0.418949
O O5 0.810191 0.672495 0.203127
O O6 0.965388 0.683033 0.624876
O O7 0.823656 0.464607 0.570352
O O8 0.778494 0.970277 0.466460
#
# Coordination Sequence:
#
# PCOD9249932 Si02
#       4
#     4   4   4   4
#     4  10  23  44  71  99 137 186 227 281 345 400
#     4  11  26  47  70 103 144 177 230 289 339 410
#     4  12  26  43  72 106 137 184 228 279 351 409
#     4  11  25  46  71 102 139 183 231 281 342 410
#
# _framework density 25.863125
#
# number of rings (size 3 to 8) (size 9 to 14) (size 15 to 20)
#    0.000    1.000    0.000    6.000    0.000   18.000 
#    0.000    0.000    0.000    0.000    0.000    0.000 
#    0.000    0.000    0.000    0.000    0.000    0.000 
#
# Total GULP energy -89472.548087 kJ/mol
# GULP energy per Si atom -5592.034255 kJ/mol
# Density = 2.580426 g / cm^3
# Si number density = 25.863125 Si / 1000 Ang^3
#
#
#
# Elastic Constant Matrix: (Units=GPa)
#
#
# Indices 1 2 3 4 5 6 
#
# 1 105.1254 84.2657 46.0382 0.0000 16.6236 0.0000
# 2 84.2657 197.2681 59.0720 0.0000 4.6832 0.0000
# 3 46.0382 59.0720 160.7780 0.0000 -1.1660 0.0000
# 4 0.0000 0.0000 0.0000 39.1165 0.0000 3.3350
# 5 16.6236 4.6832 -1.1660 0.0000 40.4404 0.0000
# 6 0.0000 0.0000 0.0000 3.3350 0.0000 69.7815
#
#
#
# Elastic Compliance Matrix: (Units=1/GPa)
#
#
# Indices 1 2 3 4 5 6 
#
# 1 0.016523 -0.006159 -0.002513 0.000000 -0.006151 0.000000
# 2 -0.006159 0.008013 -0.001169 0.000000 0.001570 0.000000
# 3 -0.002513 -0.001169 0.007379 0.000000 0.001381 0.000000
# 4 0.000000 0.000000 0.000000 0.025669 0.000000 -0.001227
# 5 -0.006151 0.001570 0.001381 0.000000 0.027114 0.000000
# 6 0.000000 0.000000 0.000000 -0.001227 0.000000 0.014389
#
#
# Mechanical properties :
#
#
# Convention : Reuss Voigt Hill
#
# Bulk Modulus (GPa) = 81.75115 93.54704 87.64909
# Shear Modulus (GPa) = 40.70097 48.12074 44.41085
#
# Velocity S-wave (km/s) = 3.97130 4.31814 4.14835
# Velocity P-wave (km/s) = 7.25990 7.81731 7.54375
#
# Compressibility (1/GPa) = 0.01223224
#
# Stress axis : x y z
#
# Youngs Moduli (GPa) = 60.52229 124.79530 135.52322
#
# Poissons Ratio (x) = 0.76867 0.34054
# Poissons Ratio (y) = 0.37279 0.15843
# Poissons Ratio (z) = 0.15208 0.14589
#
# Static dielectric constant tensor:
#      x y z
#    x 2.116420 0.000000 -0.069410 
#    y 0.000000 2.077410 0.000000 
#    z -0.069410 0.000000 2.035010 
# 
# From -- ./inp_files/51686.got.cif
#   From: 2010.05.17/outbox.cif.g08.bks.cpg/sg14_26_cif.got.tgz:51686.got - 2010.06.03 17:49:19.
