data_PCOD9249463
_publ_section_title
;
Structure prediction by ZEFSAII (Michael W. Deem and Ramdas Pophale) SiO2 
 PCOD9249463
Probable space group: P 21/C
;
_chemical_formula_sum "Si O2"
_cell_formula_units_Z 20
_cell_length_a 8.500350
_cell_length_b 7.582837
_cell_length_c 18.289839
_cell_angle_alpha 90.000000
_cell_angle_beta 43.765320
_cell_angle_gamma 90.000000
_cell_volume 815.455126
_symmetry_space_group_name_H-M "P 21/C"
_symmetry_group_IT_number 14
_symmetry_cell_setting 'monoclinic'
loop_
_space_group_symop_operation_xyz
x,y,z
-x,1/2+y,1/2-z
-x,-y,-z
x,1/2-y,1/2+z
loop_
_atom_site_type_symbol
_atom_site_label
_atom_site_fract_x
_atom_site_fract_y
_atom_site_fract_z
Si Si1 0.863793 0.252056 0.143442
Si Si2 0.982668 0.235274 0.437687
Si Si3 0.563721 0.914142 0.248088
Si Si4 0.378895 0.462049 0.964375
Si Si5 0.709521 0.920519 0.974998
O O1 0.663932 0.390997 0.223294
O O2 0.061143 0.184062 0.132094
O O3 0.701634 0.086317 0.180460
O O4 0.978676 0.286405 0.026197
O O5 0.828953 0.408474 0.471143
O O6 0.239047 0.268920 0.326367
O O7 0.864192 0.061520 0.444775
O O8 0.487957 0.941480 0.357707
O O9 0.500000 0.500000 0.000000
O O10 0.393566 0.250463 0.948882
O O11 0.500000 0.000000 0.000000
#
# Coordination Sequence:
#
# PCOD9249463 Si02
#       5
#     4   4   4   4   4
#     4  10  24  41  70 102 136 183 232 298 346 415
#     4  10  23  47  67  99 139 178 237 298 344 414
#     4  10  23  41  69 103 131 182 243 293 354 416
#     4  11  24  44  68  98 141 186 231 288 352 424
#     4  11  22  42  70  95 140 183 222 285 355 406
#
# _framework density 24.526178999999999
#
# number of rings (size 3 to 8) (size 9 to 14) (size 15 to 20)
#    0.000    1.600    2.000    2.400    8.400    1.600 
#    7.200    0.000    0.000    0.000    0.000    0.000 
#    0.000    0.000    0.000    0.000    0.000    0.000 
#
# Total GULP energy -111482.073703 kJ/mol
# GULP energy per Si atom -5574.103685 kJ/mol
# Density = 2.447036 g / cm^3
# Si number density = 24.526179 Si / 1000 Ang^3
#
#
#
# Elastic Constant Matrix: (Units=GPa)
#
#
# Indices 1 2 3 4 5 6 
#
# 1 108.3527 6.2455 58.2904 0.0000 -34.7974 0.0000
# 2 6.2455 135.6815 26.8156 0.0000 -6.6183 0.0000
# 3 58.2904 26.8156 127.2098 0.0000 -36.5231 0.0000
# 4 0.0000 0.0000 0.0000 26.2945 0.0000 -12.5540
# 5 -34.7974 -6.6183 -36.5231 0.0000 32.5116 0.0000
# 6 0.0000 0.0000 0.0000 -12.5540 0.0000 47.2106
#
#
#
# Elastic Compliance Matrix: (Units=1/GPa)
#
#
# Indices 1 2 3 4 5 6 
#
# 1 0.015009 0.000595 -0.003478 0.000000 0.012279 0.000000
# 2 0.000595 0.007717 -0.001868 0.000000 0.000110 0.000000
# 3 -0.003478 -0.001868 0.012798 0.000000 0.010275 0.000000
# 4 0.000000 0.000000 0.000000 0.043561 0.000000 0.011584
# 5 0.012279 0.000110 0.010275 0.000000 0.055466 0.000000
# 6 0.000000 0.000000 0.000000 0.011584 0.000000 0.024262
#
#
# Mechanical properties :
#
#
# Convention : Reuss Voigt Hill
#
# Bulk Modulus (GPa) = 38.42614 61.54966 49.98790
# Shear Modulus (GPa) = 28.25035 39.86284 34.05659
#
# Velocity S-wave (km/s) = 3.39757 4.03590 3.73041
# Velocity P-wave (km/s) = 5.57608 6.84602 6.24342
#
# Compressibility (1/GPa) = 0.02602395
#
# Stress axis : x y z
#
# Youngs Moduli (GPa) = 66.62691 129.57804 78.13439
#
# Poissons Ratio (x) = -0.07715 0.27172
# Poissons Ratio (y) = -0.03967 0.14597
# Poissons Ratio (z) = 0.23170 0.24207
#
# Static dielectric constant tensor:
#      x y z
#    x 1.972930 0.000000 -0.101440 
#    y 0.000000 2.126030 0.000000 
#    z -0.101440 0.000000 2.025490 
# 
# From -- ./inp_files/64459.got.cif
#   From: 2010.05.17/outbox.cif.g08.bks.cpg/sg14_33_cif.got.tgz:64459.got - 2010.06.03 17:49:19.
