data_PCOD9249385
_publ_section_title
;
Structure prediction by ZEFSAII (Michael W. Deem and Ramdas Pophale) SiO2 
 PCOD9249385
Probable space group: P 21/C
;
_chemical_formula_sum "Si O2"
_cell_formula_units_Z 20
_cell_length_a 11.796812
_cell_length_b 5.070337
_cell_length_c 21.426301
_cell_angle_alpha 90.000000
_cell_angle_beta 36.604102
_cell_angle_gamma 90.000000
_cell_volume 764.188750
_symmetry_space_group_name_H-M "P 21/C"
_symmetry_group_IT_number 14
_symmetry_cell_setting 'monoclinic'
loop_
_space_group_symop_operation_xyz
x,y,z
-x,1/2+y,1/2-z
-x,-y,-z
x,1/2-y,1/2+z
loop_
_atom_site_type_symbol
_atom_site_label
_atom_site_fract_x
_atom_site_fract_y
_atom_site_fract_z
Si Si1 0.715289 0.030096 0.970780
Si Si2 0.679815 0.342402 0.341830
Si Si3 0.418334 0.049316 0.709964
Si Si4 0.054852 0.022515 0.600400
Si Si5 0.755290 0.450984 0.141539
O O1 0.690762 0.132421 0.911139
O O2 0.868286 0.226991 0.931867
O O3 0.795687 0.735417 0.940471
O O4 0.507390 0.013394 0.094161
O O5 0.640942 0.047352 0.333064
O O6 0.874985 0.445347 0.226546
O O7 0.348023 0.794272 0.779759
O O8 0.644618 0.049953 0.624408
O O9 0.308272 0.285868 0.792840
O O10 0.972388 0.094911 0.568351
#
# Coordination Sequence:
#
# PCOD9249385 Si02
#       5
#     4   4   4   4   4
#     4  11  25  38  60  91 118 157 207 242 298 369
#     4  10  23  41  61  86 123 159 197 252 301 355
#     4   9  18  34  59  86 116 158 199 246 304 353
#     4  11  22  40  61  86 120 158 197 250 302 354
#     4   9  18  34  59  88 115 154 204 245 299 364
#
# _framework density 26.171544999999998
#
# number of rings (size 3 to 8) (size 9 to 14) (size 15 to 20)
#    0.000    2.000    0.000    3.600    0.000   11.200 
#    0.000    2.000    0.000    0.000    0.000    0.000 
#    0.000    0.000    0.000    0.000    0.000    0.000 
#
# Total GULP energy -111878.926629 kJ/mol
# GULP energy per Si atom -5593.946331 kJ/mol
# Density = 2.611198 g / cm^3
# Si number density = 26.171545 Si / 1000 Ang^3
#
#
#
# Elastic Constant Matrix: (Units=GPa)
#
#
# Indices 1 2 3 4 5 6 
#
# 1 94.8749 -15.4459 -24.1714 0.0000 0.9799 0.0000
# 2 -15.4459 127.4269 17.6878 0.0000 2.0969 0.0000
# 3 -24.1714 17.6878 78.2565 0.0000 -19.4374 0.0000
# 4 0.0000 0.0000 0.0000 31.1886 0.0000 -12.0483
# 5 0.9799 2.0969 -19.4374 0.0000 52.2405 0.0000
# 6 0.0000 0.0000 0.0000 -12.0483 0.0000 15.3303
#
#
#
# Elastic Compliance Matrix: (Units=1/GPa)
#
#
# Indices 1 2 3 4 5 6 
#
# 1 0.011605 0.000880 0.003661 0.000000 0.001109 0.000000
# 2 0.000880 0.008227 -0.001844 0.000000 -0.001033 0.000000
# 3 0.003661 -0.001844 0.015786 0.000000 0.005879 0.000000
# 4 0.000000 0.000000 0.000000 0.046041 0.000000 0.036185
# 5 0.001109 -0.001033 0.005879 0.000000 0.021350 0.000000
# 6 0.000000 0.000000 0.000000 0.036185 0.000000 0.093669
#
#
# Mechanical properties :
#
#
# Convention : Reuss Voigt Hill
#
# Bulk Modulus (GPa) = 24.38292 28.52212 26.45252
# Shear Modulus (GPa) = 24.39553 41.25105 32.82329
#
# Velocity S-wave (km/s) = 3.05641 3.97442 3.54525
# Velocity P-wave (km/s) = 4.66822 5.65536 5.18534
#
# Compressibility (1/GPa) = 0.04101232
#
# Stress axis : x y z
#
# Youngs Moduli (GPa) = 86.17163 121.54617 63.34584
#
# Poissons Ratio (x) = -0.10699 -0.23191
# Poissons Ratio (y) = -0.07585 0.11683
# Poissons Ratio (z) = -0.31547 0.22416
#
# Static dielectric constant tensor:
#      x y z
#    x 2.119670 0.000000 -0.002580 
#    y 0.000000 2.013080 0.000000 
#    z -0.002580 0.000000 2.165220 
# 
# From -- ./inp_files/49381.got.cif
#   From: 2010.05.17/outbox.cif.g08.bks.cpg/sg14_25_cif.got.tgz:49381.got - 2010.06.03 17:49:19.
