data_PCOD9249213
_publ_section_title
;
Structure prediction by ZEFSAII (Michael W. Deem and Ramdas Pophale) SiO2 
 PCOD9249213
Probable space group: P 21/C
;
_chemical_formula_sum "Si O2"
_cell_formula_units_Z 32
_cell_length_a 14.324416
_cell_length_b 17.868426
_cell_length_c 9.748744
_cell_angle_alpha 90.000000
_cell_angle_beta 145.879563
_cell_angle_gamma 90.000000
_cell_volume 1399.664357
_symmetry_space_group_name_H-M "P 21/C"
_symmetry_group_IT_number 14
_symmetry_cell_setting 'monoclinic'
loop_
_space_group_symop_operation_xyz
x,y,z
-x,1/2+y,1/2-z
-x,-y,-z
x,1/2-y,1/2+z
loop_
_atom_site_type_symbol
_atom_site_label
_atom_site_fract_x
_atom_site_fract_y
_atom_site_fract_z
Si Si1 0.623466 0.953049 0.798736
Si Si2 0.708050 0.788105 0.627702
Si Si3 0.419825 0.373587 0.497936
Si Si4 0.770837 0.355120 0.034645
Si Si5 0.785711 0.188229 0.085658
Si Si6 0.280056 0.916757 0.251125
Si Si7 0.504951 0.596420 0.697709
Si Si8 0.080457 0.224335 0.863358
O O1 0.742573 0.001593 0.845378
O O2 0.532082 0.019802 0.771986
O O3 0.685119 0.901213 0.998044
O O4 0.475252 0.913942 0.533514
O O5 0.605870 0.714810 0.548746
O O6 0.599546 0.849147 0.417491
O O7 0.835607 0.759852 0.666076
O O8 0.798544 0.812795 0.877542
O O9 0.392572 0.410544 0.317613
O O10 0.611892 0.389067 0.769277
O O11 0.711488 0.271735 0.010399
O O12 0.815892 0.401485 0.224991
O O13 0.933655 0.333600 0.147474
O O14 0.981406 0.209016 0.326385
O O15 0.760098 0.147958 0.906959
O O16 0.675898 0.135466 0.048909
#
# Coordination Sequence:
#
# PCOD9249213 Si02
#       8
#     4   4   4   4   4   4   4   4
#     4   9  21  36  60  85 123 160 207 256 308 360
#     4  12  22  38  60  91 130 154 197 267 324 366
#     4  11  22  37  60  91 119 157 209 260 307 366
#     4   9  20  33  60  88 116 151 205 239 300 375
#     4   9  20  33  60  87 118 151 204 243 301 365
#     4   9  17  36  57  86 115 155 195 251 298 359
#     4  11  22  37  60  91 119 164 204 259 306 373
#     4  10  23  36  57  94 127 160 188 258 317 372
#
# _framework density 22.862625000000001
#
# number of rings (size 3 to 8) (size 9 to 14) (size 15 to 20)
#    0.750    1.250    2.500    1.125    3.500    5.000 
#    0.000    0.000    0.000   19.500    0.000    0.000 
#    0.000    0.000    0.000    0.000    0.000    0.000 
#
# Total GULP energy -178405.851605 kJ/mol
# GULP energy per Si atom -5575.182863 kJ/mol
# Density = 2.281059 g / cm^3
# Si number density = 22.862625 Si / 1000 Ang^3
#
#
#
# Elastic Constant Matrix: (Units=GPa)
#
#
# Indices 1 2 3 4 5 6 
#
# 1 74.7310 -9.5174 7.9139 0.0000 -11.1465 0.0000
# 2 -9.5174 58.4672 9.0394 0.0000 -3.7313 0.0000
# 3 7.9139 9.0394 50.6761 0.0000 -10.7280 0.0000
# 4 0.0000 0.0000 0.0000 16.8752 0.0000 -16.5707
# 5 -11.1465 -3.7313 -10.7280 0.0000 32.9282 0.0000
# 6 0.0000 0.0000 0.0000 -16.5707 0.0000 24.8427
#
#
#
# Elastic Compliance Matrix: (Units=1/GPa)
#
#
# Indices 1 2 3 4 5 6 
#
# 1 0.014654 0.002967 -0.001822 0.000000 0.004703 0.000000
# 2 0.002967 0.018223 -0.003291 0.000000 0.001997 0.000000
# 3 -0.001822 -0.003291 0.021906 0.000000 0.006147 0.000000
# 4 0.000000 0.000000 0.000000 0.171758 0.000000 0.114567
# 5 0.004703 0.001997 0.006147 0.000000 0.034190 0.000000
# 6 0.000000 0.000000 0.000000 0.114567 0.000000 0.116672
#
#
# Mechanical properties :
#
#
# Convention : Reuss Voigt Hill
#
# Bulk Modulus (GPa) = 19.80566 22.08292 20.94429
# Shear Modulus (GPa) = 12.54627 26.69177 19.61902
#
# Velocity S-wave (km/s) = 2.34512 3.42055 2.93256
# Velocity P-wave (km/s) = 4.00181 5.02794 4.54393
#
# Compressibility (1/GPa) = 0.05049063
#
# Stress axis : x y z
#
# Youngs Moduli (GPa) = 68.24235 54.87604 45.64936
#
# Poissons Ratio (x) = -0.16283 0.08318
# Poissons Ratio (y) = -0.20249 0.15024
# Poissons Ratio (z) = 0.12434 0.18060
#
# Static dielectric constant tensor:
#      x y z
#    x 1.907470 0.000000 -0.009170 
#    y 0.000000 1.859900 0.000000 
#    z -0.009170 0.000000 1.854640 
# 
# From -- ./inp_files/16860.got.cif
#   From: 2010.05.17/outbox.cif.g08.bks.cpg/sg14_9_cif.got.tgz:16860.got - 2010.06.03 17:49:19.
