data_PCOD9249141
_publ_section_title
;
Structure prediction by ZEFSAII (Michael W. Deem and Ramdas Pophale) SiO2 
 PCOD9249141
Probable space group: P 21/C
;
_chemical_formula_sum "Si O2"
_cell_formula_units_Z 16
_cell_length_a 13.495634
_cell_length_b 5.073341
_cell_length_c 22.159381
_cell_angle_alpha 90.000000
_cell_angle_beta 158.299381
_cell_angle_gamma 90.000000
_cell_volume 560.997769
_symmetry_space_group_name_H-M "P 21/C"
_symmetry_group_IT_number 14
_symmetry_cell_setting 'monoclinic'
loop_
_space_group_symop_operation_xyz
x,y,z
-x,1/2+y,1/2-z
-x,-y,-z
x,1/2-y,1/2+z
loop_
_atom_site_type_symbol
_atom_site_label
_atom_site_fract_x
_atom_site_fract_y
_atom_site_fract_z
Si Si1 0.805636 0.249605 0.388864
Si Si2 0.320327 0.974433 0.304795
Si Si3 0.929568 0.167684 0.248973
Si Si4 0.773787 0.196727 0.501393
O O1 0.652376 0.292836 0.239708
O O2 0.650653 0.224457 0.364730
O O3 0.000000 0.500000 0.500000
O O4 0.091647 0.077542 0.400879
O O5 0.535689 0.205668 0.415336
O O6 0.934045 0.901052 0.212505
O O7 0.028598 0.110719 0.144574
O O8 0.336733 0.794334 0.373180
O O9 0.000000 0.000000 0.500000
#
# Coordination Sequence:
#
# PCOD9249141 Si02
#       4
#     4   4   4   4
#     4  10  22  46  74 110 150 197 246 310 389 462
#     4  11  26  50  82 116 162 203 260 325 395 471
#     4  12  26  51  75 115 153 213 268 326 381 457
#     4  11  26  50  79 118 158 202 260 326 396 468
#
# _framework density 28.520613999999998
#
# number of rings (size 3 to 8) (size 9 to 14) (size 15 to 20)
#    0.000    1.000    5.000    0.000    0.000    8.000 
#    0.000    0.000    0.000    0.000    0.000    0.000 
#    0.000    0.000    0.000    0.000    0.000    0.000 
#
# Total GULP energy -89538.835243 kJ/mol
# GULP energy per Si atom -5596.177203 kJ/mol
# Density = 2.845570 g / cm^3
# Si number density = 28.520614 Si / 1000 Ang^3
#
#
#
# Elastic Constant Matrix: (Units=GPa)
#
#
# Indices 1 2 3 4 5 6 
#
# 1 231.1656 69.2127 35.8993 0.0000 2.8019 0.0000
# 2 69.2127 211.6794 42.7223 0.0000 5.1649 0.0000
# 3 35.8993 42.7223 88.1035 0.0000 9.0709 0.0000
# 4 0.0000 0.0000 0.0000 40.3834 0.0000 -1.9195
# 5 2.8019 5.1649 9.0709 0.0000 21.4159 0.0000
# 6 0.0000 0.0000 0.0000 -1.9195 0.0000 75.8342
#
#
#
# Elastic Compliance Matrix: (Units=1/GPa)
#
#
# Indices 1 2 3 4 5 6 
#
# 1 0.004940 -0.001341 -0.001390 0.000000 0.000266 0.000000
# 2 -0.001341 0.005602 -0.002142 0.000000 -0.000268 0.000000
# 3 -0.001390 -0.002142 0.013471 0.000000 -0.005007 0.000000
# 4 0.000000 0.000000 0.000000 0.024792 0.000000 0.000628
# 5 0.000266 -0.000268 -0.005007 0.000000 0.048845 0.000000
# 6 0.000000 0.000000 0.000000 0.000628 0.000000 0.013203
#
#
# Mechanical properties :
#
#
# Convention : Reuss Voigt Hill
#
# Bulk Modulus (GPa) = 70.09685 91.84634 80.97159
# Shear Modulus (GPa) = 39.88691 53.06766 46.47729
#
# Velocity S-wave (km/s) = 3.74375 4.31824 4.04121
# Velocity P-wave (km/s) = 6.58168 7.55886 7.08713
#
# Compressibility (1/GPa) = 0.01426598
#
# Stress axis : x y z
#
# Youngs Moduli (GPa) = 202.42480 178.52220 74.23407
#
# Poissons Ratio (x) = 0.23944 0.10318
# Poissons Ratio (y) = 0.27150 0.15902
# Poissons Ratio (z) = 0.28136 0.38242
#
# Static dielectric constant tensor:
#      x y z
#    x 2.294240 0.000000 -0.047990 
#    y 0.000000 2.160910 0.000000 
#    z -0.047990 0.000000 2.321370 
# 
# From -- ./inp_files/27312.got.cif
#   From: 2010.05.17/outbox.cif.g08.bks.cpg/sg14_14_cif.got.tgz:27312.got - 2010.06.03 17:49:19.
