data_PCOD9249029
_publ_section_title
;
Structure prediction by ZEFSAII (Michael W. Deem and Ramdas Pophale) SiO2 
 PCOD9249029
Probable space group: P 21/C
;
_chemical_formula_sum "Si O2"
_cell_formula_units_Z 18
_cell_length_a 5.194556
_cell_length_b 7.640499
_cell_length_c 18.248106
_cell_angle_alpha 90.000000
_cell_angle_beta 111.073761
_cell_angle_gamma 90.000000
_cell_volume 675.810068
_symmetry_space_group_name_H-M "P 21/C"
_symmetry_group_IT_number 14
_symmetry_cell_setting 'monoclinic'
loop_
_space_group_symop_operation_xyz
x,y,z
-x,1/2+y,1/2-z
-x,-y,-z
x,1/2-y,1/2+z
loop_
_atom_site_type_symbol
_atom_site_label
_atom_site_fract_x
_atom_site_fract_y
_atom_site_fract_z
Si Si1 0.340999 0.870113 0.086071
Si Si2 0.254989 0.272096 0.486812
Si Si3 0.325767 0.051328 0.239455
Si Si4 0.917466 0.930092 0.325537
Si Si5 0.000000 0.000000 0.500000
O O1 0.618828 0.793670 0.080184
O O2 0.082510 0.739710 0.044623
O O3 0.325958 0.931332 0.166837
O O4 0.297760 0.047687 0.033993
O O5 0.314529 0.101466 0.537972
O O6 0.201496 0.236528 0.201901
O O7 0.646554 0.054744 0.294656
O O8 0.128255 0.977317 0.282110
O O9 0.059630 0.943021 0.418287
#
# Coordination Sequence:
#
# PCOD9249029 Si02
#       5
#     4   4   4   4   2
#     4  10  22  45  71 104 143 198 252 302 383 460
#     4  10  23  41  75 104 149 195 243 312 379 455
#     4  12  27  52  74 116 148 212 255 331 379 477
#     4  12  30  49  82 108 165 197 268 313 407 448
#     4  12  28  52  72 122 152 208 254 332 372 476
#
# _framework density 26.634702000000001
#
# number of rings (size 3 to 8) (size 9 to 14) (size 15 to 20)
#    0.000    0.889    2.222    2.667    9.333    3.556 
#    0.000    0.000    0.000    1.333    0.000    0.000 
#    0.000    0.000    0.000    0.000    0.000    0.000 
#
# Total GULP energy -100541.896310 kJ/mol
# GULP energy per Si atom -5585.660906 kJ/mol
# Density = 2.657408 g / cm^3
# Si number density = 26.634702 Si / 1000 Ang^3
#
#
#
# Elastic Constant Matrix: (Units=GPa)
#
#
# Indices 1 2 3 4 5 6 
#
# 1 205.2793 60.5972 94.3715 0.0000 -48.8641 0.0000
# 2 60.5972 150.1349 59.0595 0.0000 -30.0589 0.0000
# 3 94.3715 59.0595 194.2112 0.0000 -42.0559 0.0000
# 4 0.0000 0.0000 0.0000 38.8751 0.0000 2.5519
# 5 -48.8641 -30.0589 -42.0559 0.0000 51.5629 0.0000
# 6 0.0000 0.0000 0.0000 2.5519 0.0000 36.3803
#
#
#
# Elastic Compliance Matrix: (Units=1/GPa)
#
#
# Indices 1 2 3 4 5 6 
#
# 1 0.007295 -0.001185 -0.002231 0.000000 0.004402 0.000000
# 2 -0.001185 0.008183 -0.001364 0.000000 0.002535 0.000000
# 3 -0.002231 -0.001364 0.007309 0.000000 0.003052 0.000000
# 4 0.000000 0.000000 0.000000 0.025842 0.000000 -0.001813
# 5 0.004402 0.002535 0.003052 0.000000 0.027533 0.000000
# 6 0.000000 0.000000 0.000000 -0.001813 0.000000 0.027615
#
#
# Mechanical properties :
#
#
# Convention : Reuss Voigt Hill
#
# Bulk Modulus (GPa) = 75.60331 108.63131 92.11731
# Shear Modulus (GPa) = 42.46466 47.73681 45.10074
#
# Velocity S-wave (km/s) = 3.99725 4.23812 4.11945
# Velocity P-wave (km/s) = 7.05343 8.05128 7.56882
#
# Compressibility (1/GPa) = 0.01322693
#
# Stress axis : x y z
#
# Youngs Moduli (GPa) = 137.08248 122.20459 136.82387
#
# Poissons Ratio (x) = 0.14485 0.30525
# Poissons Ratio (y) = 0.16249 0.18657
# Poissons Ratio (z) = 0.30582 0.16663
#
# Static dielectric constant tensor:
#      x y z
#    x 2.094330 0.000000 0.077700 
#    y 0.000000 2.676110 0.000000 
#    z 0.077700 0.000000 2.218280 
# 
# From -- ./inp_files/52506.got.cif
#   From: 2010.05.17/outbox.cif.g08.bks.cpg/sg14_27_cif.got.tgz:52506.got - 2010.06.03 17:49:19.
