data_PCOD9249679
_publ_section_title
;
Structure prediction by ZEFSAII (Michael W. Deem and Ramdas Pophale) SiO2 
 PCOD9249679
Probable space group: P 21/C
;
_chemical_formula_sum "Si O2"
_cell_formula_units_Z 24
_cell_length_a 9.687533
_cell_length_b 5.148362
_cell_length_c 18.843000
_cell_angle_alpha 90.000000
_cell_angle_beta 87.155521
_cell_angle_gamma 90.000000
_cell_volume 938.635339
_symmetry_space_group_name_H-M "P 21/C"
_symmetry_group_IT_number 14
_symmetry_cell_setting 'monoclinic'
loop_
_space_group_symop_operation_xyz
x,y,z
-x,1/2+y,1/2-z
-x,-y,-z
x,1/2-y,1/2+z
loop_
_atom_site_type_symbol
_atom_site_label
_atom_site_fract_x
_atom_site_fract_y
_atom_site_fract_z
Si Si1 0.878136 0.975079 0.872246
Si Si2 0.135260 0.864381 0.394880
Si Si3 0.281150 0.130501 0.261326
Si Si4 0.896730 0.851272 0.055604
Si Si5 0.418157 0.493507 0.576095
Si Si6 0.439525 0.500106 0.176081
O O1 0.807951 0.997253 0.798302
O O2 0.986216 0.200515 0.886212
O O3 0.748617 0.961968 0.929484
O O4 0.983726 0.733528 0.874575
O O5 0.211032 0.040051 0.335269
O O6 0.147602 0.061769 0.461417
O O7 0.200939 0.580511 0.412067
O O8 0.307561 0.420613 0.228888
O O9 0.435372 0.031239 0.272350
O O10 0.000000 0.000000 0.000000
O O11 0.500000 0.500000 0.500000
O O12 0.458626 0.245676 0.623009
O O13 0.434436 0.752709 0.623752
#
# Coordination Sequence:
#
# PCOD9249679 Si02
#       6
#     4   4   4   4   4   4
#     4   9  25  40  70  98 141 180 229 303 351 423
#     4  10  25  40  69  99 129 187 222 295 358 421
#     4  11  24  47  70 103 149 178 250 284 380 434
#     4  10  23  43  62  97 137 179 232 279 356 417
#     4  11  25  48  73 106 145 195 253 299 369 437
#     4  11  26  45  73 105 142 198 236 316 353 444
#
# _framework density 25.569037000000002
#
# number of rings (size 3 to 8) (size 9 to 14) (size 15 to 20)
#    1.000    0.667    0.000    3.000    7.000    8.000 
#    0.000    0.000    0.000    0.000    0.000    0.000 
#    0.000    0.000    0.000    0.000    0.000    0.000 
#
# Total GULP energy -133698.190287 kJ/mol
# GULP energy per Si atom -5570.757929 kJ/mol
# Density = 2.551084 g / cm^3
# Si number density = 25.569037 Si / 1000 Ang^3
#
#
#
# Elastic Constant Matrix: (Units=GPa)
#
#
# Indices 1 2 3 4 5 6 
#
# 1 61.6942 18.9560 6.7408 0.0000 -8.6360 0.0000
# 2 18.9560 202.2083 45.2203 0.0000 -0.7917 0.0000
# 3 6.7408 45.2203 82.8863 0.0000 -11.0685 0.0000
# 4 0.0000 0.0000 0.0000 44.2715 0.0000 2.4947
# 5 -8.6360 -0.7917 -11.0685 0.0000 31.6503 0.0000
# 6 0.0000 0.0000 0.0000 2.4947 0.0000 28.7515
#
#
#
# Elastic Compliance Matrix: (Units=1/GPa)
#
#
# Indices 1 2 3 4 5 6 
#
# 1 0.017362 -0.001634 0.000112 0.000000 0.004736 0.000000
# 2 -0.001634 0.005816 -0.003231 0.000000 -0.001430 0.000000
# 3 0.000112 -0.003231 0.014488 0.000000 0.005016 0.000000
# 4 0.000000 0.000000 0.000000 0.022699 0.000000 -0.001970
# 5 0.004736 -0.001430 0.005016 0.000000 0.034606 0.000000
# 6 0.000000 0.000000 0.000000 -0.001970 0.000000 0.034952
#
#
# Mechanical properties :
#
#
# Convention : Reuss Voigt Hill
#
# Bulk Modulus (GPa) = 35.51219 54.29144 44.90181
# Shear Modulus (GPa) = 33.59890 39.32610 36.46250
#
# Velocity S-wave (km/s) = 3.62891 3.92603 3.78039
# Velocity P-wave (km/s) = 5.61049 6.46769 6.05428
#
# Compressibility (1/GPa) = 0.02815935
#
# Stress axis : x y z
#
# Youngs Moduli (GPa) = 57.59804 171.95403 69.02182
#
# Poissons Ratio (x) = 0.28098 -0.00772
# Poissons Ratio (y) = 0.09412 0.22300
# Poissons Ratio (z) = -0.00645 0.55556
#
# Static dielectric constant tensor:
#      x y z
#    x 2.048530 0.000000 -0.019480 
#    y 0.000000 2.453790 0.000000 
#    z -0.019480 0.000000 2.352430 
# 
# From -- ./inp_files/56548.got.cif
#   From: 2010.05.17/outbox.cif.g08.bks.cpg/sg14_29_cif.got.tgz:56548.got - 2010.06.03 17:49:19.
