data_PCOD9249159
_publ_section_title
;
Structure prediction by ZEFSAII (Michael W. Deem and Ramdas Pophale) SiO2 
 PCOD9249159
Probable space group: P 21/C
;
_chemical_formula_sum "Si O2"
_cell_formula_units_Z 20
_cell_length_a 10.601482
_cell_length_b 9.636259
_cell_length_c 17.456844
_cell_angle_alpha 90.000000
_cell_angle_beta 154.269021
_cell_angle_gamma 90.000000
_cell_volume 774.242131
_symmetry_space_group_name_H-M "P 21/C"
_symmetry_group_IT_number 14
_symmetry_cell_setting 'monoclinic'
loop_
_space_group_symop_operation_xyz
x,y,z
-x,1/2+y,1/2-z
-x,-y,-z
x,1/2-y,1/2+z
loop_
_atom_site_type_symbol
_atom_site_label
_atom_site_fract_x
_atom_site_fract_y
_atom_site_fract_z
Si Si1 0.302999 0.528750 0.710400
Si Si2 0.654965 0.856250 0.523193
Si Si3 0.348537 0.066825 0.740583
Si Si4 0.690057 0.127269 0.070478
Si Si5 0.997439 0.302194 0.929683
O O1 0.480128 0.512850 0.888430
O O2 0.527201 0.492070 0.766778
O O3 0.249103 0.691978 0.694251
O O4 0.000000 0.500000 0.500000
O O5 0.441040 0.761325 0.457131
O O6 0.962186 0.608489 0.233534
O O7 0.799986 0.768411 0.531429
O O8 0.166056 0.189073 0.602183
O O9 0.138794 0.953134 0.662868
O O10 0.593869 0.125495 0.929257
O O11 0.500000 0.000000 0.000000
#
# Coordination Sequence:
#
# PCOD9249159 Si02
#       5
#     4   4   4   4   4
#     4  11  25  42  75 104 136 186 247 296 354 435
#     4  11  24  46  72 101 144 191 230 302 363 427
#     4  10  24  42  71  99 141 190 237 294 357 426
#     4  12  25  46  72 102 150 189 238 299 372 426
#     4  10  22  47  68  98 140 187 240 294 355 424
#
# _framework density 25.831714000000002
#
# number of rings (size 3 to 8) (size 9 to 14) (size 15 to 20)
#    0.000    1.200    4.000    0.000   11.200    0.000 
#    3.600    2.000    0.000    0.000    0.000    0.000 
#    0.000    0.000    0.000    0.000    0.000    0.000 
#
# Total GULP energy -111456.122830 kJ/mol
# GULP energy per Si atom -5572.806142 kJ/mol
# Density = 2.577292 g / cm^3
# Si number density = 25.831714 Si / 1000 Ang^3
#
#
#
# Elastic Constant Matrix: (Units=GPa)
#
#
# Indices 1 2 3 4 5 6 
#
# 1 77.1382 28.5319 39.7244 0.0000 7.0109 0.0000
# 2 28.5319 40.0968 24.7588 0.0000 -6.1956 0.0000
# 3 39.7244 24.7588 272.6404 0.0000 -8.0305 0.0000
# 4 0.0000 0.0000 0.0000 44.3127 0.0000 4.8070
# 5 7.0109 -6.1956 -8.0305 0.0000 55.4275 0.0000
# 6 0.0000 0.0000 0.0000 4.8070 0.0000 24.0864
#
#
#
# Elastic Compliance Matrix: (Units=1/GPa)
#
#
# Indices 1 2 3 4 5 6 
#
# 1 0.019089 -0.013168 -0.001707 0.000000 -0.004134 0.000000
# 2 -0.013168 0.035888 -0.001178 0.000000 0.005506 0.000000
# 3 -0.001707 -0.001178 0.004043 0.000000 0.000670 0.000000
# 4 0.000000 0.000000 0.000000 0.023066 0.000000 -0.004603
# 5 -0.004134 0.005506 0.000670 0.000000 0.019277 0.000000
# 6 0.000000 0.000000 0.000000 -0.004603 0.000000 0.042436
#
#
# Mechanical properties :
#
#
# Convention : Reuss Voigt Hill
#
# Bulk Modulus (GPa) = 37.15596 63.98949 50.57272
# Shear Modulus (GPa) = 27.04486 44.55601 35.80043
#
# Velocity S-wave (km/s) = 3.23919 4.15765 3.72682
# Velocity P-wave (km/s) = 5.32962 6.91907 6.17569
#
# Compressibility (1/GPa) = 0.02691358
#
# Stress axis : x y z
#
# Youngs Moduli (GPa) = 52.38551 27.86443 247.32100
#
# Poissons Ratio (x) = 0.36692 0.42225
# Poissons Ratio (y) = 0.68981 0.29140
# Poissons Ratio (z) = 0.08944 0.03283
#
# Static dielectric constant tensor:
#      x y z
#    x 1.971910 0.000000 -0.146360 
#    y 0.000000 2.017080 0.000000 
#    z -0.146360 0.000000 2.217720 
# 
# From -- ./inp_files/57509.got.cif
#   From: 2010.05.17/outbox.cif.g08.bks.cpg/sg14_29_cif.got.tgz:57509.got - 2010.06.03 17:49:19.
