data_PCOD9249992
_publ_section_title
;
Structure prediction by ZEFSAII (Michael W. Deem and Ramdas Pophale) SiO2 
 PCOD9249992
Probable space group: P 21/C
;
_chemical_formula_sum "Si O2"
_cell_formula_units_Z 24
_cell_length_a 11.322705
_cell_length_b 9.779967
_cell_length_c 15.777991
_cell_angle_alpha 90.000000
_cell_angle_beta 149.568403
_cell_angle_gamma 90.000000
_cell_volume 884.966321
_symmetry_space_group_name_H-M "P 21/C"
_symmetry_group_IT_number 14
_symmetry_cell_setting 'monoclinic'
loop_
_space_group_symop_operation_xyz
x,y,z
-x,1/2+y,1/2-z
-x,-y,-z
x,1/2-y,1/2+z
loop_
_atom_site_type_symbol
_atom_site_label
_atom_site_fract_x
_atom_site_fract_y
_atom_site_fract_z
Si Si1 0.391614 0.745965 0.844776
Si Si2 0.386344 0.357562 0.854265
Si Si3 0.083569 0.661614 0.388086
Si Si4 0.739737 0.435139 0.935413
Si Si5 0.098087 0.210370 0.407081
Si Si6 0.564402 0.539899 0.647722
O O1 0.410770 0.902438 0.892183
O O2 0.108767 0.730325 0.660306
O O3 0.469670 0.646642 0.969355
O O4 0.617294 0.740341 0.918388
O O5 0.514046 0.426522 0.855604
O O6 0.134098 0.417534 0.710865
O O7 0.348527 0.194238 0.813723
O O8 0.167699 0.781852 0.501468
O O9 0.293376 0.561555 0.500338
O O10 0.994583 0.732875 0.245899
O O11 0.687601 0.487865 0.810299
O O12 0.906457 0.547027 0.080114
#
# Coordination Sequence:
#
# PCOD9249992 Si02
#       6
#     4   4   4   4   4   4
#     4  11  24  44  72 103 134 187 240 280 348 420
#     4  10  23  45  68  99 140 183 235 287 343 422
#     4  10  24  43  70  98 138 186 234 285 343 423
#     4  11  25  44  65 106 142 174 235 295 347 412
#     4  11  25  43  73 101 137 187 236 286 342 418
#     4  11  24  42  71 100 140 182 230 292 354 409
#
# _framework density 27.119675999999998
#
# number of rings (size 3 to 8) (size 9 to 14) (size 15 to 20)
#    0.000    1.333    3.333    1.500    9.333    7.333 
#    0.000    0.000    0.000    0.000    0.000    0.000 
#    0.000    0.000    0.000    0.000    0.000    0.000 
#
# Total GULP energy -134178.460531 kJ/mol
# GULP energy per Si atom -5590.769189 kJ/mol
# Density = 2.705795 g / cm^3
# Si number density = 27.119676 Si / 1000 Ang^3
#
#
#
# Elastic Constant Matrix: (Units=GPa)
#
#
# Indices 1 2 3 4 5 6 
#
# 1 115.7507 14.8157 63.2265 0.0000 42.9014 0.0000
# 2 14.8157 129.7563 20.3569 0.0000 7.0166 0.0000
# 3 63.2265 20.3569 98.0241 0.0000 48.4416 0.0000
# 4 0.0000 0.0000 0.0000 34.7922 0.0000 -4.8435
# 5 42.9014 7.0166 48.4416 0.0000 69.9953 0.0000
# 6 0.0000 0.0000 0.0000 -4.8435 0.0000 24.1331
#
#
#
# Elastic Compliance Matrix: (Units=1/GPa)
#
#
# Indices 1 2 3 4 5 6 
#
# 1 0.013895 -0.000272 -0.007159 0.000000 -0.003534 0.000000
# 2 -0.000272 0.007984 -0.001777 0.000000 0.000596 0.000000
# 3 -0.007159 -0.001777 0.019653 0.000000 -0.009036 0.000000
# 4 0.000000 0.000000 0.000000 0.029568 0.000000 0.005934
# 5 -0.003534 0.000596 -0.009036 0.000000 0.022646 0.000000
# 6 0.000000 0.000000 0.000000 0.005934 0.000000 0.042628
#
#
# Mechanical properties :
#
#
# Convention : Reuss Voigt Hill
#
# Bulk Modulus (GPa) = 43.26113 60.03657 51.64885
# Shear Modulus (GPa) = 30.76981 42.12626 36.44804
#
# Velocity S-wave (km/s) = 3.37203 3.94553 3.67000
# Velocity P-wave (km/s) = 5.58098 6.55301 6.08643
#
# Compressibility (1/GPa) = 0.02311544
#
# Stress axis : x y z
#
# Youngs Moduli (GPa) = 71.97090 125.24391 50.88174
#
# Poissons Ratio (x) = 0.03410 0.36426
# Poissons Ratio (y) = 0.01959 0.09043
# Poissons Ratio (z) = 0.51523 0.22260
#
# Static dielectric constant tensor:
#      x y z
#    x 2.160820 0.000000 0.020240 
#    y 0.000000 2.121980 0.000000 
#    z 0.020240 0.000000 2.141240 
# 
# From -- ./inp_files/57741.got.cif
#   From: 2010.05.17/outbox.cif.g08.bks.cpg/sg14_29_cif.got.tgz:57741.got - 2010.06.03 17:49:19.
