data_PCOD9249843
_publ_section_title
;
Structure prediction by ZEFSAII (Michael W. Deem and Ramdas Pophale) SiO2 
 PCOD9249843
Probable space group: P 21/C
;
_chemical_formula_sum "Si O2"
_cell_formula_units_Z 32
_cell_length_a 11.341860
_cell_length_b 25.312986
_cell_length_c 5.184363
_cell_angle_alpha 90.000000
_cell_angle_beta 64.058667
_cell_angle_gamma 90.000000
_cell_volume 1338.442929
_symmetry_space_group_name_H-M "P 21/C"
_symmetry_group_IT_number 14
_symmetry_cell_setting 'monoclinic'
loop_
_space_group_symop_operation_xyz
x,y,z
-x,1/2+y,1/2-z
-x,-y,-z
x,1/2-y,1/2+z
loop_
_atom_site_type_symbol
_atom_site_label
_atom_site_fract_x
_atom_site_fract_y
_atom_site_fract_z
Si Si1 0.913207 0.536708 0.010656
Si Si2 0.564773 0.727518 0.760570
Si Si3 0.254720 0.954941 0.259741
Si Si4 0.416144 0.042450 0.089366
Si Si5 0.084886 0.099462 0.982890
Si Si6 0.790471 0.385093 0.694323
Si Si7 0.265712 0.729189 0.064705
Si Si8 0.374361 0.112848 0.624957
O O1 0.744898 0.523116 0.196092
O O2 0.909859 0.583936 0.223166
O O3 0.085151 0.526572 0.884601
O O4 0.914894 0.547678 0.702328
O O5 0.628414 0.737000 0.422402
O O6 0.560816 0.667311 0.853605
O O7 0.415074 0.746845 0.865692
O O8 0.246641 0.927053 0.547124
O O9 0.418974 0.972061 0.065972
O O10 0.249696 0.911143 0.036154
O O11 0.417835 0.087338 0.314541
O O12 0.398946 0.068623 0.821613
O O13 0.219481 0.126282 0.773288
O O14 0.946683 0.124898 0.052756
O O15 0.731219 0.329179 0.824692
O O16 0.202276 0.766200 0.343498
#
# Coordination Sequence:
#
# PCOD9249843 Si02
#       8
#     4   4   4   4   4   4   4   4
#     4  12  20  35  55  81 126 167 201 236 271 341
#     4  10  23  44  68  89 111 154 213 263 306 357
#     4  12  23  37  58  91 127 164 208 238 288 368
#     4  12  27  40  59  93 133 169 203 246 308 366
#     4  12  22  37  57  90 125 163 200 240 295 363
#     4  12  24  37  64  93 121 161 205 248 300 365
#     4  10  23  44  65  87 116 150 200 263 317 358
#     4  12  24  43  64  90 129 166 203 254 310 359
#
# _framework density 23.908380000000001
#
# number of rings (size 3 to 8) (size 9 to 14) (size 15 to 20)
#    0.000    0.500    5.000    3.750    3.500    0.000 
#    0.000    1.250    0.000    0.000    0.000    0.000 
#    0.000    0.000    0.000    0.000    0.000    0.000 
#
# Total GULP energy -178650.205465 kJ/mol
# GULP energy per Si atom -5582.818921 kJ/mol
# Density = 2.385396 g / cm^3
# Si number density = 23.908380 Si / 1000 Ang^3
#
#
#
# Elastic Constant Matrix: (Units=GPa)
#
#
# Indices 1 2 3 4 5 6 
#
# 1 85.5886 20.0330 5.6973 0.0000 -27.9833 0.0000
# 2 20.0330 47.2882 -11.2397 0.0000 -13.6190 0.0000
# 3 5.6973 -11.2397 57.4901 0.0000 -2.2938 0.0000
# 4 0.0000 0.0000 0.0000 32.5652 0.0000 3.4665
# 5 -27.9833 -13.6190 -2.2938 0.0000 42.2988 0.0000
# 6 0.0000 0.0000 0.0000 3.4665 0.0000 26.4597
#
#
#
# Elastic Compliance Matrix: (Units=1/GPa)
#
#
# Indices 1 2 3 4 5 6 
#
# 1 0.015806 -0.004654 -0.002123 0.000000 0.008843 0.000000
# 2 -0.004654 0.026121 0.005793 0.000000 0.005646 0.000000
# 3 -0.002123 0.005793 0.018796 0.000000 0.001480 0.000000
# 4 0.000000 0.000000 0.000000 0.031142 0.000000 -0.004080
# 5 0.008843 0.005646 0.001480 0.000000 0.031390 0.000000
# 6 0.000000 0.000000 0.000000 -0.004080 0.000000 0.038328
#
#
# Mechanical properties :
#
#
# Convention : Reuss Voigt Hill
#
# Bulk Modulus (GPa) = 17.01956 24.37201 20.69579
# Shear Modulus (GPa) = 27.30216 31.98980 29.64598
#
# Velocity S-wave (km/s) = 3.38294 3.66186 3.52516
# Velocity P-wave (km/s) = 4.73214 5.30047 5.02435
#
# Compressibility (1/GPa) = 0.05875592
#
# Stress axis : x y z
#
# Youngs Moduli (GPa) = 63.26863 38.28273 53.20158
#
# Poissons Ratio (x) = 0.17816 0.11297
# Poissons Ratio (y) = 0.29444 -0.30822
# Poissons Ratio (z) = 0.13434 -0.22179
#
# Static dielectric constant tensor:
#      x y z
#    x 2.092310 0.000000 -0.092220 
#    y 0.000000 1.856960 0.000000 
#    z -0.092220 0.000000 1.882000 
# 
# From -- ./inp_files/3207.got.cif
#   From: 2010.05.17/outbox.cif.g08.bks.cpg/sg14_2_cif.got.tgz:3207.got - 2010.06.03 17:49:19.
