data_PCOD9249609
_publ_section_title
;
Structure prediction by ZEFSAII (Michael W. Deem and Ramdas Pophale) SiO2 
 PCOD9249609
Probable space group: P 21/C
;
_chemical_formula_sum "Si O2"
_cell_formula_units_Z 16
_cell_length_a 12.422517
_cell_length_b 7.591791
_cell_length_c 9.617523
_cell_angle_alpha 90.000000
_cell_angle_beta 137.672358
_cell_angle_gamma 90.000000
_cell_volume 610.759692
_symmetry_space_group_name_H-M "P 21/C"
_symmetry_group_IT_number 14
_symmetry_cell_setting 'monoclinic'
loop_
_space_group_symop_operation_xyz
x,y,z
-x,1/2+y,1/2-z
-x,-y,-z
x,1/2-y,1/2+z
loop_
_atom_site_type_symbol
_atom_site_label
_atom_site_fract_x
_atom_site_fract_y
_atom_site_fract_z
Si Si1 0.935184 0.175020 0.513480
Si Si2 0.243849 0.765223 0.916969
Si Si3 0.566435 0.697878 0.082280
Si Si4 0.232034 0.169204 0.968882
O O1 0.789804 0.140884 0.483508
O O2 0.866778 0.286876 0.319842
O O3 0.074797 0.248469 0.746115
O O4 0.000000 0.000000 0.500000
O O5 0.206461 0.959864 0.937636
O O6 0.419427 0.784565 0.021838
O O7 0.720134 0.712454 0.329145
O O8 0.619459 0.777303 0.987097
O O9 0.500000 0.500000 0.000000
#
# Coordination Sequence:
#
# PCOD9249609 Si02
#       4
#     4   4   4   4
#     4  10  23  42  68  97 130 172 219 272 327 388
#     4  11  23  44  66  95 132 174 219 270 327 390
#     4  12  25  41  66  98 133 172 218 271 327 388
#     4  11  24  43  66  96 130 174 219 269 326 390
#
# _framework density 26.196881999999999
#
# number of rings (size 3 to 8) (size 9 to 14) (size 15 to 20)
#    0.000    1.000    0.000    6.750    0.000   10.000 
#    0.000    8.750    0.000    0.000    0.000    0.000 
#    0.000    0.000    0.000    0.000    0.000    0.000 
#
# Total GULP energy -89603.051922 kJ/mol
# GULP energy per Si atom -5600.190745 kJ/mol
# Density = 2.613726 g / cm^3
# Si number density = 26.196882 Si / 1000 Ang^3
#
#
#
# Elastic Constant Matrix: (Units=GPa)
#
#
# Indices 1 2 3 4 5 6 
#
# 1 118.4402 9.5155 3.8757 0.0000 -11.0374 0.0000
# 2 9.5155 66.6821 -0.5369 0.0000 -1.4051 0.0000
# 3 3.8757 -0.5369 149.3429 0.0000 -21.9261 0.0000
# 4 0.0000 0.0000 0.0000 23.6831 0.0000 -0.5105
# 5 -11.0374 -1.4051 -21.9261 0.0000 49.8305 0.0000
# 6 0.0000 0.0000 0.0000 -0.5105 0.0000 44.4294
#
#
#
# Elastic Compliance Matrix: (Units=1/GPa)
#
#
# Indices 1 2 3 4 5 6 
#
# 1 0.008717 -0.001203 0.000051 0.000000 0.001919 0.000000
# 2 -0.001203 0.015174 0.000117 0.000000 0.000213 0.000000
# 3 0.000051 0.000117 0.007160 0.000000 0.003165 0.000000
# 4 0.000000 0.000000 0.000000 0.042235 0.000000 0.000485
# 5 0.001919 0.000213 0.003165 0.000000 0.021892 0.000000
# 6 0.000000 0.000000 0.000000 0.000485 0.000000 0.022513
#
#
# Mechanical properties :
#
#
# Convention : Reuss Voigt Hill
#
# Bulk Modulus (GPa) = 34.50559 40.01933 37.26246
# Shear Modulus (GPa) = 38.63399 45.02934 41.83167
#
# Velocity S-wave (km/s) = 3.84442 4.15044 4.00036
# Velocity P-wave (km/s) = 5.73640 6.18690 5.96590
#
# Compressibility (1/GPa) = 0.02898081
#
# Stress axis : x y z
#
# Youngs Moduli (GPa) = 114.71940 65.90386 139.66925
#
# Poissons Ratio (x) = 0.07928 -0.00716
# Poissons Ratio (y) = 0.13801 -0.01634
# Poissons Ratio (z) = -0.00588 -0.00771
#
# Static dielectric constant tensor:
#      x y z
#    x 2.146610 0.000000 0.067890 
#    y 0.000000 2.042190 0.000000 
#    z 0.067890 0.000000 2.060470 
# 
# From -- ./inp_files/7202.got.cif
#   From: 2010.05.17/outbox.cif.g08.bks.cpg/sg14_4_cif.got.tgz:7202.got - 2010.06.03 17:49:19.
