data_PCOD9249907
_publ_section_title
;
Structure prediction by ZEFSAII (Michael W. Deem and Ramdas Pophale) SiO2 
 PCOD9249907
Probable space group: P 21/C
;
_chemical_formula_sum "Si O2"
_cell_formula_units_Z 28
_cell_length_a 13.260743
_cell_length_b 8.972730
_cell_length_c 10.750357
_cell_angle_alpha 90.000000
_cell_angle_beta 124.725050
_cell_angle_gamma 90.000000
_cell_volume 1051.312239
_symmetry_space_group_name_H-M "P 21/C"
_symmetry_group_IT_number 14
_symmetry_cell_setting 'monoclinic'
loop_
_space_group_symop_operation_xyz
x,y,z
-x,1/2+y,1/2-z
-x,-y,-z
x,1/2-y,1/2+z
loop_
_atom_site_type_symbol
_atom_site_label
_atom_site_fract_x
_atom_site_fract_y
_atom_site_fract_z
Si Si1 0.104073 0.122893 0.064051
Si Si2 0.404827 0.989641 0.044518
Si Si3 0.797729 0.864873 0.493264
Si Si4 0.432603 0.235918 0.265484
Si Si5 0.336796 0.497118 0.863693
Si Si6 0.072979 0.835007 0.447161
Si Si7 0.213992 0.705911 0.307402
O O1 0.131911 0.207460 0.955391
O O2 0.226581 0.041016 0.190015
O O3 0.057361 0.256743 0.120536
O O4 0.000000 0.000000 0.000000
O O5 0.454475 0.849149 0.160414
O O6 0.416235 0.139225 0.130231
O O7 0.274343 0.946013 0.897364
O O8 0.500000 0.000000 0.000000
O O9 0.692768 0.834295 0.313719
O O10 0.713564 0.923806 0.545424
O O11 0.903328 0.989001 0.551543
O O12 0.442312 0.107375 0.378982
O O13 0.323809 0.673970 0.866255
O O14 0.132587 0.764492 0.365243
O O15 0.146111 0.802930 0.627870
#
# Coordination Sequence:
#
# PCOD9249907 Si02
#       7
#     4   4   4   4   4   4   4
#     4  11  23  42  67 102 137 182 235 283 362 428
#     4  12  28  44  75 103 142 195 253 308 383 446
#     4  10  24  43  68  99 140 181 236 288 367 426
#     4  11  26  47  69 105 142 185 247 311 371 438
#     4  10  23  44  69  98 140 185 232 306 356 440
#     4  11  24  45  70 104 143 188 232 301 350 450
#     4  11  25  44  73 101 141 187 242 295 373 427
#
# _framework density 26.633382000000001
#
# number of rings (size 3 to 8) (size 9 to 14) (size 15 to 20)
#    0.000    1.143    1.429    3.000   12.000    1.714 
#    0.000    0.000    0.000    0.000    0.000    0.000 
#    0.000    0.000    0.000    0.000    0.000    0.000 
#
# Total GULP energy -156684.697272 kJ/mol
# GULP energy per Si atom -5595.882045 kJ/mol
# Density = 2.657276 g / cm^3
# Si number density = 26.633382 Si / 1000 Ang^3
#
#
#
# Elastic Constant Matrix: (Units=GPa)
#
#
# Indices 1 2 3 4 5 6 
#
# 1 45.9594 3.3709 3.2034 0.0000 -9.1366 0.0000
# 2 3.3709 119.8416 21.1833 0.0000 -18.6302 0.0000
# 3 3.2034 21.1833 82.2518 0.0000 -10.6177 0.0000
# 4 0.0000 0.0000 0.0000 44.8919 0.0000 -3.4641
# 5 -9.1366 -18.6302 -10.6177 0.0000 37.6496 0.0000
# 6 0.0000 0.0000 0.0000 -3.4641 0.0000 52.2160
#
#
#
# Elastic Compliance Matrix: (Units=1/GPa)
#
#
# Indices 1 2 3 4 5 6 
#
# 1 0.022872 0.000272 -0.000235 0.000000 0.005618 0.000000
# 2 0.000272 0.009312 -0.001874 0.000000 0.004146 0.000000
# 3 -0.000235 -0.001874 0.012996 0.000000 0.002681 0.000000
# 4 0.000000 0.000000 0.000000 0.022390 0.000000 0.001485
# 5 0.005618 0.004146 0.002681 0.000000 0.030731 0.000000
# 6 0.000000 0.000000 0.000000 0.001485 0.000000 0.019250
#
#
# Mechanical properties :
#
#
# Convention : Reuss Voigt Hill
#
# Bulk Modulus (GPa) = 24.09371 33.72979 28.91175
# Shear Modulus (GPa) = 37.02024 41.63783 39.32904
#
# Velocity S-wave (km/s) = 3.73231 3.95824 3.84693
# Velocity P-wave (km/s) = 5.25733 5.79501 5.53271
#
# Compressibility (1/GPa) = 0.04150461
#
# Stress axis : x y z
#
# Youngs Moduli (GPa) = 43.72204 107.38411 76.94931
#
# Poissons Ratio (x) = -0.02918 0.01812
# Poissons Ratio (y) = -0.01188 0.14418
# Poissons Ratio (z) = 0.01030 0.20121
#
# Static dielectric constant tensor:
#      x y z
#    x 2.134270 0.000000 -0.000580 
#    y 0.000000 2.156010 0.000000 
#    z -0.000580 0.000000 2.161590 
# 
# From -- ./inp_files/31893.got.cif
#   From: 2010.05.17/outbox.cif.g08.bks.cpg/sg14_16_cif.got.tgz:31893.got - 2010.06.03 17:49:19.
