data_PCOD9249371
_publ_section_title
;
Structure prediction by ZEFSAII (Michael W. Deem and Ramdas Pophale) SiO2 
 PCOD9249371
Probable space group: P 21/C
;
_chemical_formula_sum "Si O2"
_cell_formula_units_Z 30
_cell_length_a 13.500577
_cell_length_b 8.169419
_cell_length_c 14.054276
_cell_angle_alpha 90.000000
_cell_angle_beta 49.030186
_cell_angle_gamma 90.000000
_cell_volume 1170.390086
_symmetry_space_group_name_H-M "P 21/C"
_symmetry_group_IT_number 14
_symmetry_cell_setting 'monoclinic'
loop_
_space_group_symop_operation_xyz
x,y,z
-x,1/2+y,1/2-z
-x,-y,-z
x,1/2-y,1/2+z
loop_
_atom_site_type_symbol
_atom_site_label
_atom_site_fract_x
_atom_site_fract_y
_atom_site_fract_z
Si Si1 0.783849 0.887512 0.500851
Si Si2 0.000000 0.000000 0.500000
Si Si3 0.545399 0.184402 0.446502
Si Si4 0.268420 0.143741 0.818932
Si Si5 0.279903 0.632384 0.522872
Si Si6 0.733840 0.687697 0.358557
Si Si7 0.488605 0.552264 0.229565
Si Si8 0.109786 0.641208 0.444543
O O1 0.783591 0.706075 0.548478
O O2 0.776816 0.842774 0.394983
O O3 0.645896 0.959706 0.628314
O O4 0.905115 0.983168 0.465366
O O5 0.935957 0.184527 0.562747
O O6 0.668210 0.233970 0.434149
O O7 0.423450 0.302345 0.548482
O O8 0.543128 0.187271 0.332495
O O9 0.500000 0.000000 0.500000
O O10 0.216715 0.279810 0.778776
O O11 0.423363 0.118405 0.733795
O O12 0.223238 0.962754 0.819694
O O13 0.231222 0.483629 0.619428
O O14 0.406527 0.583692 0.377241
O O15 0.167755 0.664600 0.514969
O O16 0.000000 0.500000 0.500000
#
# Coordination Sequence:
#
# PCOD9249371 Si02
#       8
#     4   2   4   4   4   4   4   4
#     4  11  24  44  72 104 144 199 255 315 383 474
#     4  12  26  46  78 102 144 210 250 312 390 462
#     4  11  23  37  63 107 155 188 246 318 381 479
#     4  11  22  46  74 106 146 195 248 328 385 464
#     4  11  24  45  72 105 149 206 246 328 396 473
#     4  11  22  43  71 103 151 192 253 315 396 459
#     4  10  23  40  72 106 146 191 250 314 405 455
#     4  11  24  49  77 104 150 197 259 318 382 462
#
# _framework density 25.632480000000001
#
# number of rings (size 3 to 8) (size 9 to 14) (size 15 to 20)
#    0.000    1.067    5.333    1.200    3.733    1.067 
#    4.800    2.667    5.867    0.000    0.000    0.000 
#    0.000    0.000    0.000    0.000    0.000    0.000 
#
# Total GULP energy -167034.345673 kJ/mol
# GULP energy per Si atom -5567.811522 kJ/mol
# Density = 2.557414 g / cm^3
# Si number density = 25.632480 Si / 1000 Ang^3
#
#
#
# Elastic Constant Matrix: (Units=GPa)
#
#
# Indices 1 2 3 4 5 6 
#
# 1 182.2091 41.8914 10.4737 0.0000 12.8581 0.0000
# 2 41.8914 121.6439 -0.9195 0.0000 14.4668 0.0000
# 3 10.4737 -0.9195 32.6721 0.0000 30.0280 0.0000
# 4 0.0000 0.0000 0.0000 23.9582 0.0000 3.0518
# 5 12.8581 14.4668 30.0280 0.0000 40.4976 0.0000
# 6 0.0000 0.0000 0.0000 3.0518 0.0000 58.1251
#
#
#
# Elastic Compliance Matrix: (Units=1/GPa)
#
#
# Indices 1 2 3 4 5 6 
#
# 1 0.006104 -0.002263 -0.003084 0.000000 0.001157 0.000000
# 2 -0.002263 0.010506 0.011962 0.000000 -0.011904 0.000000
# 3 -0.003084 0.011962 0.109754 0.000000 -0.084674 0.000000
# 4 0.000000 0.000000 0.000000 0.042020 0.000000 -0.002206
# 5 0.001157 -0.011904 -0.084674 0.000000 0.091361 0.000000
# 6 0.000000 0.000000 0.000000 -0.002206 0.000000 0.017320
#
#
# Mechanical properties :
#
#
# Convention : Reuss Voigt Hill
#
# Bulk Modulus (GPa) = 7.16365 48.82404 27.99385
# Shear Modulus (GPa) = 16.10995 43.52148 29.81572
#
# Velocity S-wave (km/s) = 2.50970 4.12503 3.41427
# Velocity P-wave (km/s) = 3.34649 6.46351 5.14665
#
# Compressibility (1/GPa) = 0.13959362
#
# Stress axis : x y z
#
# Youngs Moduli (GPa) = 163.82425 95.18258 9.11131
#
# Poissons Ratio (x) = 0.21540 0.02810
# Poissons Ratio (y) = 0.37073 -0.10899
# Poissons Ratio (z) = 0.50518 -1.13853
#
# Static dielectric constant tensor:
#      x y z
#    x 2.152760 0.000000 -0.125150 
#    y 0.000000 2.038530 0.000000 
#    z -0.125150 0.000000 2.131610 
# 
# From -- ./inp_files/43667.got.cif
#   From: 2010.05.17/outbox.cif.g08.bks.cpg/sg14_22_cif.got.tgz:43667.got - 2010.06.03 17:49:19.
