data_PCOD9249891
_publ_section_title
;
Structure prediction by ZEFSAII (Michael W. Deem and Ramdas Pophale) SiO2 
 PCOD9249891
Probable space group: P 21/C
;
_chemical_formula_sum "Si O2"
_cell_formula_units_Z 28
_cell_length_a 5.479359
_cell_length_b 13.252197
_cell_length_c 18.812244
_cell_angle_alpha 90.000000
_cell_angle_beta 60.492870
_cell_angle_gamma 90.000000
_cell_volume 1188.842813
_symmetry_space_group_name_H-M "P 21/C"
_symmetry_group_IT_number 14
_symmetry_cell_setting 'monoclinic'
loop_
_space_group_symop_operation_xyz
x,y,z
-x,1/2+y,1/2-z
-x,-y,-z
x,1/2-y,1/2+z
loop_
_atom_site_type_symbol
_atom_site_label
_atom_site_fract_x
_atom_site_fract_y
_atom_site_fract_z
Si Si1 0.386009 0.357786 0.502079
Si Si2 0.475218 0.801870 0.790394
Si Si3 0.481133 0.142723 0.831833
Si Si4 0.884989 0.526262 0.229677
Si Si5 0.812764 0.044263 0.462544
Si Si6 0.190311 0.750191 0.459451
Si Si7 0.946277 0.490957 0.638306
O O1 0.556176 0.360300 0.403827
O O2 0.600968 0.330016 0.533580
O O3 0.124996 0.280263 0.520314
O O4 0.217283 0.454717 0.555647
O O5 0.483092 0.748577 0.712698
O O6 0.766083 0.860600 0.759599
O O7 0.372800 0.720940 0.863127
O O8 0.255495 0.892357 0.835862
O O9 0.644771 0.058503 0.763246
O O10 0.172227 0.093755 0.877016
O O11 0.046966 0.525123 0.133419
O O12 0.037589 0.495383 0.279709
O O13 0.812983 0.161685 0.482363
O O14 0.500000 0.000000 0.500000
O O15 0.000000 0.000000 0.500000
#
# Coordination Sequence:
#
# PCOD9249891 Si02
#       7
#     4   4   4   4   4   4   4
#     4  11  24  45  70 104 139 184 229 289 352 419
#     4  10  23  44  68  98 141 184 231 288 346 419
#     4  11  25  41  73  99 137 188 236 280 359 422
#     4  11  25  44  69 102 140 180 234 296 343 412
#     4  12  28  46  71 100 142 185 238 293 348 415
#     4  11  24  45  69 101 139 187 234 286 351 418
#     4  10  24  43  65 103 142 178 232 298 344 415
#
# _framework density 23.552313999999999
#
# number of rings (size 3 to 8) (size 9 to 14) (size 15 to 20)
#    0.000    1.143    1.429    3.000   10.000    2.857 
#    0.000    0.000    0.000    0.000    0.000    0.000 
#    0.000    0.000    0.000    0.000    0.000    0.000 
#
# Total GULP energy -156344.666596 kJ/mol
# GULP energy per Si atom -5583.738093 kJ/mol
# Density = 2.349871 g / cm^3
# Si number density = 23.552314 Si / 1000 Ang^3
#
#
#
# Elastic Constant Matrix: (Units=GPa)
#
#
# Indices 1 2 3 4 5 6 
#
# 1 97.7073 9.6944 20.0269 0.0000 3.0395 0.0000
# 2 9.6944 43.4296 2.2749 0.0000 -2.8808 0.0000
# 3 20.0269 2.2749 145.4020 0.0000 5.8241 0.0000
# 4 0.0000 0.0000 0.0000 32.7825 0.0000 10.7507
# 5 3.0395 -2.8808 5.8241 0.0000 40.3250 0.0000
# 6 0.0000 0.0000 0.0000 10.7507 0.0000 28.3077
#
#
#
# Elastic Compliance Matrix: (Units=1/GPa)
#
#
# Indices 1 2 3 4 5 6 
#
# 1 0.010786 -0.002385 -0.001417 0.000000 -0.000779 0.000000
# 2 -0.002385 0.023690 -0.000118 0.000000 0.001889 0.000000
# 3 -0.001417 -0.000118 0.007112 0.000000 -0.000929 0.000000
# 4 0.000000 0.000000 0.000000 0.034844 0.000000 -0.013233
# 5 -0.000779 0.001889 -0.000929 0.000000 0.025126 0.000000
# 6 0.000000 0.000000 0.000000 -0.013233 0.000000 0.040352
#
#
# Mechanical properties :
#
#
# Convention : Reuss Voigt Hill
#
# Bulk Modulus (GPa) = 29.63194 38.94793 34.28993
# Shear Modulus (GPa) = 31.05627 37.25255 34.15441
#
# Velocity S-wave (km/s) = 3.63520 3.98137 3.81222
# Velocity P-wave (km/s) = 5.49802 6.14066 5.82821
#
# Compressibility (1/GPa) = 0.03374737
#
# Stress axis : x y z
#
# Youngs Moduli (GPa) = 92.71300 42.21257 140.61313
#
# Poissons Ratio (x) = 0.10068 0.19926
# Poissons Ratio (y) = 0.22113 0.01656
# Poissons Ratio (z) = 0.13138 0.00497
#
# Static dielectric constant tensor:
#      x y z
#    x 1.839600 0.000000 0.010600 
#    y 0.000000 1.980440 0.000000 
#    z 0.010600 0.000000 1.842480 
# 
# From -- ./inp_files/53415.got.cif
#   From: 2010.05.17/outbox.cif.g08.bks.cpg/sg14_27_cif.got.tgz:53415.got - 2010.06.03 17:49:19.
