data_PCOD9249339
_publ_section_title
;
Structure prediction by ZEFSAII (Michael W. Deem and Ramdas Pophale) SiO2 
 PCOD9249339
Probable space group: P 21/C
;
_chemical_formula_sum "Si O2"
_cell_formula_units_Z 20
_cell_length_a 15.644653
_cell_length_b 9.378318
_cell_length_c 19.604866
_cell_angle_alpha 90.000000
_cell_angle_beta 160.496963
_cell_angle_gamma 90.000000
_cell_volume 960.317903
_symmetry_space_group_name_H-M "P 21/C"
_symmetry_group_IT_number 14
_symmetry_cell_setting 'monoclinic'
loop_
_space_group_symop_operation_xyz
x,y,z
-x,1/2+y,1/2-z
-x,-y,-z
x,1/2-y,1/2+z
loop_
_atom_site_type_symbol
_atom_site_label
_atom_site_fract_x
_atom_site_fract_y
_atom_site_fract_z
Si Si1 0.746131 0.418815 0.493860
Si Si2 0.613958 0.092227 0.372958
Si Si3 0.699928 0.023813 0.589512
Si Si4 0.111652 0.038111 0.657279
Si Si5 0.376416 0.658846 0.454692
O O1 0.620728 0.263584 0.386052
O O2 0.608748 0.533749 0.342976
O O3 0.698099 0.442349 0.538056
O O4 0.049923 0.427936 0.712425
O O5 0.598840 0.015163 0.435468
O O6 0.880202 0.057547 0.535409
O O7 0.765457 0.191905 0.643151
O O8 0.500000 0.000000 0.500000
O O9 0.284787 0.909416 0.815784
O O10 0.314876 0.168236 0.809223
O O11 0.000000 0.000000 0.500000
#
# Coordination Sequence:
#
# PCOD9249339 Si02
#       5
#     4   4   4   4   4
#     4  11  24  42  66  97 134 172 218 271 325 393
#     4  11  25  41  67  98 131 171 221 268 331 386
#     4  11  25  44  65  92 135 176 221 270 326 386
#     4  11  21  40  66  97 128 166 214 268 324 390
#     4  10  23  40  66  98 128 170 219 267 327 389
#
# _framework density 20.826436000000001
#
# number of rings (size 3 to 8) (size 9 to 14) (size 15 to 20)
#    0.000    1.200    4.000    1.200    2.800    2.400 
#    0.000    0.000    0.000    0.000    0.000    0.000 
#    0.000    0.000    0.000    0.000    0.000    0.000 
#
# Total GULP energy -111637.128305 kJ/mol
# GULP energy per Si atom -5581.856415 kJ/mol
# Density = 2.077903 g / cm^3
# Si number density = 20.826436 Si / 1000 Ang^3
#
#
#
# Elastic Constant Matrix: (Units=GPa)
#
#
# Indices 1 2 3 4 5 6 
#
# 1 159.1025 13.1167 57.7989 0.0000 -5.1490 0.0000
# 2 13.1167 47.3689 21.3606 0.0000 -27.9057 0.0000
# 3 57.7989 21.3606 106.7761 0.0000 -23.9197 0.0000
# 4 0.0000 0.0000 0.0000 26.5986 0.0000 -0.5059
# 5 -5.1490 -27.9057 -23.9197 0.0000 42.5893 0.0000
# 6 0.0000 0.0000 0.0000 -0.5059 0.0000 28.1388
#
#
#
# Elastic Compliance Matrix: (Units=1/GPa)
#
#
# Indices 1 2 3 4 5 6 
#
# 1 0.008016 -0.001784 -0.004606 0.000000 -0.002787 0.000000
# 2 -0.001784 0.035195 -0.001095 0.000000 0.022230 0.000000
# 3 -0.004606 -0.001095 0.013490 0.000000 0.006302 0.000000
# 4 0.000000 0.000000 0.000000 0.037609 0.000000 0.000676
# 5 -0.002787 0.022230 0.006302 0.000000 0.041248 0.000000
# 6 0.000000 0.000000 0.000000 0.000676 0.000000 0.035550
#
#
# Mechanical properties :
#
#
# Convention : Reuss Voigt Hill
#
# Bulk Modulus (GPa) = 23.96437 55.31109 39.63773
# Shear Modulus (GPa) = 25.00153 34.19674 29.59914
#
# Velocity S-wave (km/s) = 3.46854 4.05654 3.77401
# Velocity P-wave (km/s) = 5.25097 6.96825 6.16965
#
# Compressibility (1/GPa) = 0.04172861
#
# Stress axis : x y z
#
# Youngs Moduli (GPa) = 124.75767 28.41343 74.13115
#
# Poissons Ratio (x) = 0.05070 0.34147
# Poissons Ratio (y) = 0.22261 0.08117
# Poissons Ratio (z) = 0.57467 0.03111
#
# Static dielectric constant tensor:
#      x y z
#    x 1.793230 0.000000 0.022140 
#    y 0.000000 1.806970 0.000000 
#    z 0.022140 0.000000 1.724660 
# 
# From -- ./inp_files/36825.got.cif
#   From: 2010.05.17/outbox.cif.g08.bks.cpg/sg14_19_cif.got.tgz:36825.got - 2010.06.03 17:49:19.
