data_PCOD9249486
_publ_section_title
;
Structure prediction by ZEFSAII (Michael W. Deem and Ramdas Pophale) SiO2 
 PCOD9249486
Probable space group: P 21/C
;
_chemical_formula_sum "Si O2"
_cell_formula_units_Z 20
_cell_length_a 13.208328
_cell_length_b 12.644036
_cell_length_c 7.443592
_cell_angle_alpha 90.000000
_cell_angle_beta 39.986751
_cell_angle_gamma 90.000000
_cell_volume 798.847564
_symmetry_space_group_name_H-M "P 21/C"
_symmetry_group_IT_number 14
_symmetry_cell_setting 'monoclinic'
loop_
_space_group_symop_operation_xyz
x,y,z
-x,1/2+y,1/2-z
-x,-y,-z
x,1/2-y,1/2+z
loop_
_atom_site_type_symbol
_atom_site_label
_atom_site_fract_x
_atom_site_fract_y
_atom_site_fract_z
Si Si1 0.263792 0.089858 0.503395
Si Si2 0.994016 0.972895 0.719974
Si Si3 0.413151 0.266881 0.107169
Si Si4 0.366239 0.029039 0.826523
Si Si5 0.306523 0.615477 0.761860
O O1 0.081469 0.059036 0.727302
O O2 0.343197 0.158754 0.548298
O O3 0.346736 0.976630 0.352538
O O4 0.300602 0.166556 0.286843
O O5 0.812060 0.968555 0.013899
O O6 0.118110 0.874252 0.552811
O O7 0.000000 0.000000 0.500000
O O8 0.403525 0.154127 0.793482
O O9 0.589587 0.219451 0.860556
O O10 0.500000 0.000000 0.500000
O O11 0.344172 0.944577 0.020390
#
# Coordination Sequence:
#
# PCOD9249486 Si02
#       5
#     4   4   4   4   4
#     4  10  23  41  73 105 151 199 251 312 376 448
#     4   8  20  46  72  97 149 198 241 319 382 424
#     4  12  23  41  73 111 146 201 254 297 386 460
#     4  11  23  44  74 112 150 193 259 314 374 454
#     4   9  22  47  70 104 154 200 240 323 376 437
#
# _framework density 25.036068
#
# number of rings (size 3 to 8) (size 9 to 14) (size 15 to 20)
#    1.200    0.800    0.000    3.000    0.000    2.400 
#    3.600    0.000    0.000    0.000    0.000    0.000 
#    0.000    0.000    0.000    0.000    0.000    0.000 
#
# Total GULP energy -111335.460330 kJ/mol
# GULP energy per Si atom -5566.773017 kJ/mol
# Density = 2.497908 g / cm^3
# Si number density = 25.036068 Si / 1000 Ang^3
#
#
#
# Elastic Constant Matrix: (Units=GPa)
#
#
# Indices 1 2 3 4 5 6 
#
# 1 158.8569 60.6679 72.1703 0.0000 -21.6422 0.0000
# 2 60.6679 107.4801 41.9384 0.0000 5.6457 0.0000
# 3 72.1703 41.9384 136.3815 0.0000 -22.9281 0.0000
# 4 0.0000 0.0000 0.0000 35.3104 0.0000 -2.6674
# 5 -21.6422 5.6457 -22.9281 0.0000 66.5055 0.0000
# 6 0.0000 0.0000 0.0000 -2.6674 0.0000 32.2474
#
#
#
# Elastic Compliance Matrix: (Units=1/GPa)
#
#
# Indices 1 2 3 4 5 6 
#
# 1 0.009854 -0.004327 -0.003485 0.000000 0.002372 0.000000
# 2 -0.004327 0.012768 -0.002182 0.000000 -0.003244 0.000000
# 3 -0.003485 -0.002182 0.010284 0.000000 0.002597 0.000000
# 4 0.000000 0.000000 0.000000 0.028498 0.000000 0.002357
# 5 0.002372 -0.003244 0.002597 0.000000 0.016979 0.000000
# 6 0.000000 0.000000 0.000000 0.002357 0.000000 0.031205
#
#
# Mechanical properties :
#
#
# Convention : Reuss Voigt Hill
#
# Bulk Modulus (GPa) = 77.40974 83.58574 80.49774
# Shear Modulus (GPa) = 37.34604 42.00881 39.67742
#
# Velocity S-wave (km/s) = 3.86643 4.10070 3.98529
# Velocity P-wave (km/s) = 7.13574 7.47527 7.30747
#
# Compressibility (1/GPa) = 0.01291827
#
# Stress axis : x y z
#
# Youngs Moduli (GPa) = 101.48206 78.31944 97.23699
#
# Poissons Ratio (x) = 0.33888 0.33888
# Poissons Ratio (y) = 0.43910 0.21218
# Poissons Ratio (z) = 0.35368 0.17090
#
# Static dielectric constant tensor:
#      x y z
#    x 2.164550 0.000000 0.120260 
#    y 0.000000 2.049700 0.000000 
#    z 0.120260 0.000000 2.191540 
# 
# From -- ./inp_files/2593.got.cif
#   From: 2010.05.17/outbox.cif.g08.bks.cpg/sg14_2_cif.got.tgz:2593.got - 2010.06.03 17:49:19.
