data_PCOD9249262
_publ_section_title
;
Structure prediction by ZEFSAII (Michael W. Deem and Ramdas Pophale) SiO2 
 PCOD9249262
Probable space group: P 21/C
;
_chemical_formula_sum "Si O2"
_cell_formula_units_Z 32
_cell_length_a 13.846870
_cell_length_b 9.652094
_cell_length_c 19.439248
_cell_angle_alpha 90.000000
_cell_angle_beta 29.435531
_cell_angle_gamma 90.000000
_cell_volume 1276.810928
_symmetry_space_group_name_H-M "P 21/C"
_symmetry_group_IT_number 14
_symmetry_cell_setting 'monoclinic'
loop_
_space_group_symop_operation_xyz
x,y,z
-x,1/2+y,1/2-z
-x,-y,-z
x,1/2-y,1/2+z
loop_
_atom_site_type_symbol
_atom_site_label
_atom_site_fract_x
_atom_site_fract_y
_atom_site_fract_z
Si Si1 0.037175 0.862359 0.066154
Si Si2 0.571059 0.895652 0.332794
Si Si3 0.100222 0.241753 0.557496
Si Si4 0.013091 0.447655 0.864544
Si Si5 0.865459 0.951983 0.860219
Si Si6 0.488249 0.098038 0.784116
Si Si7 0.284690 0.835218 0.779211
Si Si8 0.532614 0.589437 0.376612
O O1 0.808535 0.875175 0.187100
O O2 0.064489 0.700270 0.064517
O O3 0.072008 0.950978 0.113998
O O4 0.179357 0.897096 0.913756
O O5 0.467220 0.901931 0.323263
O O6 0.497007 0.753045 0.412696
O O7 0.569200 0.059690 0.351157
O O8 0.120821 0.292609 0.623418
O O9 0.275223 0.328518 0.416211
O O10 0.891320 0.295589 0.661230
O O11 0.098107 0.081814 0.538254
O O12 0.006314 0.466371 0.786761
O O13 0.244844 0.447699 0.741260
O O14 0.641454 0.997665 0.982926
O O15 0.609951 0.200093 0.757547
O O16 0.506207 0.950545 0.811781
#
# Coordination Sequence:
#
# PCOD9249262 Si02
#       8
#     4   4   4   4   4   4   4   4
#     4  11  23  38  65  94 126 172 214 268 330 383
#     4  11  21  37  61  94 126 164 207 258 328 400
#     4  11  23  41  64  94 129 170 216 267 331 394
#     4  11  24  42  64  92 131 173 224 270 318 389
#     4  11  22  43  66  90 127 177 224 269 325 380
#     4  11  22  38  63  92 130 167 200 265 336 385
#     4  12  22  41  65  93 136 165 207 273 332 392
#     4  10  23  39  62  94 124 170 220 265 322 387
#
# _framework density 25.062442000000001
#
# number of rings (size 3 to 8) (size 9 to 14) (size 15 to 20)
#    0.000    1.000    3.750    4.500    0.000    3.500 
#    0.000    0.000    0.000    1.500    0.000    0.000 
#    0.000    0.000    0.000    0.000    0.000    0.000 
#
# Total GULP energy -178804.144733 kJ/mol
# GULP energy per Si atom -5587.629523 kJ/mol
# Density = 2.500540 g / cm^3
# Si number density = 25.062442 Si / 1000 Ang^3
#
#
#
# Elastic Constant Matrix: (Units=GPa)
#
#
# Indices 1 2 3 4 5 6 
#
# 1 46.1006 31.9207 13.7097 0.0000 -24.6309 0.0000
# 2 31.9207 149.7968 17.9080 0.0000 -10.7991 0.0000
# 3 13.7097 17.9080 37.5668 0.0000 -20.0048 0.0000
# 4 0.0000 0.0000 0.0000 26.5730 0.0000 -14.9692
# 5 -24.6309 -10.7991 -20.0048 0.0000 34.1308 0.0000
# 6 0.0000 0.0000 0.0000 -14.9692 0.0000 37.4564
#
#
#
# Elastic Compliance Matrix: (Units=1/GPa)
#
#
# Indices 1 2 3 4 5 6 
#
# 1 0.041545 -0.007195 0.004393 0.000000 0.030280 0.000000
# 2 -0.007195 0.008329 -0.003934 0.000000 -0.004863 0.000000
# 3 0.004393 -0.003934 0.040584 0.000000 0.025712 0.000000
# 4 0.000000 0.000000 0.000000 0.048566 0.000000 0.019409
# 5 0.030280 -0.004863 0.025712 0.000000 0.064682 0.000000
# 6 0.000000 0.000000 0.000000 0.019409 0.000000 0.034454
#
#
# Mechanical properties :
#
#
# Convention : Reuss Voigt Hill
#
# Bulk Modulus (GPa) = 12.98969 40.06013 26.52491
# Shear Modulus (GPa) = 18.03133 30.96043 24.49588
#
# Velocity S-wave (km/s) = 2.68518 3.51854 3.12972
# Velocity P-wave (km/s) = 3.84808 5.70313 4.86485
#
# Compressibility (1/GPa) = 0.07698415
#
# Stress axis : x y z
#
# Youngs Moduli (GPa) = 24.07004 120.06681 24.64049
#
# Poissons Ratio (x) = 0.86391 -0.10824
# Poissons Ratio (y) = 0.17319 0.09694
# Poissons Ratio (z) = -0.10573 0.47236
#
# Static dielectric constant tensor:
#      x y z
#    x 1.969580 0.000000 0.015220 
#    y 0.000000 2.053530 0.000000 
#    z 0.015220 0.000000 2.037910 
# 
# From -- ./inp_files/73854.got.cif
#   From: 2010.05.17/outbox.cif.g08.bks.cpg/sg14_37_cif.got.tgz:73854.got - 2010.06.03 17:49:19.
