data_PCOD9249749
_publ_section_title
;
Structure prediction by ZEFSAII (Michael W. Deem and Ramdas Pophale) SiO2 
 PCOD9249749
Probable space group: P 21/C
;
_chemical_formula_sum "Si O2"
_cell_formula_units_Z 24
_cell_length_a 29.842875
_cell_length_b 4.983189
_cell_length_c 14.759171
_cell_angle_alpha 90.000000
_cell_angle_beta 149.985736
_cell_angle_gamma 90.000000
_cell_volume 1097.911166
_symmetry_space_group_name_H-M "P 21/C"
_symmetry_group_IT_number 14
_symmetry_cell_setting 'monoclinic'
loop_
_space_group_symop_operation_xyz
x,y,z
-x,1/2+y,1/2-z
-x,-y,-z
x,1/2-y,1/2+z
loop_
_atom_site_type_symbol
_atom_site_label
_atom_site_fract_x
_atom_site_fract_y
_atom_site_fract_z
Si Si1 0.881581 0.560164 0.344976
Si Si2 0.291354 0.173039 0.008481
Si Si3 0.997942 0.249577 0.690160
Si Si4 0.111729 0.941375 0.744761
Si Si5 0.562545 0.753411 0.086376
Si Si6 0.560298 0.874576 0.875981
O O1 0.920628 0.401696 0.497854
O O2 0.917819 0.861464 0.390875
O O3 0.908573 0.367977 0.308164
O O4 0.774913 0.605807 0.152691
O O5 0.352841 0.264115 0.198960
O O6 0.356028 0.066835 0.043013
O O7 0.218969 0.969342 0.924434
O O8 0.040387 0.501573 0.818284
O O9 0.072401 0.092389 0.761767
O O10 0.500000 0.500000 0.000000
O O11 0.586311 0.774104 0.021734
O O12 0.500000 0.000000 0.000000
O O13 0.501825 0.637129 0.728437
#
# Coordination Sequence:
#
# PCOD9249749 Si02
#       6
#     4   4   4   4   4   4
#     4  10  23  43  68  93 137 178 226 276 353 412
#     4  10  26  41  72  99 138 177 238 280 360 387
#     4  12  24  42  70 103 136 176 230 281 347 423
#     4  10  23  43  68  92 137 178 223 274 355 409
#     4  12  24  43  68  96 134 181 233 283 341 413
#     4  12  24  43  68  95 134 182 231 284 343 408
#
# _framework density 21.859690000000001
#
# number of rings (size 3 to 8) (size 9 to 14) (size 15 to 20)
#    1.000    0.000    3.333    3.000    4.667    1.333 
#    0.000    0.000    0.000    0.000    0.000    0.000 
#    0.000    0.000    0.000    0.000    0.000    0.000 
#
# Total GULP energy -133925.441452 kJ/mol
# GULP energy per Si atom -5580.226727 kJ/mol
# Density = 2.180994 g / cm^3
# Si number density = 21.859690 Si / 1000 Ang^3
#
#
#
# Elastic Constant Matrix: (Units=GPa)
#
#
# Indices 1 2 3 4 5 6 
#
# 1 93.0644 7.1528 46.4129 0.0000 -10.6268 0.0000
# 2 7.1528 133.2838 13.3746 0.0000 2.6197 0.0000
# 3 46.4129 13.3746 85.1432 0.0000 8.5437 0.0000
# 4 0.0000 0.0000 0.0000 23.9089 0.0000 -10.6915
# 5 -10.6268 2.6197 8.5437 0.0000 31.1936 0.0000
# 6 0.0000 0.0000 0.0000 -10.6915 0.0000 33.8490
#
#
#
# Elastic Compliance Matrix: (Units=1/GPa)
#
#
# Indices 1 2 3 4 5 6 
#
# 1 0.016650 -0.000064 -0.009908 0.000000 0.008391 0.000000
# 2 -0.000064 0.007626 -0.001127 0.000000 -0.000354 0.000000
# 3 -0.009908 -0.001127 0.018151 0.000000 -0.008252 0.000000
# 4 0.000000 0.000000 0.000000 0.048705 0.000000 0.015384
# 5 0.008391 -0.000354 -0.008252 0.000000 0.037206 0.000000
# 6 0.000000 0.000000 0.000000 0.015384 0.000000 0.034402
#
#
# Mechanical properties :
#
#
# Convention : Reuss Voigt Hill
#
# Bulk Modulus (GPa) = 49.43698 49.48577 49.46137
# Shear Modulus (GPa) = 26.08492 34.09372 30.08932
#
# Velocity S-wave (km/s) = 3.45815 3.95354 3.71411
# Velocity P-wave (km/s) = 6.21367 6.59755 6.40849
#
# Compressibility (1/GPa) = 0.02022777
#
# Stress axis : x y z
#
# Youngs Moduli (GPa) = 60.06158 131.12478 55.09331
#
# Poissons Ratio (x) = 0.00842 0.54586
# Poissons Ratio (y) = 0.00386 0.06212
# Poissons Ratio (z) = 0.59508 0.14784
#
# Static dielectric constant tensor:
#      x y z
#    x 1.860270 0.000000 -0.034610 
#    y 0.000000 1.782810 0.000000 
#    z -0.034610 0.000000 1.849160 
# 
# From -- ./inp_files/52134.got.cif
#   From: 2010.05.17/outbox.cif.g08.bks.cpg/sg14_27_cif.got.tgz:52134.got - 2010.06.03 17:49:19.
