data_PCOD9249466
_publ_section_title
;
Structure prediction by ZEFSAII (Michael W. Deem and Ramdas Pophale) SiO2 
 PCOD9249466
Probable space group: P 21/C
;
_chemical_formula_sum "Si O2"
_cell_formula_units_Z 30
_cell_length_a 16.094348
_cell_length_b 5.163096
_cell_length_c 14.862777
_cell_angle_alpha 90.000000
_cell_angle_beta 103.359224
_cell_angle_gamma 90.000000
_cell_volume 1201.627499
_symmetry_space_group_name_H-M "P 21/C"
_symmetry_group_IT_number 14
_symmetry_cell_setting 'monoclinic'
loop_
_space_group_symop_operation_xyz
x,y,z
-x,1/2+y,1/2-z
-x,-y,-z
x,1/2-y,1/2+z
loop_
_atom_site_type_symbol
_atom_site_label
_atom_site_fract_x
_atom_site_fract_y
_atom_site_fract_z
Si Si1 0.214017 0.556572 0.337704
Si Si2 0.879927 0.126252 0.817328
Si Si3 0.500000 0.500000 0.000000
Si Si4 0.459390 0.935478 0.279180
Si Si5 0.301668 0.955389 0.460033
Si Si6 0.718073 0.831832 0.750296
Si Si7 0.132156 0.985980 0.522074
Si Si8 0.068574 0.037147 0.909661
O O1 0.150334 0.779796 0.287148
O O2 0.278205 0.656742 0.429752
O O3 0.269602 0.471809 0.265543
O O4 0.140739 0.369827 0.357028
O O5 0.877437 0.377137 0.880449
O O6 0.975031 0.020900 0.845167
O O7 0.802196 0.933714 0.821429
O O8 0.532863 0.430021 0.110945
O O9 0.600715 0.494283 0.989584
O O10 0.523752 0.151755 0.255847
O O11 0.366887 0.052308 0.229980
O O12 0.230375 0.033926 0.515284
O O13 0.287828 0.090423 0.358563
O O14 0.099187 0.735446 0.457430
O O15 0.076042 0.238970 0.486909
#
# Coordination Sequence:
#
# PCOD9249466 Si02
#       8
#     4   4   2   4   4   4   4   4
#     4  10  23  41  69  94 141 179 236 290 346 423
#     4  11  26  38  70  99 135 183 232 285 357 407
#     4  10  24  48  80 104 148 198 240 308 382 440
#     4  11  28  50  75 112 148 188 249 307 366 454
#     4   9  21  44  66  99 134 185 230 285 358 429
#     4  10  23  44  67 100 141 178 230 298 347 423
#     4  11  24  44  65  99 142 180 232 291 345 422
#     4  11  25  44  66  97 140 184 233 282 345 426
#
# _framework density 24.966138999999998
#
# number of rings (size 3 to 8) (size 9 to 14) (size 15 to 20)
#    0.000    1.600    1.333    0.800   13.067    0.533 
#    2.400    0.000    0.000    0.000    0.000    0.000 
#    0.000    0.000    0.000    0.000    0.000    0.000 
#
# Total GULP energy -167042.370834 kJ/mol
# GULP energy per Si atom -5568.079028 kJ/mol
# Density = 2.490932 g / cm^3
# Si number density = 24.966139 Si / 1000 Ang^3
#
#
#
# Elastic Constant Matrix: (Units=GPa)
#
#
# Indices 1 2 3 4 5 6 
#
# 1 155.8926 -0.4340 1.7297 0.0000 44.4292 0.0000
# 2 -0.4340 44.3642 7.5470 0.0000 4.3872 0.0000
# 3 1.7297 7.5470 45.0895 0.0000 15.0215 0.0000
# 4 0.0000 0.0000 0.0000 26.8999 0.0000 -7.9282
# 5 44.4292 4.3872 15.0215 0.0000 56.9061 0.0000
# 6 0.0000 0.0000 0.0000 -7.9282 0.0000 21.8898
#
#
#
# Elastic Compliance Matrix: (Units=1/GPa)
#
#
# Indices 1 2 3 4 5 6 
#
# 1 0.008428 0.000452 0.001979 0.000000 -0.007137 0.000000
# 2 0.000452 0.023262 -0.003504 0.000000 -0.001221 0.000000
# 3 0.001979 -0.003504 0.025342 0.000000 -0.007964 0.000000
# 4 0.000000 0.000000 0.000000 0.041617 0.000000 0.015073
# 5 -0.007137 -0.001221 -0.007964 0.000000 0.025342 0.000000
# 6 0.000000 0.000000 0.000000 0.015073 0.000000 0.051143
#
#
# Mechanical properties :
#
#
# Convention : Reuss Voigt Hill
#
# Bulk Modulus (GPa) = 18.21989 29.22573 23.72281
# Shear Modulus (GPa) = 25.56548 36.90607 31.23577
#
# Velocity S-wave (km/s) = 3.20348 3.84897 3.54096
# Velocity P-wave (km/s) = 4.58222 5.61109 5.12255
#
# Compressibility (1/GPa) = 0.05488507
#
# Stress axis : x y z
#
# Youngs Moduli (GPa) = 118.65025 42.98863 39.46010
#
# Poissons Ratio (x) = -0.01942 -0.07809
# Poissons Ratio (y) = -0.05359 0.13827
# Poissons Ratio (z) = -0.23480 0.15064
#
# Static dielectric constant tensor:
#      x y z
#    x 2.031430 0.000000 -0.105580 
#    y 0.000000 2.334760 0.000000 
#    z -0.105580 0.000000 1.982070 
# 
# From -- ./inp_files/58490.got.cif
#   From: 2010.05.17/outbox.cif.g08.bks.cpg/sg14_30_cif.got.tgz:58490.got - 2010.06.03 17:49:19.
