data_PCOD9249043
_publ_section_title
;
Structure prediction by ZEFSAII (Michael W. Deem and Ramdas Pophale) SiO2 
 PCOD9249043
Probable space group: P 21/C
;
_chemical_formula_sum "Si O2"
_cell_formula_units_Z 24
_cell_length_a 19.213196
_cell_length_b 5.781672
_cell_length_c 10.843436
_cell_angle_alpha 90.000000
_cell_angle_beta 58.212021
_cell_angle_gamma 90.000000
_cell_volume 1023.859964
_symmetry_space_group_name_H-M "P 21/C"
_symmetry_group_IT_number 14
_symmetry_cell_setting 'monoclinic'
loop_
_space_group_symop_operation_xyz
x,y,z
-x,1/2+y,1/2-z
-x,-y,-z
x,1/2-y,1/2+z
loop_
_atom_site_type_symbol
_atom_site_label
_atom_site_fract_x
_atom_site_fract_y
_atom_site_fract_z
Si Si1 0.136511 0.710233 0.613560
Si Si2 0.592989 0.505850 0.611412
Si Si3 0.443895 0.504151 0.931399
Si Si4 0.026969 0.358065 0.858507
Si Si5 0.816109 0.877493 0.303222
Si Si6 0.750459 0.888122 0.108759
O O1 0.093980 0.502130 0.723046
O O2 0.192292 0.614743 0.453105
O O3 0.056764 0.837101 0.636890
O O4 0.190993 0.853325 0.656954
O O5 0.502683 0.501852 0.755904
O O6 0.602191 0.254901 0.535153
O O7 0.659514 0.535505 0.658274
O O8 0.599864 0.751150 0.531611
O O9 0.500000 0.500000 0.000000
O O10 0.086069 0.140068 0.826239
O O11 0.000000 0.500000 0.000000
O O12 0.783617 0.768463 0.463528
O O13 0.766903 0.791200 0.229588
#
# Coordination Sequence:
#
# PCOD9249043 Si02
#       6
#     4   4   4   4   4   4
#     4  11  23  40  62  95 128 178 234 288 352 416
#     4  10  24  43  69 107 139 182 234 285 354 427
#     4  10  22  45  73 104 137 184 232 283 350 426
#     4  11  22  38  64  89 124 176 229 289 346 417
#     4  11  25  45  64  97 138 178 238 289 359 425
#     4  11  27  43  67 101 137 187 226 294 360 423
#
# _framework density 23.440704
#
# number of rings (size 3 to 8) (size 9 to 14) (size 15 to 20)
#    0.000    1.333    1.667    2.500    7.000    2.667 
#    0.000    0.000    0.000    0.000    0.000    0.000 
#    0.000    0.000    0.000    0.000    0.000    0.000 
#
# Total GULP energy -133689.485019 kJ/mol
# GULP energy per Si atom -5570.395209 kJ/mol
# Density = 2.338735 g / cm^3
# Si number density = 23.440704 Si / 1000 Ang^3
#
#
#
# Elastic Constant Matrix: (Units=GPa)
#
#
# Indices 1 2 3 4 5 6 
#
# 1 94.6684 32.4975 17.9424 0.0000 13.5016 0.0000
# 2 32.4975 103.0020 7.2999 0.0000 6.2510 0.0000
# 3 17.9424 7.2999 57.2041 0.0000 5.8036 0.0000
# 4 0.0000 0.0000 0.0000 -2.9928 0.0000 29.4621
# 5 13.5016 6.2510 5.8036 0.0000 44.3563 0.0000
# 6 0.0000 0.0000 0.0000 29.4621 0.0000 -7.1021
#
#
#
# Elastic Compliance Matrix: (Units=1/GPa)
#
#
# Indices 1 2 3 4 5 6 
#
# 1 0.012857 -0.003645 -0.003266 0.000000 -0.002973 0.000000
# 2 -0.003645 0.010897 -0.000207 0.000000 -0.000399 0.000000
# 3 -0.003266 -0.000207 0.018676 0.000000 -0.001420 0.000000
# 4 0.000000 0.000000 0.000000 0.008387 0.000000 0.034794
# 5 -0.002973 -0.000399 -0.001420 0.000000 0.023692 0.000000
# 6 0.000000 0.000000 0.000000 0.034794 0.000000 0.003534
#
#
# Mechanical properties :
#
#
# Convention : Reuss Voigt Hill
#
# Bulk Modulus (GPa) = 35.46669 41.15045 38.30857
# Shear Modulus (GPa) = 49.17479 19.99459 34.58469
#
# Velocity S-wave (km/s) = 4.58518 2.92376 3.84528
# Velocity P-wave (km/s) = 6.57230 5.38434 6.00775
#
# Compressibility (1/GPa) = 0.02819547
#
# Stress axis : x y z
#
# Youngs Moduli (GPa) = 77.77691 91.76545 53.54410
#
# Poissons Ratio (x) = 0.33445 0.17488
# Poissons Ratio (y) = 0.28347 0.01108
# Poissons Ratio (z) = 0.25403 0.01899
#
# Static dielectric constant tensor:
#      x y z
#    x -1.509230 0.000000 -0.141210 
#    y 0.000000 2.487380 0.000000 
#    z -0.141210 0.000000 1.840530 
# 
# From -- ./inp_files/33344.got.cif
#   From: 2010.05.17/outbox.cif.g08.bks.cpg/sg14_17_cif.got.tgz:33344.got - 2010.06.03 17:49:19.
