data_PCOD9249490
_publ_section_title
;
Structure prediction by ZEFSAII (Michael W. Deem and Ramdas Pophale) SiO2 
 PCOD9249490
Probable space group: P 21/C
;
_chemical_formula_sum "Si O2"
_cell_formula_units_Z 28
_cell_length_a 15.737860
_cell_length_b 11.593356
_cell_length_c 7.699338
_cell_angle_alpha 90.000000
_cell_angle_beta 110.432220
_cell_angle_gamma 90.000000
_cell_volume 1316.399180
_symmetry_space_group_name_H-M "P 21/C"
_symmetry_group_IT_number 14
_symmetry_cell_setting 'monoclinic'
loop_
_space_group_symop_operation_xyz
x,y,z
-x,1/2+y,1/2-z
-x,-y,-z
x,1/2-y,1/2+z
loop_
_atom_site_type_symbol
_atom_site_label
_atom_site_fract_x
_atom_site_fract_y
_atom_site_fract_z
Si Si1 0.117567 0.051664 0.942474
Si Si2 0.702035 0.839798 0.995151
Si Si3 0.645711 0.450085 0.654659
Si Si4 0.582083 0.679977 0.099067
Si Si5 0.837145 0.132631 0.330111
Si Si6 0.089523 0.617693 0.734941
Si Si7 0.503979 0.406404 0.285957
O O1 0.134458 0.958478 0.799861
O O2 0.123276 0.979969 0.125307
O O3 0.019439 0.108845 0.852493
O O4 0.196275 0.147272 0.995036
O O5 0.630937 0.878625 0.795631
O O6 0.665338 0.717639 0.033220
O O7 0.692185 0.927041 0.148617
O O8 0.727220 0.368895 0.770420
O O9 0.602446 0.410646 0.441765
O O10 0.558344 0.481822 0.710033
O O11 0.537467 0.795652 0.142672
O O12 0.509443 0.617930 0.925975
O O13 0.878343 0.098985 0.545347
O O14 0.873780 0.258159 0.301568
#
# Coordination Sequence:
#
# PCOD9249490 Si02
#       7
#     4   4   4   4   4   4   4
#     4  10  23  42  59  87 119 152 197 242 292 351
#     4   9  19  36  55  81 111 146 191 238 287 350
#     4   9  20  35  56  80 116 150 186 240 293 340
#     4   9  18  33  55  80 110 147 192 234 282 345
#     4  11  22  41  62  88 118 155 196 241 291 351
#     4  11  23  40  62  86 119 155 193 244 294 351
#     4   9  18  35  52  81 114 147 189 236 285 345
#
# _framework density 21.270143000000001
#
# number of rings (size 3 to 8) (size 9 to 14) (size 15 to 20)
#    0.000    2.286    1.429    0.429    2.000    2.857 
#    0.000    0.000    0.000    0.000    0.000    0.000 
#    0.000    0.000    0.000    0.000    0.000    0.000 
#
# Total GULP energy -156164.007081 kJ/mol
# GULP energy per Si atom -5577.285967 kJ/mol
# Density = 2.122173 g / cm^3
# Si number density = 21.270143 Si / 1000 Ang^3
#
#
#
# Elastic Constant Matrix: (Units=GPa)
#
#
# Indices 1 2 3 4 5 6 
#
# 1 30.4385 3.3143 5.7316 0.0000 8.5486 0.0000
# 2 3.3143 40.9287 14.1085 0.0000 6.8202 0.0000
# 3 5.7316 14.1085 65.6628 0.0000 -13.4227 0.0000
# 4 0.0000 0.0000 0.0000 26.3227 0.0000 4.3953
# 5 8.5486 6.8202 -13.4227 0.0000 31.7719 0.0000
# 6 0.0000 0.0000 0.0000 4.3953 0.0000 -2.2484
#
#
#
# Elastic Compliance Matrix: (Units=1/GPa)
#
#
# Indices 1 2 3 4 5 6 
#
# 1 0.037532 0.001264 -0.006203 0.000000 -0.012990 0.000000
# 2 0.001264 0.028900 -0.008381 0.000000 -0.010085 0.000000
# 3 -0.006203 -0.008381 0.020008 0.000000 0.011921 0.000000
# 4 0.000000 0.000000 0.000000 0.028641 0.000000 0.055990
# 5 -0.012990 -0.010085 0.011921 0.000000 0.042171 0.000000
# 6 0.000000 0.000000 0.000000 0.055990 0.000000 -0.335315
#
#
# Mechanical properties :
#
#
# Convention : Reuss Voigt Hill
#
# Bulk Modulus (GPa) = 16.72269 20.37096 18.54683
# Shear Modulus (GPa) = -38.02604 18.76096 -9.63254
#
# Velocity S-wave (km/s) = -4.23279 2.97313 -2.13038
# Velocity P-wave (km/s) = 4.00119 4.62429 1.63928
#
# Compressibility (1/GPa) = 0.05979899
#
# Stress axis : x y z
#
# Youngs Moduli (GPa) = 26.64403 34.60213 49.97876
#
# Poissons Ratio (x) = -0.04373 0.31002
# Poissons Ratio (y) = -0.03367 0.41889
# Poissons Ratio (z) = 0.16527 0.29001
#
# Static dielectric constant tensor:
#      x y z
#    x 1.805110 0.000000 -0.022500 
#    y 0.000000 1.791190 0.000000 
#    z -0.022500 0.000000 1.758680 
# 
# From -- ./inp_files/15585.got.cif
#   From: 2010.05.17/outbox.cif.g08.bks.cpg/sg14_8_cif.got.tgz:15585.got - 2010.06.03 17:49:19.
