data_PCOD9249007
_publ_section_title
;
Structure prediction by ZEFSAII (Michael W. Deem and Ramdas Pophale) SiO2 
 PCOD9249007
Probable space group: P 21/C
;
_chemical_formula_sum "Si O2"
_cell_formula_units_Z 30
_cell_length_a 27.948011
_cell_length_b 5.336434
_cell_length_c 8.731659
_cell_angle_alpha 90.000000
_cell_angle_beta 119.326577
_cell_angle_gamma 90.000000
_cell_volume 1135.368103
_symmetry_space_group_name_H-M "P 21/C"
_symmetry_group_IT_number 14
_symmetry_cell_setting 'monoclinic'
loop_
_space_group_symop_operation_xyz
x,y,z
-x,1/2+y,1/2-z
-x,-y,-z
x,1/2-y,1/2+z
loop_
_atom_site_type_symbol
_atom_site_label
_atom_site_fract_x
_atom_site_fract_y
_atom_site_fract_z
Si Si1 0.995709 0.767452 0.638957
Si Si2 0.834573 0.145477 0.064483
Si Si3 0.249864 0.207164 0.912885
Si Si4 0.092865 0.542852 0.609123
Si Si5 0.644043 0.437677 0.272780
Si Si6 0.500000 0.000000 0.000000
Si Si7 0.732863 0.418427 0.843688
Si Si8 0.573708 0.354940 0.905907
O O1 0.938788 0.721455 0.456785
O O2 0.001469 0.520786 0.758606
O O3 0.044617 0.727504 0.594049
O O4 0.806978 0.924540 0.122448
O O5 0.881142 0.073793 0.017372
O O6 0.782247 0.234821 0.885983
O O7 0.859533 0.377838 0.199217
O O8 0.304155 0.085049 0.076857
O O9 0.256602 0.493751 0.967397
O O10 0.256763 0.153493 0.746769
O O11 0.608111 0.343303 0.358312
O O12 0.673512 0.196106 0.243271
O O13 0.609623 0.541988 0.073302
O O14 0.536904 0.009308 0.221220
O O15 0.460685 0.791021 0.019399
#
# Coordination Sequence:
#
# PCOD9249007 Si02
#       8
#     4   4   4   4   4   2   4   4
#     4  11  26  51  76 107 146 190 259 316 376 466
#     4  11  24  49  68 100 148 187 233 303 374 441
#     4  11  25  42  69 104 140 182 240 294 359 458
#     4  11  24  47  74 103 138 198 236 302 381 444
#     4  10  22  45  69  96 148 184 233 293 377 427
#     4  10  24  44  72  98 146 184 252 288 380 420
#     4  11  25  42  69 107 137 184 240 294 363 460
#     4  10  22  47  67 103 139 195 231 316 357 442
#
# _framework density 26.423151000000001
#
# number of rings (size 3 to 8) (size 9 to 14) (size 15 to 20)
#    0.000    1.333    4.000    0.000    3.733    5.333 
#   14.400    0.000    0.000    0.000    0.000    0.000 
#    0.000    0.000    0.000    0.000    0.000    0.000 
#
# Total GULP energy -167195.586063 kJ/mol
# GULP energy per Si atom -5573.186202 kJ/mol
# Density = 2.636301 g / cm^3
# Si number density = 26.423151 Si / 1000 Ang^3
#
#
#
# Elastic Constant Matrix: (Units=GPa)
#
#
# Indices 1 2 3 4 5 6 
#
# 1 76.8118 22.6996 11.8162 0.0000 0.0336 0.0000
# 2 22.6996 70.3188 24.2134 0.0000 0.9449 0.0000
# 3 11.8162 24.2134 141.4954 0.0000 11.8321 0.0000
# 4 0.0000 0.0000 0.0000 43.5147 0.0000 -8.0946
# 5 0.0336 0.9449 11.8321 0.0000 36.3427 0.0000
# 6 0.0000 0.0000 0.0000 -8.0946 0.0000 16.1120
#
#
#
# Elastic Compliance Matrix: (Units=1/GPa)
#
#
# Indices 1 2 3 4 5 6 
#
# 1 0.014419 -0.004501 -0.000455 0.000000 0.000252 0.000000
# 2 -0.004501 0.016524 -0.002484 0.000000 0.000383 0.000000
# 3 -0.000455 -0.002484 0.007736 0.000000 -0.002453 0.000000
# 4 0.000000 0.000000 0.000000 0.025350 0.000000 0.012736
# 5 0.000252 0.000383 -0.002453 0.000000 0.028304 0.000000
# 6 0.000000 0.000000 0.000000 0.012736 0.000000 0.068464
#
#
# Mechanical properties :
#
#
# Convention : Reuss Voigt Hill
#
# Bulk Modulus (GPa) = 42.01935 45.12049 43.56992
# Shear Modulus (GPa) = 27.23165 34.52033 30.87599
#
# Velocity S-wave (km/s) = 3.21378 3.61840 3.42207
# Velocity P-wave (km/s) = 5.45052 5.87965 5.66914
#
# Compressibility (1/GPa) = 0.02379856
#
# Stress axis : x y z
#
# Youngs Moduli (GPa) = 69.35325 60.51747 129.27308
#
# Poissons Ratio (x) = 0.27241 0.05880
# Poissons Ratio (y) = 0.31218 0.32109
# Poissons Ratio (z) = 0.03155 0.15032
#
# Static dielectric constant tensor:
#      x y z
#    x 2.034700 0.000000 0.053990 
#    y 0.000000 2.167840 0.000000 
#    z 0.053990 0.000000 2.103970 
# 
# From -- ./inp_files/19906.got.cif
#   From: 2010.05.17/outbox.cif.g08.bks.cpg/sg14_10_cif.got.tgz:19906.got - 2010.06.03 17:49:19.
