data_PCOD9249288
_publ_section_title
;
Structure prediction by ZEFSAII (Michael W. Deem and Ramdas Pophale) SiO2 
 PCOD9249288
Probable space group: P 21/C
;
_chemical_formula_sum "Si O2"
_cell_formula_units_Z 24
_cell_length_a 12.630669
_cell_length_b 7.645287
_cell_length_c 18.029926
_cell_angle_alpha 90.000000
_cell_angle_beta 39.706692
_cell_angle_gamma 90.000000
_cell_volume 1112.290453
_symmetry_space_group_name_H-M "P 21/C"
_symmetry_group_IT_number 14
_symmetry_cell_setting 'monoclinic'
loop_
_space_group_symop_operation_xyz
x,y,z
-x,1/2+y,1/2-z
-x,-y,-z
x,1/2-y,1/2+z
loop_
_atom_site_type_symbol
_atom_site_label
_atom_site_fract_x
_atom_site_fract_y
_atom_site_fract_z
Si Si1 0.546543 0.168266 0.927594
Si Si2 0.791167 0.833130 0.425631
Si Si3 0.277456 0.144972 0.367292
Si Si4 0.860779 0.957027 0.135910
Si Si5 0.375614 0.776643 0.278297
Si Si6 0.116686 0.870991 0.718665
O O1 0.562965 0.134447 0.831182
O O2 0.724998 0.245175 0.854114
O O3 0.387663 0.297673 0.015347
O O4 0.500000 0.000000 0.000000
O O5 0.782830 0.801067 0.518000
O O6 0.938611 0.718132 0.312971
O O7 0.843994 0.028088 0.377532
O O8 0.184272 0.255392 0.355036
O O9 0.466512 0.214032 0.260591
O O10 0.270649 0.934783 0.369118
O O11 0.718693 0.098451 0.191244
O O12 0.893398 0.999837 0.204244
O O13 0.000000 0.000000 0.000000
#
# Coordination Sequence:
#
# PCOD9249288 Si02
#       6
#     4   4   4   4   4   4
#     4  10  23  42  62  94 127 165 217 263 319 387
#     4  11  24  42  64  94 128 169 213 260 328 383
#     4  11  22  42  66  95 127 169 219 263 321 386
#     4  11  23  43  65  95 133 164 217 273 315 383
#     4  10  23  39  68  94 124 172 217 262 325 383
#     4  11  24  43  65  95 131 168 215 266 322 384
#
# _framework density 21.577096999999998
#
# number of rings (size 3 to 8) (size 9 to 14) (size 15 to 20)
#    0.000    1.333    3.333    1.500    2.333    3.333 
#    0.000    0.000    0.000    0.000    0.000    0.000 
#    0.000    0.000    0.000    0.000    0.000    0.000 
#
# Total GULP energy -133940.539119 kJ/mol
# GULP energy per Si atom -5580.855797 kJ/mol
# Density = 2.152799 g / cm^3
# Si number density = 21.577097 Si / 1000 Ang^3
#
#
#
# Elastic Constant Matrix: (Units=GPa)
#
#
# Indices 1 2 3 4 5 6 
#
# 1 16.9495 -9.5486 5.5580 0.0000 3.7217 0.0000
# 2 -9.5486 45.4009 6.6217 0.0000 11.6537 0.0000
# 3 5.5580 6.6217 83.8253 0.0000 -7.1885 0.0000
# 4 0.0000 0.0000 0.0000 44.8661 0.0000 3.7726
# 5 3.7217 11.6537 -7.1885 0.0000 18.6867 0.0000
# 6 0.0000 0.0000 0.0000 3.7726 0.0000 25.4487
#
#
#
# Elastic Compliance Matrix: (Units=1/GPa)
#
#
# Indices 1 2 3 4 5 6 
#
# 1 0.089997 0.031531 -0.012080 0.000000 -0.042234 0.000000
# 2 0.031531 0.038360 -0.007974 0.000000 -0.033270 0.000000
# 3 -0.012080 -0.007974 0.014471 0.000000 0.012945 0.000000
# 4 0.000000 0.000000 0.000000 0.022570 0.000000 -0.003346
# 5 -0.042234 -0.033270 0.012945 0.000000 0.087654 0.000000
# 6 0.000000 0.000000 0.000000 -0.003346 0.000000 0.039791
#
#
# Mechanical properties :
#
#
# Convention : Reuss Voigt Hill
#
# Bulk Modulus (GPa) = 6.03205 16.82642 11.42923
# Shear Modulus (GPa) = 15.37758 27.36992 21.37375
#
# Velocity S-wave (km/s) = 2.67250 3.56542 3.15076
# Velocity P-wave (km/s) = 3.51065 4.97643 4.30636
#
# Compressibility (1/GPa) = 0.16578124
#
# Stress axis : x y z
#
# Youngs Moduli (GPa) = 11.11154 26.06861 69.10589
#
# Poissons Ratio (x) = -0.82196 0.83478
# Poissons Ratio (y) = -0.35035 0.55105
# Poissons Ratio (z) = 0.13422 0.20787
#
# Static dielectric constant tensor:
#      x y z
#    x 1.817830 0.000000 -0.049430 
#    y 0.000000 1.899800 0.000000 
#    z -0.049430 0.000000 1.791570 
# 
# From -- ./inp_files/67804.got.cif
#   From: 2010.05.17/outbox.cif.g08.bks.cpg/sg14_34_cif.got.tgz:67804.got - 2010.06.03 17:49:19.
