data_PCOD9249176
_publ_section_title
;
Structure prediction by ZEFSAII (Michael W. Deem and Ramdas Pophale) SiO2 
 PCOD9249176
Probable space group: P 21/C
;
_chemical_formula_sum "Si O2"
_cell_formula_units_Z 20
_cell_length_a 11.974933
_cell_length_b 10.133371
_cell_length_c 8.913377
_cell_angle_alpha 90.000000
_cell_angle_beta 137.533668
_cell_angle_gamma 90.000000
_cell_volume 730.254080
_symmetry_space_group_name_H-M "P 21/C"
_symmetry_group_IT_number 14
_symmetry_cell_setting 'monoclinic'
loop_
_space_group_symop_operation_xyz
x,y,z
-x,1/2+y,1/2-z
-x,-y,-z
x,1/2-y,1/2+z
loop_
_atom_site_type_symbol
_atom_site_label
_atom_site_fract_x
_atom_site_fract_y
_atom_site_fract_z
Si Si1 0.497708 0.892195 0.839101
Si Si2 0.005117 0.067881 0.342156
Si Si3 0.679908 0.491679 0.102901
Si Si4 0.841786 0.852590 0.016460
Si Si5 0.330659 0.792696 0.958041
O O1 0.371414 0.989464 0.623753
O O2 0.439504 0.877599 0.951581
O O3 0.442077 0.755489 0.703911
O O4 0.689307 0.891226 0.978213
O O5 0.828573 0.135307 0.142681
O O6 0.122711 0.303718 0.947478
O O7 0.998714 0.943049 0.222693
O O8 0.000000 0.000000 0.500000
O O9 0.787377 0.599339 0.296240
O O10 0.731875 0.340573 0.185540
O O11 0.500000 0.500000 0.000000
#
# Coordination Sequence:
#
# PCOD9249176 Si02
#       5
#     4   4   4   4   4
#     4   9  22  44  82 110 152 197 268 323 380 458
#     4  12  31  50  75 117 161 209 257 322 403 471
#     4   8  19  42  75 109 141 198 253 313 386 443
#     4  11  26  53  75 113 158 208 264 320 396 468
#     4  10  22  47  74 117 146 200 262 327 378 460
#
# _framework density 27.387727000000002
#
# number of rings (size 3 to 8) (size 9 to 14) (size 15 to 20)
#    1.200    0.800    0.000    1.200    8.400    1.600 
#   14.400    0.000    0.000    0.000    0.000    0.000 
#    0.000    0.000    0.000    0.000    0.000    0.000 
#
# Total GULP energy -111822.510298 kJ/mol
# GULP energy per Si atom -5591.125515 kJ/mol
# Density = 2.732539 g / cm^3
# Si number density = 27.387727 Si / 1000 Ang^3
#
#
#
# Elastic Constant Matrix: (Units=GPa)
#
#
# Indices 1 2 3 4 5 6 
#
# 1 74.1638 32.7404 0.9872 0.0000 5.3662 0.0000
# 2 32.7404 183.3096 45.8884 0.0000 28.3869 0.0000
# 3 0.9872 45.8884 102.3802 0.0000 -4.4691 0.0000
# 4 0.0000 0.0000 0.0000 63.1332 0.0000 8.1247
# 5 5.3662 28.3869 -4.4691 0.0000 37.6304 0.0000
# 6 0.0000 0.0000 0.0000 8.1247 0.0000 46.7795
#
#
#
# Elastic Compliance Matrix: (Units=1/GPa)
#
#
# Indices 1 2 3 4 5 6 
#
# 1 0.014764 -0.002984 0.001208 0.000000 0.000289 0.000000
# 2 -0.002984 0.007846 -0.003747 0.000000 -0.005938 0.000000
# 3 0.001208 -0.003747 0.011611 0.000000 0.004033 0.000000
# 4 0.000000 0.000000 0.000000 0.016202 0.000000 -0.002814
# 5 0.000289 -0.005938 0.004033 0.000000 0.031491 0.000000
# 6 0.000000 0.000000 0.000000 -0.002814 0.000000 0.021866
#
#
# Mechanical properties :
#
#
# Convention : Reuss Voigt Hill
#
# Bulk Modulus (GPa) = 43.15080 57.67618 50.41349
# Shear Modulus (GPa) = 40.79918 48.19113 44.49515
#
# Velocity S-wave (km/s) = 3.86384 4.19930 4.03505
# Velocity P-wave (km/s) = 5.97456 6.67959 6.33689
#
# Compressibility (1/GPa) = 0.02317454
#
# Stress axis : x y z
#
# Youngs Moduli (GPa) = 67.73218 127.45689 86.12211
#
# Poissons Ratio (x) = 0.38034 -0.10402
# Poissons Ratio (y) = 0.20212 0.32270
# Poissons Ratio (z) = -0.08181 0.47759
#
# Static dielectric constant tensor:
#      x y z
#    x 2.565820 0.000000 0.315160 
#    y 0.000000 2.180670 0.000000 
#    z 0.315160 0.000000 2.319790 
# 
# From -- ./inp_files/34035.got.cif
#   From: 2010.05.17/outbox.cif.g08.bks.cpg/sg14_18_cif.got.tgz:34035.got - 2010.06.03 17:49:19.
