data_PCOD9249561
_publ_section_title
;
Structure prediction by ZEFSAII (Michael W. Deem and Ramdas Pophale) SiO2 
 PCOD9249561
Probable space group: P 21/C
;
_chemical_formula_sum "Si O2"
_cell_formula_units_Z 28
_cell_length_a 9.675787
_cell_length_b 10.989090
_cell_length_c 15.683192
_cell_angle_alpha 90.000000
_cell_angle_beta 57.745219
_cell_angle_gamma 90.000000
_cell_volume 1410.230941
_symmetry_space_group_name_H-M "P 21/C"
_symmetry_group_IT_number 14
_symmetry_cell_setting 'monoclinic'
loop_
_space_group_symop_operation_xyz
x,y,z
-x,1/2+y,1/2-z
-x,-y,-z
x,1/2-y,1/2+z
loop_
_atom_site_type_symbol
_atom_site_label
_atom_site_fract_x
_atom_site_fract_y
_atom_site_fract_z
Si Si1 0.984605 0.288116 0.574369
Si Si2 0.919452 0.877324 0.297594
Si Si3 0.334004 0.705552 0.427635
Si Si4 0.672855 0.031319 0.485195
Si Si5 0.848784 0.912508 0.576481
Si Si6 0.704758 0.837120 0.796735
Si Si7 0.181557 0.499867 0.590946
O O1 0.799529 0.291683 0.603451
O O2 0.006554 0.202136 0.649528
O O3 0.089497 0.222152 0.466339
O O4 0.066345 0.415538 0.570355
O O5 0.800454 0.787440 0.284995
O O6 0.814584 0.987067 0.373740
O O7 0.060658 0.924691 0.190904
O O8 0.317345 0.828677 0.489217
O O9 0.518817 0.692890 0.335045
O O10 0.289136 0.590251 0.500231
O O11 0.500000 0.000000 0.500000
O O12 0.704571 0.952786 0.560497
O O13 0.792861 0.911963 0.692254
O O14 0.000000 0.000000 0.500000
O O15 0.714112 0.913287 0.881252
#
# Coordination Sequence:
#
# PCOD9249561 Si02
#       7
#     4   4   4   4   4   4   4
#     4  10  23  42  66  95 127 175 219 267 322 391
#     4  10  23  42  69  94 128 172 222 261 323 400
#     4  12  24  43  65  98 135 166 216 277 333 385
#     4  11  23  42  65  97 131 169 216 273 328 391
#     4  11  22  44  70  91 129 176 223 267 318 401
#     4  11  24  44  64  97 130 168 215 275 330 379
#     4  11  25  42  67  94 133 174 217 268 329 395
#
# _framework density 19.854906
#
# number of rings (size 3 to 8) (size 9 to 14) (size 15 to 20)
#    0.000    1.143    2.857    3.429    4.000    1.143 
#    2.571    0.000    0.000    0.000    0.000    0.000 
#    0.000    0.000    0.000    0.000    0.000    0.000 
#
# Total GULP energy -156555.223239 kJ/mol
# GULP energy per Si atom -5591.257973 kJ/mol
# Density = 1.980972 g / cm^3
# Si number density = 19.854906 Si / 1000 Ang^3
#
#
#
# Elastic Constant Matrix: (Units=GPa)
#
#
# Indices 1 2 3 4 5 6 
#
# 1 150.9846 26.6802 18.6851 0.0000 5.3380 0.0000
# 2 26.6802 66.3253 19.5472 0.0000 -5.8697 0.0000
# 3 18.6851 19.5472 56.5184 0.0000 5.0473 0.0000
# 4 0.0000 0.0000 0.0000 29.1694 0.0000 -2.3786
# 5 5.3380 -5.8697 5.0473 0.0000 19.2392 0.0000
# 6 0.0000 0.0000 0.0000 -2.3786 0.0000 23.1630
#
#
#
# Elastic Compliance Matrix: (Units=1/GPa)
#
#
# Indices 1 2 3 4 5 6 
#
# 1 0.007367 -0.002831 -0.001225 0.000000 -0.002586 0.000000
# 2 -0.002831 0.018794 -0.006294 0.000000 0.008170 0.000000
# 3 -0.001225 -0.006294 0.020906 0.000000 -0.007065 0.000000
# 4 0.000000 0.000000 0.000000 0.034572 0.000000 0.003550
# 5 -0.002586 0.008170 -0.007065 0.000000 0.057041 0.000000
# 6 0.000000 0.000000 0.000000 0.003550 0.000000 0.043537
#
#
# Mechanical properties :
#
#
# Convention : Reuss Voigt Hill
#
# Bulk Modulus (GPa) = 37.92697 44.85037 41.38867
# Shear Modulus (GPa) = 23.61775 28.24205 25.92990
#
# Velocity S-wave (km/s) = 3.45268 3.77559 3.61774
# Velocity P-wave (km/s) = 5.91931 6.45329 6.19206
#
# Compressibility (1/GPa) = 0.02636646
#
# Stress axis : x y z
#
# Youngs Moduli (GPa) = 135.74922 53.20860 47.83297
#
# Poissons Ratio (x) = 0.15063 0.05861
# Poissons Ratio (y) = 0.38431 0.30105
# Poissons Ratio (z) = 0.16633 0.33488
#
# Static dielectric constant tensor:
#      x y z
#    x 1.701970 0.000000 0.018690 
#    y 0.000000 1.707930 0.000000 
#    z 0.018690 0.000000 1.671490 
# 
# From -- ./inp_files/39955.got.cif
#   From: 2010.05.17/outbox.cif.g08.bks.cpg/sg14_20_cif.got.tgz:39955.got - 2010.06.03 17:49:19.
