data_PCOD9249226
_publ_section_title
;
Structure prediction by ZEFSAII (Michael W. Deem and Ramdas Pophale) SiO2 
 PCOD9249226
Probable space group: P 21/C
;
_chemical_formula_sum "Si O2"
_cell_formula_units_Z 28
_cell_length_a 10.727043
_cell_length_b 8.057124
_cell_length_c 15.147575
_cell_angle_alpha 90.000000
_cell_angle_beta 116.638366
_cell_angle_gamma 90.000000
_cell_volume 1170.226345
_symmetry_space_group_name_H-M "P 21/C"
_symmetry_group_IT_number 14
_symmetry_cell_setting 'monoclinic'
loop_
_space_group_symop_operation_xyz
x,y,z
-x,1/2+y,1/2-z
-x,-y,-z
x,1/2-y,1/2+z
loop_
_atom_site_type_symbol
_atom_site_label
_atom_site_fract_x
_atom_site_fract_y
_atom_site_fract_z
Si Si1 0.752500 0.094186 0.298264
Si Si2 0.489615 0.424414 0.594190
Si Si3 0.724165 0.880656 0.462050
Si Si4 0.222116 0.033287 0.331929
Si Si5 0.037583 0.338678 0.215252
Si Si6 0.063187 0.329503 0.551509
Si Si7 0.308998 0.950570 0.186728
O O1 0.637620 0.113483 0.185290
O O2 0.772372 0.277146 0.343691
O O3 0.702538 0.982079 0.365040
O O4 0.880433 0.999565 0.294266
O O5 0.500000 0.500000 0.500000
O O6 0.389251 0.264285 0.560754
O O7 0.422214 0.548177 0.645974
O O8 0.725975 0.984401 0.552352
O O9 0.881779 0.803073 0.501322
O O10 0.148619 0.215019 0.296752
O O11 0.342578 0.991969 0.299415
O O12 0.094739 0.904768 0.273665
O O13 0.984054 0.247688 0.109202
O O14 0.210422 0.392854 0.637242
O O15 0.000000 0.500000 0.500000
#
# Coordination Sequence:
#
# PCOD9249226 Si02
#       7
#     4   4   4   4   4   4   4
#     4  11  23  43  68  96 135 171 227 271 329 394
#     4  11  24  47  69  93 126 175 225 278 339 390
#     4  10  24  40  68  99 127 179 216 275 328 393
#     4  11  23  42  63 100 142 169 228 263 337 395
#     4  10  23  37  63  97 134 181 212 272 320 395
#     4   9  21  38  61  90 133 171 215 263 320 381
#     4  10  24  42  63  95 130 173 213 280 327 387
#
# _framework density 23.926995999999999
#
# number of rings (size 3 to 8) (size 9 to 14) (size 15 to 20)
#    0.000    1.714    0.000    3.429    8.000    3.429 
#    2.571    2.143    0.000    0.000    0.000    0.000 
#    0.000    0.000    0.000    0.000    0.000    0.000 
#
# Total GULP energy -156408.701798 kJ/mol
# GULP energy per Si atom -5586.025064 kJ/mol
# Density = 2.387254 g / cm^3
# Si number density = 23.926996 Si / 1000 Ang^3
#
#
#
# Elastic Constant Matrix: (Units=GPa)
#
#
# Indices 1 2 3 4 5 6 
#
# 1 84.7833 24.6509 37.8490 0.0000 -30.5899 0.0000
# 2 24.6509 92.2330 12.2553 0.0000 -9.7491 0.0000
# 3 37.8490 12.2553 107.4204 0.0000 -27.5300 0.0000
# 4 0.0000 0.0000 0.0000 35.9038 0.0000 -2.0982
# 5 -30.5899 -9.7491 -27.5300 0.0000 35.3223 0.0000
# 6 0.0000 0.0000 0.0000 -2.0982 0.0000 31.5817
#
#
#
# Elastic Compliance Matrix: (Units=1/GPa)
#
#
# Indices 1 2 3 4 5 6 
#
# 1 0.018749 -0.003244 -0.002879 0.000000 0.013098 0.000000
# 2 -0.003244 0.011761 -0.000109 0.000000 0.000352 0.000000
# 3 -0.002879 -0.000109 0.012108 0.000000 0.006913 0.000000
# 4 0.000000 0.000000 0.000000 0.027961 0.000000 0.001858
# 5 0.013098 0.000352 0.006913 0.000000 0.045139 0.000000
# 6 0.000000 0.000000 0.000000 0.001858 0.000000 0.031787
#
#
# Mechanical properties :
#
#
# Convention : Reuss Voigt Hill
#
# Bulk Modulus (GPa) = 33.16316 48.21635 40.68975
# Shear Modulus (GPa) = 29.40839 34.54033 31.97436
#
# Velocity S-wave (km/s) = 3.50964 3.80356 3.65955
# Velocity P-wave (km/s) = 5.50578 6.28368 5.90755
#
# Compressibility (1/GPa) = 0.03015394
#
# Stress axis : x y z
#
# Youngs Moduli (GPa) = 53.33632 85.02855 82.59086
#
# Poissons Ratio (x) = 0.27583 0.23781
# Poissons Ratio (y) = 0.17302 0.00896
# Poissons Ratio (z) = 0.15357 0.00923
#
# Static dielectric constant tensor:
#      x y z
#    x 1.955430 0.000000 -0.005420 
#    y 0.000000 1.944990 0.000000 
#    z -0.005420 0.000000 1.956920 
# 
# From -- ./inp_files/43818.got.cif
#   From: 2010.05.17/outbox.cif.g08.bks.cpg/sg14_22_cif.got.tgz:43818.got - 2010.06.03 17:49:19.
