data_PCOD9249782
_publ_section_title
;
Structure prediction by ZEFSAII (Michael W. Deem and Ramdas Pophale) SiO2 
 PCOD9249782
Probable space group: P 21/C
;
_chemical_formula_sum "Si O2"
_cell_formula_units_Z 28
_cell_length_a 14.375289
_cell_length_b 9.915233
_cell_length_c 9.626266
_cell_angle_alpha 90.000000
_cell_angle_beta 58.287675
_cell_angle_gamma 90.000000
_cell_volume 1167.220231
_symmetry_space_group_name_H-M "P 21/C"
_symmetry_group_IT_number 14
_symmetry_cell_setting 'monoclinic'
loop_
_space_group_symop_operation_xyz
x,y,z
-x,1/2+y,1/2-z
-x,-y,-z
x,1/2-y,1/2+z
loop_
_atom_site_type_symbol
_atom_site_label
_atom_site_fract_x
_atom_site_fract_y
_atom_site_fract_z
Si Si1 0.344380 0.887616 0.076976
Si Si2 0.884767 0.729046 0.336750
Si Si3 0.385240 0.993272 0.512469
Si Si4 0.937060 0.029647 0.406741
Si Si5 0.407298 0.369846 0.711748
Si Si6 0.277794 0.715808 0.908541
Si Si7 0.751272 0.849768 0.199037
O O1 0.265131 0.851154 0.010382
O O2 0.324720 0.779411 0.216516
O O3 0.338581 0.026931 0.168389
O O4 0.466315 0.891945 0.919509
O O5 0.831943 0.759699 0.229095
O O6 0.800508 0.658547 0.508229
O O7 0.985597 0.626640 0.245497
O O8 0.913546 0.880808 0.365123
O O9 0.383371 0.105779 0.392334
O O10 0.280382 0.014835 0.694974
O O11 0.500000 0.000000 0.500000
O O12 0.367949 0.861963 0.430961
O O13 0.828310 0.120110 0.513116
O O14 0.000000 0.000000 0.500000
O O15 0.365823 0.222743 0.710308
#
# Coordination Sequence:
#
# PCOD9249782 Si02
#       7
#     4   4   4   4   4   4   4
#     4  10  24  42  69 105 143 189 238 298 362 455
#     4  12  27  48  82 108 145 202 253 315 395 447
#     4  11  24  44  69 105 147 188 238 298 355 460
#     4  12  28  53  77 109 153 193 256 336 381 452
#     4  10  23  43  70 103 149 191 237 290 379 434
#     4  11  25  46  69 101 147 186 247 302 381 432
#     4  12  23  47  75 103 144 194 245 297 372 456
#
# _framework density 23.988616
#
# number of rings (size 3 to 8) (size 9 to 14) (size 15 to 20)
#    0.000    0.857    4.286    1.714    6.000    4.000 
#    2.571    0.000    0.000    0.000    0.000    0.000 
#    0.000    0.000    0.000    0.000    0.000    0.000 
#
# Total GULP energy -156541.913530 kJ/mol
# GULP energy per Si atom -5590.782626 kJ/mol
# Density = 2.393402 g / cm^3
# Si number density = 23.988616 Si / 1000 Ang^3
#
#
#
# Elastic Constant Matrix: (Units=GPa)
#
#
# Indices 1 2 3 4 5 6 
#
# 1 86.9478 26.1053 14.4597 0.0000 4.1526 0.0000
# 2 26.1053 91.4010 20.0705 0.0000 -2.4774 0.0000
# 3 14.4597 20.0705 102.2408 0.0000 1.3111 0.0000
# 4 0.0000 0.0000 0.0000 30.0337 0.0000 -2.8215
# 5 4.1526 -2.4774 1.3111 0.0000 40.4257 0.0000
# 6 0.0000 0.0000 0.0000 -2.8215 0.0000 46.1765
#
#
#
# Elastic Compliance Matrix: (Units=1/GPa)
#
#
# Indices 1 2 3 4 5 6 
#
# 1 0.012793 -0.003450 -0.001113 0.000000 -0.001489 0.000000
# 2 -0.003450 0.012388 -0.001959 0.000000 0.001177 0.000000
# 3 -0.001113 -0.001959 0.010327 0.000000 -0.000341 0.000000
# 4 0.000000 0.000000 0.000000 0.033488 0.000000 0.002046
# 5 -0.001489 0.001177 -0.000341 0.000000 0.024973 0.000000
# 6 0.000000 0.000000 0.000000 0.002046 0.000000 0.021781
#
#
# Mechanical properties :
#
#
# Convention : Reuss Voigt Hill
#
# Bulk Modulus (GPa) = 44.51421 44.65118 44.58270
# Shear Modulus (GPa) = 36.68843 37.99080 37.33961
#
# Velocity S-wave (km/s) = 3.91501 3.98389 3.94960
# Velocity P-wave (km/s) = 6.24765 6.30997 6.27889
#
# Compressibility (1/GPa) = 0.02246474
#
# Stress axis : x y z
#
# Youngs Moduli (GPa) = 78.16666 80.72192 96.83180
#
# Poissons Ratio (x) = 0.27848 0.10777
# Poissons Ratio (y) = 0.26966 0.18970
# Poissons Ratio (z) = 0.08700 0.15814
#
# Static dielectric constant tensor:
#      x y z
#    x 1.898720 0.000000 0.024520 
#    y 0.000000 2.069200 0.000000 
#    z 0.024520 0.000000 1.920120 
# 
# From -- ./inp_files/15462.got.cif
#   From: 2010.05.17/outbox.cif.g08.bks.cpg/sg14_8_cif.got.tgz:15462.got - 2010.06.03 17:49:19.
