data_PCOD9249594
_publ_section_title
;
Structure prediction by ZEFSAII (Michael W. Deem and Ramdas Pophale) SiO2 
 PCOD9249594
Probable space group: P 21/C
;
_chemical_formula_sum "Si O2"
_cell_formula_units_Z 32
_cell_length_a 23.383395
_cell_length_b 7.880817
_cell_length_c 14.648928
_cell_angle_alpha 90.000000
_cell_angle_beta 29.648363
_cell_angle_gamma 90.000000
_cell_volume 1335.380915
_symmetry_space_group_name_H-M "P 21/C"
_symmetry_group_IT_number 14
_symmetry_cell_setting 'monoclinic'
loop_
_space_group_symop_operation_xyz
x,y,z
-x,1/2+y,1/2-z
-x,-y,-z
x,1/2-y,1/2+z
loop_
_atom_site_type_symbol
_atom_site_label
_atom_site_fract_x
_atom_site_fract_y
_atom_site_fract_z
Si Si1 0.085210 0.849309 0.002477
Si Si2 0.922988 0.353116 0.157250
Si Si3 0.929746 0.927004 0.817585
Si Si4 0.297351 0.654324 0.775669
Si Si5 0.529984 0.682874 0.997296
Si Si6 0.720517 0.834786 0.599797
Si Si7 0.344814 0.912718 0.009729
Si Si8 0.581559 0.720109 0.127912
O O1 0.017872 0.700663 0.148517
O O2 0.053990 0.020961 0.099270
O O3 0.057815 0.814143 0.933574
O O4 0.217795 0.805985 0.847332
O O5 0.937263 0.401845 0.244270
O O6 0.785368 0.373559 0.335950
O O7 0.000000 0.500000 0.000000
O O8 0.810433 0.820112 0.974231
O O9 0.407613 0.720672 0.677776
O O10 0.231368 0.507975 0.922867
O O11 0.345400 0.566615 0.617639
O O12 0.590770 0.667881 0.010465
O O13 0.500000 0.500000 0.000000
O O14 0.612197 0.776647 0.811534
O O15 0.667312 0.879430 0.575315
O O16 0.448166 0.788174 0.841844
O O17 0.379524 0.087345 0.915311
#
# Coordination Sequence:
#
# PCOD9249594 Si02
#       8
#     4   4   4   4   4   4   4   4
#     4  10  23  42  68 100 128 174 227 283 338 416
#     4   9  21  42  69  92 131 177 226 277 343 407
#     4  11  22  44  71  99 133 178 227 282 351 411
#     4  11  23  43  64  91 137 173 221 282 340 404
#     4  12  25  41  62  96 135 175 224 282 338 402
#     4  12  23  42  66  95 131 179 223 280 344 409
#     4  11  22  42  64  96 129 179 224 272 344 408
#     4  12  24  39  65  94 133 175 227 270 336 415
#
# _framework density 23.963201999999999
#
# number of rings (size 3 to 8) (size 9 to 14) (size 15 to 20)
#    0.000    1.000    3.750    3.375    1.750    0.000 
#    0.000    0.625    0.000    0.000    0.000    0.000 
#    0.000    0.000    0.000    0.000    0.000    0.000 
#
# Total GULP energy -178789.822540 kJ/mol
# GULP energy per Si atom -5587.181954 kJ/mol
# Density = 2.390866 g / cm^3
# Si number density = 23.963202 Si / 1000 Ang^3
#
#
#
# Elastic Constant Matrix: (Units=GPa)
#
#
# Indices 1 2 3 4 5 6 
#
# 1 98.8091 0.5173 -0.1186 0.0000 24.0150 0.0000
# 2 0.5173 52.5901 5.4871 0.0000 -0.0240 0.0000
# 3 -0.1186 5.4871 54.6825 0.0000 -6.9739 0.0000
# 4 0.0000 0.0000 0.0000 34.7829 0.0000 7.3562
# 5 24.0150 -0.0240 -6.9739 0.0000 25.2197 0.0000
# 6 0.0000 0.0000 0.0000 7.3562 0.0000 26.7485
#
#
#
# Elastic Compliance Matrix: (Units=1/GPa)
#
#
# Indices 1 2 3 4 5 6 
#
# 1 0.013309 0.000035 -0.001649 0.000000 -0.013130 0.000000
# 2 0.000035 0.019223 -0.002001 0.000000 -0.000569 0.000000
# 3 -0.001649 -0.002001 0.019368 0.000000 0.006924 0.000000
# 4 0.000000 0.000000 0.000000 0.030525 0.000000 -0.008395
# 5 -0.013130 -0.000569 0.006924 0.000000 0.054068 0.000000
# 6 0.000000 0.000000 0.000000 -0.008395 0.000000 0.039694
#
#
# Mechanical properties :
#
#
# Convention : Reuss Voigt Hill
#
# Bulk Modulus (GPa) = 22.38655 24.20589 23.29622
# Shear Modulus (GPa) = 25.21328 30.69663 27.95496
#
# Velocity S-wave (km/s) = 3.24723 3.58298 3.41923
# Velocity P-wave (km/s) = 4.83959 5.21921 5.03298
#
# Compressibility (1/GPa) = 0.04466968
#
# Stress axis : x y z
#
# Youngs Moduli (GPa) = 75.13450 52.02045 51.63236
#
# Poissons Ratio (x) = -0.00183 0.08515
# Poissons Ratio (y) = -0.00264 0.10334
# Poissons Ratio (z) = 0.12391 0.10411
#
# Static dielectric constant tensor:
#      x y z
#    x 2.057990 0.000000 -0.055400 
#    y 0.000000 1.944100 0.000000 
#    z -0.055400 0.000000 1.951130 
# 
# From -- ./inp_files/51362.got.cif
#   From: 2010.05.17/outbox.cif.g08.bks.cpg/sg14_26_cif.got.tgz:51362.got - 2010.06.03 17:49:19.
