data_PCOD9249396
_publ_section_title
;
Structure prediction by ZEFSAII (Michael W. Deem and Ramdas Pophale) SiO2 
 PCOD9249396
Probable space group: P 21/C
;
_chemical_formula_sum "Si O2"
_cell_formula_units_Z 20
_cell_length_a 7.960119
_cell_length_b 11.084917
_cell_length_c 9.286440
_cell_angle_alpha 90.000000
_cell_angle_beta 93.427138
_cell_angle_gamma 90.000000
_cell_volume 817.944594
_symmetry_space_group_name_H-M "P 21/C"
_symmetry_group_IT_number 14
_symmetry_cell_setting 'monoclinic'
loop_
_space_group_symop_operation_xyz
x,y,z
-x,1/2+y,1/2-z
-x,-y,-z
x,1/2-y,1/2+z
loop_
_atom_site_type_symbol
_atom_site_label
_atom_site_fract_x
_atom_site_fract_y
_atom_site_fract_z
Si Si1 0.389812 0.103101 0.662291
Si Si2 0.236051 0.236598 0.908580
Si Si3 0.123377 0.859612 0.997416
Si Si4 0.902257 0.963448 0.763509
Si Si5 0.740266 0.105584 0.538085
O O1 0.337853 0.140669 0.819211
O O2 0.329362 0.210014 0.551724
O O3 0.587237 0.090181 0.642183
O O4 0.303470 0.981969 0.595859
O O5 0.201084 0.352799 0.806085
O O6 0.054121 0.186661 0.944778
O O7 0.177150 0.967860 0.103640
O O8 0.240998 0.744207 0.001325
O O9 0.073480 0.908597 0.837548
O O10 0.905549 0.060421 0.633834
#
# Coordination Sequence:
#
# PCOD9249396 Si02
#       5
#     4   4   4   4   4
#     4  10  24  44  69  99 138 177 227 280 348 403
#     4  11  22  43  67  99 137 173 222 287 334 413
#     4  11  23  41  69  99 133 182 225 285 338 404
#     4  10  23  41  63 101 130 170 239 267 339 403
#     4  10  24  46  69  95 136 185 227 282 341 407
#
# _framework density 24.451533000000001
#
# number of rings (size 3 to 8) (size 9 to 14) (size 15 to 20)
#    0.000    1.600    2.000    1.200    5.600    1.600 
#    0.000    2.000    0.000    0.000    0.000    0.000 
#    0.000    0.000    0.000    0.000    0.000    0.000 
#
# Total GULP energy -111961.633719 kJ/mol
# GULP energy per Si atom -5598.081686 kJ/mol
# Density = 2.439588 g / cm^3
# Si number density = 24.451533 Si / 1000 Ang^3
#
#
#
# Elastic Constant Matrix: (Units=GPa)
#
#
# Indices 1 2 3 4 5 6 
#
# 1 72.2052 12.2275 36.4264 0.0000 -15.0549 0.0000
# 2 12.2275 101.8137 24.5260 0.0000 -3.7941 0.0000
# 3 36.4264 24.5260 72.9569 0.0000 -4.1021 0.0000
# 4 0.0000 0.0000 0.0000 19.8219 0.0000 -13.4951
# 5 -15.0549 -3.7941 -4.1021 0.0000 31.7223 0.0000
# 6 0.0000 0.0000 0.0000 -13.4951 0.0000 23.7955
#
#
#
# Elastic Compliance Matrix: (Units=1/GPa)
#
#
# Indices 1 2 3 4 5 6 
#
# 1 0.020561 0.000224 -0.009863 0.000000 0.008509 0.000000
# 2 0.000224 0.010711 -0.003661 0.000000 0.000914 0.000000
# 3 -0.009863 -0.003661 0.019717 0.000000 -0.002569 0.000000
# 4 0.000000 0.000000 0.000000 0.082180 0.000000 0.046607
# 5 0.008509 0.000914 -0.002569 0.000000 0.035339 0.000000
# 6 0.000000 0.000000 0.000000 0.046607 0.000000 0.068457
#
#
# Mechanical properties :
#
#
# Convention : Reuss Voigt Hill
#
# Bulk Modulus (GPa) = 41.00136 43.70396 42.35266
# Shear Modulus (GPa) = 18.40294 26.65433 22.52864
#
# Velocity S-wave (km/s) = 2.74639 3.30523 3.03868
# Velocity P-wave (km/s) = 5.18282 5.69900 5.44703
#
# Compressibility (1/GPa) = 0.02438943
#
# Stress axis : x y z
#
# Youngs Moduli (GPa) = 48.63485 93.36238 50.71682
#
# Poissons Ratio (x) = -0.02088 0.50021
# Poissons Ratio (y) = -0.01087 0.18567
# Poissons Ratio (z) = 0.47967 0.34180
#
# Static dielectric constant tensor:
#      x y z
#    x 1.938940 0.000000 -0.001040 
#    y 0.000000 1.962440 0.000000 
#    z -0.001040 0.000000 1.942960 
# 
# From -- ./inp_files/7950.got.cif
#   From: 2010.05.17/outbox.cif.g08.bks.cpg/sg14_4_cif.got.tgz:7950.got - 2010.06.03 17:49:19.
