data_PCOD9249738
_publ_section_title
;
Structure prediction by ZEFSAII (Michael W. Deem and Ramdas Pophale) SiO2 
 PCOD9249738
Probable space group: P 21/C
;
_chemical_formula_sum "Si O2"
_cell_formula_units_Z 28
_cell_length_a 12.042582
_cell_length_b 9.573387
_cell_length_c 15.064034
_cell_angle_alpha 90.000000
_cell_angle_beta 51.237717
_cell_angle_gamma 90.000000
_cell_volume 1354.197646
_symmetry_space_group_name_H-M "P 21/C"
_symmetry_group_IT_number 14
_symmetry_cell_setting 'monoclinic'
loop_
_space_group_symop_operation_xyz
x,y,z
-x,1/2+y,1/2-z
-x,-y,-z
x,1/2-y,1/2+z
loop_
_atom_site_type_symbol
_atom_site_label
_atom_site_fract_x
_atom_site_fract_y
_atom_site_fract_z
Si Si1 0.916561 0.575376 0.121262
Si Si2 0.161406 0.778367 0.600503
Si Si3 0.487059 0.643638 0.900559
Si Si4 0.766039 0.297409 0.238915
Si Si5 0.701242 0.708340 0.646984
Si Si6 0.145969 0.925100 0.953453
Si Si7 0.535947 0.816719 0.573628
O O1 0.807691 0.458111 0.208658
O O2 0.830047 0.709003 0.129045
O O3 0.034205 0.621186 0.133745
O O4 0.000000 0.500000 0.000000
O O5 0.317983 0.831813 0.492376
O O6 0.167063 0.758700 0.702825
O O7 0.139824 0.636333 0.555519
O O8 0.563480 0.715579 0.779705
O O9 0.508054 0.477049 0.887011
O O10 0.557023 0.695883 0.957656
O O11 0.821254 0.203637 0.129302
O O12 0.597175 0.278332 0.332216
O O13 0.737808 0.546407 0.614802
O O14 0.667283 0.778125 0.569737
O O15 0.000000 0.000000 0.000000
#
# Coordination Sequence:
#
# PCOD9249738 Si02
#       7
#     4   4   4   4   4   4   4
#     4  12  25  45  67 101 134 179 225 271 336 405
#     4  11  25  44  70  97 140 175 224 286 333 401
#     4  10  23  44  69 100 133 175 227 272 339 404
#     4  11  25  44  69  96 137 178 221 275 337 399
#     4  12  25  41  75  97 134 179 220 281 335 399
#     4  12  24  45  63 101 136 173 227 276 333 397
#     4  10  23  43  68 100 133 175 221 276 334 400
#
# _framework density 20.676449000000002
#
# number of rings (size 3 to 8) (size 9 to 14) (size 15 to 20)
#    0.000    0.857    4.286    1.714    4.000    1.143 
#    2.571    2.857    0.000    0.000    0.000    0.000 
#    0.000    0.000    0.000    0.000    0.000    0.000 
#
# Total GULP energy -156597.690928 kJ/mol
# GULP energy per Si atom -5592.774676 kJ/mol
# Density = 2.062939 g / cm^3
# Si number density = 20.676449 Si / 1000 Ang^3
#
#
#
# Elastic Constant Matrix: (Units=GPa)
#
#
# Indices 1 2 3 4 5 6 
#
# 1 86.1307 0.4117 15.9783 0.0000 19.8193 0.0000
# 2 0.4117 59.2961 19.3023 0.0000 -3.1766 0.0000
# 3 15.9783 19.3023 29.6468 0.0000 13.1718 0.0000
# 4 0.0000 0.0000 0.0000 31.3560 0.0000 -4.7164
# 5 19.8193 -3.1766 13.1718 0.0000 25.9768 0.0000
# 6 0.0000 0.0000 0.0000 -4.7164 0.0000 31.9826
#
#
#
# Elastic Compliance Matrix: (Units=1/GPa)
#
#
# Indices 1 2 3 4 5 6 
#
# 1 0.014427 0.000928 -0.004569 0.000000 -0.008577 0.000000
# 2 0.000928 0.025144 -0.023134 0.000000 0.014097 0.000000
# 3 -0.004569 -0.023134 0.065782 0.000000 -0.032699 0.000000
# 4 0.000000 0.000000 0.000000 0.032615 0.000000 0.004810
# 5 -0.008577 0.014097 -0.032699 0.000000 0.063344 0.000000
# 6 0.000000 0.000000 0.000000 0.004810 0.000000 0.031976
#
#
# Mechanical properties :
#
#
# Convention : Reuss Voigt Hill
#
# Bulk Modulus (GPa) = 19.30369 27.38425 23.34397
# Shear Modulus (GPa) = 16.44160 27.15517 21.79839
#
# Velocity S-wave (km/s) = 2.82296 3.62793 3.25046
# Velocity P-wave (km/s) = 4.47010 5.55177 5.04004
#
# Compressibility (1/GPa) = 0.05180356
#
# Stress axis : x y z
#
# Youngs Moduli (GPa) = 69.31414 39.77108 15.20166
#
# Poissons Ratio (x) = -0.03689 0.06945
# Poissons Ratio (y) = -0.06429 0.35167
# Poissons Ratio (z) = 0.31667 0.92005
#
# Static dielectric constant tensor:
#      x y z
#    x 1.746000 0.000000 -0.002220 
#    y 0.000000 1.722750 0.000000 
#    z -0.002220 0.000000 1.725060 
# 
# From -- ./inp_files/43633.got.cif
#   From: 2010.05.17/outbox.cif.g08.bks.cpg/sg14_22_cif.got.tgz:43633.got - 2010.06.03 17:49:19.
