data_PCOD9249962
_publ_section_title
;
Structure prediction by ZEFSAII (Michael W. Deem and Ramdas Pophale) SiO2 
 PCOD9249962
Probable space group: P 21/C
;
_chemical_formula_sum "Si O2"
_cell_formula_units_Z 32
_cell_length_a 12.391651
_cell_length_b 16.291992
_cell_length_c 16.154960
_cell_angle_alpha 90.000000
_cell_angle_beta 26.601746
_cell_angle_gamma 90.000000
_cell_volume 1460.427780
_symmetry_space_group_name_H-M "P 21/C"
_symmetry_group_IT_number 14
_symmetry_cell_setting 'monoclinic'
loop_
_space_group_symop_operation_xyz
x,y,z
-x,1/2+y,1/2-z
-x,-y,-z
x,1/2-y,1/2+z
loop_
_atom_site_type_symbol
_atom_site_label
_atom_site_fract_x
_atom_site_fract_y
_atom_site_fract_z
Si Si1 0.368281 0.265744 0.007986
Si Si2 0.277377 0.631831 0.799021
Si Si3 0.528379 0.905376 0.453658
Si Si4 0.811487 0.854411 0.736960
Si Si5 0.069124 0.947315 0.702489
Si Si6 0.066890 0.117904 0.615124
Si Si7 0.977531 0.030683 0.922808
Si Si8 0.453732 0.447752 0.719611
O O1 0.513032 0.345582 0.940802
O O2 0.287933 0.225792 0.150151
O O3 0.142807 0.299626 0.110029
O O4 0.525240 0.203127 0.845933
O O5 0.385381 0.543832 0.753100
O O6 0.166975 0.622733 0.782062
O O7 0.051349 0.652503 0.014934
O O8 0.324800 0.900102 0.522542
O O9 0.805714 0.904238 0.236231
O O10 0.500000 0.000000 0.500000
O O11 0.609535 0.900298 0.821435
O O12 0.884799 0.908032 0.766185
O O13 0.067141 0.042968 0.679047
O O14 0.006120 0.951843 0.842033
O O15 0.275579 0.091107 0.408804
O O16 0.719636 0.064211 0.072148
O O17 0.000000 0.000000 0.000000
#
# Coordination Sequence:
#
# PCOD9249962 Si02
#       8
#     4   4   4   4   4   4   4   4
#     4  12  27  43  69 111 149 191 246 309 378 435
#     4  11  25  48  74 108 149 188 247 314 371 443
#     4  10  23  45  64  96 142 196 231 294 370 438
#     4  11  25  47  74 110 141 194 247 312 379 435
#     4  11  21  45  76  94 141 192 248 294 371 451
#     4  11  22  47  73 100 144 197 238 305 378 435
#     4  11  24  38  70 111 135 183 256 302 349 451
#     4  11  23  47  79 105 140 196 253 304 372 460
#
# _framework density 21.911387000000001
#
# number of rings (size 3 to 8) (size 9 to 14) (size 15 to 20)
#    0.000    1.000    5.000    2.250    5.250    2.000 
#    4.500    0.000    0.000    0.000    0.000    0.000 
#    0.000    0.000    0.000    0.000    0.000    0.000 
#
# Total GULP energy -178680.787879 kJ/mol
# GULP energy per Si atom -5583.774621 kJ/mol
# Density = 2.186152 g / cm^3
# Si number density = 21.911387 Si / 1000 Ang^3
#
#
#
# Elastic Constant Matrix: (Units=GPa)
#
#
# Indices 1 2 3 4 5 6 
#
# 1 149.0739 16.7101 29.2614 0.0000 -1.2856 0.0000
# 2 16.7101 70.2127 17.8493 0.0000 5.6663 0.0000
# 3 29.2614 17.8493 56.7663 0.0000 1.5352 0.0000
# 4 0.0000 0.0000 0.0000 26.1358 0.0000 -2.3380
# 5 -1.2856 5.6663 1.5352 0.0000 38.7520 0.0000
# 6 0.0000 0.0000 0.0000 -2.3380 0.0000 31.6707
#
#
#
# Elastic Compliance Matrix: (Units=1/GPa)
#
#
# Indices 1 2 3 4 5 6 
#
# 1 0.007523 -0.000917 -0.003604 0.000000 0.000526 0.000000
# 2 -0.000917 0.015760 -0.004424 0.000000 -0.002160 0.000000
# 3 -0.003604 -0.004424 0.020873 0.000000 -0.000300 0.000000
# 4 0.000000 0.000000 0.000000 0.038516 0.000000 0.002843
# 5 0.000526 -0.002160 -0.000300 0.000000 0.026150 0.000000
# 6 0.000000 0.000000 0.000000 0.002843 0.000000 0.031785
#
#
# Mechanical properties :
#
#
# Convention : Reuss Voigt Hill
#
# Bulk Modulus (GPa) = 38.07258 44.85493 41.46375
# Shear Modulus (GPa) = 29.89511 33.46052 31.67781
#
# Velocity S-wave (km/s) = 3.69774 3.91203 3.80639
# Velocity P-wave (km/s) = 5.97030 6.39694 6.18730
#
# Compressibility (1/GPa) = 0.02626562
#
# Stress axis : x y z
#
# Youngs Moduli (GPa) = 132.93013 63.45321 47.90879
#
# Poissons Ratio (x) = 0.05817 0.17265
# Poissons Ratio (y) = 0.12186 0.21197
# Poissons Ratio (z) = 0.47905 0.28074
#
# Static dielectric constant tensor:
#      x y z
#    x 1.844790 0.000000 -0.046220 
#    y 0.000000 1.902330 0.000000 
#    z -0.046220 0.000000 1.949810 
# 
# From -- ./inp_files/45379.got.cif
#   From: 2010.05.17/outbox.cif.g08.bks.cpg/sg14_23_cif.got.tgz:45379.got - 2010.06.03 17:49:19.
