data_PCOD9249154
_publ_section_title
;
Structure prediction by ZEFSAII (Michael W. Deem and Ramdas Pophale) SiO2 
 PCOD9249154
Probable space group: P 21/C
;
_chemical_formula_sum "Si O2"
_cell_formula_units_Z 28
_cell_length_a 11.367416
_cell_length_b 8.027914
_cell_length_c 13.879136
_cell_angle_alpha 90.000000
_cell_angle_beta 65.474265
_cell_angle_gamma 90.000000
_cell_volume 1152.287510
_symmetry_space_group_name_H-M "P 21/C"
_symmetry_group_IT_number 14
_symmetry_cell_setting 'monoclinic'
loop_
_space_group_symop_operation_xyz
x,y,z
-x,1/2+y,1/2-z
-x,-y,-z
x,1/2-y,1/2+z
loop_
_atom_site_type_symbol
_atom_site_label
_atom_site_fract_x
_atom_site_fract_y
_atom_site_fract_z
Si Si1 0.309518 0.186234 0.992118
Si Si2 0.876583 0.416327 0.877283
Si Si3 0.185713 0.786994 0.391861
Si Si4 0.332435 0.412995 0.157483
Si Si5 0.735810 0.639703 0.191653
Si Si6 0.957255 0.699113 0.350407
Si Si7 0.560892 0.064611 0.192325
O O1 0.262655 0.300460 0.918988
O O2 0.401382 0.056147 0.908339
O O3 0.374848 0.298762 0.052767
O O4 0.177787 0.106516 0.080645
O O5 0.741896 0.431832 0.864663
O O6 0.981714 0.333240 0.773697
O O7 0.918541 0.607958 0.875614
O O8 0.856573 0.331016 0.985893
O O9 0.075712 0.670199 0.383554
O O10 0.326889 0.703375 0.343344
O O11 0.195789 0.961493 0.329302
O O12 0.230886 0.296703 0.252155
O O13 0.429631 0.476754 0.205707
O O14 0.585556 0.616843 0.270091
#
# Coordination Sequence:
#
# PCOD9249154 Si02
#       7
#     4   4   4   4   4   4   4
#     4  10  24  45  67  99 135 180 219 278 344 395
#     4  11  25  43  67 100 134 180 219 279 345 407
#     4  12  24  43  70 104 137 174 230 281 339 395
#     4  10  22  47  66  94 137 175 223 273 336 395
#     4  11  24  45  69  95 138 177 229 279 331 397
#     4  11  25  42  69 101 137 176 222 282 337 406
#     4  11  25  45  69 102 134 179 230 277 330 405
#
# _framework density 24.299489999999999
#
# number of rings (size 3 to 8) (size 9 to 14) (size 15 to 20)
#    0.000    1.143    4.286    2.143    6.000    4.000 
#    2.571    0.000    0.000    0.000    0.000    0.000 
#    0.000    0.000    0.000    0.000    0.000    0.000 
#
# Total GULP energy -156631.216405 kJ/mol
# GULP energy per Si atom -5593.972014 kJ/mol
# Density = 2.424418 g / cm^3
# Si number density = 24.299490 Si / 1000 Ang^3
#
#
#
# Elastic Constant Matrix: (Units=GPa)
#
#
# Indices 1 2 3 4 5 6 
#
# 1 77.9040 -4.5141 32.9957 0.0000 -7.0661 0.0000
# 2 -4.5141 30.6761 7.4799 0.0000 3.5611 0.0000
# 3 32.9957 7.4799 93.4981 0.0000 5.8272 0.0000
# 4 0.0000 0.0000 0.0000 25.8044 0.0000 -8.8554
# 5 -7.0661 3.5611 5.8272 0.0000 35.9151 0.0000
# 6 0.0000 0.0000 0.0000 -8.8554 0.0000 27.8953
#
#
#
# Elastic Compliance Matrix: (Units=1/GPa)
#
#
# Indices 1 2 3 4 5 6 
#
# 1 0.015984 0.003410 -0.006151 0.000000 0.003805 0.000000
# 2 0.003410 0.034275 -0.003814 0.000000 -0.002109 0.000000
# 3 -0.006151 -0.003814 0.013358 0.000000 -0.002999 0.000000
# 4 0.000000 0.000000 0.000000 0.043491 0.000000 0.013806
# 5 0.003805 -0.002109 -0.002999 0.000000 0.029288 0.000000
# 6 0.000000 0.000000 0.000000 0.013806 0.000000 0.040231
#
#
# Mechanical properties :
#
#
# Convention : Reuss Voigt Hill
#
# Bulk Modulus (GPa) = 19.79875 30.44457 25.12166
# Shear Modulus (GPa) = 24.20454 28.99741 26.60097
#
# Velocity S-wave (km/s) = 3.15952 3.45821 3.31223
# Velocity P-wave (km/s) = 4.63417 5.33870 4.99887
#
# Compressibility (1/GPa) = 0.05050825
#
# Stress axis : x y z
#
# Youngs Moduli (GPa) = 62.56206 29.17551 74.86102
#
# Poissons Ratio (x) = -0.09950 0.46045
# Poissons Ratio (y) = -0.21335 0.28553
# Poissons Ratio (z) = 0.38481 0.11128
#
# Static dielectric constant tensor:
#      x y z
#    x 2.011670 0.000000 0.029370 
#    y 0.000000 1.986800 0.000000 
#    z 0.029370 0.000000 1.908940 
# 
# From -- ./inp_files/43599.got.cif
#   From: 2010.05.17/outbox.cif.g08.bks.cpg/sg14_22_cif.got.tgz:43599.got - 2010.06.03 17:49:19.
