data_PCOD9249398
_publ_section_title
;
Structure prediction by ZEFSAII (Michael W. Deem and Ramdas Pophale) SiO2 
 PCOD9249398
Probable space group: P 21/C
;
_chemical_formula_sum "Si O2"
_cell_formula_units_Z 28
_cell_length_a 8.394289
_cell_length_b 8.811201
_cell_length_c 20.817499
_cell_angle_alpha 90.000000
_cell_angle_beta 123.718597
_cell_angle_gamma 90.000000
_cell_volume 1280.716227
_symmetry_space_group_name_H-M "P 21/C"
_symmetry_group_IT_number 14
_symmetry_cell_setting 'monoclinic'
loop_
_space_group_symop_operation_xyz
x,y,z
-x,1/2+y,1/2-z
-x,-y,-z
x,1/2-y,1/2+z
loop_
_atom_site_type_symbol
_atom_site_label
_atom_site_fract_x
_atom_site_fract_y
_atom_site_fract_z
Si Si1 0.032868 0.680406 0.002890
Si Si2 0.658641 0.666575 0.389450
Si Si3 0.687542 0.751333 0.705067
Si Si4 0.661369 0.391102 0.188384
Si Si5 0.088740 0.750635 0.366125
Si Si6 0.641437 0.511827 0.592048
Si Si7 0.284491 0.642168 0.662389
O O1 0.839594 0.778421 0.970393
O O2 0.091865 0.708593 0.941850
O O3 0.000000 0.500000 0.000000
O O4 0.178233 0.753052 0.086564
O O5 0.551082 0.823138 0.349747
O O6 0.486159 0.577636 0.384573
O O7 0.735148 0.538389 0.357315
O O8 0.685633 0.671833 0.634660
O O9 0.507124 0.684091 0.702794
O O10 0.882799 0.722310 0.787761
O O11 0.658662 0.929269 0.690933
O O12 0.760440 0.342291 0.144300
O O13 0.772194 0.329578 0.276511
O O14 0.163635 0.578092 0.377246
O O15 0.500000 0.500000 0.500000
#
# Coordination Sequence:
#
# PCOD9249398 Si02
#       7
#     4   4   4   4   4   4   4
#     4  12  26  43  65  96 133 175 225 280 340 414
#     4  10  23  41  63  89 124 168 214 264 335 412
#     4  11  23  41  67  96 130 173 225 280 337 418
#     4  11  23  40  66  97 126 167 224 281 335 401
#     4  11  24  42  64  97 133 174 225 282 343 407
#     4  10  23  43  66  95 134 176 219 277 347 413
#     4  11  23  42  66  92 129 177 220 276 348 419
#
# _framework density 21.862765
#
# number of rings (size 3 to 8) (size 9 to 14) (size 15 to 20)
#    0.000    1.143    0.000    6.429    0.000    8.000 
#    0.000    3.571    0.000    0.000    0.000    0.000 
#    0.000    0.000    0.000    0.000    0.000    0.000 
#
# Total GULP energy -156347.875879 kJ/mol
# GULP energy per Si atom -5583.852710 kJ/mol
# Density = 2.181300 g / cm^3
# Si number density = 21.862765 Si / 1000 Ang^3
#
#
#
# Elastic Constant Matrix: (Units=GPa)
#
#
# Indices 1 2 3 4 5 6 
#
# 1 66.7337 26.9740 43.8032 0.0000 4.1418 0.0000
# 2 26.9740 95.2748 26.1853 0.0000 -15.1472 0.0000
# 3 43.8032 26.1853 127.6185 0.0000 -5.0004 0.0000
# 4 0.0000 0.0000 0.0000 30.5397 0.0000 1.2141
# 5 4.1418 -15.1472 -5.0004 0.0000 43.3625 0.0000
# 6 0.0000 0.0000 0.0000 1.2141 0.0000 20.2747
#
#
#
# Elastic Compliance Matrix: (Units=1/GPa)
#
#
# Indices 1 2 3 4 5 6 
#
# 1 0.021617 -0.005045 -0.006564 0.000000 -0.004584 0.000000
# 2 -0.005045 0.012903 -0.000724 0.000000 0.004906 0.000000
# 3 -0.006564 -0.000724 0.010299 0.000000 0.001562 0.000000
# 4 0.000000 0.000000 0.000000 0.032822 0.000000 -0.001965
# 5 -0.004584 0.004906 0.001562 0.000000 0.025393 0.000000
# 6 0.000000 0.000000 0.000000 -0.001965 0.000000 0.049440
#
#
# Mechanical properties :
#
#
# Convention : Reuss Voigt Hill
#
# Bulk Modulus (GPa) = 49.61988 53.72801 51.67394
# Shear Modulus (GPa) = 27.19488 31.67970 29.43729
#
# Velocity S-wave (km/s) = 3.53071 3.81074 3.67339
# Velocity P-wave (km/s) = 6.27428 6.63255 6.45590
#
# Compressibility (1/GPa) = 0.02015321
#
# Stress axis : x y z
#
# Youngs Moduli (GPa) = 46.25916 77.50086 97.10013
#
# Poissons Ratio (x) = 0.39099 0.63740
# Poissons Ratio (y) = 0.23337 0.07027
# Poissons Ratio (z) = 0.30366 0.05609
#
# Static dielectric constant tensor:
#      x y z
#    x 1.794610 0.000000 -0.138020 
#    y 0.000000 1.808240 0.000000 
#    z -0.138020 0.000000 1.397800 
# 
# From -- ./inp_files/65014.got.cif
#   From: 2010.05.17/outbox.cif.g08.bks.cpg/sg14_33_cif.got.tgz:65014.got - 2010.06.03 17:49:19.
