data_PCOD9249322
_publ_section_title
;
Structure prediction by ZEFSAII (Michael W. Deem and Ramdas Pophale) SiO2 
 PCOD9249322
Probable space group: P 21/C
;
_chemical_formula_sum "Si O2"
_cell_formula_units_Z 28
_cell_length_a 9.447175
_cell_length_b 12.223620
_cell_length_c 13.398374
_cell_angle_alpha 90.000000
_cell_angle_beta 64.062750
_cell_angle_gamma 90.000000
_cell_volume 1391.379965
_symmetry_space_group_name_H-M "P 21/C"
_symmetry_group_IT_number 14
_symmetry_cell_setting 'monoclinic'
loop_
_space_group_symop_operation_xyz
x,y,z
-x,1/2+y,1/2-z
-x,-y,-z
x,1/2-y,1/2+z
loop_
_atom_site_type_symbol
_atom_site_label
_atom_site_fract_x
_atom_site_fract_y
_atom_site_fract_z
Si Si1 0.678282 0.233759 0.272153
Si Si2 0.333838 0.939376 0.540990
Si Si3 0.825903 0.850494 0.346726
Si Si4 0.989748 0.830947 0.915316
Si Si5 0.397339 0.892985 0.038573
Si Si6 0.502581 0.784757 0.357677
Si Si7 0.041859 0.583785 0.610637
O O1 0.683209 0.142567 0.359072
O O2 0.842228 0.222779 0.162964
O O3 0.643671 0.347421 0.339522
O O4 0.539471 0.227019 0.233090
O O5 0.362364 0.869718 0.431328
O O6 0.500000 0.000000 0.500000
O O7 0.205989 0.035988 0.584568
O O8 0.675208 0.836354 0.319193
O O9 0.857416 0.746903 0.408156
O O10 0.977989 0.861753 0.230106
O O11 0.967310 0.853686 0.039507
O O12 0.995957 0.955067 0.872045
O O13 0.228395 0.908128 0.039548
O O14 0.492031 0.802016 0.949626
O O15 0.500000 0.000000 0.000000
#
# Coordination Sequence:
#
# PCOD9249322 Si02
#       7
#     4   4   4   4   4   4   4
#     4  11  21  40  66  89 131 170 207 266 333 379
#     4   9  21  40  63  88 126 168 211 265 324 381
#     4  11  22  42  66  94 128 172 219 270 327 392
#     4  11  23  40  65  94 126 175 214 265 332 387
#     4  11  23  40  63  97 133 167 220 273 319 389
#     4  10  23  40  64  94 129 170 220 266 326 397
#     4  11  23  40  68  93 130 173 220 268 328 393
#
# _framework density 20.123905000000001
#
# number of rings (size 3 to 8) (size 9 to 14) (size 15 to 20)
#    0.000    1.429    4.286    0.857    0.000    8.000 
#    0.000    2.143    0.000    0.000    0.000    0.000 
#    0.000    0.000    0.000    0.000    0.000    0.000 
#
# Total GULP energy -156099.723131 kJ/mol
# GULP energy per Si atom -5574.990112 kJ/mol
# Density = 2.007810 g / cm^3
# Si number density = 20.123905 Si / 1000 Ang^3
#
#
#
# Elastic Constant Matrix: (Units=GPa)
#
#
# Indices 1 2 3 4 5 6 
#
# 1 70.4692 18.7356 16.3716 0.0000 -0.7884 0.0000
# 2 18.7356 90.6049 40.6330 0.0000 0.9674 0.0000
# 3 16.3716 40.6330 56.6188 0.0000 1.0279 0.0000
# 4 0.0000 0.0000 0.0000 15.8063 0.0000 3.0506
# 5 -0.7884 0.9674 1.0279 0.0000 22.9067 0.0000
# 6 0.0000 0.0000 0.0000 3.0506 0.0000 31.0728
#
#
#
# Elastic Compliance Matrix: (Units=1/GPa)
#
#
# Indices 1 2 3 4 5 6 
#
# 1 0.015411 -0.001755 -0.003210 0.000000 0.000749 0.000000
# 2 -0.001755 0.016475 -0.011312 0.000000 -0.000249 0.000000
# 3 -0.003210 -0.011312 0.026723 0.000000 -0.000832 0.000000
# 4 0.000000 0.000000 0.000000 0.064488 0.000000 -0.006331
# 5 0.000749 -0.000249 -0.000832 0.000000 0.043729 0.000000
# 6 0.000000 0.000000 0.000000 -0.006331 0.000000 0.032804
#
#
# Mechanical properties :
#
#
# Convention : Reuss Voigt Hill
#
# Bulk Modulus (GPa) = 38.37903 41.01923 39.69913
# Shear Modulus (GPa) = 20.75805 23.42068 22.08937
#
# Velocity S-wave (km/s) = 3.21520 3.41519 3.31670
# Velocity P-wave (km/s) = 5.73551 5.99824 5.86835
#
# Compressibility (1/GPa) = 0.02605590
#
# Stress axis : x y z
#
# Youngs Moduli (GPa) = 64.88689 60.69655 37.42053
#
# Poissons Ratio (x) = 0.10653 0.12013
# Poissons Ratio (y) = 0.11388 0.42329
# Poissons Ratio (z) = 0.20831 0.68658
#
# Static dielectric constant tensor:
#      x y z
#    x 1.739430 0.000000 0.010040 
#    y 0.000000 1.749900 0.000000 
#    z 0.010040 0.000000 1.736410 
# 
# From -- ./inp_files/40004.got.cif
#   From: 2010.05.17/outbox.cif.g08.bks.cpg/sg14_21_cif.got.tgz:40004.got - 2010.06.03 17:49:19.
