data_PCOD9249201
_publ_section_title
;
Structure prediction by ZEFSAII (Michael W. Deem and Ramdas Pophale) SiO2 
 PCOD9249201
Probable space group: P 21/C
;
_chemical_formula_sum "Si O2"
_cell_formula_units_Z 20
_cell_length_a 9.222384
_cell_length_b 9.816169
_cell_length_c 9.221989
_cell_angle_alpha 90.000000
_cell_angle_beta 120.646318
_cell_angle_gamma 90.000000
_cell_volume 718.248974
_symmetry_space_group_name_H-M "P 21/C"
_symmetry_group_IT_number 14
_symmetry_cell_setting 'monoclinic'
loop_
_space_group_symop_operation_xyz
x,y,z
-x,1/2+y,1/2-z
-x,-y,-z
x,1/2-y,1/2+z
loop_
_atom_site_type_symbol
_atom_site_label
_atom_site_fract_x
_atom_site_fract_y
_atom_site_fract_z
Si Si1 0.858974 0.519921 0.592435
Si Si2 0.697467 0.022256 0.295181
Si Si3 0.684907 0.330401 0.292360
Si Si4 0.513266 0.668484 0.103030
Si Si5 0.862338 0.836175 0.610776
O O1 0.704537 0.511127 0.629782
O O2 0.904664 0.678292 0.604017
O O3 0.197177 0.554514 0.582367
O O4 0.000916 0.426653 0.737704
O O5 0.527529 0.050445 0.301722
O O6 0.811610 0.915419 0.438819
O O7 0.527800 0.300137 0.321953
O O8 0.770273 0.178770 0.345145
O O9 0.621557 0.343292 0.095755
O O10 0.694215 0.666609 0.124766
#
# Coordination Sequence:
#
# PCOD9249201 Si02
#       5
#     4   4   4   4   4
#     4  12  27  51  80 112 165 203 263 312 397 461
#     4  10  23  50  77 111 155 202 254 328 375 464
#     4  10  22  49  81 115 148 202 247 331 386 465
#     4  10  24  48  85 111 155 192 268 317 392 453
#     4  12  28  47  77 118 156 213 249 327 380 467
#
# _framework density 27.845497000000002
#
# number of rings (size 3 to 8) (size 9 to 14) (size 15 to 20)
#    1.200    0.000    2.000    2.400    2.800    4.000 
#    0.000    3.000    0.000    0.000    0.000    0.000 
#    0.000    0.000    0.000    0.000    0.000    0.000 
#
# Total GULP energy -112240.600934 kJ/mol
# GULP energy per Si atom -5612.030047 kJ/mol
# Density = 2.778212 g / cm^3
# Si number density = 27.845497 Si / 1000 Ang^3
#
#
#
# Elastic Constant Matrix: (Units=GPa)
#
#
# Indices 1 2 3 4 5 6 
#
# 1 103.0558 57.1659 54.1635 0.0000 -13.3712 0.0000
# 2 57.1659 250.7492 83.9703 0.0000 10.8700 0.0000
# 3 54.1635 83.9703 164.0773 0.0000 -4.7645 0.0000
# 4 0.0000 0.0000 0.0000 65.8583 0.0000 -11.4189
# 5 -13.3712 10.8700 -4.7645 0.0000 58.5926 0.0000
# 6 0.0000 0.0000 0.0000 -11.4189 0.0000 39.1732
#
#
#
# Elastic Compliance Matrix: (Units=1/GPa)
#
#
# Indices 1 2 3 4 5 6 
#
# 1 0.012861 -0.002018 -0.003124 0.000000 0.003056 0.000000
# 2 -0.002018 0.005201 -0.002042 0.000000 -0.001591 0.000000
# 3 -0.003124 -0.002042 0.008180 0.000000 0.000331 0.000000
# 4 0.000000 0.000000 0.000000 0.015992 0.000000 0.004662
# 5 0.003056 -0.001591 0.000331 0.000000 0.018086 0.000000
# 6 0.000000 0.000000 0.000000 0.004662 0.000000 0.026887
#
#
# Mechanical properties :
#
#
# Convention : Reuss Voigt Hill
#
# Bulk Modulus (GPa) = 84.21258 100.94239 92.57748
# Shear Modulus (GPa) = 47.37794 54.23034 50.80414
#
# Velocity S-wave (km/s) = 4.12935 4.41789 4.27605
# Velocity P-wave (km/s) = 7.28312 7.89640 7.59595
#
# Compressibility (1/GPa) = 0.01187471
#
# Stress axis : x y z
#
# Youngs Moduli (GPa) = 77.75160 192.27492 122.24388
#
# Poissons Ratio (x) = 0.38810 0.38189
# Poissons Ratio (y) = 0.15694 0.24957
# Poissons Ratio (z) = 0.24289 0.39254
#
# Static dielectric constant tensor:
#      x y z
#    x 2.339460 0.000000 -0.001960 
#    y 0.000000 2.286090 0.000000 
#    z -0.001960 0.000000 2.021680 
# 
# From -- ./inp_files/8362.got.cif
#   From: 2010.05.17/outbox.cif.g08.bks.cpg/sg14_5_cif.got.tgz:8362.got - 2010.06.03 17:49:19.
