data_PCOD9249601
_publ_section_title
;
Structure prediction by ZEFSAII (Michael W. Deem and Ramdas Pophale) SiO2 
 PCOD9249601
Probable space group: P 21/C
;
_chemical_formula_sum "Si O2"
_cell_formula_units_Z 28
_cell_length_a 11.188715
_cell_length_b 8.357146
_cell_length_c 13.024197
_cell_angle_alpha 90.000000
_cell_angle_beta 98.278122
_cell_angle_gamma 90.000000
_cell_volume 1205.148140
_symmetry_space_group_name_H-M "P 21/C"
_symmetry_group_IT_number 14
_symmetry_cell_setting 'monoclinic'
loop_
_space_group_symop_operation_xyz
x,y,z
-x,1/2+y,1/2-z
-x,-y,-z
x,1/2-y,1/2+z
loop_
_atom_site_type_symbol
_atom_site_label
_atom_site_fract_x
_atom_site_fract_y
_atom_site_fract_z
Si Si1 0.741215 0.374852 0.489141
Si Si2 0.968997 0.371054 0.860576
Si Si3 0.888116 0.832047 0.962137
Si Si4 0.379361 0.463223 0.338620
Si Si5 0.567257 0.188797 0.331716
Si Si6 0.091818 0.697314 0.843892
Si Si7 0.742933 0.938785 0.378784
O O1 0.852793 0.485837 0.470763
O O2 0.656042 0.480068 0.553131
O O3 0.674090 0.309451 0.380558
O O4 0.793478 0.239936 0.572298
O O5 0.056155 0.512528 0.833066
O O6 0.897706 0.277879 0.764489
O O7 0.865831 0.460984 0.914949
O O8 0.048938 0.245240 0.931578
O O9 0.764792 0.733456 0.927557
O O10 0.976568 0.786715 0.880583
O O11 0.453300 0.297324 0.344964
O O12 0.441062 0.613881 0.284171
O O13 0.267100 0.431446 0.247005
O O14 0.619280 0.028567 0.395003
#
# Coordination Sequence:
#
# PCOD9249601 Si02
#       7
#     4   4   4   4   4   4   4
#     4  12  23  42  64  99 126 166 209 265 309 382
#     4  11  21  39  61  93 131 173 202 256 306 386
#     4  11  24  36  66  94 130 168 212 245 319 382
#     4  10  24  44  66  88 126 163 212 267 322 360
#     4  10  23  42  68  85 123 162 215 262 323 363
#     4  11  22  38  61  92 134 165 210 246 314 376
#     4   9  21  43  61  86 130 163 206 261 314 365
#
# _framework density 23.233661000000001
#
# number of rings (size 3 to 8) (size 9 to 14) (size 15 to 20)
#    0.857    0.571    1.429    5.143    4.000    2.286 
#    0.000    5.714    0.000    0.000    0.000    0.000 
#    0.000    0.000    0.000    0.000    0.000    0.000 
#
# Total GULP energy -156157.361038 kJ/mol
# GULP energy per Si atom -5577.048609 kJ/mol
# Density = 2.318078 g / cm^3
# Si number density = 23.233661 Si / 1000 Ang^3
#
#
#
# Elastic Constant Matrix: (Units=GPa)
#
#
# Indices 1 2 3 4 5 6 
#
# 1 49.6160 15.9585 4.9528 0.0000 1.7257 0.0000
# 2 15.9585 73.6534 22.5157 0.0000 -2.6707 0.0000
# 3 4.9528 22.5157 41.0199 0.0000 -0.2356 0.0000
# 4 0.0000 0.0000 0.0000 33.3478 0.0000 7.8901
# 5 1.7257 -2.6707 -0.2356 0.0000 30.8466 0.0000
# 6 0.0000 0.0000 0.0000 7.8901 0.0000 59.3811
#
#
#
# Elastic Compliance Matrix: (Units=1/GPa)
#
#
# Indices 1 2 3 4 5 6 
#
# 1 0.021746 -0.004765 -0.000020 0.000000 -0.001629 0.000000
# 2 -0.004765 0.017415 -0.008974 0.000000 0.001706 0.000000
# 3 -0.000020 -0.008974 0.029303 0.000000 -0.000552 0.000000
# 4 0.000000 0.000000 0.000000 0.030960 0.000000 -0.004114
# 5 -0.001629 0.001706 -0.000552 0.000000 0.032653 0.000000
# 6 0.000000 0.000000 0.000000 -0.004114 0.000000 0.017387
#
#
# Mechanical properties :
#
#
# Convention : Reuss Voigt Hill
#
# Bulk Modulus (GPa) = 24.42148 27.90480 26.16314
# Shear Modulus (GPa) = 26.22888 32.77259 29.50073
#
# Velocity S-wave (km/s) = 3.36358 3.75982 3.56721
# Velocity P-wave (km/s) = 5.06152 5.55742 5.31526
#
# Compressibility (1/GPa) = 0.04094756
#
# Stress axis : x y z
#
# Youngs Moduli (GPa) = 45.98551 57.42314 34.12593
#
# Poissons Ratio (x) = 0.27361 0.00067
# Poissons Ratio (y) = 0.21911 0.30624
# Poissons Ratio (z) = 0.00090 0.51530
#
# Static dielectric constant tensor:
#      x y z
#    x 1.922050 0.000000 -0.002120 
#    y 0.000000 1.911550 0.000000 
#    z -0.002120 0.000000 1.890730 
# 
# From -- ./inp_files/43455.got.cif
#   From: 2010.05.17/outbox.cif.g08.bks.cpg/sg14_22_cif.got.tgz:43455.got - 2010.06.03 17:49:19.
