data_PCOD9249848
_publ_section_title
;
Structure prediction by ZEFSAII (Michael W. Deem and Ramdas Pophale) SiO2 
 PCOD9249848
Probable space group: P 21/C
;
_chemical_formula_sum "Si O2"
_cell_formula_units_Z 24
_cell_length_a 12.307370
_cell_length_b 9.059195
_cell_length_c 8.732429
_cell_angle_alpha 90.000000
_cell_angle_beta 97.308918
_cell_angle_gamma 90.000000
_cell_volume 965.709982
_symmetry_space_group_name_H-M "P 21/C"
_symmetry_group_IT_number 14
_symmetry_cell_setting 'monoclinic'
loop_
_space_group_symop_operation_xyz
x,y,z
-x,1/2+y,1/2-z
-x,-y,-z
x,1/2-y,1/2+z
loop_
_atom_site_type_symbol
_atom_site_label
_atom_site_fract_x
_atom_site_fract_y
_atom_site_fract_z
Si Si1 0.491812 0.415701 0.663008
Si Si2 0.813686 0.318487 0.615360
Si Si3 0.725740 0.060826 0.805965
Si Si4 0.647841 0.876557 0.336343
Si Si5 0.967594 0.353244 0.908005
Si Si6 0.200366 0.196035 0.353386
O O1 0.500000 0.500000 0.500000
O O2 0.392395 0.491564 0.736858
O O3 0.449206 0.245850 0.648821
O O4 0.597372 0.465731 0.780535
O O5 0.747049 0.198966 0.701639
O O6 0.737327 0.407277 0.487297
O O7 0.892337 0.395746 0.750703
O O8 0.894595 0.239698 0.510404
O O9 0.811209 0.934397 0.773534
O O10 0.722286 0.817750 0.209264
O O11 0.730322 0.872527 0.493813
O O12 0.077774 0.266284 0.881000
O O13 0.000000 0.500000 0.000000
#
# Coordination Sequence:
#
# PCOD9249848 Si02
#       6
#     4   4   4   4   4   4
#     4  11  25  46  70 102 136 184 230 284 353 403
#     4  10  23  44  65  95 132 181 228 280 342 411
#     4  10  24  41  68  96 133 176 232 278 342 409
#     4  11  25  45  72 100 140 179 235 286 347 415
#     4  11  22  43  67  97 136 178 228 281 347 407
#     4  11  23  44  65 103 133 180 225 285 343 413
#
# _framework density 24.852180000000001
#
# number of rings (size 3 to 8) (size 9 to 14) (size 15 to 20)
#    0.000    1.333    3.333    1.000    2.333    6.000 
#    6.000    0.000    0.000    0.000    0.000    0.000 
#    0.000    0.000    0.000    0.000    0.000    0.000 
#
# Total GULP energy -134389.607626 kJ/mol
# GULP energy per Si atom -5599.566984 kJ/mol
# Density = 2.479562 g / cm^3
# Si number density = 24.852180 Si / 1000 Ang^3
#
#
#
# Elastic Constant Matrix: (Units=GPa)
#
#
# Indices 1 2 3 4 5 6 
#
# 1 89.5523 24.2488 11.1888 0.0000 -13.1009 0.0000
# 2 24.2488 71.2598 11.5895 0.0000 -1.7069 0.0000
# 3 11.1888 11.5895 104.4719 0.0000 -3.0907 0.0000
# 4 0.0000 0.0000 0.0000 33.4987 0.0000 -0.7982
# 5 -13.1009 -1.7069 -3.0907 0.0000 38.1068 0.0000
# 6 0.0000 0.0000 0.0000 -0.7982 0.0000 31.5854
#
#
#
# Elastic Compliance Matrix: (Units=1/GPa)
#
#
# Indices 1 2 3 4 5 6 
#
# 1 0.013022 -0.004199 -0.000804 0.000000 0.004224 0.000000
# 2 -0.004199 0.015655 -0.001312 0.000000 -0.000849 0.000000
# 3 -0.000804 -0.001312 0.009817 0.000000 0.000461 0.000000
# 4 0.000000 0.000000 0.000000 0.029870 0.000000 0.000755
# 5 0.004224 -0.000849 0.000461 0.000000 0.027693 0.000000
# 6 0.000000 0.000000 0.000000 0.000755 0.000000 0.031679
#
#
# Mechanical properties :
#
#
# Convention : Reuss Voigt Hill
#
# Bulk Modulus (GPa) = 38.66378 39.92646 39.29512
# Shear Modulus (GPa) = 33.55954 35.18865 34.37409
#
# Velocity S-wave (km/s) = 3.67872 3.76695 3.72310
# Velocity P-wave (km/s) = 5.79959 5.91780 5.85899
#
# Compressibility (1/GPa) = 0.02586400
#
# Stress axis : x y z
#
# Youngs Moduli (GPa) = 76.79268 63.87654 101.86164
#
# Poissons Ratio (x) = 0.26824 0.08188
# Poissons Ratio (y) = 0.32248 0.13365
# Poissons Ratio (z) = 0.06173 0.08381
#
# Static dielectric constant tensor:
#      x y z
#    x 2.022400 0.000000 0.016540 
#    y 0.000000 1.970470 0.000000 
#    z 0.016540 0.000000 1.975250 
# 
# From -- ./inp_files/12503.got.cif
#   From: 2010.05.17/outbox.cif.g08.bks.cpg/sg14_7_cif.got.tgz:12503.got - 2010.06.03 17:49:19.
