data_PCOD9249781
_publ_section_title
;
Structure prediction by ZEFSAII (Michael W. Deem and Ramdas Pophale) SiO2 
 PCOD9249781
Probable space group: P 21/C
;
_chemical_formula_sum "Si O2"
_cell_formula_units_Z 20
_cell_length_a 5.426924
_cell_length_b 9.176868
_cell_length_c 17.163059
_cell_angle_alpha 90.000000
_cell_angle_beta 105.316134
_cell_angle_gamma 90.000000
_cell_volume 824.399142
_symmetry_space_group_name_H-M "P 21/C"
_symmetry_group_IT_number 14
_symmetry_cell_setting 'monoclinic'
loop_
_space_group_symop_operation_xyz
x,y,z
-x,1/2+y,1/2-z
-x,-y,-z
x,1/2-y,1/2+z
loop_
_atom_site_type_symbol
_atom_site_label
_atom_site_fract_x
_atom_site_fract_y
_atom_site_fract_z
Si Si1 0.032323 0.530167 0.257986
Si Si2 0.627512 0.107299 0.618743
Si Si3 0.917935 0.074715 0.912087
Si Si4 0.427839 0.361542 0.700095
Si Si5 0.217735 0.621052 0.034472
O O1 0.886901 0.426462 0.186104
O O2 0.082347 0.459267 0.347749
O O3 0.803107 0.644319 0.258289
O O4 0.290968 0.597235 0.247257
O O5 0.457143 0.213627 0.655887
O O6 0.698550 0.181128 0.543088
O O7 0.464467 0.963189 0.587439
O O8 0.659022 0.993518 0.863478
O O9 0.884429 0.245434 0.923899
O O10 0.000000 0.000000 0.000000
O O11 0.000000 0.500000 0.000000
#
# Coordination Sequence:
#
# PCOD9249781 Si02
#       5
#     4   4   4   4   4
#     4  10  26  42  75 101 139 182 234 286 341 418
#     4  11  26  44  70 103 142 182 235 287 351 408
#     4  10  23  43  70 103 141 182 236 280 350 410
#     4  10  25  46  73 103 135 188 231 287 342 416
#     4  11  26  43  69 104 145 182 228 292 348 415
#
# _framework density 24.260092
#
# number of rings (size 3 to 8) (size 9 to 14) (size 15 to 20)
#    1.200    0.400    0.000    2.400    8.400    8.000 
#    0.000    0.000    0.000    0.000    0.000    0.000 
#    0.000    0.000    0.000    0.000    0.000    0.000 
#
# Total GULP energy -111845.052409 kJ/mol
# GULP energy per Si atom -5592.252620 kJ/mol
# Density = 2.420487 g / cm^3
# Si number density = 24.260092 Si / 1000 Ang^3
#
#
#
# Elastic Constant Matrix: (Units=GPa)
#
#
# Indices 1 2 3 4 5 6 
#
# 1 107.7522 14.9071 34.6267 0.0000 20.6287 0.0000
# 2 14.9071 89.5248 25.8820 0.0000 8.7425 0.0000
# 3 34.6267 25.8820 95.8743 0.0000 1.7629 0.0000
# 4 0.0000 0.0000 0.0000 20.9476 0.0000 6.0297
# 5 20.6287 8.7425 1.7629 0.0000 37.0618 0.0000
# 6 0.0000 0.0000 0.0000 6.0297 0.0000 32.4395
#
#
#
# Elastic Compliance Matrix: (Units=1/GPa)
#
#
# Indices 1 2 3 4 5 6 
#
# 1 0.011843 -0.000161 -0.004117 0.000000 -0.006358 0.000000
# 2 -0.000161 0.012395 -0.003239 0.000000 -0.002680 0.000000
# 3 -0.004117 -0.003239 0.012747 0.000000 0.002449 0.000000
# 4 0.000000 0.000000 0.000000 0.050437 0.000000 -0.009375
# 5 -0.006358 -0.002680 0.002449 0.000000 0.031037 0.000000
# 6 0.000000 0.000000 0.000000 -0.009375 0.000000 0.032569
#
#
# Mechanical properties :
#
#
# Convention : Reuss Voigt Hill
#
# Bulk Modulus (GPa) = 45.55535 49.33145 47.44340
# Shear Modulus (GPa) = 28.83884 32.60549 30.72217
#
# Velocity S-wave (km/s) = 3.45155 3.67003 3.56246
# Velocity P-wave (km/s) = 5.89092 6.19172 6.04319
#
# Compressibility (1/GPa) = 0.02195132
#
# Stress axis : x y z
#
# Youngs Moduli (GPa) = 84.43767 80.67807 78.45275
#
# Poissons Ratio (x) = 0.01298 0.32299
# Poissons Ratio (y) = 0.01359 0.25409
# Poissons Ratio (z) = 0.34763 0.26129
#
# Static dielectric constant tensor:
#      x y z
#    x 1.928580 0.000000 -0.037350 
#    y 0.000000 1.925400 0.000000 
#    z -0.037350 0.000000 1.961070 
# 
# From -- ./inp_files/52530.got.cif
#   From: 2010.05.17/outbox.cif.g08.bks.cpg/sg14_27_cif.got.tgz:52530.got - 2010.06.03 17:49:19.
