data_PCOD9249421
_publ_section_title
;
Structure prediction by ZEFSAII (Michael W. Deem and Ramdas Pophale) SiO2 
 PCOD9249421
Probable space group: P 21/C
;
_chemical_formula_sum "Si O2"
_cell_formula_units_Z 28
_cell_length_a 7.340042
_cell_length_b 19.219996
_cell_length_c 9.627902
_cell_angle_alpha 90.000000
_cell_angle_beta 77.483831
_cell_angle_gamma 90.000000
_cell_volume 1325.982594
_symmetry_space_group_name_H-M "P 21/C"
_symmetry_group_IT_number 14
_symmetry_cell_setting 'monoclinic'
loop_
_space_group_symop_operation_xyz
x,y,z
-x,1/2+y,1/2-z
-x,-y,-z
x,1/2-y,1/2+z
loop_
_atom_site_type_symbol
_atom_site_label
_atom_site_fract_x
_atom_site_fract_y
_atom_site_fract_z
Si Si1 0.242118 0.211525 0.136127
Si Si2 0.417260 0.479890 0.163071
Si Si3 0.452169 0.893170 0.867118
Si Si4 0.361990 0.756772 0.345926
Si Si5 0.673461 0.387575 0.305236
Si Si6 0.978010 0.710468 0.052230
Si Si7 0.042272 0.065109 0.593454
O O1 0.338949 0.135852 0.135645
O O2 0.425259 0.260536 0.130840
O O3 0.084726 0.218497 0.279482
O O4 0.143913 0.232470 0.010653
O O5 0.438830 0.544854 0.262498
O O6 0.527093 0.418668 0.220614
O O7 0.209993 0.456043 0.164907
O O8 0.500000 0.500000 0.000000
O O9 0.345889 0.825639 0.823105
O O10 0.367208 0.909210 0.031548
O O11 0.341726 0.804644 0.213811
O O12 0.195240 0.780147 0.475859
O O13 0.869168 0.415165 0.218703
O O14 0.919374 0.634172 0.004568
O O15 0.000000 0.000000 0.500000
#
# Coordination Sequence:
#
# PCOD9249421 Si02
#       7
#     4   4   4   4   4   4   4
#     4  10  23  41  65  96 133 166 223 272 340 405
#     4  12  24  44  70  95 135 187 227 278 349 408
#     4  10  25  44  67 104 139 176 231 288 346 402
#     4   9  24  40  67  98 135 169 224 282 345 397
#     4  11  23  46  68  96 141 175 231 286 337 417
#     4  11  23  41  68  95 132 179 220 280 345 404
#     4  11  25  42  66  98 132 180 235 276 338 417
#
# _framework density 21.116416999999998
#
# number of rings (size 3 to 8) (size 9 to 14) (size 15 to 20)
#    0.857    0.571    1.429    3.000    4.000    2.857 
#    0.000    0.000    0.000    0.000    0.000    0.000 
#    0.000    0.000    0.000    0.000    0.000    0.000 
#
# Total GULP energy -156420.321311 kJ/mol
# GULP energy per Si atom -5586.440047 kJ/mol
# Density = 2.106836 g / cm^3
# Si number density = 21.116417 Si / 1000 Ang^3
#
#
#
# Elastic Constant Matrix: (Units=GPa)
#
#
# Indices 1 2 3 4 5 6 
#
# 1 87.2073 21.2462 24.1540 0.0000 0.2184 0.0000
# 2 21.2462 65.6191 15.3747 0.0000 11.1250 0.0000
# 3 24.1540 15.3747 98.4236 0.0000 -0.0067 0.0000
# 4 0.0000 0.0000 0.0000 21.9173 0.0000 5.3671
# 5 0.2184 11.1250 -0.0067 0.0000 27.3161 0.0000
# 6 0.0000 0.0000 0.0000 5.3671 0.0000 26.6103
#
#
#
# Elastic Compliance Matrix: (Units=1/GPa)
#
#
# Indices 1 2 3 4 5 6 
#
# 1 0.013136 -0.003891 -0.002616 0.000000 0.001479 0.000000
# 2 -0.003891 0.018192 -0.001887 0.000000 -0.007379 0.000000
# 3 -0.002616 -0.001887 0.011097 0.000000 0.000792 0.000000
# 4 0.000000 0.000000 0.000000 0.047997 0.000000 -0.009681
# 5 0.001479 -0.007379 0.000792 0.000000 0.039602 0.000000
# 6 0.000000 0.000000 0.000000 -0.009681 0.000000 0.039532
#
#
# Mechanical properties :
#
#
# Convention : Reuss Voigt Hill
#
# Bulk Modulus (GPa) = 39.00635 41.42221 40.21428
# Shear Modulus (GPa) = 25.65556 27.86706 26.76131
#
# Velocity S-wave (km/s) = 3.48941 3.63669 3.56381
# Velocity P-wave (km/s) = 5.89464 6.10678 6.00165
#
# Compressibility (1/GPa) = 0.02563685
#
# Stress axis : x y z
#
# Youngs Moduli (GPa) = 76.12868 54.96777 90.11459
#
# Poissons Ratio (x) = 0.21388 0.23571
# Poissons Ratio (y) = 0.29621 0.17009
# Poissons Ratio (z) = 0.19913 0.10375
#
# Static dielectric constant tensor:
#      x y z
#    x 1.776940 0.000000 -0.030870 
#    y 0.000000 1.794900 0.000000 
#    z -0.030870 0.000000 1.723840 
# 
# From -- ./inp_files/9878.got.cif
#   From: 2010.05.17/outbox.cif.g08.bks.cpg/sg14_5_cif.got.tgz:9878.got - 2010.06.03 17:49:19.
