data_PCOD9249355
_publ_section_title
;
Structure prediction by ZEFSAII (Michael W. Deem and Ramdas Pophale) SiO2 
 PCOD9249355
Probable space group: P 21/C
;
_chemical_formula_sum "Si O2"
_cell_formula_units_Z 20
_cell_length_a 10.775188
_cell_length_b 17.585896
_cell_length_c 5.157681
_cell_angle_alpha 90.000000
_cell_angle_beta 48.539303
_cell_angle_gamma 90.000000
_cell_volume 732.425346
_symmetry_space_group_name_H-M "P 21/C"
_symmetry_group_IT_number 14
_symmetry_cell_setting 'monoclinic'
loop_
_space_group_symop_operation_xyz
x,y,z
-x,1/2+y,1/2-z
-x,-y,-z
x,1/2-y,1/2+z
loop_
_atom_site_type_symbol
_atom_site_label
_atom_site_fract_x
_atom_site_fract_y
_atom_site_fract_z
Si Si1 0.004284 0.270435 0.005230
Si Si2 0.968169 0.431331 0.241866
Si Si3 0.362087 0.792955 0.445510
Si Si4 0.534231 0.548945 0.656325
Si Si5 0.269241 0.460603 0.177989
O O1 0.104889 0.249370 0.116996
O O2 0.839000 0.216955 0.258807
O O3 0.940909 0.355652 0.118912
O O4 0.116703 0.421225 0.239232
O O5 0.810236 0.458736 0.622852
O O6 0.000000 0.500000 0.000000
O O7 0.418411 0.768596 0.653684
O O8 0.425540 0.875047 0.269881
O O9 0.694482 0.581204 0.598019
O O10 0.500000 0.500000 0.000000
O O11 0.390179 0.475763 0.747510
#
# Coordination Sequence:
#
# PCOD9249355 Si02
#       5
#     4   4   4   4   4
#     4  10  23  40  68  98 137 180 234 285 350 415
#     4  11  24  42  71 103 140 186 237 292 348 426
#     4  10  23  40  68  98 137 180 234 285 350 415
#     4  11  24  42  71 103 140 186 237 292 348 426
#     4  10  24  40  68 100 142 176 246 282 356 404
#
# _framework density 27.306539999999998
#
# number of rings (size 3 to 8) (size 9 to 14) (size 15 to 20)
#    0.000    1.600    0.000    3.600   22.400    0.000 
#    0.000    2.000    0.000    0.000    0.000    0.000 
#    0.000    0.000    0.000    0.000    0.000    0.000 
#
# Total GULP energy -111561.908217 kJ/mol
# GULP energy per Si atom -5578.095411 kJ/mol
# Density = 2.724439 g / cm^3
# Si number density = 27.306540 Si / 1000 Ang^3
#
#
#
# Elastic Constant Matrix: (Units=GPa)
#
#
# Indices 1 2 3 4 5 6 
#
# 1 153.2368 21.9037 57.8708 0.0000 47.0980 0.0000
# 2 21.9037 128.9410 30.3155 0.0000 9.1168 0.0000
# 3 57.8708 30.3155 144.1763 0.0000 20.0235 0.0000
# 4 0.0000 0.0000 0.0000 43.8315 0.0000 7.1906
# 5 47.0980 9.1168 20.0235 0.0000 55.7657 0.0000
# 6 0.0000 0.0000 0.0000 7.1906 0.0000 35.3836
#
#
#
# Elastic Compliance Matrix: (Units=1/GPa)
#
#
# Indices 1 2 3 4 5 6 
#
# 1 0.009910 -0.000497 -0.002865 0.000000 -0.007260 0.000000
# 2 -0.000497 0.008214 -0.001473 0.000000 -0.000395 0.000000
# 3 -0.002865 -0.001473 0.008447 0.000000 -0.000373 0.000000
# 4 0.000000 0.000000 0.000000 0.023601 0.000000 -0.004796
# 5 -0.007260 -0.000395 -0.000373 0.000000 0.024262 0.000000
# 6 0.000000 0.000000 0.000000 -0.004796 0.000000 0.029236
#
#
# Mechanical properties :
#
#
# Convention : Reuss Voigt Hill
#
# Bulk Modulus (GPa) = 59.16369 71.83712 65.50040
# Shear Modulus (GPa) = 42.02555 48.08043 45.05299
#
# Velocity S-wave (km/s) = 3.92730 4.20070 4.06630
# Velocity P-wave (km/s) = 6.50219 7.06347 6.78863
#
# Compressibility (1/GPa) = 0.01690226
#
# Stress axis : x y z
#
# Youngs Moduli (GPa) = 100.90564 121.74244 118.37854
#
# Poissons Ratio (x) = 0.06045 0.33918
# Poissons Ratio (y) = 0.05010 0.17438
# Poissons Ratio (z) = 0.28911 0.17933
#
# Static dielectric constant tensor:
#      x y z
#    x 0.078250 0.000000 1.545060 
#    y 0.000000 1.802470 0.000000 
#    z 1.545060 0.000000 1.321890 
# 
# From -- ./inp_files/1202.got.cif
#   From: 2010.05.17/outbox.cif.g08.bks.cpg/sg14_1_cif.got.tgz:1202.got - 2010.06.03 17:49:19.
