data_PCOD9249222
_publ_section_title
;
Structure prediction by ZEFSAII (Michael W. Deem and Ramdas Pophale) SiO2 
 PCOD9249222
Probable space group: P 21/C
;
_chemical_formula_sum "Si O2"
_cell_formula_units_Z 28
_cell_length_a 13.301448
_cell_length_b 16.912669
_cell_length_c 8.409524
_cell_angle_alpha 90.000000
_cell_angle_beta 45.011869
_cell_angle_gamma 90.000000
_cell_volume 1338.004067
_symmetry_space_group_name_H-M "P 21/C"
_symmetry_group_IT_number 14
_symmetry_cell_setting 'monoclinic'
loop_
_space_group_symop_operation_xyz
x,y,z
-x,1/2+y,1/2-z
-x,-y,-z
x,1/2-y,1/2+z
loop_
_atom_site_type_symbol
_atom_site_label
_atom_site_fract_x
_atom_site_fract_y
_atom_site_fract_z
Si Si1 0.394222 0.043217 0.495350
Si Si2 0.270812 0.889673 0.457975
Si Si3 0.424180 0.573070 0.495390
Si Si4 0.142685 0.406100 0.478843
Si Si5 0.111461 0.691594 0.393566
Si Si6 0.867128 0.071547 0.866722
Si Si7 0.003351 0.132413 0.428970
O O1 0.500000 0.000000 0.500000
O O2 0.315998 0.969377 0.497218
O O3 0.287276 0.095436 0.718519
O O4 0.473874 0.091789 0.267266
O O5 0.380106 0.870575 0.192326
O O6 0.121071 0.905423 0.538983
O O7 0.235796 0.822064 0.625589
O O8 0.500000 0.500000 0.500000
O O9 0.274034 0.552905 0.577906
O O10 0.110428 0.498881 0.540679
O O11 0.022959 0.359168 0.517516
O O12 0.139797 0.371916 0.663040
O O13 0.157413 0.651101 0.506166
O O14 0.054778 0.779680 0.476306
O O15 0.998497 0.087105 0.600883
#
# Coordination Sequence:
#
# PCOD9249222 Si02
#       7
#     4   4   4   4   4   4   4
#     4  11  19  36  60  93 122 153 199 256 298 357
#     4   9  19  35  60  84 119 149 199 241 310 350
#     4   9  19  34  57  89 120 150 191 251 301 339
#     4  11  22  36  60  88 119 155 201 252 303 363
#     4  11  21  38  59  87 123 157 197 251 317 367
#     4  11  19  36  60  92 116 153 206 251 302 361
#     4  10  23  37  57  87 126 155 193 253 319 367
#
# _framework density 20.926694000000001
#
# number of rings (size 3 to 8) (size 9 to 14) (size 15 to 20)
#    0.000    1.714    2.857    2.571    2.000    0.000 
#    2.571    0.000    0.000   13.714    0.000    0.000 
#    0.000    0.000    0.000    0.000    0.000    0.000 
#
# Total GULP energy -156095.327262 kJ/mol
# GULP energy per Si atom -5574.833117 kJ/mol
# Density = 2.087906 g / cm^3
# Si number density = 20.926694 Si / 1000 Ang^3
#
#
#
# Elastic Constant Matrix: (Units=GPa)
#
#
# Indices 1 2 3 4 5 6 
#
# 1 69.0516 19.9716 21.3090 0.0000 6.1962 0.0000
# 2 19.9716 69.8432 37.9887 0.0000 -1.3439 0.0000
# 3 21.3090 37.9887 234.0338 0.0000 27.3258 0.0000
# 4 0.0000 0.0000 0.0000 25.2847 0.0000 5.9934
# 5 6.1962 -1.3439 27.3258 0.0000 25.9212 0.0000
# 6 0.0000 0.0000 0.0000 5.9934 0.0000 18.2276
#
#
#
# Elastic Compliance Matrix: (Units=1/GPa)
#
#
# Indices 1 2 3 4 5 6 
#
# 1 0.016232 -0.004555 -0.000294 0.000000 -0.003806 0.000000
# 2 -0.004555 0.017353 -0.003004 0.000000 0.005155 0.000000
# 3 -0.000294 -0.003004 0.005471 0.000000 -0.005852 0.000000
# 4 0.000000 0.000000 0.000000 0.042893 0.000000 -0.014103
# 5 -0.003806 0.005155 -0.005852 0.000000 0.045925 0.000000
# 6 0.000000 0.000000 0.000000 -0.014103 0.000000 0.059499
#
#
# Mechanical properties :
#
#
# Convention : Reuss Voigt Hill
#
# Bulk Modulus (GPa) = 42.82693 59.05190 50.93942
# Shear Modulus (GPa) = 23.71223 33.46396 28.58809
#
# Velocity S-wave (km/s) = 3.36982 4.00322 3.70010
# Velocity P-wave (km/s) = 5.97081 7.04609 6.53062
#
# Compressibility (1/GPa) = 0.02334979
#
# Stress axis : x y z
#
# Youngs Moduli (GPa) = 61.60835 57.62585 182.79432
#
# Poissons Ratio (x) = 0.26246 0.05378
# Poissons Ratio (y) = 0.28060 0.54912
# Poissons Ratio (z) = 0.01812 0.17311
#
# Static dielectric constant tensor:
#      x y z
#    x 1.758520 0.000000 0.029910 
#    y 0.000000 1.733780 0.000000 
#    z 0.029910 0.000000 1.874000 
# 
# From -- ./inp_files/16635.got.cif
#   From: 2010.05.17/outbox.cif.g08.bks.cpg/sg14_9_cif.got.tgz:16635.got - 2010.06.03 17:49:19.
