data_PCOD9249971
_publ_section_title
;
Structure prediction by ZEFSAII (Michael W. Deem and Ramdas Pophale) SiO2 
 PCOD9249971
Probable space group: P 21/C
;
_chemical_formula_sum "Si O2"
_cell_formula_units_Z 28
_cell_length_a 6.965023
_cell_length_b 18.325065
_cell_length_c 9.514321
_cell_angle_alpha 90.000000
_cell_angle_beta 72.294927
_cell_angle_gamma 90.000000
_cell_volume 1156.837107
_symmetry_space_group_name_H-M "P 21/C"
_symmetry_group_IT_number 14
_symmetry_cell_setting 'monoclinic'
loop_
_space_group_symop_operation_xyz
x,y,z
-x,1/2+y,1/2-z
-x,-y,-z
x,1/2-y,1/2+z
loop_
_atom_site_type_symbol
_atom_site_label
_atom_site_fract_x
_atom_site_fract_y
_atom_site_fract_z
Si Si1 0.612648 0.296669 0.107954
Si Si2 0.034998 0.538799 0.799074
Si Si3 0.302905 0.181786 0.203628
Si Si4 0.687792 0.053715 0.491903
Si Si5 0.212547 0.134779 0.805895
Si Si6 0.284318 0.033793 0.037130
Si Si7 0.072269 0.263972 0.015738
O O1 0.525478 0.214215 0.120408
O O2 0.436217 0.330215 0.245696
O O3 0.623327 0.361502 0.987656
O O4 0.846123 0.289752 0.092894
O O5 0.134698 0.526750 0.627165
O O6 0.883358 0.472029 0.862528
O O7 0.888142 0.608465 0.816726
O O8 0.215425 0.545266 0.872165
O O9 0.275409 0.102317 0.145891
O O10 0.214226 0.186807 0.381377
O O11 0.173609 0.237975 0.136910
O O12 0.500000 0.000000 0.500000
O O13 0.070536 0.189305 0.923219
O O14 0.248103 0.063531 0.891205
O O15 0.500000 0.000000 0.000000
#
# Coordination Sequence:
#
# PCOD9249971 Si02
#       7
#     4   4   4   4   4   4   4
#     4  11  23  42  71  96 137 179 231 283 346 415
#     4  11  24  43  70  96 145 176 229 293 347 412
#     4  10  25  45  63 106 136 179 238 286 344 427
#     4  11  24  42  70 105 132 183 232 288 349 416
#     4  10  23  45  66 105 138 180 238 288 348 427
#     4  11  24  43  69 101 141 186 233 288 352 418
#     4  10  24  43  70  96 141 181 230 287 353 405
#
# _framework density 24.203924000000001
#
# number of rings (size 3 to 8) (size 9 to 14) (size 15 to 20)
#    0.000    1.429    1.429    2.143    6.000    4.571 
#    0.000    0.000    0.000    0.000    0.000    0.000 
#    0.000    0.000    0.000    0.000    0.000    0.000 
#
# Total GULP energy -156274.314550 kJ/mol
# GULP energy per Si atom -5581.225520 kJ/mol
# Density = 2.414883 g / cm^3
# Si number density = 24.203924 Si / 1000 Ang^3
#
#
#
# Elastic Constant Matrix: (Units=GPa)
#
#
# Indices 1 2 3 4 5 6 
#
# 1 164.3863 32.5197 55.3492 0.0000 -22.2694 0.0000
# 2 32.5197 43.6288 8.6621 0.0000 -11.0759 0.0000
# 3 55.3492 8.6621 74.6373 0.0000 -4.6403 0.0000
# 4 0.0000 0.0000 0.0000 31.0786 0.0000 1.1803
# 5 -22.2694 -11.0759 -4.6403 0.0000 36.6095 0.0000
# 6 0.0000 0.0000 0.0000 1.1803 0.0000 36.8808
#
#
#
# Elastic Compliance Matrix: (Units=1/GPa)
#
#
# Indices 1 2 3 4 5 6 
#
# 1 0.009726 -0.005072 -0.006402 0.000000 0.003570 0.000000
# 2 -0.005072 0.027919 0.000861 0.000000 0.005471 0.000000
# 3 -0.006402 0.000861 0.017961 0.000000 -0.001357 0.000000
# 4 0.000000 0.000000 0.000000 0.032216 0.000000 -0.001031
# 5 0.003570 0.005471 -0.001357 0.000000 0.030970 0.000000
# 6 0.000000 0.000000 0.000000 -0.001031 0.000000 0.027147
#
#
# Mechanical properties :
#
#
# Convention : Reuss Voigt Hill
#
# Bulk Modulus (GPa) = 29.08600 52.85715 40.97157
# Shear Modulus (GPa) = 27.99171 33.32188 30.65680
#
# Velocity S-wave (km/s) = 3.40442 3.71443 3.56280
# Velocity P-wave (km/s) = 5.24372 6.34679 5.82144
#
# Compressibility (1/GPa) = 0.03438081
#
# Stress axis : x y z
#
# Youngs Moduli (GPa) = 102.82005 35.81804 55.67549
#
# Poissons Ratio (x) = 0.18167 0.35642
# Poissons Ratio (y) = 0.52149 -0.04795
# Poissons Ratio (z) = 0.65823 -0.03084
#
# Static dielectric constant tensor:
#      x y z
#    x 1.993190 0.000000 0.131730 
#    y 0.000000 2.066440 0.000000 
#    z 0.131730 0.000000 2.034090 
# 
# From -- ./inp_files/21738.got.cif
#   From: 2010.05.17/outbox.cif.g08.bks.cpg/sg14_11_cif.got.tgz:21738.got - 2010.06.03 17:49:19.
