data_PCOD9249690
_publ_section_title
;
Structure prediction by ZEFSAII (Michael W. Deem and Ramdas Pophale) SiO2 
 PCOD9249690
Probable space group: P 21/C
;
_chemical_formula_sum "Si O2"
_cell_formula_units_Z 20
_cell_length_a 8.459903
_cell_length_b 8.619868
_cell_length_c 12.110771
_cell_angle_alpha 90.000000
_cell_angle_beta 74.376283
_cell_angle_gamma 90.000000
_cell_volume 850.525136
_symmetry_space_group_name_H-M "P 21/C"
_symmetry_group_IT_number 14
_symmetry_cell_setting 'monoclinic'
loop_
_space_group_symop_operation_xyz
x,y,z
-x,1/2+y,1/2-z
-x,-y,-z
x,1/2-y,1/2+z
loop_
_atom_site_type_symbol
_atom_site_label
_atom_site_fract_x
_atom_site_fract_y
_atom_site_fract_z
Si Si1 0.742970 0.502002 0.036751
Si Si2 0.834517 0.715998 0.197415
Si Si3 0.806078 0.165840 0.096678
Si Si4 0.367610 0.495106 0.185862
Si Si5 0.106682 0.969733 0.133711
O O1 0.825659 0.651821 0.075033
O O2 0.818579 0.346251 0.071548
O O3 0.554103 0.503525 0.112711
O O4 0.741819 0.494545 0.904828
O O5 0.685951 0.833111 0.249251
O O6 0.822219 0.566420 0.278486
O O7 0.999148 0.817643 0.185158
O O8 0.677305 0.125128 0.216361
O O9 0.769218 0.083617 0.985551
O O10 0.973626 0.086913 0.105790
#
# Coordination Sequence:
#
# PCOD9249690 Si02
#       5
#     4   4   4   4   4
#     4  11  24  43  68  91 130 178 212 271 318 377
#     4  11  24  42  68  95 131 170 214 272 323 384
#     4  10  23  43  64  94 132 167 214 269 317 384
#     4  10  25  44  64  97 128 170 227 258 320 388
#     4  10  24  42  66 100 129 168 216 265 330 387
#
# _framework density 23.514885
#
# number of rings (size 3 to 8) (size 9 to 14) (size 15 to 20)
#    0.000    1.600    0.000    2.400   16.800    0.800 
#    0.000    2.000    0.000    0.000    0.000    0.000 
#    0.000    0.000    0.000    0.000    0.000    0.000 
#
# Total GULP energy -111972.580346 kJ/mol
# GULP energy per Si atom -5598.629017 kJ/mol
# Density = 2.346136 g / cm^3
# Si number density = 23.514885 Si / 1000 Ang^3
#
#
#
# Elastic Constant Matrix: (Units=GPa)
#
#
# Indices 1 2 3 4 5 6 
#
# 1 33.2947 14.9265 19.2768 0.0000 -9.0332 0.0000
# 2 14.9265 121.6186 44.9707 0.0000 3.5086 0.0000
# 3 19.2768 44.9707 130.6098 0.0000 -13.8934 0.0000
# 4 0.0000 0.0000 0.0000 92.6410 0.0000 23.1114
# 5 -9.0332 3.5086 -13.8934 0.0000 31.1674 0.0000
# 6 0.0000 0.0000 0.0000 23.1114 0.0000 35.1153
#
#
#
# Elastic Compliance Matrix: (Units=1/GPa)
#
#
# Indices 1 2 3 4 5 6 
#
# 1 0.035975 -0.003548 -0.003082 0.000000 0.009452 0.000000
# 2 -0.003548 0.009982 -0.003299 0.000000 -0.003623 0.000000
# 3 -0.003082 -0.003299 0.009649 0.000000 0.003779 0.000000
# 4 0.000000 0.000000 0.000000 0.012915 0.000000 -0.008500
# 5 0.009452 -0.003623 0.003779 0.000000 0.036917 0.000000
# 6 0.000000 0.000000 0.000000 -0.008500 0.000000 0.034072
#
#
# Mechanical properties :
#
#
# Convention : Reuss Voigt Hill
#
# Bulk Modulus (GPa) = 27.97408 49.31901 38.64655
# Shear Modulus (GPa) = 29.19136 45.54134 37.36635
#
# Velocity S-wave (km/s) = 3.52717 4.40557 3.99061
# Velocity P-wave (km/s) = 5.33948 6.84820 6.14035
#
# Compressibility (1/GPa) = 0.03574737
#
# Stress axis : x y z
#
# Youngs Moduli (GPa) = 27.79744 100.17888 103.63654
#
# Poissons Ratio (x) = 0.35545 0.31945
# Poissons Ratio (y) = 0.09863 0.34186
# Poissons Ratio (z) = 0.08568 0.33045
#
# Static dielectric constant tensor:
#      x y z
#    x 1.900230 0.000000 0.017760 
#    y 0.000000 1.852670 0.000000 
#    z 0.017760 0.000000 1.941230 
# 
# From -- ./inp_files/23014.got.cif
#   From: 2010.05.17/outbox.cif.g08.bks.cpg/sg14_12_cif.got.tgz:23014.got - 2010.06.03 17:49:19.
