data_PCOD9249885
_publ_section_title
;
Structure prediction by ZEFSAII (Michael W. Deem and Ramdas Pophale) SiO2 
 PCOD9249885
Probable space group: P 21/C
;
_chemical_formula_sum "Si O2"
_cell_formula_units_Z 32
_cell_length_a 10.338676
_cell_length_b 15.459625
_cell_length_c 10.774219
_cell_angle_alpha 90.000000
_cell_angle_beta 124.712607
_cell_angle_gamma 90.000000
_cell_volume 1415.570191
_symmetry_space_group_name_H-M "P 21/C"
_symmetry_group_IT_number 14
_symmetry_cell_setting 'monoclinic'
loop_
_space_group_symop_operation_xyz
x,y,z
-x,1/2+y,1/2-z
-x,-y,-z
x,1/2-y,1/2+z
loop_
_atom_site_type_symbol
_atom_site_label
_atom_site_fract_x
_atom_site_fract_y
_atom_site_fract_z
Si Si1 0.138881 0.563611 0.525950
Si Si2 0.172552 0.460828 0.311618
Si Si3 0.744804 0.226160 0.032359
Si Si4 0.331914 0.015163 0.344198
Si Si5 0.649863 0.097078 0.202328
Si Si6 0.861049 0.092182 0.562618
Si Si7 0.682607 0.816719 0.972484
Si Si8 0.613145 0.785107 0.683190
O O1 0.126736 0.539361 0.374622
O O2 0.167844 0.667171 0.524543
O O3 0.287517 0.533751 0.691642
O O4 0.000000 0.500000 0.500000
O O5 0.331380 0.498301 0.337923
O O6 0.185522 0.384251 0.418174
O O7 0.041546 0.433888 0.142971
O O8 0.571344 0.261871 0.897607
O O9 0.706315 0.169267 0.133666
O O10 0.844785 0.312200 0.112724
O O11 0.335656 0.116360 0.314982
O O12 0.500000 0.000000 0.500000
O O13 0.211517 0.976741 0.380195
O O14 0.761871 0.096424 0.382846
O O15 0.472863 0.124595 0.135986
O O16 0.701758 0.761298 0.859233
O O17 0.658543 0.764042 0.083959
#
# Coordination Sequence:
#
# PCOD9249885 Si02
#       8
#     4   4   4   4   4   4   4   4
#     4  11  24  44  71  96 140 180 229 281 353 425
#     4  11  24  44  63 100 134 179 221 283 359 419
#     4  10  24  43  70  99 134 186 226 287 353 419
#     4  12  24  40  70 101 134 181 238 285 344 417
#     4  10  23  44  68  92 136 177 233 279 351 423
#     4  12  24  41  69 101 133 179 233 290 348 425
#     4  11  23  45  69  99 137 182 237 289 352 420
#     4  11  24  43  69 102 138 178 241 292 346 414
#
# _framework density 22.605733000000001
#
# number of rings (size 3 to 8) (size 9 to 14) (size 15 to 20)
#    0.000    1.000    5.000    0.750    3.500    2.000 
#    2.250    0.000    0.000    0.000    0.000    0.000 
#    0.000    0.000    0.000    0.000    0.000    0.000 
#
# Total GULP energy -178266.746566 kJ/mol
# GULP energy per Si atom -5570.835830 kJ/mol
# Density = 2.255428 g / cm^3
# Si number density = 22.605733 Si / 1000 Ang^3
#
#
#
# Elastic Constant Matrix: (Units=GPa)
#
#
# Indices 1 2 3 4 5 6 
#
# 1 40.4506 44.9608 7.2005 0.0000 -5.2211 0.0000
# 2 44.9608 89.0803 28.3826 0.0000 0.1682 0.0000
# 3 7.2005 28.3826 123.8173 0.0000 -0.1549 0.0000
# 4 0.0000 0.0000 0.0000 24.6327 0.0000 -9.9734
# 5 -5.2211 0.1682 -0.1549 0.0000 23.4504 0.0000
# 6 0.0000 0.0000 0.0000 -9.9734 0.0000 32.3064
#
#
#
# Elastic Compliance Matrix: (Units=1/GPa)
#
#
# Indices 1 2 3 4 5 6 
#
# 1 0.062077 -0.032594 0.003879 0.000000 0.014080 0.000000
# 2 -0.032594 0.029224 -0.004813 0.000000 -0.007498 0.000000
# 3 0.003879 -0.004813 0.008955 0.000000 0.000957 0.000000
# 4 0.000000 0.000000 0.000000 0.046396 0.000000 0.014323
# 5 0.014080 -0.007498 0.000957 0.000000 0.045838 0.000000
# 6 0.000000 0.000000 0.000000 0.014323 0.000000 0.035375
#
#
# Mechanical properties :
#
#
# Convention : Reuss Voigt Hill
#
# Bulk Modulus (GPa) = 30.12000 46.04847 38.08424
# Shear Modulus (GPa) = 16.34052 27.59817 21.96935
#
# Velocity S-wave (km/s) = 2.69150 3.49785 3.12083
# Velocity P-wave (km/s) = 4.79707 6.06035 5.46533
#
# Compressibility (1/GPa) = 0.03320053
#
# Stress axis : x y z
#
# Youngs Moduli (GPa) = 16.10915 34.21803 111.66560
#
# Poissons Ratio (x) = 1.11530 -0.43316
# Poissons Ratio (y) = 0.52506 0.53745
# Poissons Ratio (z) = -0.06249 0.16469
#
# Static dielectric constant tensor:
#      x y z
#    x 2.018630 0.000000 -0.089020 
#    y 0.000000 2.073560 0.000000 
#    z -0.089020 0.000000 1.902870 
# 
# From -- ./inp_files/30044.got.cif
#   From: 2010.05.17/outbox.cif.g08.bks.cpg/sg14_16_cif.got.tgz:30044.got - 2010.06.03 17:49:19.
