data_PCOD9249036
_publ_section_title
;
Structure prediction by ZEFSAII (Michael W. Deem and Ramdas Pophale) SiO2 
 PCOD9249036
Probable space group: P 21/C
;
_chemical_formula_sum "Si O2"
_cell_formula_units_Z 20
_cell_length_a 11.286707
_cell_length_b 9.509680
_cell_length_c 17.002440
_cell_angle_alpha 90.000000
_cell_angle_beta 26.207292
_cell_angle_gamma 90.000000
_cell_volume 805.922314
_symmetry_space_group_name_H-M "P 21/C"
_symmetry_group_IT_number 14
_symmetry_cell_setting 'monoclinic'
loop_
_space_group_symop_operation_xyz
x,y,z
-x,1/2+y,1/2-z
-x,-y,-z
x,1/2-y,1/2+z
loop_
_atom_site_type_symbol
_atom_site_label
_atom_site_fract_x
_atom_site_fract_y
_atom_site_fract_z
Si Si1 0.077504 0.314171 0.145797
Si Si2 0.923440 0.344979 0.074037
Si Si3 0.514686 0.228213 0.190801
Si Si4 0.453161 0.014978 0.620956
Si Si5 0.117674 0.994580 0.090640
O O1 0.969239 0.384111 0.289789
O O2 0.141249 0.149265 0.113477
O O3 0.866174 0.338573 0.201014
O O4 0.346762 0.400161 0.962414
O O5 0.204495 0.263069 0.897396
O O6 0.000000 0.500000 0.000000
O O7 0.702929 0.283494 0.147916
O O8 0.542386 0.335080 0.101012
O O9 0.620727 0.073188 0.104605
O O10 0.500000 0.000000 0.500000
O O11 0.134258 0.997004 0.819535
#
# Coordination Sequence:
#
# PCOD9249036 Si02
#       5
#     4   4   4   4   4
#     4  11  26  45  74 108 150 195 249 307 374 442
#     4  12  29  47  78 113 154 190 251 309 380 445
#     4  12  26  51  77 111 150 198 248 313 370 449
#     4  10  22  45  72 104 146 189 245 305 361 433
#     4  11  25  47  76 106 146 200 251 307 369 443
#
# _framework density 24.816286999999999
#
# number of rings (size 3 to 8) (size 9 to 14) (size 15 to 20)
#    0.000    0.800    4.000    2.400    5.600    0.800 
#    0.000    6.000    0.000    0.000    0.000    0.000 
#    0.000    0.000    0.000    0.000    0.000    0.000 
#
# Total GULP energy -112099.878452 kJ/mol
# GULP energy per Si atom -5604.993923 kJ/mol
# Density = 2.475980 g / cm^3
# Si number density = 24.816287 Si / 1000 Ang^3
#
#
#
# Elastic Constant Matrix: (Units=GPa)
#
#
# Indices 1 2 3 4 5 6 
#
# 1 135.2499 24.6121 18.7876 0.0000 -12.6141 0.0000
# 2 24.6121 144.3075 10.2879 0.0000 -4.7198 0.0000
# 3 18.7876 10.2879 80.4008 0.0000 -19.3546 0.0000
# 4 0.0000 0.0000 0.0000 38.8029 0.0000 1.7600
# 5 -12.6141 -4.7198 -19.3546 0.0000 33.5742 0.0000
# 6 0.0000 0.0000 0.0000 1.7600 0.0000 37.0503
#
#
#
# Elastic Compliance Matrix: (Units=1/GPa)
#
#
# Indices 1 2 3 4 5 6 
#
# 1 0.007979 -0.001206 -0.001195 0.000000 0.002139 0.000000
# 2 -0.001206 0.007184 -0.000585 0.000000 0.000220 0.000000
# 3 -0.001195 -0.000585 0.014704 0.000000 0.007945 0.000000
# 4 0.000000 0.000000 0.000000 0.025827 0.000000 -0.001227
# 5 0.002139 0.000220 0.007945 0.000000 0.035200 0.000000
# 6 0.000000 0.000000 0.000000 -0.001227 0.000000 0.027049
#
#
# Mechanical properties :
#
#
# Convention : Reuss Voigt Hill
#
# Bulk Modulus (GPa) = 41.84718 51.92594 46.88656
# Shear Modulus (GPa) = 37.91362 42.30354 40.10858
#
# Velocity S-wave (km/s) = 3.91291 4.13324 4.02459
# Velocity P-wave (km/s) = 6.10851 6.61421 6.36639
#
# Compressibility (1/GPa) = 0.02389647
#
# Stress axis : x y z
#
# Youngs Moduli (GPa) = 125.33460 139.19553 68.00654
#
# Poissons Ratio (x) = 0.16782 0.08128
# Poissons Ratio (y) = 0.15110 0.03976
# Poissons Ratio (z) = 0.14980 0.08137
#
# Static dielectric constant tensor:
#      x y z
#    x 1.941680 0.000000 0.001930 
#    y 0.000000 1.961890 0.000000 
#    z 0.001930 0.000000 2.033260 
# 
# From -- ./inp_files/57213.got.cif
#   From: 2010.05.17/outbox.cif.g08.bks.cpg/sg14_29_cif.got.tgz:57213.got - 2010.06.03 17:49:19.
