data_PCOD9249686
_publ_section_title
;
Structure prediction by ZEFSAII (Michael W. Deem and Ramdas Pophale) SiO2 
 PCOD9249686
Probable space group: P 21/C
;
_chemical_formula_sum "Si O2"
_cell_formula_units_Z 32
_cell_length_a 19.221367
_cell_length_b 13.965446
_cell_length_c 14.027986
_cell_angle_alpha 90.000000
_cell_angle_beta 161.237428
_cell_angle_gamma 90.000000
_cell_volume 1211.195442
_symmetry_space_group_name_H-M "P 21/C"
_symmetry_group_IT_number 14
_symmetry_cell_setting 'monoclinic'
loop_
_space_group_symop_operation_xyz
x,y,z
-x,1/2+y,1/2-z
-x,-y,-z
x,1/2-y,1/2+z
loop_
_atom_site_type_symbol
_atom_site_label
_atom_site_fract_x
_atom_site_fract_y
_atom_site_fract_z
Si Si1 0.091653 0.595961 0.382091
Si Si2 0.216614 0.255748 0.097375
Si Si3 0.096994 0.201025 0.651647
Si Si4 0.370518 0.988761 0.734552
Si Si5 0.316656 0.418964 0.603150
Si Si6 0.050710 0.607615 0.537090
Si Si7 0.322655 0.671882 0.041359
Si Si8 0.403569 0.655064 0.540760
O O1 0.258647 0.529113 0.542887
O O2 0.176943 0.601474 0.600577
O O3 0.008575 0.698670 0.236526
O O4 0.867752 0.534312 0.081693
O O5 0.216275 0.297495 0.204389
O O6 0.424721 0.301379 0.312079
O O7 0.244844 0.145042 0.101618
O O8 0.194836 0.128053 0.854564
O O9 0.117965 0.310099 0.717874
O O10 0.844120 0.168661 0.314956
O O11 0.344610 0.880256 0.668081
O O12 0.500000 0.000000 0.000000
O O13 0.520047 0.046718 0.854102
O O14 0.561101 0.392831 0.891364
O O15 0.000000 0.500000 0.500000
O O16 0.092265 0.660470 0.692772
O O17 0.411124 0.777339 0.143103
#
# Coordination Sequence:
#
# PCOD9249686 Si02
#       8
#     4   4   4   4   4   4   4   4
#     4  11  23  41  68  93 133 175 224 278 339 405
#     4  10  23  43  63  97 134 174 222 283 340 399
#     4  11  23  43  72  95 137 183 223 287 345 405
#     4  11  23  42  68 100 135 179 228 285 349 411
#     4  11  24  42  64 103 133 169 233 279 343 409
#     4  11  21  43  69  96 130 183 231 274 340 412
#     4  10  24  41  66 100 137 173 229 288 335 412
#     4   9  23  44  62  99 137 173 235 274 343 415
#
# _framework density 26.420179000000001
#
# number of rings (size 3 to 8) (size 9 to 14) (size 15 to 20)
#    0.000    1.500    2.500    1.500    7.000    1.000 
#    0.000    1.250    0.000    0.000    0.000    0.000 
#    0.000    0.000    0.000    0.000    0.000    0.000 
#
# Total GULP energy -178677.029614 kJ/mol
# GULP energy per Si atom -5583.657175 kJ/mol
# Density = 2.636005 g / cm^3
# Si number density = 26.420179 Si / 1000 Ang^3
#
#
#
# Elastic Constant Matrix: (Units=GPa)
#
#
# Indices 1 2 3 4 5 6 
#
# 1 120.4518 -6.7001 3.9023 0.0000 -8.1912 0.0000
# 2 -6.7001 103.9425 -26.4563 0.0000 -14.0517 0.0000
# 3 3.9023 -26.4563 29.6171 0.0000 -10.2244 0.0000
# 4 0.0000 0.0000 0.0000 29.3551 0.0000 2.4260
# 5 -8.1912 -14.0517 -10.2244 0.0000 48.5134 0.0000
# 6 0.0000 0.0000 0.0000 2.4260 0.0000 44.3820
#
#
#
# Elastic Compliance Matrix: (Units=1/GPa)
#
#
# Indices 1 2 3 4 5 6 
#
# 1 0.008458 0.000834 0.000223 0.000000 0.001717 0.000000
# 2 0.000834 0.014711 0.015692 0.000000 0.007709 0.000000
# 3 0.000223 0.015692 0.053205 0.000000 0.015796 0.000000
# 4 0.000000 0.000000 0.000000 0.034220 0.000000 -0.001871
# 5 0.001717 0.007709 0.015796 0.000000 0.026465 0.000000
# 6 0.000000 0.000000 0.000000 -0.001871 0.000000 0.022634
#
#
# Mechanical properties :
#
#
# Convention : Reuss Voigt Hill
#
# Bulk Modulus (GPa) = 9.10141 21.72257 15.41199
# Shear Modulus (GPa) = 30.70917 43.33450 37.02183
#
# Velocity S-wave (km/s) = 3.41301 4.05434 3.74742
# Velocity P-wave (km/s) = 4.35704 5.49151 4.95684
#
# Compressibility (1/GPa) = 0.10987310
#
# Stress axis : x y z
#
# Youngs Moduli (GPa) = 118.23150 67.97778 18.79513
#
# Poissons Ratio (x) = -0.05670 -0.00420
# Poissons Ratio (y) = -0.09862 -0.29493
# Poissons Ratio (z) = -0.02641 -1.06671
#
# Static dielectric constant tensor:
#      x y z
#    x 2.205820 0.000000 -0.129560 
#    y 0.000000 2.206160 0.000000 
#    z -0.129560 0.000000 2.871960 
# 
# From -- ./inp_files/50710.got.cif
#   From: 2010.05.17/outbox.cif.g08.bks.cpg/sg14_26_cif.got.tgz:50710.got - 2010.06.03 17:49:19.
