data_PCOD9249136
_publ_section_title
;
Structure prediction by ZEFSAII (Michael W. Deem and Ramdas Pophale) SiO2 
 PCOD9249136
Probable space group: P 21/C
;
_chemical_formula_sum "Si O2"
_cell_formula_units_Z 20
_cell_length_a 21.724396
_cell_length_b 7.255063
_cell_length_c 14.917588
_cell_angle_alpha 90.000000
_cell_angle_beta 160.596682
_cell_angle_gamma 90.000000
_cell_volume 781.101964
_symmetry_space_group_name_H-M "P 21/C"
_symmetry_group_IT_number 14
_symmetry_cell_setting 'monoclinic'
loop_
_space_group_symop_operation_xyz
x,y,z
-x,1/2+y,1/2-z
-x,-y,-z
x,1/2-y,1/2+z
loop_
_atom_site_type_symbol
_atom_site_label
_atom_site_fract_x
_atom_site_fract_y
_atom_site_fract_z
Si Si1 0.001154 0.324706 0.408078
Si Si2 0.376826 0.217260 0.995906
Si Si3 0.638418 0.282293 0.519372
Si Si4 0.979544 0.499498 0.209011
Si Si5 0.312606 0.825589 0.219430
O O1 0.048592 0.164848 0.399455
O O2 0.827557 0.269713 0.228655
O O3 0.942442 0.498836 0.265751
O O4 0.186731 0.328696 0.720912
O O5 0.469946 0.249593 0.219973
O O6 0.525776 0.270025 0.124930
O O7 0.346730 0.999750 0.943012
O O8 0.618348 0.170582 0.584230
O O9 0.204295 0.500158 0.527633
O O10 0.847214 0.334016 0.996401
#
# Coordination Sequence:
#
# PCOD9249136 Si02
#       5
#     4   4   4   4   4
#     4  11  25  46  73 105 146 186 239 293 360 417
#     4  12  27  47  70 109 143 188 242 290 357 426
#     4  12  27  47  70 109 143 188 242 290 357 426
#     4  10  22  46  74 102 144 186 236 296 354 416
#     4  11  25  46  73 105 146 186 239 293 360 417
#
# _framework density 25.604851
#
# number of rings (size 3 to 8) (size 9 to 14) (size 15 to 20)
#    0.000    0.800    6.000    1.200    2.800    4.800 
#    0.000    0.000    0.000    0.000    0.000    0.000 
#    0.000    0.000    0.000    0.000    0.000    0.000 
#
# Total GULP energy -111856.698358 kJ/mol
# GULP energy per Si atom -5592.834918 kJ/mol
# Density = 2.554657 g / cm^3
# Si number density = 25.604851 Si / 1000 Ang^3
#
#
#
# Elastic Constant Matrix: (Units=GPa)
#
#
# Indices 1 2 3 4 5 6 
#
# 1 121.2673 26.0170 109.3249 0.0000 -17.4255 0.0000
# 2 26.0170 88.9695 26.5511 0.0000 0.0451 0.0000
# 3 109.3249 26.5511 162.9805 0.0000 -42.8794 0.0000
# 4 0.0000 0.0000 0.0000 35.5125 0.0000 10.6957
# 5 -17.4255 0.0451 -42.8794 0.0000 50.8477 0.0000
# 6 0.0000 0.0000 0.0000 10.6957 0.0000 42.3330
#
#
#
# Elastic Compliance Matrix: (Units=1/GPa)
#
#
# Indices 1 2 3 4 5 6 
#
# 1 0.022611 -0.001679 -0.016520 0.000000 -0.006181 0.000000
# 2 -0.001679 0.012116 -0.001287 0.000000 -0.001672 0.000000
# 3 -0.016520 -0.001287 0.020482 0.000000 0.011612 0.000000
# 4 0.000000 0.000000 0.000000 0.030478 0.000000 -0.007701
# 5 -0.006181 -0.001672 0.011612 0.000000 0.027342 0.000000
# 6 0.000000 0.000000 0.000000 -0.007701 0.000000 0.025568
#
#
# Mechanical properties :
#
#
# Convention : Reuss Voigt Hill
#
# Bulk Modulus (GPa) = 61.59025 77.44480 69.51752
# Shear Modulus (GPa) = 27.32506 39.82693 33.57600
#
# Velocity S-wave (km/s) = 3.27032 3.94819 3.62514
# Velocity P-wave (km/s) = 6.19406 7.14815 6.68814
#
# Compressibility (1/GPa) = 0.01623634
#
# Stress axis : x y z
#
# Youngs Moduli (GPa) = 44.22544 82.53668 48.82377
#
# Poissons Ratio (x) = 0.13858 0.80657
# Poissons Ratio (y) = 0.07425 0.06286
# Poissons Ratio (z) = 0.73060 0.10626
#
# Static dielectric constant tensor:
#      x y z
#    x 1.982340 0.000000 -0.063550 
#    y 0.000000 2.167640 0.000000 
#    z -0.063550 0.000000 2.025460 
# 
# From -- ./inp_files/50009.got.cif
#   From: 2010.05.17/outbox.cif.g08.bks.cpg/sg14_26_cif.got.tgz:50009.got - 2010.06.03 17:49:19.
