data_PCOD9249071
_publ_section_title
;
Structure prediction by ZEFSAII (Michael W. Deem and Ramdas Pophale) SiO2 
 PCOD9249071
Probable space group: P 21/C
;
_chemical_formula_sum "Si O2"
_cell_formula_units_Z 28
_cell_length_a 11.994823
_cell_length_b 8.021847
_cell_length_c 24.905117
_cell_angle_alpha 90.000000
_cell_angle_beta 31.235782
_cell_angle_gamma 90.000000
_cell_volume 1242.672636
_symmetry_space_group_name_H-M "P 21/C"
_symmetry_group_IT_number 14
_symmetry_cell_setting 'monoclinic'
loop_
_space_group_symop_operation_xyz
x,y,z
-x,1/2+y,1/2-z
-x,-y,-z
x,1/2-y,1/2+z
loop_
_atom_site_type_symbol
_atom_site_label
_atom_site_fract_x
_atom_site_fract_y
_atom_site_fract_z
Si Si1 0.222941 0.227599 0.455755
Si Si2 0.774703 0.229330 0.086170
Si Si3 0.297341 0.441721 0.524115
Si Si4 0.132550 0.353498 0.284156
Si Si5 0.826966 0.396996 0.954255
Si Si6 0.566723 0.738670 0.935918
Si Si7 0.455605 0.512895 0.238179
O O1 0.263227 0.380192 0.478222
O O2 0.431306 0.169372 0.337516
O O3 0.023226 0.263098 0.499490
O O4 0.161368 0.071265 0.520018
O O5 0.651230 0.385096 0.164307
O O6 0.661994 0.071089 0.159631
O O7 0.758065 0.266481 0.029966
O O8 0.350651 0.281197 0.538916
O O9 0.486568 0.576828 0.450526
O O10 0.078342 0.530659 0.634160
O O11 0.256331 0.331612 0.177496
O O12 0.288248 0.431082 0.265268
O O13 0.046282 0.174421 0.339963
O O14 0.641866 0.378961 0.985613
#
# Coordination Sequence:
#
# PCOD9249071 Si02
#       7
#     4   4   4   4   4   4   4
#     4  11  23  42  62  98 131 163 218 269 317 384
#     4  11  24  40  63  95 131 168 214 267 319 391
#     4  10  24  44  68  97 128 168 219 267 323 378
#     4  11  22  44  63  96 127 171 220 254 324 390
#     4  10  23  39  65  92 130 172 210 268 325 376
#     4  10  22  46  65  93 130 168 214 268 320 384
#     4  11  24  41  63  94 129 173 215 261 328 387
#
# _framework density 22.532083
#
# number of rings (size 3 to 8) (size 9 to 14) (size 15 to 20)
#    0.000    1.429    4.286    1.714    4.000    5.714 
#    7.714    0.000    0.000    0.000    0.000    0.000 
#    0.000    0.000    0.000    0.000    0.000    0.000 
#
# Total GULP energy -156651.693357 kJ/mol
# GULP energy per Si atom -5594.703334 kJ/mol
# Density = 2.248080 g / cm^3
# Si number density = 22.532083 Si / 1000 Ang^3
#
#
#
# Elastic Constant Matrix: (Units=GPa)
#
#
# Indices 1 2 3 4 5 6 
#
# 1 77.6195 3.8058 14.1596 0.0000 -6.4206 0.0000
# 2 3.8058 57.4282 12.2548 0.0000 0.9675 0.0000
# 3 14.1596 12.2548 87.3367 0.0000 -12.7488 0.0000
# 4 0.0000 0.0000 0.0000 46.5741 0.0000 12.8954
# 5 -6.4206 0.9675 -12.7488 0.0000 19.9447 0.0000
# 6 0.0000 0.0000 0.0000 12.8954 0.0000 36.4285
#
#
#
# Elastic Compliance Matrix: (Units=1/GPa)
#
#
# Indices 1 2 3 4 5 6 
#
# 1 0.013484 -0.000605 -0.001614 0.000000 0.003338 0.000000
# 2 -0.000605 0.018114 -0.002868 0.000000 -0.002907 0.000000
# 3 -0.001614 -0.002868 0.013299 0.000000 0.008121 0.000000
# 4 0.000000 0.000000 0.000000 0.023804 0.000000 -0.008427
# 5 0.003338 -0.002907 0.008121 0.000000 0.056545 0.000000
# 6 0.000000 0.000000 0.000000 -0.008427 0.000000 0.030434
#
#
# Mechanical properties :
#
#
# Convention : Reuss Voigt Hill
#
# Bulk Modulus (GPa) = 28.79939 31.42497 30.11218
# Shear Modulus (GPa) = 28.18030 33.40040 30.79035
#
# Velocity S-wave (km/s) = 3.54032 3.85430 3.70065
# Velocity P-wave (km/s) = 5.43333 5.81245 5.62609
#
# Compressibility (1/GPa) = 0.03472296
#
# Stress axis : x y z
#
# Youngs Moduli (GPa) = 74.16423 55.20557 75.19144
#
# Poissons Ratio (x) = 0.03342 0.12134
# Poissons Ratio (y) = 0.04490 0.21564
# Poissons Ratio (z) = 0.11968 0.15832
#
# Static dielectric constant tensor:
#      x y z
#    x 1.798840 0.000000 0.001060 
#    y 0.000000 1.901710 0.000000 
#    z 0.001060 0.000000 1.798870 
# 
# From -- ./inp_files/77088.got.cif
#   From: 2010.05.17/outbox.cif.g08.bks.cpg/sg14_39_cif.got.tgz:77088.got - 2010.06.03 17:49:19.
