data_PCOD9249357
_publ_section_title
;
Structure prediction by ZEFSAII (Michael W. Deem and Ramdas Pophale) SiO2 
 PCOD9249357
Probable space group: P 21/C
;
_chemical_formula_sum "Si O2"
_cell_formula_units_Z 24
_cell_length_a 8.985297
_cell_length_b 7.992355
_cell_length_c 28.286235
_cell_angle_alpha 90.000000
_cell_angle_beta 34.788895
_cell_angle_gamma 90.000000
_cell_volume 1158.989253
_symmetry_space_group_name_H-M "P 21/C"
_symmetry_group_IT_number 14
_symmetry_cell_setting 'monoclinic'
loop_
_space_group_symop_operation_xyz
x,y,z
-x,1/2+y,1/2-z
-x,-y,-z
x,1/2-y,1/2+z
loop_
_atom_site_type_symbol
_atom_site_label
_atom_site_fract_x
_atom_site_fract_y
_atom_site_fract_z
Si Si1 0.628518 0.382396 0.830184
Si Si2 0.401671 0.442841 0.710096
Si Si3 0.254684 0.091750 0.953805
Si Si4 0.783602 0.575608 0.427032
Si Si5 0.315190 0.416205 0.274802
Si Si6 0.911495 0.851617 0.317355
O O1 0.376929 0.271982 0.908102
O O2 0.596117 0.439689 0.784560
O O3 0.697793 0.545857 0.843294
O O4 0.889514 0.265513 0.764970
O O5 0.516403 0.470123 0.627315
O O6 0.572945 0.551461 0.702306
O O7 0.405467 0.256501 0.728671
O O8 0.110121 0.513680 0.787621
O O9 0.182926 0.117263 0.026978
O O10 0.000000 0.000000 0.000000
O O11 0.500000 0.500000 0.500000
O O12 0.804634 0.731336 0.386109
O O13 0.003584 0.439967 0.356504
#
# Coordination Sequence:
#
# PCOD9249357 Si02
#       6
#     4   4   4   4   4   4
#     4  10  23  40  69  96 129 178 228 266 329 403
#     4  11  23  42  70  92 131 176 223 269 325 407
#     4  11  24  44  65  93 138 173 213 283 337 387
#     4  11  26  42  64  96 137 171 218 283 341 386
#     4  11  23  43  67  96 127 178 225 265 329 404
#     4  10  23  42  67  96 129 177 226 272 326 403
#
# _framework density 20.707698000000001
#
# number of rings (size 3 to 8) (size 9 to 14) (size 15 to 20)
#    0.000    1.333    1.667    4.000   14.000    0.667 
#    0.000    0.833    0.000    0.000    0.000    0.000 
#    0.000    0.000    0.000    0.000    0.000    0.000 
#
# Total GULP energy -133880.800596 kJ/mol
# GULP energy per Si atom -5578.366691 kJ/mol
# Density = 2.066057 g / cm^3
# Si number density = 20.707698 Si / 1000 Ang^3
#
#
#
# Elastic Constant Matrix: (Units=GPa)
#
#
# Indices 1 2 3 4 5 6 
#
# 1 81.5007 26.8995 19.7632 0.0000 4.8589 0.0000
# 2 26.8995 102.0689 35.5504 0.0000 6.9734 0.0000
# 3 19.7632 35.5504 92.6005 0.0000 11.2375 0.0000
# 4 0.0000 0.0000 0.0000 30.2901 0.0000 -4.0143
# 5 4.8589 6.9734 11.2375 0.0000 28.5512 0.0000
# 6 0.0000 0.0000 0.0000 -4.0143 0.0000 33.1681
#
#
#
# Elastic Compliance Matrix: (Units=1/GPa)
#
#
# Indices 1 2 3 4 5 6 
#
# 1 0.013711 -0.002966 -0.001672 0.000000 -0.000951 0.000000
# 2 -0.002966 0.011985 -0.003858 0.000000 -0.000904 0.000000
# 3 -0.001672 -0.003858 0.013115 0.000000 -0.003935 0.000000
# 4 0.000000 0.000000 0.000000 0.033552 0.000000 0.004061
# 5 -0.000951 -0.000904 -0.003935 0.000000 0.036956 0.000000
# 6 0.000000 0.000000 0.000000 0.004061 0.000000 0.030641
#
#
# Mechanical properties :
#
#
# Convention : Reuss Voigt Hill
#
# Bulk Modulus (GPa) = 45.83539 48.95513 47.39526
# Shear Modulus (GPa) = 30.44604 31.33235 30.88919
#
# Velocity S-wave (km/s) = 3.83858 3.89405 3.86641
# Velocity P-wave (km/s) = 6.46752 6.62650 6.54749
#
# Compressibility (1/GPa) = 0.02181720
#
# Stress axis : x y z
#
# Youngs Moduli (GPa) = 72.93443 83.44065 76.25012
#
# Poissons Ratio (x) = 0.24749 0.12750
# Poissons Ratio (y) = 0.21633 0.29420
# Poissons Ratio (z) = 0.12196 0.32194
#
# Static dielectric constant tensor:
#      x y z
#    x 1.752270 0.000000 -0.000640 
#    y 0.000000 1.747830 0.000000 
#    z -0.000640 0.000000 1.737840 
# 
# From -- ./inp_files/79440.got.cif
#   From: 2010.05.17/outbox.cif.g08.bks.cpg/sg14_40_cif.got.tgz:79440.got - 2010.06.03 17:49:19.
