data_PCOD9249990
_publ_section_title
;
Structure prediction by ZEFSAII (Michael W. Deem and Ramdas Pophale) SiO2 
 PCOD9249990
Probable space group: P 21/C
;
_chemical_formula_sum "Si O2"
_cell_formula_units_Z 22
_cell_length_a 8.202187
_cell_length_b 15.639206
_cell_length_c 8.768636
_cell_angle_alpha 90.000000
_cell_angle_beta 49.436695
_cell_angle_gamma 90.000000
_cell_volume 854.499160
_symmetry_space_group_name_H-M "P 21/C"
_symmetry_group_IT_number 14
_symmetry_cell_setting 'monoclinic'
loop_
_space_group_symop_operation_xyz
x,y,z
-x,1/2+y,1/2-z
-x,-y,-z
x,1/2-y,1/2+z
loop_
_atom_site_type_symbol
_atom_site_label
_atom_site_fract_x
_atom_site_fract_y
_atom_site_fract_z
Si Si1 0.304544 0.316254 0.081287
Si Si2 0.729021 0.388343 0.920671
Si Si3 0.195885 0.448011 0.947415
Si Si4 0.500000 0.000000 0.000000
Si Si5 0.881861 0.913126 0.015439
Si Si6 0.465619 0.854451 0.148321
O O1 0.191528 0.347740 0.306409
O O2 0.531893 0.366481 0.932772
O O3 0.161711 0.353627 0.032796
O O4 0.392548 0.221453 0.001847
O O5 0.953486 0.369981 0.703092
O O6 0.731211 0.488022 0.961517
O O7 0.664617 0.338858 0.117054
O O8 0.366978 0.445882 0.711627
O O9 0.000000 0.500000 0.000000
O O10 0.329949 0.913223 0.121405
O O11 0.650037 0.930753 0.071760
O O12 0.000000 0.000000 0.000000
#
# Coordination Sequence:
#
# PCOD9249990 Si02
#       6
#     4   4   4   2   4   4
#     4  11  25  43  71 101 142 176 235 291 332 409
#     4  10  23  45  68  99 133 184 232 273 355 410
#     4  11  23  41  69 100 136 179 229 279 345 412
#     4  10  24  40  70  90 136 180 224 274 346 412
#     4  11  23  43  73  98 132 182 231 280 347 419
#     4  10  25  45  65 102 137 178 229 289 338 406
#
# _framework density 25.746075999999999
#
# number of rings (size 3 to 8) (size 9 to 14) (size 15 to 20)
#    0.000    1.455    1.818    1.636   10.182    1.455 
#    6.545    0.000    0.000    0.000    0.000    0.000 
#    0.000    0.000    0.000    0.000    0.000    0.000 
#
# Total GULP energy -122495.541027 kJ/mol
# GULP energy per Si atom -5567.979138 kJ/mol
# Density = 2.568748 g / cm^3
# Si number density = 25.746076 Si / 1000 Ang^3
#
#
#
# Elastic Constant Matrix: (Units=GPa)
#
#
# Indices 1 2 3 4 5 6 
#
# 1 50.8554 24.7563 10.5029 0.0000 -15.6035 0.0000
# 2 24.7563 171.8002 48.7988 0.0000 10.1728 0.0000
# 3 10.5029 48.7988 238.3457 0.0000 -5.6407 0.0000
# 4 0.0000 0.0000 0.0000 41.0230 0.0000 -1.3572
# 5 -15.6035 10.1728 -5.6407 0.0000 39.7907 0.0000
# 6 0.0000 0.0000 0.0000 -1.3572 0.0000 30.0860
#
#
#
# Elastic Compliance Matrix: (Units=1/GPa)
#
#
# Indices 1 2 3 4 5 6 
#
# 1 0.025092 -0.004271 0.000028 0.000000 0.010936 0.000000
# 2 -0.004271 0.007033 -0.001338 0.000000 -0.003663 0.000000
# 3 0.000028 -0.001338 0.004492 0.000000 0.000990 0.000000
# 4 0.000000 0.000000 0.000000 0.024413 0.000000 0.001101
# 5 0.010936 -0.003663 0.000990 0.000000 0.030496 0.000000
# 6 0.000000 0.000000 0.000000 0.001101 0.000000 0.033288
#
#
# Mechanical properties :
#
#
# Convention : Reuss Voigt Hill
#
# Bulk Modulus (GPa) = 39.28758 69.90191 54.59475
# Shear Modulus (GPa) = 34.61091 47.30950 40.96021
#
# Velocity S-wave (km/s) = 3.67047 4.29131 3.99297
# Velocity P-wave (km/s) = 5.76679 7.19466 6.51994
#
# Compressibility (1/GPa) = 0.02545333
#
# Stress axis : x y z
#
# Youngs Moduli (GPa) = 39.85282 142.18193 222.62642
#
# Poissons Ratio (x) = 0.60728 -0.00614
# Poissons Ratio (y) = 0.17022 0.29798
# Poissons Ratio (z) = -0.00110 0.19030
#
# Static dielectric constant tensor:
#      x y z
#    x -20.882660 0.000000 -11.319130 
#    y 0.000000 0.633510 0.000000 
#    z -11.319130 0.000000 -3.583660 
# 
# From -- ./inp_files/9340.got.cif
#   From: 2010.05.17/outbox.cif.g08.bks.cpg/sg14_5_cif.got.tgz:9340.got - 2010.06.03 17:49:19.
