data_PCOD9249068
_publ_section_title
;
Structure prediction by ZEFSAII (Michael W. Deem and Ramdas Pophale) SiO2 
 PCOD9249068
Probable space group: P 21/C
;
_chemical_formula_sum "Si O2"
_cell_formula_units_Z 24
_cell_length_a 20.391093
_cell_length_b 7.716195
_cell_length_c 10.140733
_cell_angle_alpha 90.000000
_cell_angle_beta 144.383027
_cell_angle_gamma 90.000000
_cell_volume 929.196208
_symmetry_space_group_name_H-M "P 21/C"
_symmetry_group_IT_number 14
_symmetry_cell_setting 'monoclinic'
loop_
_space_group_symop_operation_xyz
x,y,z
-x,1/2+y,1/2-z
-x,-y,-z
x,1/2-y,1/2+z
loop_
_atom_site_type_symbol
_atom_site_label
_atom_site_fract_x
_atom_site_fract_y
_atom_site_fract_z
Si Si1 0.430971 0.912268 0.501713
Si Si2 0.043904 0.936138 0.426635
Si Si3 0.785414 0.226769 0.651594
Si Si4 0.193267 0.480017 0.521278
Si Si5 0.769750 0.893068 0.450248
Si Si6 0.591664 0.449386 0.480070
O O1 0.301011 0.976372 0.288410
O O2 0.493973 0.962491 0.738627
O O3 0.500000 0.000000 0.500000
O O4 0.446244 0.710224 0.493435
O O5 0.114699 0.762627 0.579754
O O6 0.130861 0.058640 0.491277
O O7 0.000000 0.000000 0.500000
O O8 0.934673 0.926386 0.154394
O O9 0.816733 0.345660 0.578075
O O10 0.774629 0.035913 0.573283
O O11 0.676635 0.334389 0.526187
O O12 0.227687 0.304906 0.497581
O O13 0.660803 0.919645 0.181432
#
# Coordination Sequence:
#
# PCOD9249068 Si02
#       6
#     4   4   4   4   4   4
#     4  12  24  44  70  95 140 176 227 282 336 398
#     4   9  23  41  64  96 135 166 217 275 330 399
#     4  10  22  46  64  96 137 169 222 283 328 403
#     4  11  23  42  66  95 131 176 217 277 330 394
#     4  11  23  42  71  97 131 177 223 271 342 397
#     4  11  23  44  66  99 136 177 222 283 333 400
#
# _framework density 25.828776000000001
#
# number of rings (size 3 to 8) (size 9 to 14) (size 15 to 20)
#    0.000    1.333    3.333    1.000    4.667    2.000 
#    9.000    3.333    0.000    0.000    0.000    0.000 
#    0.000    0.000    0.000    0.000    0.000    0.000 
#
# Total GULP energy -134122.293189 kJ/mol
# GULP energy per Si atom -5588.428883 kJ/mol
# Density = 2.576999 g / cm^3
# Si number density = 25.828776 Si / 1000 Ang^3
#
#
#
# Elastic Constant Matrix: (Units=GPa)
#
#
# Indices 1 2 3 4 5 6 
#
# 1 97.0596 -19.7600 20.2333 0.0000 1.9849 0.0000
# 2 -19.7600 89.0274 38.8164 0.0000 -11.9514 0.0000
# 3 20.2333 38.8164 215.6562 0.0000 28.5758 0.0000
# 4 0.0000 0.0000 0.0000 34.9851 0.0000 -3.8470
# 5 1.9849 -11.9514 28.5758 0.0000 30.1249 0.0000
# 6 0.0000 0.0000 0.0000 -3.8470 0.0000 19.3189
#
#
#
# Elastic Compliance Matrix: (Units=1/GPa)
#
#
# Indices 1 2 3 4 5 6 
#
# 1 0.011478 0.003859 -0.002144 0.000000 0.002808 0.000000
# 2 0.003859 0.015393 -0.004470 0.000000 0.010093 0.000000
# 3 -0.002144 -0.004470 0.006701 0.000000 -0.007989 0.000000
# 4 0.000000 0.000000 0.000000 0.029224 0.000000 0.005819
# 5 0.002808 0.010093 -0.007989 0.000000 0.044592 0.000000
# 6 0.000000 0.000000 0.000000 0.005819 0.000000 0.052922
#
#
# Mechanical properties :
#
#
# Convention : Reuss Voigt Hill
#
# Bulk Modulus (GPa) = 35.63363 53.36916 44.50140
# Shear Modulus (GPa) = 28.54320 41.04933 34.79626
#
# Velocity S-wave (km/s) = 3.32790 3.99091 3.67439
# Velocity P-wave (km/s) = 5.34721 6.47642 5.93871
#
# Compressibility (1/GPa) = 0.02806337
#
# Stress axis : x y z
#
# Youngs Moduli (GPa) = 87.12272 64.96502 149.22549
#
# Poissons Ratio (x) = -0.25071 0.31988
# Poissons Ratio (y) = -0.33623 0.66704
# Poissons Ratio (z) = 0.18676 0.29040
#
# Static dielectric constant tensor:
#      x y z
#    x 2.179990 0.000000 0.023820 
#    y 0.000000 2.199010 0.000000 
#    z 0.023820 0.000000 2.118960 
# 
# From -- ./inp_files/35783.got.cif
#   From: 2010.05.17/outbox.cif.g08.bks.cpg/sg14_18_cif.got.tgz:35783.got - 2010.06.03 17:49:19.
