data_PCOD9249395
_publ_section_title
;
Structure prediction by ZEFSAII (Michael W. Deem and Ramdas Pophale) SiO2 
 PCOD9249395
Probable space group: P 21/C
;
_chemical_formula_sum "Si O2"
_cell_formula_units_Z 32
_cell_length_a 7.001403
_cell_length_b 14.671817
_cell_length_c 18.800808
_cell_angle_alpha 90.000000
_cell_angle_beta 41.011283
_cell_angle_gamma 90.000000
_cell_volume 1267.321413
_symmetry_space_group_name_H-M "P 21/C"
_symmetry_group_IT_number 14
_symmetry_cell_setting 'monoclinic'
loop_
_space_group_symop_operation_xyz
x,y,z
-x,1/2+y,1/2-z
-x,-y,-z
x,1/2-y,1/2+z
loop_
_atom_site_type_symbol
_atom_site_label
_atom_site_fract_x
_atom_site_fract_y
_atom_site_fract_z
Si Si1 0.267475 0.368122 0.952836
Si Si2 0.350301 0.653006 0.736167
Si Si3 0.271735 0.919396 0.485462
Si Si4 0.377134 0.667239 0.283436
Si Si5 0.218792 0.077477 0.994503
Si Si6 0.517258 0.595129 0.433542
Si Si7 0.741708 0.792572 0.385393
Si Si8 0.868691 0.545305 0.215756
O O1 0.525404 0.345363 0.825910
O O2 0.966735 0.362606 0.991937
O O3 0.282528 0.475938 0.961685
O O4 0.268817 0.310576 0.025558
O O5 0.403588 0.723816 0.784523
O O6 0.642724 0.629501 0.611342
O O7 0.213738 0.554102 0.791823
O O8 0.081466 0.702696 0.771098
O O9 0.586304 0.877393 0.393266
O O10 0.162748 0.920448 0.598291
O O11 0.618316 0.612884 0.258829
O O12 0.069626 0.623856 0.392768
O O13 0.461781 0.088633 0.987842
O O14 0.245422 0.965899 0.979989
O O15 0.564837 0.703364 0.411302
O O16 0.806485 0.549345 0.316590
#
# Coordination Sequence:
#
# PCOD9249395 Si02
#       8
#     4   4   4   4   4   4   4   4
#     4  10  23  43  70 106 139 177 244 287 361 421
#     4  11  24  42  73 100 135 189 240 283 358 436
#     4  10  23  43  71 107 140 182 231 309 349 425
#     4  11  24  45  73 100 140 193 227 302 358 423
#     4  10  23  45  69  97 142 182 233 290 349 426
#     4  10  23  41  63 100 137 179 234 285 337 435
#     4  12  23  42  74 104 139 189 232 293 359 415
#     4  10  24  46  65 104 146 177 238 297 354 424
#
# _framework density 25.250105000000001
#
# number of rings (size 3 to 8) (size 9 to 14) (size 15 to 20)
#    0.000    1.500    2.500    1.125    1.750    6.000 
#    6.750    0.000    2.750    0.000    0.000    0.000 
#    0.000    0.000    0.000    0.000    0.000    0.000 
#
# Total GULP energy -178748.036041 kJ/mol
# GULP energy per Si atom -5585.876126 kJ/mol
# Density = 2.519263 g / cm^3
# Si number density = 25.250105 Si / 1000 Ang^3
#
#
#
# Elastic Constant Matrix: (Units=GPa)
#
#
# Indices 1 2 3 4 5 6 
#
# 1 55.5352 33.8327 35.6384 0.0000 -2.2746 0.0000
# 2 33.8327 136.0813 40.7181 0.0000 -0.7634 0.0000
# 3 35.6384 40.7181 155.4267 0.0000 -5.1700 0.0000
# 4 0.0000 0.0000 0.0000 43.8888 0.0000 -1.9747
# 5 -2.2746 -0.7634 -5.1700 0.0000 39.3368 0.0000
# 6 0.0000 0.0000 0.0000 -1.9747 0.0000 33.7628
#
#
#
# Elastic Compliance Matrix: (Units=1/GPa)
#
#
# Indices 1 2 3 4 5 6 
#
# 1 0.023506 -0.004595 -0.004162 0.000000 0.000723 0.000000
# 2 -0.004595 0.008872 -0.001279 0.000000 -0.000262 0.000000
# 3 -0.004162 -0.001279 0.007748 0.000000 0.000753 0.000000
# 4 0.000000 0.000000 0.000000 0.022845 0.000000 0.001336
# 5 0.000723 -0.000262 0.000753 0.000000 0.025557 0.000000
# 6 0.000000 0.000000 0.000000 0.001336 0.000000 0.029697
#
#
# Mechanical properties :
#
#
# Convention : Reuss Voigt Hill
#
# Bulk Modulus (GPa) = 49.86425 63.04684 56.45554
# Shear Modulus (GPa) = 34.48677 39.18796 36.83736
#
# Velocity S-wave (km/s) = 3.69969 3.94381 3.82370
# Velocity P-wave (km/s) = 6.16776 6.76471 6.47312
#
# Compressibility (1/GPa) = 0.02005445
#
# Stress axis : x y z
#
# Youngs Moduli (GPa) = 42.54178 112.71074 129.05755
#
# Poissons Ratio (x) = 0.51787 0.53715
# Poissons Ratio (y) = 0.19547 0.16513
# Poissons Ratio (z) = 0.17706 0.14421
#
# Static dielectric constant tensor:
#      x y z
#    x 2.071150 0.000000 0.077570 
#    y 0.000000 2.089310 0.000000 
#    z 0.077570 0.000000 2.002530 
# 
# From -- ./inp_files/72441.got.cif
#   From: 2010.05.17/outbox.cif.g08.bks.cpg/sg14_37_cif.got.tgz:72441.got - 2010.06.03 17:49:19.
