data_PCOD9249579
_publ_section_title
;
Structure prediction by ZEFSAII (Michael W. Deem and Ramdas Pophale) SiO2 
 PCOD9249579
Probable space group: P 21/C
;
_chemical_formula_sum "Si O2"
_cell_formula_units_Z 28
_cell_length_a 16.357760
_cell_length_b 14.585454
_cell_length_c 4.872427
_cell_angle_alpha 90.000000
_cell_angle_beta 66.420630
_cell_angle_gamma 90.000000
_cell_volume 1065.429767
_symmetry_space_group_name_H-M "P 21/C"
_symmetry_group_IT_number 14
_symmetry_cell_setting 'monoclinic'
loop_
_space_group_symop_operation_xyz
x,y,z
-x,1/2+y,1/2-z
-x,-y,-z
x,1/2-y,1/2+z
loop_
_atom_site_type_symbol
_atom_site_label
_atom_site_fract_x
_atom_site_fract_y
_atom_site_fract_z
Si Si1 0.737086 0.688720 0.712099
Si Si2 0.010448 0.582983 0.695303
Si Si3 0.580514 0.562033 0.009593
Si Si4 0.703652 0.425967 0.569873
Si Si5 0.839822 0.302201 0.721220
Si Si6 0.545025 0.315024 0.501499
Si Si7 0.849448 0.950737 0.735514
O O1 0.743925 0.778859 0.514940
O O2 0.638735 0.644961 0.797808
O O3 0.814277 0.617450 0.519995
O O4 0.060553 0.664981 0.478208
O O5 0.083386 0.536286 0.797873
O O6 0.000000 0.500000 0.500000
O O7 0.915406 0.605928 0.952115
O O8 0.654932 0.484609 0.873154
O O9 0.500000 0.500000 0.000000
O O10 0.535030 0.613452 0.328856
O O11 0.770684 0.367544 0.665112
O O12 0.633863 0.366839 0.487473
O O13 0.757488 0.496105 0.299077
O O14 0.826953 0.210262 0.559097
O O15 0.542195 0.275695 0.199561
#
# Coordination Sequence:
#
# PCOD9249579 Si02
#       7
#     4   4   4   4   4   4   4
#     4  11  24  42  64  95 131 168 212 269 321 376
#     4  10  23  42  67  89 129 171 215 260 319 384
#     4   9  20  42  65  94 126 172 213 257 313 386
#     4   9  20  42  63  91 127 168 212 256 317 379
#     4  11  25  42  65  95 127 164 210 266 316 370
#     4  11  22  40  64  93 128 164 207 263 313 368
#     4   9  22  42  61  92 124 172 214 260 315 388
#
# _framework density 26.280473000000001
#
# number of rings (size 3 to 8) (size 9 to 14) (size 15 to 20)
#    0.000    2.000    0.000    1.714    8.000    1.143 
#    2.571   17.143    0.000    0.000    0.000    0.000 
#    0.000    0.000    0.000    0.000    0.000    0.000 
#
# Total GULP energy -156354.122913 kJ/mol
# GULP energy per Si atom -5584.075818 kJ/mol
# Density = 2.622066 g / cm^3
# Si number density = 26.280473 Si / 1000 Ang^3
#
#
#
# Elastic Constant Matrix: (Units=GPa)
#
#
# Indices 1 2 3 4 5 6 
#
# 1 89.7596 27.0200 53.5397 0.0000 -27.2811 0.0000
# 2 27.0200 68.4511 16.8444 0.0000 -22.2650 0.0000
# 3 53.5397 16.8444 81.8278 0.0000 -32.3155 0.0000
# 4 0.0000 0.0000 0.0000 52.1530 0.0000 -16.4535
# 5 -27.2811 -22.2650 -32.3155 0.0000 48.1062 0.0000
# 6 0.0000 0.0000 0.0000 -16.4535 0.0000 23.7136
#
#
#
# Elastic Compliance Matrix: (Units=1/GPa)
#
#
# Indices 1 2 3 4 5 6 
#
# 1 0.019754 -0.004519 -0.011428 0.000000 0.001434 0.000000
# 2 -0.004519 0.018249 0.002074 0.000000 0.007277 0.000000
# 3 -0.011428 0.002074 0.023262 0.000000 0.010105 0.000000
# 4 0.000000 0.000000 0.000000 0.024548 0.000000 0.017032
# 5 0.001434 0.007277 0.010105 0.000000 0.031757 0.000000
# 6 0.000000 0.000000 0.000000 0.017032 0.000000 0.053988
#
#
# Mechanical properties :
#
#
# Convention : Reuss Voigt Hill
#
# Bulk Modulus (GPa) = 29.83435 48.31633 39.07534
# Shear Modulus (GPa) = 23.75558 34.30351 29.02955
#
# Velocity S-wave (km/s) = 3.00980 3.61679 3.32717
# Velocity P-wave (km/s) = 4.84308 5.98885 5.44618
#
# Compressibility (1/GPa) = 0.03351841
#
# Stress axis : x y z
#
# Youngs Moduli (GPa) = 50.62342 54.79666 42.98819
#
# Poissons Ratio (x) = 0.24761 0.49128
# Poissons Ratio (y) = 0.22876 -0.08915
# Poissons Ratio (z) = 0.57854 -0.11363
#
# Static dielectric constant tensor:
#      x y z
#    x -1.590750 0.000000 -0.487600 
#    y 0.000000 2.086840 0.000000 
#    z -0.487600 0.000000 1.996940 
# 
# From -- ./inp_files/4173.got.cif
#   From: 2010.05.17/outbox.cif.g08.bks.cpg/sg14_3_cif.got.tgz:4173.got - 2010.06.03 17:49:19.
