data_PCOD9249001
_publ_section_title
;
Structure prediction by ZEFSAII (Michael W. Deem and Ramdas Pophale) SiO2 
 PCOD9249001
Probable space group: P 21/C
;
_chemical_formula_sum "Si O2"
_cell_formula_units_Z 18
_cell_length_a 11.907872
_cell_length_b 7.543408
_cell_length_c 9.472043
_cell_angle_alpha 90.000000
_cell_angle_beta 55.212247
_cell_angle_gamma 90.000000
_cell_volume 698.766377
_symmetry_space_group_name_H-M "P 21/C"
_symmetry_group_IT_number 14
_symmetry_cell_setting 'monoclinic'
loop_
_space_group_symop_operation_xyz
x,y,z
-x,1/2+y,1/2-z
-x,-y,-z
x,1/2-y,1/2+z
loop_
_atom_site_type_symbol
_atom_site_label
_atom_site_fract_x
_atom_site_fract_y
_atom_site_fract_z
Si Si1 0.270238 0.080936 0.494314
Si Si2 0.530480 0.126250 0.108652
Si Si3 0.988512 0.168973 0.611826
Si Si4 0.185643 0.824520 0.989586
Si Si5 0.500000 0.500000 0.000000
O O1 0.404652 0.121474 0.304963
O O2 0.142476 0.207669 0.553597
O O3 0.219111 0.885262 0.487744
O O4 0.340284 0.086996 0.596189
O O5 0.553486 0.316309 0.025250
O O6 0.665447 0.083933 0.105088
O O7 0.500000 0.000000 0.000000
O O8 0.905732 0.320780 0.586225
O O9 0.902623 0.120134 0.812028
O O10 0.000000 0.000000 0.500000
#
# Coordination Sequence:
#
# PCOD9249001 Si02
#       5
#     4   4   4   4   2
#     4  10  24  43  71 104 150 197 258 314 389 464
#     4  11  24  44  76 104 150 198 254 320 381 461
#     4  10  22  45  69 103 154 201 251 324 398 461
#     4  10  23  44  72 105 154 198 264 322 389 470
#     4  10  26  42  70 108 146 188 260 296 394 450
#
# _framework density 25.759682000000002
#
# number of rings (size 3 to 8) (size 9 to 14) (size 15 to 20)
#    0.000    1.778    0.000    2.667   15.556    0.000 
#    0.000    4.444    0.000    0.000    0.000    0.000 
#    0.000    0.000    0.000    0.000    0.000    0.000 
#
# Total GULP energy -100232.497643 kJ/mol
# GULP energy per Si atom -5568.472091 kJ/mol
# Density = 2.570105 g / cm^3
# Si number density = 25.759682 Si / 1000 Ang^3
#
#
#
# Elastic Constant Matrix: (Units=GPa)
#
#
# Indices 1 2 3 4 5 6 
#
# 1 306.8976 27.7619 51.5992 0.0000 -17.3603 0.0000
# 2 27.7619 72.0777 29.8310 0.0000 1.2170 0.0000
# 3 51.5992 29.8310 121.4581 0.0000 -15.4683 0.0000
# 4 0.0000 0.0000 0.0000 6.6912 0.0000 -36.3783
# 5 -17.3603 1.2170 -15.4683 0.0000 39.2123 0.0000
# 6 0.0000 0.0000 0.0000 -36.3783 0.0000 -24.6693
#
#
#
# Elastic Compliance Matrix: (Units=1/GPa)
#
#
# Indices 1 2 3 4 5 6 
#
# 1 0.003603 -0.000930 -0.001153 0.000000 0.001169 0.000000
# 2 -0.000930 0.015847 -0.003803 0.000000 -0.002404 0.000000
# 3 -0.001153 -0.003803 0.010115 0.000000 0.003598 0.000000
# 4 0.000000 0.000000 0.000000 0.016574 0.000000 -0.024440
# 5 0.001169 -0.002404 0.003598 0.000000 0.027514 0.000000
# 6 0.000000 0.000000 0.000000 -0.024440 0.000000 -0.004495
#
#
# Mechanical properties :
#
#
# Convention : Reuss Voigt Hill
#
# Bulk Modulus (GPa) = 56.20475 79.86861 68.03668
# Shear Modulus (GPa) = 57.56382 30.32958 43.94670
#
# Velocity S-wave (km/s) = 4.73233 3.43506 4.13489
# Velocity P-wave (km/s) = 7.19210 6.84145 7.01896
#
# Compressibility (1/GPa) = 0.01779209
#
# Stress axis : x y z
#
# Youngs Moduli (GPa) = 277.58064 63.10450 98.85840
#
# Poissons Ratio (x) = 0.05869 0.11400
# Poissons Ratio (y) = 0.25816 0.37597
# Poissons Ratio (z) = 0.32010 0.23999
#
# Static dielectric constant tensor:
#      x y z
#    x 2.182350 0.000000 0.097420 
#    y 0.000000 1.802870 0.000000 
#    z 0.097420 0.000000 2.171700 
# 
# From -- ./inp_files/11572.got.cif
#   From: 2010.05.17/outbox.cif.g08.bks.cpg/sg14_6_cif.got.tgz:11572.got - 2010.06.03 17:49:19.
