data_PCOD9249061
_publ_section_title
;
Structure prediction by ZEFSAII (Michael W. Deem and Ramdas Pophale) SiO2 
 PCOD9249061
Probable space group: P 21/C
;
_chemical_formula_sum "Si O2"
_cell_formula_units_Z 28
_cell_length_a 7.931701
_cell_length_b 15.061313
_cell_length_c 11.485420
_cell_angle_alpha 90.000000
_cell_angle_beta 116.467778
_cell_angle_gamma 90.000000
_cell_volume 1228.256073
_symmetry_space_group_name_H-M "P 21/C"
_symmetry_group_IT_number 14
_symmetry_cell_setting 'monoclinic'
loop_
_space_group_symop_operation_xyz
x,y,z
-x,1/2+y,1/2-z
-x,-y,-z
x,1/2-y,1/2+z
loop_
_atom_site_type_symbol
_atom_site_label
_atom_site_fract_x
_atom_site_fract_y
_atom_site_fract_z
Si Si1 0.590534 0.822509 0.760595
Si Si2 0.252856 0.099533 0.872495
Si Si3 0.892453 0.911441 0.431442
Si Si4 0.611055 0.499858 0.392745
Si Si5 0.536713 0.897518 0.491710
Si Si6 0.687429 0.339475 0.264873
Si Si7 0.078159 0.272164 0.476994
O O1 0.596638 0.855748 0.631336
O O2 0.457013 0.736515 0.733760
O O3 0.524425 0.907219 0.819160
O O4 0.799635 0.799819 0.872669
O O5 0.142460 0.090089 0.717888
O O6 0.465380 0.067766 0.909872
O O7 0.223244 0.196672 0.918825
O O8 0.219716 0.029948 0.969118
O O9 0.694275 0.897652 0.438555
O O10 0.994456 0.825750 0.514890
O O11 0.000000 0.000000 0.500000
O O12 0.663351 0.440955 0.299125
O O13 0.356267 0.845269 0.385602
O O14 0.500000 0.000000 0.500000
O O15 0.892360 0.319058 0.374841
#
# Coordination Sequence:
#
# PCOD9249061 Si02
#       7
#     4   4   4   4   4   4   4
#     4  11  25  48  76 108 153 193 255 308 373 443
#     4  10  23  46  70 102 143 185 244 297 365 438
#     4  12  28  46  71 105 151 192 244 305 370 440
#     4  10  22  45  78  99 143 195 237 304 370 435
#     4  12  26  48  76 105 146 197 240 310 370 438
#     4  12  26  46  74 114 145 194 251 302 372 445
#     4  11  28  45  74 108 145 195 247 303 370 440
#
# _framework density 22.79655
#
# number of rings (size 3 to 8) (size 9 to 14) (size 15 to 20)
#    0.000    0.857    4.286    0.000   10.000    4.571 
#    0.000    0.000    0.000    0.000    0.000    0.000 
#    0.000    0.000    0.000    0.000    0.000    0.000 
#
# Total GULP energy -156110.429308 kJ/mol
# GULP energy per Si atom -5575.372475 kJ/mol
# Density = 2.274466 g / cm^3
# Si number density = 22.796550 Si / 1000 Ang^3
#
#
#
# Elastic Constant Matrix: (Units=GPa)
#
#
# Indices 1 2 3 4 5 6 
#
# 1 29.3922 25.5850 38.4878 0.0000 11.2364 0.0000
# 2 25.5850 148.0176 72.3808 0.0000 -9.2346 0.0000
# 3 38.4878 72.3808 188.7598 0.0000 -7.8881 0.0000
# 4 0.0000 0.0000 0.0000 35.7730 0.0000 -2.6072
# 5 11.2364 -9.2346 -7.8881 0.0000 31.2813 0.0000
# 6 0.0000 0.0000 0.0000 -2.6072 0.0000 36.6876
#
#
#
# Elastic Compliance Matrix: (Units=1/GPa)
#
#
# Indices 1 2 3 4 5 6 
#
# 1 0.068006 -0.007659 -0.012173 0.000000 -0.029759 0.000000
# 2 -0.007659 0.009265 -0.001780 0.000000 0.005037 0.000000
# 3 -0.012173 -0.001780 0.008715 0.000000 0.006045 0.000000
# 4 0.000000 0.000000 0.000000 0.028100 0.000000 0.001997
# 5 -0.029759 0.005037 0.006045 0.000000 0.045669 0.000000
# 6 0.000000 0.000000 0.000000 0.001997 0.000000 0.027399
#
#
# Mechanical properties :
#
#
# Convention : Reuss Voigt Hill
#
# Bulk Modulus (GPa) = 23.38578 71.00853 47.19716
# Shear Modulus (GPa) = 20.43890 36.06278 28.25084
#
# Velocity S-wave (km/s) = 2.99754 3.98168 3.52413
# Velocity P-wave (km/s) = 4.71816 7.23566 6.10802
#
# Compressibility (1/GPa) = 0.04276102
#
# Stress axis : x y z
#
# Youngs Moduli (GPa) = 14.70459 107.93647 114.74297
#
# Poissons Ratio (x) = 0.82667 1.39677
# Poissons Ratio (y) = 0.11262 0.20430
# Poissons Ratio (z) = 0.17900 0.19218
#
# Static dielectric constant tensor:
#      x y z
#    x 1.977460 0.000000 -0.006200 
#    y 0.000000 1.869410 0.000000 
#    z -0.006200 0.000000 1.903430 
# 
# From -- ./inp_files/25351.got.cif
#   From: 2010.05.17/outbox.cif.g08.bks.cpg/sg14_13_cif.got.tgz:25351.got - 2010.06.03 17:49:19.
