data_PCOD9249099
_publ_section_title
;
Structure prediction by ZEFSAII (Michael W. Deem and Ramdas Pophale) SiO2 
 PCOD9249099
Probable space group: P 21/C
;
_chemical_formula_sum "Si O2"
_cell_formula_units_Z 26
_cell_length_a 17.006383
_cell_length_b 12.711681
_cell_length_c 9.864844
_cell_angle_alpha 90.000000
_cell_angle_beta 149.053773
_cell_angle_gamma 90.000000
_cell_volume 1096.643402
_symmetry_space_group_name_H-M "P 21/C"
_symmetry_group_IT_number 14
_symmetry_cell_setting 'monoclinic'
loop_
_space_group_symop_operation_xyz
x,y,z
-x,1/2+y,1/2-z
-x,-y,-z
x,1/2-y,1/2+z
loop_
_atom_site_type_symbol
_atom_site_label
_atom_site_fract_x
_atom_site_fract_y
_atom_site_fract_z
Si Si1 0.232945 0.946765 0.815993
Si Si2 0.150078 0.482693 0.634312
Si Si3 0.926513 0.628976 0.763573
Si Si4 0.500000 0.000000 0.000000
Si Si5 0.693570 0.809577 0.455980
Si Si6 0.619869 0.097699 0.682068
Si Si7 0.479931 0.192061 0.063701
O O1 0.105112 0.872441 0.561023
O O2 0.152163 0.058020 0.734735
O O3 0.292857 0.902895 0.046046
O O4 0.378096 0.965473 0.939329
O O5 0.103331 0.428678 0.422563
O O6 0.255303 0.401325 0.869963
O O7 0.251770 0.581922 0.741204
O O8 0.000000 0.500000 0.500000
O O9 0.839044 0.739340 0.629441
O O10 0.582464 0.090919 0.230100
O O11 0.591009 0.734851 0.402698
O O12 0.624812 0.861321 0.215231
O O13 0.533076 0.207386 0.557749
O O14 0.500000 0.000000 0.500000
#
# Coordination Sequence:
#
# PCOD9249099 Si02
#       7
#     4   4   4   2   4   4   4
#     4  10  23  42  69  98 140 182 234 295 357 413
#     4  11  26  44  76 105 139 186 246 297 359 431
#     4  10  22  46  68  99 142 188 232 294 359 435
#     4  12  26  40  68 110 134 180 240 294 352 434
#     4  12  23  46  72 103 140 195 227 291 370 429
#     4  11  23  47  71 101 141 191 235 296 354 424
#     4  12  26  42  73 103 144 187 238 293 361 428
#
# _framework density 23.708708999999999
#
# number of rings (size 3 to 8) (size 9 to 14) (size 15 to 20)
#    0.000    0.923    4.615    1.846    2.154    2.462 
#    2.769    0.000    0.000    0.000    0.000    0.000 
#    0.000    0.000    0.000    0.000    0.000    0.000 
#
# Total GULP energy -145047.381527 kJ/mol
# GULP energy per Si atom -5578.745443 kJ/mol
# Density = 2.365475 g / cm^3
# Si number density = 23.708709 Si / 1000 Ang^3
#
#
#
# Elastic Constant Matrix: (Units=GPa)
#
#
# Indices 1 2 3 4 5 6 
#
# 1 155.5765 18.9932 19.5793 0.0000 -5.4279 0.0000
# 2 18.9932 79.4112 -8.8628 0.0000 -2.5338 0.0000
# 3 19.5793 -8.8628 82.7430 0.0000 -37.7385 0.0000
# 4 0.0000 0.0000 0.0000 23.3623 0.0000 1.5406
# 5 -5.4279 -2.5338 -37.7385 0.0000 34.1812 0.0000
# 6 0.0000 0.0000 0.0000 1.5406 0.0000 36.4198
#
#
#
# Elastic Compliance Matrix: (Units=1/GPa)
#
#
# Indices 1 2 3 4 5 6 
#
# 1 0.006965 -0.002059 -0.002888 0.000000 -0.002235 0.000000
# 2 -0.002059 0.013782 0.004593 0.000000 0.005766 0.000000
# 3 -0.002888 0.004593 0.026604 0.000000 0.029254 0.000000
# 4 0.000000 0.000000 0.000000 0.042924 0.000000 -0.001816
# 5 -0.002235 0.005766 0.029254 0.000000 0.061627 0.000000
# 6 0.000000 0.000000 0.000000 -0.001816 0.000000 0.027534
#
#
# Mechanical properties :
#
#
# Convention : Reuss Voigt Hill
#
# Bulk Modulus (GPa) = 21.44008 41.90558 31.67283
# Shear Modulus (GPa) = 25.55048 37.99409 31.77229
#
# Velocity S-wave (km/s) = 3.28637 4.00751 3.66472
# Velocity P-wave (km/s) = 4.84387 6.25517 5.59420
#
# Compressibility (1/GPa) = 0.04664161
#
# Stress axis : x y z
#
# Youngs Moduli (GPa) = 143.58305 72.55918 37.58873
#
# Poissons Ratio (x) = 0.14943 0.10856
# Poissons Ratio (y) = 0.29570 -0.17266
# Poissons Ratio (z) = 0.41470 -0.33329
#
# Static dielectric constant tensor:
#      x y z
#    x 1.916080 0.000000 0.025090 
#    y 0.000000 0.598190 0.000000 
#    z 0.025090 0.000000 1.862540 
# 
# From -- ./inp_files/16444.got.cif
#   From: 2010.05.17/outbox.cif.g08.bks.cpg/sg14_9_cif.got.tgz:16444.got - 2010.06.03 17:49:19.
