data_PCOD9249762
_publ_section_title
;
Structure prediction by ZEFSAII (Michael W. Deem and Ramdas Pophale) SiO2 
 PCOD9249762
Probable space group: P 21/C
;
_chemical_formula_sum "Si O2"
_cell_formula_units_Z 28
_cell_length_a 17.395365
_cell_length_b 5.712245
_cell_length_c 15.150931
_cell_angle_alpha 90.000000
_cell_angle_beta 56.414425
_cell_angle_gamma 90.000000
_cell_volume 1254.169558
_symmetry_space_group_name_H-M "P 21/C"
_symmetry_group_IT_number 14
_symmetry_cell_setting 'monoclinic'
loop_
_space_group_symop_operation_xyz
x,y,z
-x,1/2+y,1/2-z
-x,-y,-z
x,1/2-y,1/2+z
loop_
_atom_site_type_symbol
_atom_site_label
_atom_site_fract_x
_atom_site_fract_y
_atom_site_fract_z
Si Si1 0.041109 0.287693 0.530376
Si Si2 0.452261 0.212909 0.759154
Si Si3 0.587500 0.848843 0.414743
Si Si4 0.868901 0.803470 0.343894
Si Si5 0.674116 0.567436 0.508508
Si Si6 0.247825 0.811574 0.648176
Si Si7 0.132589 0.461260 0.830862
O O1 0.069595 0.285101 0.614784
O O2 0.132423 0.200792 0.417958
O O3 0.000000 0.500000 0.500000
O O4 0.951141 0.126388 0.590908
O O5 0.486653 0.469837 0.771823
O O6 0.430200 0.248002 0.670839
O O7 0.365501 0.133179 0.872550
O O8 0.603093 0.653410 0.478944
O O9 0.500000 0.000000 0.500000
O O10 0.681625 0.004112 0.353892
O O11 0.768510 0.703253 0.431944
O O12 0.898568 0.692231 0.232782
O O13 0.844626 0.072017 0.334457
O O14 0.697712 0.302061 0.468734
O O15 0.217230 0.616197 0.739747
#
# Coordination Sequence:
#
# PCOD9249762 Si02
#       7
#     4   4   4   4   4   4   4
#     4  11  25  42  70 101 138 177 236 289 355 442
#     4  12  27  43  70 105 140 188 243 300 365 434
#     4  11  23  44  70  98 142 186 239 300 357 438
#     4  10  24  43  68  97 139 182 228 294 355 430
#     4  10  24  43  67 101 135 188 234 292 359 423
#     4  10  23  43  68  99 143 186 236 293 360 433
#     4  10  24  41  66 102 132 184 226 285 362 419
#
# _framework density 22.325531000000002
#
# number of rings (size 3 to 8) (size 9 to 14) (size 15 to 20)
#    0.000    1.429    1.429    1.714    8.000   10.286 
#    0.000    0.000    0.000    0.000    0.000    0.000 
#    0.000    0.000    0.000    0.000    0.000    0.000 
#
# Total GULP energy -156113.428067 kJ/mol
# GULP energy per Si atom -5575.479574 kJ/mol
# Density = 2.227472 g / cm^3
# Si number density = 22.325531 Si / 1000 Ang^3
#
#
#
# Elastic Constant Matrix: (Units=GPa)
#
#
# Indices 1 2 3 4 5 6 
#
# 1 58.6654 13.8260 -3.2203 0.0000 8.8345 0.0000
# 2 13.8260 66.0798 2.1162 0.0000 -0.8797 0.0000
# 3 -3.2203 2.1162 100.1906 0.0000 2.8237 0.0000
# 4 0.0000 0.0000 0.0000 38.0211 0.0000 -10.1790
# 5 8.8345 -0.8797 2.8237 0.0000 33.0315 0.0000
# 6 0.0000 0.0000 0.0000 -10.1790 0.0000 15.3320
#
#
#
# Elastic Compliance Matrix: (Units=1/GPa)
#
#
# Indices 1 2 3 4 5 6 
#
# 1 0.018828 -0.004036 0.000837 0.000000 -0.005215 0.000000
# 2 -0.004036 0.016015 -0.000512 0.000000 0.001550 0.000000
# 3 0.000837 -0.000512 0.010050 0.000000 -0.001097 0.000000
# 4 0.000000 0.000000 0.000000 0.031986 0.000000 0.021236
# 5 -0.005215 0.001550 -0.001097 0.000000 0.031804 0.000000
# 6 0.000000 0.000000 0.000000 0.021236 0.000000 0.079322
#
#
# Mechanical properties :
#
#
# Convention : Reuss Voigt Hill
#
# Bulk Modulus (GPa) = 26.68620 27.81994 27.25307
# Shear Modulus (GPa) = 24.04821 31.42451 27.73636
#
# Velocity S-wave (km/s) = 3.28557 3.75582 3.52854
# Velocity P-wave (km/s) = 5.13542 5.59431 5.36977
#
# Compressibility (1/GPa) = 0.03747256
#
# Stress axis : x y z
#
# Youngs Moduli (GPa) = 53.11173 62.44289 99.50640
#
# Poissons Ratio (x) = 0.25200 -0.08333
# Poissons Ratio (y) = 0.21434 0.05091
# Poissons Ratio (z) = -0.04448 0.03195
#
# Static dielectric constant tensor:
#      x y z
#    x 1.838100 0.000000 -0.003100 
#    y 0.000000 2.135960 0.000000 
#    z -0.003100 0.000000 1.806370 
# 
# From -- ./inp_files/47895.got.cif
#   From: 2010.05.17/outbox.cif.g08.bks.cpg/sg14_24_cif.got.tgz:47895.got - 2010.06.03 17:49:19.
