data_PCOD9249527
_publ_section_title
;
Structure prediction by ZEFSAII (Michael W. Deem and Ramdas Pophale) SiO2 
 PCOD9249527
Probable space group: P 21/C
;
_chemical_formula_sum "Si O2"
_cell_formula_units_Z 30
_cell_length_a 15.087659
_cell_length_b 11.135572
_cell_length_c 18.664566
_cell_angle_alpha 90.000000
_cell_angle_beta 158.751755
_cell_angle_gamma 90.000000
_cell_volume 1136.453964
_symmetry_space_group_name_H-M "P 21/C"
_symmetry_group_IT_number 14
_symmetry_cell_setting 'monoclinic'
loop_
_space_group_symop_operation_xyz
x,y,z
-x,1/2+y,1/2-z
-x,-y,-z
x,1/2-y,1/2+z
loop_
_atom_site_type_symbol
_atom_site_label
_atom_site_fract_x
_atom_site_fract_y
_atom_site_fract_z
Si Si1 0.948858 0.463979 0.583585
Si Si2 0.275003 0.957550 0.595977
Si Si3 0.455978 0.262024 0.536447
Si Si4 0.960576 0.268436 0.009555
Si Si5 0.656025 0.020446 0.002918
Si Si6 0.300820 0.172546 0.154437
Si Si7 0.500000 0.000000 0.500000
Si Si8 0.060104 0.326262 0.851237
O O1 0.216215 0.508567 0.771828
O O2 0.925079 0.326689 0.545846
O O3 0.872408 0.498224 0.606521
O O4 0.776149 0.533715 0.397879
O O5 0.043532 0.899910 0.460254
O O6 0.432028 0.849105 0.677733
O O7 0.191241 0.050619 0.474256
O O8 0.434957 0.023122 0.778220
O O9 0.714641 0.261197 0.775371
O O10 0.399297 0.406463 0.487698
O O11 0.472855 0.152276 0.493759
O O12 0.218230 0.221780 0.404388
O O13 0.210579 0.237400 0.157262
O O14 0.773040 0.139241 0.127442
O O15 0.128190 0.234649 0.965447
#
# Coordination Sequence:
#
# PCOD9249527 Si02
#       8
#     4   4   4   4   4   4   2   4
#     4  11  22  39  67 101 129 175 225 292 342 407
#     4  10  25  43  64  99 135 181 229 285 347 423
#     4  11  22  42  62  98 136 170 227 295 325 416
#     4  11  23  43  70  93 138 177 229 283 347 413
#     4  10  23  42  64  94 138 174 223 282 348 404
#     4  11  23  41  67  97 136 172 230 293 345 404
#     4  12  24  34  68 104 134 166 246 274 344 410
#     4  12  23  43  69  95 137 185 220 284 361 409
#
# _framework density 26.397901000000001
#
# number of rings (size 3 to 8) (size 9 to 14) (size 15 to 20)
#    0.000    1.067    6.667    2.000    3.733    0.533 
#    0.000    4.000    0.000    0.000    0.000    0.000 
#    0.000    0.000    0.000    0.000    0.000    0.000 
#
# Total GULP energy -167013.354720 kJ/mol
# GULP energy per Si atom -5567.111824 kJ/mol
# Density = 2.633782 g / cm^3
# Si number density = 26.397901 Si / 1000 Ang^3
#
#
#
# Elastic Constant Matrix: (Units=GPa)
#
#
# Indices 1 2 3 4 5 6 
#
# 1 59.2290 45.8694 26.1192 0.0000 3.7146 0.0000
# 2 45.8694 92.0585 19.5326 0.0000 6.5325 0.0000
# 3 26.1192 19.5326 79.5189 0.0000 -2.9829 0.0000
# 4 0.0000 0.0000 0.0000 44.7613 0.0000 4.2919
# 5 3.7146 6.5325 -2.9829 0.0000 12.5170 0.0000
# 6 0.0000 0.0000 0.0000 4.2919 0.0000 43.9404
#
#
#
# Elastic Compliance Matrix: (Units=1/GPa)
#
#
# Indices 1 2 3 4 5 6 
#
# 1 0.030634 -0.013546 -0.006872 0.000000 -0.003659 0.000000
# 2 -0.013546 0.018037 -0.000185 0.000000 -0.005438 0.000000
# 3 -0.006872 -0.000185 0.015093 0.000000 0.005733 0.000000
# 4 0.000000 0.000000 0.000000 0.022552 0.000000 -0.002203
# 5 -0.003659 -0.005438 0.005733 0.000000 0.085181 0.000000
# 6 0.000000 0.000000 0.000000 -0.002203 0.000000 0.022973
#
#
# Mechanical properties :
#
#
# Convention : Reuss Voigt Hill
#
# Bulk Modulus (GPa) = 44.32984 45.98318 45.15651
# Shear Modulus (GPa) = 20.55936 29.52942 25.04439
#
# Velocity S-wave (km/s) = 2.79377 3.34822 3.08348
# Velocity P-wave (km/s) = 5.21884 5.69249 5.46080
#
# Compressibility (1/GPa) = 0.02255817
#
# Stress axis : x y z
#
# Youngs Moduli (GPa) = 32.64302 55.44049 66.25409
#
# Poissons Ratio (x) = 0.75101 0.45531
# Poissons Ratio (y) = 0.44219 0.01226
# Poissons Ratio (z) = 0.22433 0.01026
#
# Static dielectric constant tensor:
#      x y z
#    x 2.144770 0.000000 -0.089080 
#    y 0.000000 2.105970 0.000000 
#    z -0.089080 0.000000 2.037910 
# 
# From -- ./inp_files/69355.got.cif
#   From: 2010.05.17/outbox.cif.g08.bks.cpg/sg14_35_cif.got.tgz:69355.got - 2010.06.03 17:49:19.
