data_PCOD9249257
_publ_section_title
;
Structure prediction by ZEFSAII (Michael W. Deem and Ramdas Pophale) SiO2 
 PCOD9249257
Probable space group: P 21/C
;
_chemical_formula_sum "Si O2"
_cell_formula_units_Z 28
_cell_length_a 8.143800
_cell_length_b 13.422148
_cell_length_c 11.286441
_cell_angle_alpha 90.000000
_cell_angle_beta 119.857879
_cell_angle_gamma 90.000000
_cell_volume 1069.933895
_symmetry_space_group_name_H-M "P 21/C"
_symmetry_group_IT_number 14
_symmetry_cell_setting 'monoclinic'
loop_
_space_group_symop_operation_xyz
x,y,z
-x,1/2+y,1/2-z
-x,-y,-z
x,1/2-y,1/2+z
loop_
_atom_site_type_symbol
_atom_site_label
_atom_site_fract_x
_atom_site_fract_y
_atom_site_fract_z
Si Si1 0.152485 0.800052 0.426211
Si Si2 0.567776 0.089950 0.301896
Si Si3 0.098969 0.463502 0.156991
Si Si4 0.558522 0.394717 0.153029
Si Si5 0.633924 0.121499 0.955282
Si Si6 0.336124 0.288727 0.528060
Si Si7 0.902229 0.540343 0.583177
O O1 0.277412 0.840181 0.581104
O O2 0.271442 0.848701 0.361732
O O3 0.180664 0.683325 0.435266
O O4 0.943587 0.845136 0.359976
O O5 0.429788 0.158746 0.177063
O O6 0.693469 0.010439 0.272419
O O7 0.468303 0.014302 0.358622
O O8 0.019904 0.490089 0.259592
O O9 0.000000 0.500000 0.000000
O O10 0.608457 0.371631 0.306669
O O11 0.372722 0.329436 0.051782
O O12 0.463486 0.173952 0.962820
O O13 0.693000 0.009133 0.003695
O O14 0.132700 0.340481 0.438550
O O15 0.000000 0.500000 0.500000
#
# Coordination Sequence:
#
# PCOD9249257 Si02
#       7
#     4   4   4   4   4   4   4
#     4  10  23  39  61  94 127 162 212 256 316 388
#     4  11  20  41  65  89 126 164 214 258 325 379
#     4  10  23  41  62  90 128 170 209 256 323 382
#     4  11  22  38  65  96 122 165 212 271 317 375
#     4  11  21  39  67  90 124 171 210 260 324 388
#     4  11  23  40  64  94 125 164 221 261 320 396
#     4  12  24  41  65  96 130 167 215 272 323 377
#
# _framework density 26.169841000000002
#
# number of rings (size 3 to 8) (size 9 to 14) (size 15 to 20)
#    0.000    1.143    4.286    2.571    0.000    1.143 
#    0.000    2.857    0.000    0.000    0.000    0.000 
#    0.000    0.000    0.000    0.000    0.000    0.000 
#
# Total GULP energy -156452.688281 kJ/mol
# GULP energy per Si atom -5587.596010 kJ/mol
# Density = 2.611028 g / cm^3
# Si number density = 26.169841 Si / 1000 Ang^3
#
#
#
# Elastic Constant Matrix: (Units=GPa)
#
#
# Indices 1 2 3 4 5 6 
#
# 1 74.1048 -11.6990 17.6235 0.0000 -5.5860 0.0000
# 2 -11.6990 89.9967 -4.0170 0.0000 19.4422 0.0000
# 3 17.6235 -4.0170 114.9453 0.0000 -17.9204 0.0000
# 4 0.0000 0.0000 0.0000 40.1349 0.0000 10.9879
# 5 -5.5860 19.4422 -17.9204 0.0000 23.8073 0.0000
# 6 0.0000 0.0000 0.0000 10.9879 0.0000 33.2226
#
#
#
# Elastic Compliance Matrix: (Units=1/GPa)
#
#
# Indices 1 2 3 4 5 6 
#
# 1 0.014282 0.001671 -0.002064 0.000000 0.000433 0.000000
# 2 0.001671 0.013893 -0.001675 0.000000 -0.012214 0.000000
# 3 -0.002064 -0.001675 0.010305 0.000000 0.008640 0.000000
# 4 0.000000 0.000000 0.000000 0.027397 0.000000 -0.009061
# 5 0.000433 -0.012214 0.008640 0.000000 0.058584 0.000000
# 6 0.000000 0.000000 0.000000 -0.009061 0.000000 0.033097
#
#
# Mechanical properties :
#
#
# Convention : Reuss Voigt Hill
#
# Bulk Modulus (GPa) = 29.11774 31.42910 30.27342
# Shear Modulus (GPa) = 28.87843 37.90890 33.39366
#
# Velocity S-wave (km/s) = 3.32550 3.81014 3.57604
# Velocity P-wave (km/s) = 5.08880 5.60285 5.35200
#
# Compressibility (1/GPa) = 0.03434333
#
# Stress axis : x y z
#
# Youngs Moduli (GPa) = 70.02003 71.98080 97.04295
#
# Poissons Ratio (x) = -0.12027 0.20027
# Poissons Ratio (y) = -0.11699 0.16254
# Poissons Ratio (z) = 0.14451 0.12056
#
# Static dielectric constant tensor:
#      x y z
#    x 2.125290 0.000000 0.006180 
#    y 0.000000 2.156630 0.000000 
#    z 0.006180 0.000000 2.082790 
# 
# From -- ./inp_files/25594.got.cif
#   From: 2010.05.17/outbox.cif.g08.bks.cpg/sg14_13_cif.got.tgz:25594.got - 2010.06.03 17:49:19.
