data_PCOD9249903
_publ_section_title
;
Structure prediction by ZEFSAII (Michael W. Deem and Ramdas Pophale) SiO2 
 PCOD9249903
Probable space group: P 21/C
;
_chemical_formula_sum "Si O2"
_cell_formula_units_Z 20
_cell_length_a 12.380209
_cell_length_b 4.862313
_cell_length_c 13.048730
_cell_angle_alpha 90.000000
_cell_angle_beta 88.930516
_cell_angle_gamma 90.000000
_cell_volume 785.350402
_symmetry_space_group_name_H-M "P 21/C"
_symmetry_group_IT_number 14
_symmetry_cell_setting 'monoclinic'
loop_
_space_group_symop_operation_xyz
x,y,z
-x,1/2+y,1/2-z
-x,-y,-z
x,1/2-y,1/2+z
loop_
_atom_site_type_symbol
_atom_site_label
_atom_site_fract_x
_atom_site_fract_y
_atom_site_fract_z
Si Si1 0.566216 0.434859 0.283333
Si Si2 0.689586 0.631667 0.467790
Si Si3 0.938325 0.621986 0.790051
Si Si4 0.755286 0.361185 0.666669
Si Si5 0.170979 0.645435 0.029591
O O1 0.508509 0.667283 0.217454
O O2 0.593320 0.556112 0.394430
O O3 0.677608 0.336708 0.229920
O O4 0.683522 0.529108 0.585036
O O5 0.793177 0.444783 0.430663
O O6 0.724371 0.946678 0.462650
O O7 0.823026 0.560107 0.737931
O O8 0.921267 0.499611 0.904124
O O9 0.977081 0.929333 0.772336
O O10 0.839123 0.195933 0.591749
#
# Coordination Sequence:
#
# PCOD9249903 Si02
#       5
#     4   4   4   4   4
#     4  12  27  43  71 105 137 180 234 281 344 407
#     4  10  23  44  69  95 136 181 224 275 345 397
#     4  12  27  43  71 105 137 180 234 281 344 407
#     4  10  26  46  72  96 144 184 218 296 334 404
#     4  10  23  44  69  95 136 181 224 275 345 397
#
# _framework density 25.466342000000001
#
# number of rings (size 3 to 8) (size 9 to 14) (size 15 to 20)
#    1.200    0.000    2.000    2.400    5.600    3.200 
#    0.000    0.000    0.000    0.000    0.000    0.000 
#    0.000    0.000    0.000    0.000    0.000    0.000 
#
# Total GULP energy -111924.114474 kJ/mol
# GULP energy per Si atom -5596.205724 kJ/mol
# Density = 2.540838 g / cm^3
# Si number density = 25.466342 Si / 1000 Ang^3
#
#
#
# Elastic Constant Matrix: (Units=GPa)
#
#
# Indices 1 2 3 4 5 6 
#
# 1 71.8337 10.0417 25.9492 0.0000 9.0990 0.0000
# 2 10.0417 86.2689 -8.8076 0.0000 3.8471 0.0000
# 3 25.9492 -8.8076 109.1647 0.0000 9.0239 0.0000
# 4 0.0000 0.0000 0.0000 28.2206 0.0000 -2.3864
# 5 9.0990 3.8471 9.0239 0.0000 39.3224 0.0000
# 6 0.0000 0.0000 0.0000 -2.3864 0.0000 43.7368
#
#
#
# Elastic Compliance Matrix: (Units=1/GPa)
#
#
# Indices 1 2 3 4 5 6 
#
# 1 0.015896 -0.002115 -0.003733 0.000000 -0.002615 0.000000
# 2 -0.002115 0.012044 0.001561 0.000000 -0.001047 0.000000
# 3 -0.003733 0.001561 0.010311 0.000000 -0.001655 0.000000
# 4 0.000000 0.000000 0.000000 0.035599 0.000000 0.001942
# 5 -0.002615 -0.001047 -0.001655 0.000000 0.026518 0.000000
# 6 0.000000 0.000000 0.000000 0.001942 0.000000 0.022970
#
#
# Mechanical properties :
#
#
# Convention : Reuss Voigt Hill
#
# Bulk Modulus (GPa) = 33.69629 35.73710 34.71669
# Shear Modulus (GPa) = 35.25971 38.26155 36.76063
#
# Velocity S-wave (km/s) = 3.72501 3.88033 3.80346
# Velocity P-wave (km/s) = 5.63572 5.84290 5.74024
#
# Compressibility (1/GPa) = 0.02967686
#
# Stress axis : x y z
#
# Youngs Moduli (GPa) = 62.90707 83.02956 96.98734
#
# Poissons Ratio (x) = 0.17560 0.36207
# Poissons Ratio (y) = 0.13304 -0.15140
# Poissons Ratio (z) = 0.23484 -0.12961
#
# Static dielectric constant tensor:
#      x y z
#    x 2.017720 0.000000 -0.017180 
#    y 0.000000 1.915770 0.000000 
#    z -0.017180 0.000000 2.020060 
# 
# From -- ./inp_files/42439.got.cif
#   From: 2010.05.17/outbox.cif.g08.bks.cpg/sg14_22_cif.got.tgz:42439.got - 2010.06.03 17:49:19.
