data_PCOD9249366
_publ_section_title
;
Structure prediction by ZEFSAII (Michael W. Deem and Ramdas Pophale) SiO2 
 PCOD9249366
Probable space group: P 21/C
;
_chemical_formula_sum "Si O2"
_cell_formula_units_Z 26
_cell_length_a 9.288237
_cell_length_b 5.144464
_cell_length_c 22.490496
_cell_angle_alpha 90.000000
_cell_angle_beta 83.255230
_cell_angle_gamma 90.000000
_cell_volume 1067.225840
_symmetry_space_group_name_H-M "P 21/C"
_symmetry_group_IT_number 14
_symmetry_cell_setting 'monoclinic'
loop_
_space_group_symop_operation_xyz
x,y,z
-x,1/2+y,1/2-z
-x,-y,-z
x,1/2-y,1/2+z
loop_
_atom_site_type_symbol
_atom_site_label
_atom_site_fract_x
_atom_site_fract_y
_atom_site_fract_z
Si Si1 0.577351 0.949879 0.403651
Si Si2 0.172800 0.380196 0.566564
Si Si3 0.000000 0.500000 0.000000
Si Si4 0.026485 0.698504 0.669522
Si Si5 0.537269 0.958742 0.714094
Si Si6 0.149022 0.694547 0.793522
Si Si7 0.320854 0.740294 0.985827
O O1 0.721773 0.775557 0.394772
O O2 0.436951 0.780149 0.428241
O O3 0.543439 0.087188 0.343905
O O4 0.602396 0.142638 0.457248
O O5 0.041145 0.221104 0.546698
O O6 0.108592 0.627975 0.604921
O O7 0.267181 0.475142 0.506002
O O8 0.823461 0.429331 0.016005
O O9 0.126691 0.675979 0.723131
O O10 0.960797 0.984101 0.673438
O O11 0.901250 0.480262 0.684045
O O12 0.550684 0.683330 0.746386
O O13 0.307745 0.596520 0.801684
#
# Coordination Sequence:
#
# PCOD9249366 Si02
#       7
#     4   4   2   4   4   4   4
#     4  10  25  43  69 100 143 186 239 290 360 427
#     4  11  23  42  71  97 137 190 232 301 354 431
#     4  10  24  42  64 108 132 172 246 284 356 426
#     4  10  23  40  71  95 139 178 232 292 355 413
#     4  12  27  46  72 104 143 190 239 292 355 432
#     4  10  23  44  63 105 133 181 234 289 350 422
#     4  10  23  45  68 101 138 186 236 297 358 425
#
# _framework density 24.362228000000002
#
# number of rings (size 3 to 8) (size 9 to 14) (size 15 to 20)
#    0.000    1.538    0.000    2.769   10.769    1.231 
#    0.000    0.000    0.000    0.000    0.000    0.000 
#    0.000    0.000    0.000    0.000    0.000    0.000 
#
# Total GULP energy -145162.252669 kJ/mol
# GULP energy per Si atom -5583.163564 kJ/mol
# Density = 2.430678 g / cm^3
# Si number density = 24.362228 Si / 1000 Ang^3
#
#
#
# Elastic Constant Matrix: (Units=GPa)
#
#
# Indices 1 2 3 4 5 6 
#
# 1 87.5770 14.2079 42.8447 0.0000 11.0675 0.0000
# 2 14.2079 60.2195 25.6432 0.0000 1.1316 0.0000
# 3 42.8447 25.6432 67.0519 0.0000 -1.3587 0.0000
# 4 0.0000 0.0000 0.0000 -0.3841 0.0000 -32.9300
# 5 11.0675 1.1316 -1.3587 0.0000 29.4069 0.0000
# 6 0.0000 0.0000 0.0000 -32.9300 0.0000 18.6609
#
#
#
# Elastic Compliance Matrix: (Units=1/GPa)
#
#
# Indices 1 2 3 4 5 6 
#
# 1 0.018119 0.001026 -0.012120 0.000000 -0.007419 0.000000
# 2 0.001026 0.019931 -0.008309 0.000000 -0.001537 0.000000
# 3 -0.012120 -0.008309 0.025959 0.000000 0.006081 0.000000
# 4 0.000000 0.000000 0.000000 -0.017096 0.000000 -0.030168
# 5 -0.007419 -0.001537 0.006081 0.000000 0.037138 0.000000
# 6 0.000000 0.000000 0.000000 -0.030168 0.000000 0.000352
#
#
# Mechanical properties :
#
#
# Convention : Reuss Voigt Hill
#
# Bulk Modulus (GPa) = 39.67887 42.24890 40.96388
# Shear Modulus (GPa) = 37.99061 18.34691 28.16876
#
# Velocity S-wave (km/s) = 3.95322 2.74722 3.40405
# Velocity P-wave (km/s) = 6.09587 5.23857 5.68341
#
# Compressibility (1/GPa) = 0.02520233
#
# Stress axis : x y z
#
# Youngs Moduli (GPa) = 55.18996 50.17313 38.52183
#
# Poissons Ratio (x) = -0.05146 0.46690
# Poissons Ratio (y) = -0.05661 0.32007
# Poissons Ratio (z) = 0.66892 0.41688
#
# Static dielectric constant tensor:
#      x y z
#    x 1.937580 0.000000 -0.022990 
#    y 0.000000 1.978060 0.000000 
#    z -0.022990 0.000000 1.926990 
# 
# From -- ./inp_files/68847.got.cif
#   From: 2010.05.17/outbox.cif.g08.bks.cpg/sg14_35_cif.got.tgz:68847.got - 2010.06.03 17:49:19.
