data_PCOD9249286
_publ_section_title
;
Structure prediction by ZEFSAII (Michael W. Deem and Ramdas Pophale) SiO2 
 PCOD9249286
Probable space group: P 21/C
;
_chemical_formula_sum "Si O2"
_cell_formula_units_Z 20
_cell_length_a 7.764306
_cell_length_b 11.889007
_cell_length_c 8.788789
_cell_angle_alpha 90.000000
_cell_angle_beta 117.980390
_cell_angle_gamma 90.000000
_cell_volume 716.458752
_symmetry_space_group_name_H-M "P 21/C"
_symmetry_group_IT_number 14
_symmetry_cell_setting 'monoclinic'
loop_
_space_group_symop_operation_xyz
x,y,z
-x,1/2+y,1/2-z
-x,-y,-z
x,1/2-y,1/2+z
loop_
_atom_site_type_symbol
_atom_site_label
_atom_site_fract_x
_atom_site_fract_y
_atom_site_fract_z
Si Si1 0.209538 0.855063 0.203564
Si Si2 0.413636 0.448980 0.627258
Si Si3 0.996959 0.312081 0.691845
Si Si4 0.192275 0.500585 0.176240
Si Si5 0.341965 0.198690 0.555859
O O1 0.069749 0.811869 0.276876
O O2 0.424534 0.815434 0.346727
O O3 0.263886 0.976573 0.160338
O O4 0.088784 0.804483 0.012334
O O5 0.500000 0.500000 0.500000
O O6 0.614317 0.435407 0.804394
O O7 0.317153 0.331165 0.559538
O O8 0.874591 0.419751 0.710715
O O9 0.210939 0.333832 0.855439
O O10 0.271668 0.372825 0.174570
O O11 0.000000 0.500000 0.000000
#
# Coordination Sequence:
#
# PCOD9249286 Si02
#       5
#     4   4   4   4   4
#     4  11  23  42  68  95 138 176 231 284 348 414
#     4  11  20  40  68  92 133 178 224 281 348 405
#     4  11  23  43  68  99 134 185 229 284 348 414
#     4   9  19  38  63  91 125 177 226 269 333 407
#     4  10  23  39  67  99 131 177 236 280 338 414
#
# _framework density 27.915075000000002
#
# number of rings (size 3 to 8) (size 9 to 14) (size 15 to 20)
#    0.000    1.600    4.000    0.000    0.000    7.200 
#    0.000    1.000    8.800    0.000    0.000    0.000 
#    0.000    0.000    0.000    0.000    0.000    0.000 
#
# Total GULP energy -111535.276812 kJ/mol
# GULP energy per Si atom -5576.763841 kJ/mol
# Density = 2.785154 g / cm^3
# Si number density = 27.915075 Si / 1000 Ang^3
#
#
#
# Elastic Constant Matrix: (Units=GPa)
#
#
# Indices 1 2 3 4 5 6 
#
# 1 108.0102 31.2673 79.1596 0.0000 19.3609 0.0000
# 2 31.2673 131.5711 29.3427 0.0000 -4.0500 0.0000
# 3 79.1596 29.3427 183.5588 0.0000 43.8407 0.0000
# 4 0.0000 0.0000 0.0000 42.3664 0.0000 1.2297
# 5 19.3609 -4.0500 43.8407 0.0000 55.3985 0.0000
# 6 0.0000 0.0000 0.0000 1.2297 0.0000 42.7462
#
#
#
# Elastic Compliance Matrix: (Units=1/GPa)
#
#
# Indices 1 2 3 4 5 6 
#
# 1 0.014076 -0.002123 -0.005572 0.000000 -0.000665 0.000000
# 2 -0.002123 0.008374 -0.000921 0.000000 0.002083 0.000000
# 3 -0.005572 -0.000921 0.009308 0.000000 -0.005486 0.000000
# 4 0.000000 0.000000 0.000000 0.023623 0.000000 -0.000680
# 5 -0.000665 0.002083 -0.005486 0.000000 0.022777 0.000000
# 6 0.000000 0.000000 0.000000 -0.000680 0.000000 0.023413
#
#
# Mechanical properties :
#
#
# Convention : Reuss Voigt Hill
#
# Bulk Modulus (GPa) = 68.83535 78.07548 73.45542
# Shear Modulus (GPa) = 40.43803 46.99359 43.71581
#
# Velocity S-wave (km/s) = 3.81019 4.10744 3.96160
# Velocity P-wave (km/s) = 6.63846 7.10805 6.87726
#
# Compressibility (1/GPa) = 0.01452742
#
# Stress axis : x y z
#
# Youngs Moduli (GPa) = 71.04396 119.41206 107.43144
#
# Poissons Ratio (x) = 0.25350 0.59861
# Poissons Ratio (y) = 0.15082 0.09890
# Poissons Ratio (z) = 0.39586 0.10993
#
# Static dielectric constant tensor:
#      x y z
#    x 2.334850 0.000000 -0.003680 
#    y 0.000000 2.242940 0.000000 
#    z -0.003680 0.000000 2.251200 
# 
# From -- ./inp_files/24331.got.cif
#   From: 2010.05.17/outbox.cif.g08.bks.cpg/sg14_13_cif.got.tgz:24331.got - 2010.06.03 17:49:19.
