data_PCOD9249460
_publ_section_title
;
Structure prediction by ZEFSAII (Michael W. Deem and Ramdas Pophale) SiO2 
 PCOD9249460
Probable space group: P 21/C
;
_chemical_formula_sum "Si O2"
_cell_formula_units_Z 28
_cell_length_a 5.869091
_cell_length_b 24.621970
_cell_length_c 8.799700
_cell_angle_alpha 90.000000
_cell_angle_beta 112.423318
_cell_angle_gamma 90.000000
_cell_volume 1175.485172
_symmetry_space_group_name_H-M "P 21/C"
_symmetry_group_IT_number 14
_symmetry_cell_setting 'monoclinic'
loop_
_space_group_symop_operation_xyz
x,y,z
-x,1/2+y,1/2-z
-x,-y,-z
x,1/2-y,1/2+z
loop_
_atom_site_type_symbol
_atom_site_label
_atom_site_fract_x
_atom_site_fract_y
_atom_site_fract_z
Si Si1 0.426850 0.587012 0.466423
Si Si2 0.442873 0.375591 0.818734
Si Si3 0.846070 0.449902 0.031799
Si Si4 0.663439 0.176145 0.830211
Si Si5 0.105782 0.488275 0.362582
Si Si6 0.223484 0.779889 0.463475
Si Si7 0.834823 0.652870 0.979441
O O1 0.544823 0.621370 0.358396
O O2 0.287265 0.622088 0.558580
O O3 0.230043 0.545119 0.344385
O O4 0.662173 0.552899 0.586898
O O5 0.601738 0.324336 0.913530
O O6 0.199046 0.364110 0.853517
O O7 0.573478 0.430994 0.914305
O O8 0.872393 0.465742 0.213008
O O9 0.006045 0.395748 0.048675
O O10 0.000000 0.500000 0.000000
O O11 0.806365 0.202736 0.721257
O O12 0.413920 0.159026 0.679362
O O13 0.665526 0.222257 0.961552
O O14 0.000000 0.500000 0.500000
O O15 0.967571 0.790058 0.484806
#
# Coordination Sequence:
#
# PCOD9249460 Si02
#       7
#     4   4   4   4   4   4   4
#     4  11  24  43  66 102 138 180 226 283 342 407
#     4  10  23  41  68  96 137 178 230 275 339 415
#     4  11  22  42  65 101 140 185 226 272 340 411
#     4  11  23  45  70  96 138 173 234 287 347 422
#     4  11  26  40  64 102 141 182 228 279 340 405
#     4  10  24  43  69 100 129 177 227 287 348 413
#     4  10  24  43  68 100 133 180 226 286 343 411
#
# _framework density 23.819949999999999
#
# number of rings (size 3 to 8) (size 9 to 14) (size 15 to 20)
#    0.000    1.429    2.857    0.857    8.000    2.857 
#    0.000    2.857    0.000    0.000    0.000    0.000 
#    0.000    0.000    0.000    0.000    0.000    0.000 
#
# Total GULP energy -156133.219868 kJ/mol
# GULP energy per Si atom -5576.186424 kJ/mol
# Density = 2.376573 g / cm^3
# Si number density = 23.819950 Si / 1000 Ang^3
#
#
#
# Elastic Constant Matrix: (Units=GPa)
#
#
# Indices 1 2 3 4 5 6 
#
# 1 40.5370 12.4713 12.7752 0.0000 -19.5169 0.0000
# 2 12.4713 110.7974 32.6718 0.0000 -10.0173 0.0000
# 3 12.7752 32.6718 85.5547 0.0000 -33.1974 0.0000
# 4 0.0000 0.0000 0.0000 44.0336 0.0000 0.1680
# 5 -19.5169 -10.0173 -33.1974 0.0000 35.4226 0.0000
# 6 0.0000 0.0000 0.0000 0.1680 0.0000 26.5865
#
#
#
# Elastic Compliance Matrix: (Units=1/GPa)
#
#
# Indices 1 2 3 4 5 6 
#
# 1 0.035285 -0.003352 0.005008 0.000000 0.023187 0.000000
# 2 -0.003352 0.010522 -0.004840 0.000000 -0.003407 0.000000
# 3 0.005008 -0.004840 0.020945 0.000000 0.021020 0.000000
# 4 0.000000 0.000000 0.000000 0.022710 0.000000 -0.000144
# 5 0.023187 -0.003407 0.021020 0.000000 0.059742 0.000000
# 6 0.000000 0.000000 0.000000 -0.000144 0.000000 0.037614
#
#
# Mechanical properties :
#
#
# Convention : Reuss Voigt Hill
#
# Bulk Modulus (GPa) = 16.56026 39.19177 27.87601
# Shear Modulus (GPa) = 23.43959 33.13992 28.28976
#
# Velocity S-wave (km/s) = 3.14033 3.73402 3.44997
# Velocity P-wave (km/s) = 4.48512 5.92280 5.25337
#
# Compressibility (1/GPa) = 0.06038554
#
# Stress axis : x y z
#
# Youngs Moduli (GPa) = 28.34043 95.04022 47.74382
#
# Poissons Ratio (x) = 0.31860 -0.23912
# Poissons Ratio (y) = 0.09500 0.23106
# Poissons Ratio (z) = -0.14194 0.45995
#
# Static dielectric constant tensor:
#      x y z
#    x 2.080000 0.000000 -0.030170 
#    y 0.000000 1.939190 0.000000 
#    z -0.030170 0.000000 1.978820 
# 
# From -- ./inp_files/6574.got.cif
#   From: 2010.05.17/outbox.cif.g08.bks.cpg/sg14_4_cif.got.tgz:6574.got - 2010.06.03 17:49:19.
