data_PCOD9249085
_publ_section_title
;
Structure prediction by ZEFSAII (Michael W. Deem and Ramdas Pophale) SiO2 
 PCOD9249085
Probable space group: P 21/C
;
_chemical_formula_sum "Si O2"
_cell_formula_units_Z 20
_cell_length_a 6.401744
_cell_length_b 15.059603
_cell_length_c 10.272011
_cell_angle_alpha 90.000000
_cell_angle_beta 85.546169
_cell_angle_gamma 90.000000
_cell_volume 987.310713
_symmetry_space_group_name_H-M "P 21/C"
_symmetry_group_IT_number 14
_symmetry_cell_setting 'monoclinic'
loop_
_space_group_symop_operation_xyz
x,y,z
-x,1/2+y,1/2-z
-x,-y,-z
x,1/2-y,1/2+z
loop_
_atom_site_type_symbol
_atom_site_label
_atom_site_fract_x
_atom_site_fract_y
_atom_site_fract_z
Si Si1 0.321995 0.319534 0.271437
Si Si2 0.009058 0.956888 0.291420
Si Si3 0.491247 0.745888 0.493236
Si Si4 0.700712 0.436539 0.968894
Si Si5 0.631665 0.433256 0.406447
O O1 0.323709 0.270195 0.409866
O O2 0.488053 0.398961 0.293119
O O3 0.415961 0.258684 0.154054
O O4 0.848337 0.444716 0.088182
O O5 0.344713 0.840753 0.015668
O O6 0.889081 0.865624 0.264058
O O7 0.163335 0.970456 0.660241
O O8 0.159314 0.975434 0.161924
O O9 0.375131 0.664197 0.038392
O O10 0.500000 0.500000 0.000000
O O11 0.500000 0.500000 0.500000
#
# Coordination Sequence:
#
# PCOD9249085 Si02
#       5
#     4   4   4   4   4
#     4  10  23  44  65 102 139 178 243 281 353 423
#     4  11  22  41  71 105 133 183 241 284 347 434
#     4  10  22  46  67  98 146 185 225 307 346 410
#     4  11  21  42  73 102 143 176 236 299 342 410
#     4  10  24  46  66  97 150 178 227 298 358 410
#
# _framework density 20.257048000000001
#
# number of rings (size 3 to 8) (size 9 to 14) (size 15 to 20)
#    1.200    0.400    4.000    0.000    0.000    5.600 
#    3.600    0.000    0.000    0.000    0.000    0.000 
#    0.000    0.000    0.000    0.000    0.000    0.000 
#
# Total GULP energy -111491.330761 kJ/mol
# GULP energy per Si atom -5574.566538 kJ/mol
# Density = 2.021094 g / cm^3
# Si number density = 20.257048 Si / 1000 Ang^3
#
#
#
# Elastic Constant Matrix: (Units=GPa)
#
#
# Indices 1 2 3 4 5 6 
#
# 1 44.2480 0.7533 4.3347 0.0000 -12.1637 0.0000
# 2 0.7533 93.1488 15.2454 0.0000 -20.1406 0.0000
# 3 4.3347 15.2454 102.0195 0.0000 -25.6061 0.0000
# 4 0.0000 0.0000 0.0000 38.2204 0.0000 2.0993
# 5 -12.1637 -20.1406 -25.6061 0.0000 44.6262 0.0000
# 6 0.0000 0.0000 0.0000 2.0993 0.0000 35.1212
#
#
#
# Elastic Compliance Matrix: (Units=1/GPa)
#
#
# Indices 1 2 3 4 5 6 
#
# 1 0.024632 0.001358 0.000689 0.000000 0.007722 0.000000
# 2 0.001358 0.011993 -0.000466 0.000000 0.005516 0.000000
# 3 0.000689 -0.000466 0.011492 0.000000 0.006571 0.000000
# 4 0.000000 0.000000 0.000000 0.026250 0.000000 -0.001569
# 5 0.007722 0.005516 0.006571 0.000000 0.030773 0.000000
# 6 0.000000 0.000000 0.000000 -0.001569 0.000000 0.028567
#
#
# Mechanical properties :
#
#
# Convention : Reuss Voigt Hill
#
# Bulk Modulus (GPa) = 19.50127 31.12035 25.31081
# Shear Modulus (GPa) = 33.86656 38.19908 36.03282
#
# Velocity S-wave (km/s) = 4.09325 4.34720 4.22213
# Velocity P-wave (km/s) = 5.65574 6.37131 6.02416
#
# Compressibility (1/GPa) = 0.05127872
#
# Stress axis : x y z
#
# Youngs Moduli (GPa) = 40.59757 83.37960 87.01913
#
# Poissons Ratio (x) = -0.11320 -0.05992
# Poissons Ratio (y) = -0.05512 0.04051
# Poissons Ratio (z) = -0.02796 0.03881
#
# Static dielectric constant tensor:
#      x y z
#    x 1.746530 0.000000 0.004360 
#    y 0.000000 1.726680 0.000000 
#    z 0.004360 0.000000 1.729270 
# 
# From -- ./inp_files/8998.got.cif
#   From: 2010.05.17/outbox.cif.g08.bks.cpg/sg14_5_cif.got.tgz:8998.got - 2010.06.03 17:49:19.
