data_PCOD9249513
_publ_section_title
;
Structure prediction by ZEFSAII (Michael W. Deem and Ramdas Pophale) SiO2 
 PCOD9249513
Probable space group: P 21/C
;
_chemical_formula_sum "Si O2"
_cell_formula_units_Z 26
_cell_length_a 8.291690
_cell_length_b 20.135869
_cell_length_c 9.268023
_cell_angle_alpha 90.000000
_cell_angle_beta 45.754834
_cell_angle_gamma 90.000000
_cell_volume 1108.491475
_symmetry_space_group_name_H-M "P 21/C"
_symmetry_group_IT_number 14
_symmetry_cell_setting 'monoclinic'
loop_
_space_group_symop_operation_xyz
x,y,z
-x,1/2+y,1/2-z
-x,-y,-z
x,1/2-y,1/2+z
loop_
_atom_site_type_symbol
_atom_site_label
_atom_site_fract_x
_atom_site_fract_y
_atom_site_fract_z
Si Si1 0.500000 0.000000 0.500000
Si Si2 0.719128 0.710873 0.999566
Si Si3 0.121413 0.553868 0.019958
Si Si4 0.994230 0.159810 0.219389
Si Si5 0.830189 0.062242 0.081826
Si Si6 0.175605 0.631295 0.721431
Si Si7 0.420972 0.755270 0.444049
O O1 0.283043 0.972331 0.543597
O O2 0.405483 0.960796 0.704229
O O3 0.529627 0.719110 0.239359
O O4 0.604614 0.701276 0.915534
O O5 0.829537 0.783597 0.922299
O O6 0.918009 0.658355 0.901323
O O7 0.254006 0.595392 0.816520
O O8 0.940128 0.600301 0.215641
O O9 0.000000 0.500000 0.000000
O O10 0.914435 0.126293 0.120469
O O11 0.794126 0.197129 0.431829
O O12 0.821247 0.084242 0.920868
O O13 0.000000 0.000000 0.000000
O O14 0.328670 0.695295 0.599152
#
# Coordination Sequence:
#
# PCOD9249513 Si02
#       7
#     2   4   4   4   4   4   4
#     4  10  26  46  66  94 130 176 220 270 336 394
#     4  11  23  41  68  95 130 177 216 273 350 396
#     4  11  24  45  70  98 137 181 228 279 334 402
#     4  10  23  42  63  96 135 171 225 279 328 407
#     4  11  24  42  65  95 135 180 226 279 336 400
#     4  11  24  41  65 100 131 166 230 284 325 409
#     4  11  23  39  64  96 130 173 218 277 345 403
#
# _framework density 23.455299
#
# number of rings (size 3 to 8) (size 9 to 14) (size 15 to 20)
#    0.000    1.231    0.000    5.538    0.000   17.846 
#    0.000    0.000    0.000    0.000    0.000    0.000 
#    0.000    0.000    0.000    0.000    0.000    0.000 
#
# Total GULP energy -144947.538579 kJ/mol
# GULP energy per Si atom -5574.905330 kJ/mol
# Density = 2.340191 g / cm^3
# Si number density = 23.455299 Si / 1000 Ang^3
#
#
#
# Elastic Constant Matrix: (Units=GPa)
#
#
# Indices 1 2 3 4 5 6 
#
# 1 57.5626 16.1491 16.4760 0.0000 14.8127 0.0000
# 2 16.1491 61.2945 25.4156 0.0000 -7.4560 0.0000
# 3 16.4760 25.4156 101.7734 0.0000 17.1498 0.0000
# 4 0.0000 0.0000 0.0000 31.5493 0.0000 14.5279
# 5 14.8127 -7.4560 17.1498 0.0000 32.6100 0.0000
# 6 0.0000 0.0000 0.0000 14.5279 0.0000 28.3783
#
#
#
# Elastic Compliance Matrix: (Units=1/GPa)
#
#
# Indices 1 2 3 4 5 6 
#
# 1 0.022513 -0.007513 0.000268 0.000000 -0.012085 0.000000
# 2 -0.007513 0.022383 -0.006376 0.000000 0.011883 0.000000
# 3 0.000268 -0.006376 0.012773 0.000000 -0.008297 0.000000
# 4 0.000000 0.000000 0.000000 0.041473 0.000000 -0.021232
# 5 -0.012085 0.011883 -0.008297 0.000000 0.043235 0.000000
# 6 0.000000 0.000000 0.000000 -0.021232 0.000000 0.046108
#
#
# Mechanical properties :
#
#
# Convention : Reuss Voigt Hill
#
# Bulk Modulus (GPa) = 32.86463 37.41241 35.13852
# Shear Modulus (GPa) = 22.13670 29.34684 25.74177
#
# Velocity S-wave (km/s) = 3.07544 3.54104 3.31642
# Velocity P-wave (km/s) = 5.16266 5.71872 5.44779
#
# Compressibility (1/GPa) = 0.03042785
#
# Stress axis : x y z
#
# Youngs Moduli (GPa) = 44.41835 44.67610 78.29188
#
# Poissons Ratio (x) = 0.33563 -0.02097
# Poissons Ratio (y) = 0.33370 0.49919
# Poissons Ratio (z) = -0.01190 0.28485
#
# Static dielectric constant tensor:
#      x y z
#    x 1.861860 0.000000 0.014450 
#    y 0.000000 2.041830 0.000000 
#    z 0.014450 0.000000 1.869330 
# 
# From -- ./inp_files/10175.got.cif
#   From: 2010.05.17/outbox.cif.g08.bks.cpg/sg14_6_cif.got.tgz:10175.got - 2010.06.03 17:49:19.
