data_PCOD9249516
_publ_section_title
;
Structure prediction by ZEFSAII (Michael W. Deem and Ramdas Pophale) SiO2 
 PCOD9249516
Probable space group: P 21/C
;
_chemical_formula_sum "Si O2"
_cell_formula_units_Z 28
_cell_length_a 12.714615
_cell_length_b 5.179015
_cell_length_c 18.157741
_cell_angle_alpha 90.000000
_cell_angle_beta 113.077193
_cell_angle_gamma 90.000000
_cell_volume 1099.991811
_symmetry_space_group_name_H-M "P 21/C"
_symmetry_group_IT_number 14
_symmetry_cell_setting 'monoclinic'
loop_
_space_group_symop_operation_xyz
x,y,z
-x,1/2+y,1/2-z
-x,-y,-z
x,1/2-y,1/2+z
loop_
_atom_site_type_symbol
_atom_site_label
_atom_site_fract_x
_atom_site_fract_y
_atom_site_fract_z
Si Si1 0.642261 0.526175 0.322000
Si Si2 0.324089 0.720853 0.463871
Si Si3 0.488687 0.602523 0.400803
Si Si4 0.249160 0.527483 0.089957
Si Si5 0.288489 0.231675 0.308918
Si Si6 0.903195 0.060470 0.325951
Si Si7 0.121448 0.833342 0.326939
O O1 0.527679 0.639095 0.327578
O O2 0.660883 0.230275 0.349621
O O3 0.660408 0.548163 0.240698
O O4 0.732773 0.728195 0.384304
O O5 0.420058 0.811597 0.430300
O O6 0.397939 0.504554 0.527599
O O7 0.274335 0.917935 0.511245
O O8 0.209676 0.634179 0.388940
O O9 0.394330 0.379361 0.372002
O O10 0.132874 0.617286 0.100166
O O11 0.207630 0.424182 0.239983
O O12 0.205518 0.074694 0.339086
O O13 0.922997 0.277794 0.268424
O O14 0.014378 0.884773 0.349198
#
# Coordination Sequence:
#
# PCOD9249516 Si02
#       7
#     4   4   4   4   4   4   4
#     4  10  23  42  68 100 139 183 228 282 341 407
#     4  10  24  42  66 102 138 182 225 278 350 414
#     4  10  23  42  64 100 142 179 226 280 342 421
#     4  10  23  45  69  98 142 179 229 283 345 412
#     4  11  23  40  69  99 133 177 230 285 338 405
#     4  11  23  43  67  99 130 175 235 287 338 398
#     4  12  23  41  72  95 131 178 233 285 345 403
#
# _framework density 25.454737000000002
#
# number of rings (size 3 to 8) (size 9 to 14) (size 15 to 20)
#    0.000    1.429    4.286    0.000    0.000   13.143 
#    0.000    0.000    0.000    9.429    0.000    0.000 
#    0.000    0.000    0.000    0.000    0.000    0.000 
#
# Total GULP energy -156274.130001 kJ/mol
# GULP energy per Si atom -5581.218929 kJ/mol
# Density = 2.539680 g / cm^3
# Si number density = 25.454737 Si / 1000 Ang^3
#
#
#
# Elastic Constant Matrix: (Units=GPa)
#
#
# Indices 1 2 3 4 5 6 
#
# 1 180.0117 9.2416 50.3431 0.0000 -32.2183 0.0000
# 2 9.2416 48.1642 7.8689 0.0000 3.2399 0.0000
# 3 50.3431 7.8689 90.4167 0.0000 -11.2727 0.0000
# 4 0.0000 0.0000 0.0000 25.2277 0.0000 -2.5033
# 5 -32.2183 3.2399 -11.2727 0.0000 49.8860 0.0000
# 6 0.0000 0.0000 0.0000 -2.5033 0.0000 43.1772
#
#
#
# Elastic Compliance Matrix: (Units=1/GPa)
#
#
# Indices 1 2 3 4 5 6 
#
# 1 0.007298 -0.001103 -0.003469 0.000000 0.004001 0.000000
# 2 -0.001103 0.021393 -0.001554 0.000000 -0.002453 0.000000
# 3 -0.003469 -0.001554 0.013232 0.000000 0.000851 0.000000
# 4 0.000000 0.000000 0.000000 0.039868 0.000000 0.002311
# 5 0.004001 -0.002453 0.000851 0.000000 0.022981 0.000000
# 6 0.000000 0.000000 0.000000 0.002311 0.000000 0.023294
#
#
# Mechanical properties :
#
#
# Convention : Reuss Voigt Hill
#
# Bulk Modulus (GPa) = 33.70038 50.38887 42.04462
# Shear Modulus (GPa) = 33.28714 40.40079 36.84396
#
# Velocity S-wave (km/s) = 3.62014 3.98824 3.80864
# Velocity P-wave (km/s) = 5.54454 6.40676 5.99118
#
# Compressibility (1/GPa) = 0.02967326
#
# Stress axis : x y z
#
# Youngs Moduli (GPa) = 137.02405 46.74490 75.57159
#
# Poissons Ratio (x) = 0.05155 0.26213
# Poissons Ratio (y) = 0.15111 0.11740
# Poissons Ratio (z) = 0.47529 0.07262
#
# Static dielectric constant tensor:
#      x y z
#    x 2.051020 0.000000 -0.094770 
#    y 0.000000 2.111510 0.000000 
#    z -0.094770 0.000000 2.130890 
# 
# From -- ./inp_files/66320.got.cif
#   From: 2010.05.17/outbox.cif.g08.bks.cpg/sg14_34_cif.got.tgz:66320.got - 2010.06.03 17:49:19.
