data_PCOD9249710
_publ_section_title
;
Structure prediction by ZEFSAII (Michael W. Deem and Ramdas Pophale) SiO2 
 PCOD9249710
Probable space group: P 21/C
;
_chemical_formula_sum "Si O2"
_cell_formula_units_Z 28
_cell_length_a 21.694771
_cell_length_b 9.432160
_cell_length_c 15.206411
_cell_angle_alpha 90.000000
_cell_angle_beta 155.999452
_cell_angle_gamma 90.000000
_cell_volume 1265.655711
_symmetry_space_group_name_H-M "P 21/C"
_symmetry_group_IT_number 14
_symmetry_cell_setting 'monoclinic'
loop_
_space_group_symop_operation_xyz
x,y,z
-x,1/2+y,1/2-z
-x,-y,-z
x,1/2-y,1/2+z
loop_
_atom_site_type_symbol
_atom_site_label
_atom_site_fract_x
_atom_site_fract_y
_atom_site_fract_z
Si Si1 0.333348 0.392846 0.221174
Si Si2 0.191435 0.687153 0.777448
Si Si3 0.820811 0.914162 0.170635
Si Si4 0.079802 0.121174 0.509406
Si Si5 0.646677 0.212061 0.184301
Si Si6 0.720277 0.607058 0.047005
Si Si7 0.388659 0.646341 0.675861
O O1 0.332688 0.545192 0.268805
O O2 0.473492 0.290509 0.424079
O O3 0.335367 0.434277 0.122366
O O4 0.182631 0.323287 0.064874
O O5 0.243312 0.730350 0.747716
O O6 0.036291 0.762242 0.604271
O O7 0.191302 0.519501 0.791875
O O8 0.317896 0.750436 0.009528
O O9 0.822868 0.931425 0.279588
O O10 0.815529 0.747601 0.152341
O O11 0.972752 0.992863 0.338063
O O12 0.681422 0.993790 0.942544
O O13 0.659992 0.300274 0.291577
O O14 0.569994 0.644902 0.906092
#
# Coordination Sequence:
#
# PCOD9249710 Si02
#       7
#     4   4   4   4   4   4   4
#     4  11  23  40  72 103 134 183 227 278 345 413
#     4  11  24  45  71 101 137 180 228 289 335 411
#     4  10  23  43  66  92 136 181 217 281 340 400
#     4  10  23  46  69  92 137 186 226 273 345 406
#     4  11  23  42  73 104 136 179 229 279 349 405
#     4  12  24  41  69 103 139 172 232 290 338 398
#     4  11  22  42  70 101 137 178 225 282 342 411
#
# _framework density 22.122921000000002
#
# number of rings (size 3 to 8) (size 9 to 14) (size 15 to 20)
#    0.000    1.143    2.857    4.286    2.000    2.286 
#    7.714    0.000    0.000    0.000    0.000    0.000 
#    0.000    0.000    0.000    0.000    0.000    0.000 
#
# Total GULP energy -156558.548905 kJ/mol
# GULP energy per Si atom -5591.376747 kJ/mol
# Density = 2.207257 g / cm^3
# Si number density = 22.122921 Si / 1000 Ang^3
#
#
#
# Elastic Constant Matrix: (Units=GPa)
#
#
# Indices 1 2 3 4 5 6 
#
# 1 130.5655 18.7424 23.4864 0.0000 6.7889 0.0000
# 2 18.7424 98.8275 23.7448 0.0000 5.4726 0.0000
# 3 23.4864 23.7448 49.2176 0.0000 1.0951 0.0000
# 4 0.0000 0.0000 0.0000 20.2525 0.0000 -12.5732
# 5 6.7889 5.4726 1.0951 0.0000 30.7721 0.0000
# 6 0.0000 0.0000 0.0000 -12.5732 0.0000 15.1375
#
#
#
# Elastic Compliance Matrix: (Units=1/GPa)
#
#
# Indices 1 2 3 4 5 6 
#
# 1 0.008503 -0.000629 -0.003718 0.000000 -0.001632 0.000000
# 2 -0.000629 0.011597 -0.005256 0.000000 -0.001737 0.000000
# 3 -0.003718 -0.005256 0.024608 0.000000 0.000879 0.000000
# 4 0.000000 0.000000 0.000000 0.101945 0.000000 0.084676
# 5 -0.001632 -0.001737 0.000879 0.000000 0.033135 0.000000
# 6 0.000000 0.000000 0.000000 0.084676 0.000000 0.136393
#
#
# Mechanical properties :
#
#
# Convention : Reuss Voigt Hill
#
# Bulk Modulus (GPa) = 39.21203 45.61754 42.41478
# Shear Modulus (GPa) = 14.53966 27.40822 20.97394
#
# Velocity S-wave (km/s) = 2.56641 3.52363 3.08240
# Velocity P-wave (km/s) = 5.15219 6.10077 5.64644
#
# Compressibility (1/GPa) = 0.02550238
#
# Stress axis : x y z
#
# Youngs Moduli (GPa) = 117.60715 86.22951 40.63671
#
# Poissons Ratio (x) = 0.05423 0.15108
# Poissons Ratio (y) = 0.07397 0.21359
# Poissons Ratio (z) = 0.43724 0.45323
#
# Static dielectric constant tensor:
#      x y z
#    x 1.782830 0.000000 -0.003160 
#    y 0.000000 1.842570 0.000000 
#    z -0.003160 0.000000 1.873060 
# 
# From -- ./inp_files/50260.got.cif
#   From: 2010.05.17/outbox.cif.g08.bks.cpg/sg14_26_cif.got.tgz:50260.got - 2010.06.03 17:49:19.
