data_PCOD9249028
_publ_section_title
;
Structure prediction by ZEFSAII (Michael W. Deem and Ramdas Pophale) SiO2 
 PCOD9249028
Probable space group: P 21/C
;
_chemical_formula_sum "Si O2"
_cell_formula_units_Z 24
_cell_length_a 20.788955
_cell_length_b 7.590421
_cell_length_c 20.718772
_cell_angle_alpha 90.000000
_cell_angle_beta 16.589314
_cell_angle_gamma 90.000000
_cell_volume 933.433312
_symmetry_space_group_name_H-M "P 21/C"
_symmetry_group_IT_number 14
_symmetry_cell_setting 'monoclinic'
loop_
_space_group_symop_operation_xyz
x,y,z
-x,1/2+y,1/2-z
-x,-y,-z
x,1/2-y,1/2+z
loop_
_atom_site_type_symbol
_atom_site_label
_atom_site_fract_x
_atom_site_fract_y
_atom_site_fract_z
Si Si1 0.782502 0.602062 0.772456
Si Si2 0.622486 0.270155 0.408405
Si Si3 0.181963 0.878609 0.408165
Si Si4 0.802176 0.858890 0.967677
Si Si5 0.502806 0.636980 0.172525
Si Si6 0.131030 0.620244 0.715282
O O1 0.797221 0.396750 0.740457
O O2 0.997053 0.722793 0.578025
O O3 0.618944 0.690437 0.876769
O O4 0.644395 0.602011 0.972302
O O5 0.648383 0.352532 0.453814
O O6 0.697737 0.393631 0.276796
O O7 0.350573 0.805272 0.300190
O O8 0.053635 0.049153 0.556455
O O9 0.662404 0.689338 0.078317
O O10 0.656935 0.975683 0.155853
O O11 0.035159 0.794566 0.774108
O O12 0.840203 0.975583 0.867503
#
# Coordination Sequence:
#
# PCOD9249028 Si02
#       6
#     4   4   4   4   4   4
#     4  10  22  45  71 104 140 182 231 297 355 422
#     4  10  24  41  72 105 139 182 231 295 359 417
#     4  11  22  47  70 104 141 181 234 293 356 419
#     4  12  27  45  73 103 146 191 243 288 355 423
#     4  11  25  45  70 101 139 187 237 289 348 426
#     4  12  26  45  72 103 142 190 233 295 349 424
#
# _framework density 25.711531000000001
#
# number of rings (size 3 to 8) (size 9 to 14) (size 15 to 20)
#    0.000    1.000    1.667    4.000    4.667    3.333 
#    3.000    0.000    0.000    0.000    0.000    0.000 
#    0.000    0.000    0.000    0.000    0.000    0.000 
#
# Total GULP energy -134729.338944 kJ/mol
# GULP energy per Si atom -5613.722456 kJ/mol
# Density = 2.565301 g / cm^3
# Si number density = 25.711531 Si / 1000 Ang^3
#
#
#
# Elastic Constant Matrix: (Units=GPa)
#
#
# Indices 1 2 3 4 5 6 
#
# 1 134.3494 36.6829 27.9349 0.0000 -16.0938 0.0000
# 2 36.6829 86.1422 16.1676 0.0000 6.7750 0.0000
# 3 27.9349 16.1676 49.9669 0.0000 3.2005 0.0000
# 4 0.0000 0.0000 0.0000 49.6727 0.0000 5.2456
# 5 -16.0938 6.7750 3.2005 0.0000 39.0497 0.0000
# 6 0.0000 0.0000 0.0000 5.2456 0.0000 55.2196
#
#
#
# Elastic Compliance Matrix: (Units=1/GPa)
#
#
# Indices 1 2 3 4 5 6 
#
# 1 0.010097 -0.003819 -0.004743 0.000000 0.005213 0.000000
# 2 -0.003819 0.013935 -0.002129 0.000000 -0.003817 0.000000
# 3 -0.004743 -0.002129 0.023579 0.000000 -0.003518 0.000000
# 4 0.000000 0.000000 0.000000 0.020336 0.000000 -0.001932
# 5 0.005213 -0.003817 -0.003518 0.000000 0.028707 0.000000
# 6 0.000000 0.000000 0.000000 -0.001932 0.000000 0.018293
#
#
# Mechanical properties :
#
#
# Convention : Reuss Voigt Hill
#
# Bulk Modulus (GPa) = 38.12699 48.00326 43.06513
# Shear Modulus (GPa) = 34.46562 41.43328 37.94945
#
# Velocity S-wave (km/s) = 3.66522 4.01866 3.84600
# Velocity P-wave (km/s) = 5.72475 6.34376 6.04219
#
# Compressibility (1/GPa) = 0.02622814
#
# Stress axis : x y z
#
# Youngs Moduli (GPa) = 99.04213 71.76181 42.41060
#
# Poissons Ratio (x) = 0.27409 0.20115
# Poissons Ratio (y) = 0.37828 0.09030
# Poissons Ratio (z) = 0.46974 0.15279
#
# Static dielectric constant tensor:
#      x y z
#    x 1.956620 0.000000 0.009520 
#    y 0.000000 2.015000 0.000000 
#    z 0.009520 0.000000 1.991670 
# 
# From -- ./inp_files/69732.got.cif
#   From: 2010.05.17/outbox.cif.g08.bks.cpg/sg14_35_cif.got.tgz:69732.got - 2010.06.03 17:49:19.
