data_PCOD9249778
_publ_section_title
;
Structure prediction by ZEFSAII (Michael W. Deem and Ramdas Pophale) SiO2 
 PCOD9249778
Probable space group: P 21/C
;
_chemical_formula_sum "Si O2"
_cell_formula_units_Z 20
_cell_length_a 7.839968
_cell_length_b 19.682006
_cell_length_c 5.645569
_cell_angle_alpha 90.000000
_cell_angle_beta 64.901959
_cell_angle_gamma 90.000000
_cell_volume 788.896039
_symmetry_space_group_name_H-M "P 21/C"
_symmetry_group_IT_number 14
_symmetry_cell_setting 'monoclinic'
loop_
_space_group_symop_operation_xyz
x,y,z
-x,1/2+y,1/2-z
-x,-y,-z
x,1/2-y,1/2+z
loop_
_atom_site_type_symbol
_atom_site_label
_atom_site_fract_x
_atom_site_fract_y
_atom_site_fract_z
Si Si1 0.490961 0.093741 0.912196
Si Si2 0.495064 0.236759 0.722330
Si Si3 0.906666 0.432119 0.953783
Si Si4 0.354627 0.532127 0.273096
Si Si5 0.076782 0.285240 0.943975
O O1 0.432023 0.159373 0.803740
O O2 0.702801 0.079793 0.694321
O O3 0.346142 0.032388 0.954339
O O4 0.535673 0.093499 0.164573
O O5 0.595849 0.244416 0.410102
O O6 0.303328 0.279065 0.817827
O O7 0.019288 0.363222 0.935501
O O8 0.840806 0.444935 0.722003
O O9 0.000000 0.500000 0.000000
O O10 0.500000 0.500000 0.000000
O O11 0.017816 0.256727 0.239795
#
# Coordination Sequence:
#
# PCOD9249778 Si02
#       5
#     4   4   4   4   4
#     4  10  23  43  69  99 136 191 240 297 357 440
#     4  10  24  42  73  98 137 189 246 295 358 432
#     4  11  26  43  72 104 147 188 242 304 369 434
#     4   9  22  42  68  99 136 178 239 293 356 429
#     4  10  25  46  69 102 146 191 241 299 371 433
#
# _framework density 25.351883000000001
#
# number of rings (size 3 to 8) (size 9 to 14) (size 15 to 20)
#    0.000    2.000    0.000    0.000   14.000   10.400 
#    0.000    0.000    0.000    0.000    0.000    0.000 
#    0.000    0.000    0.000    0.000    0.000    0.000 
#
# Total GULP energy -111694.481743 kJ/mol
# GULP energy per Si atom -5584.724087 kJ/mol
# Density = 2.529418 g / cm^3
# Si number density = 25.351883 Si / 1000 Ang^3
#
#
#
# Elastic Constant Matrix: (Units=GPa)
#
#
# Indices 1 2 3 4 5 6 
#
# 1 130.4713 74.3969 30.2714 0.0000 23.4705 0.0000
# 2 74.3969 189.4251 36.0274 0.0000 30.0233 0.0000
# 3 30.2714 36.0274 131.1930 0.0000 48.6786 0.0000
# 4 0.0000 0.0000 0.0000 33.4612 0.0000 16.4536
# 5 23.4705 30.0233 48.6786 0.0000 46.5839 0.0000
# 6 0.0000 0.0000 0.0000 16.4536 0.0000 38.6946
#
#
#
# Elastic Compliance Matrix: (Units=1/GPa)
#
#
# Indices 1 2 3 4 5 6 
#
# 1 0.010227 -0.003550 -0.000526 0.000000 -0.002315 0.000000
# 2 -0.003550 0.007121 -0.000159 0.000000 -0.002635 0.000000
# 3 -0.000526 -0.000159 0.012496 0.000000 -0.012691 0.000000
# 4 0.000000 0.000000 0.000000 0.037786 0.000000 -0.016067
# 5 -0.002315 -0.002635 -0.012691 0.000000 0.037593 0.000000
# 6 0.000000 0.000000 0.000000 -0.016067 0.000000 0.032675
#
#
# Mechanical properties :
#
#
# Convention : Reuss Voigt Hill
#
# Bulk Modulus (GPa) = 46.78163 81.38676 64.08419
# Shear Modulus (GPa) = 32.57482 44.44087 38.50784
#
# Velocity S-wave (km/s) = 3.58845 4.19138 3.90158
# Velocity P-wave (km/s) = 5.97179 7.45628 6.75494
#
# Compressibility (1/GPa) = 0.02137591
#
# Stress axis : x y z
#
# Youngs Moduli (GPa) = 97.77875 140.42674 80.02466
#
# Poissons Ratio (x) = 0.49848 0.04208
# Poissons Ratio (y) = 0.34709 0.01270
# Poissons Ratio (z) = 0.05142 0.02229
#
# Static dielectric constant tensor:
#      x y z
#    x 1.958660 0.000000 0.072490 
#    y 0.000000 2.027300 0.000000 
#    z 0.072490 0.000000 2.319940 
# 
# From -- ./inp_files/1138.got.cif
#   From: 2010.05.17/outbox.cif.g08.bks.cpg/sg14_1_cif.got.tgz:1138.got - 2010.06.03 17:49:19.
