data_PCOD9249716
_publ_section_title
;
Structure prediction by ZEFSAII (Michael W. Deem and Ramdas Pophale) SiO2 
 PCOD9249716
Probable space group: P 21/C
;
_chemical_formula_sum "Si O2"
_cell_formula_units_Z 28
_cell_length_a 6.982153
_cell_length_b 16.267631
_cell_length_c 13.410136
_cell_angle_alpha 90.000000
_cell_angle_beta 56.996531
_cell_angle_gamma 90.000000
_cell_volume 1277.383146
_symmetry_space_group_name_H-M "P 21/C"
_symmetry_group_IT_number 14
_symmetry_cell_setting 'monoclinic'
loop_
_space_group_symop_operation_xyz
x,y,z
-x,1/2+y,1/2-z
-x,-y,-z
x,1/2-y,1/2+z
loop_
_atom_site_type_symbol
_atom_site_label
_atom_site_fract_x
_atom_site_fract_y
_atom_site_fract_z
Si Si1 0.827319 0.040823 0.188480
Si Si2 0.168956 0.971648 0.243192
Si Si3 0.860090 0.824950 0.411632
Si Si4 0.420660 0.119074 0.819850
Si Si5 0.029745 0.686946 0.474859
Si Si6 0.637158 0.883863 0.676913
Si Si7 0.523060 0.241400 0.626301
O O1 0.611642 0.089780 0.295699
O O2 0.895910 0.095599 0.074837
O O3 0.722525 0.954481 0.187169
O O4 0.047933 0.024774 0.192531
O O5 0.400306 0.920664 0.153999
O O6 0.986102 0.902576 0.327312
O O7 0.245663 0.035934 0.306904
O O8 0.018566 0.744515 0.380223
O O9 0.787639 0.851876 0.543318
O O10 0.645567 0.793762 0.408650
O O11 0.555327 0.166916 0.695494
O O12 0.227752 0.179761 0.914885
O O13 0.231384 0.726987 0.482513
O O14 0.587399 0.816751 0.778227
#
# Coordination Sequence:
#
# PCOD9249716 Si02
#       7
#     4   4   4   4   4   4   4
#     4  10  23  43  66  97 132 177 223 273 331 400
#     4  11  23  41  67  95 137 173 221 273 330 401
#     4  12  23  40  69  98 130 182 221 269 340 390
#     4  11  22  43  66  93 135 173 217 283 328 391
#     4  11  24  42  67  98 133 173 226 276 333 393
#     4  10  24  43  64  96 137 172 222 278 326 395
#     4  11  23  44  64  97 133 172 222 275 327 393
#
# _framework density 21.919815
#
# number of rings (size 3 to 8) (size 9 to 14) (size 15 to 20)
#    0.000    1.143    4.286    1.714    0.000    3.429 
#    5.143    0.000    0.000    0.000    0.000    0.000 
#    0.000    0.000    0.000    0.000    0.000    0.000 
#
# Total GULP energy -156290.521389 kJ/mol
# GULP energy per Si atom -5581.804335 kJ/mol
# Density = 2.186992 g / cm^3
# Si number density = 21.919815 Si / 1000 Ang^3
#
#
#
# Elastic Constant Matrix: (Units=GPa)
#
#
# Indices 1 2 3 4 5 6 
#
# 1 151.1652 36.2983 14.8616 0.0000 -18.3510 0.0000
# 2 36.2983 103.6523 11.6081 0.0000 -6.8880 0.0000
# 3 14.8616 11.6081 35.8517 0.0000 -18.6618 0.0000
# 4 0.0000 0.0000 0.0000 18.5860 0.0000 -5.7588
# 5 -18.3510 -6.8880 -18.6618 0.0000 19.7752 0.0000
# 6 0.0000 0.0000 0.0000 -5.7588 0.0000 49.9944
#
#
#
# Elastic Compliance Matrix: (Units=1/GPa)
#
#
# Indices 1 2 3 4 5 6 
#
# 1 0.008037 -0.002463 0.001772 0.000000 0.008272 0.000000
# 2 -0.002463 0.010773 -0.003348 0.000000 -0.001693 0.000000
# 3 0.001772 -0.003348 0.055999 0.000000 0.053324 0.000000
# 4 0.000000 0.000000 0.000000 0.055795 0.000000 0.006427
# 5 0.008272 -0.001693 0.053324 0.000000 0.107977 0.000000
# 6 0.000000 0.000000 0.000000 0.006427 0.000000 0.020743
#
#
# Mechanical properties :
#
#
# Convention : Reuss Voigt Hill
#
# Bulk Modulus (GPa) = 14.98594 46.24503 30.61549
# Shear Modulus (GPa) = 17.26249 32.86452 25.06350
#
# Velocity S-wave (km/s) = 2.80934 3.87629 3.38511
# Velocity P-wave (km/s) = 4.16830 6.41696 5.41073
#
# Compressibility (1/GPa) = 0.06672920
#
# Stress axis : x y z
#
# Youngs Moduli (GPa) = 124.42842 92.82742 17.85749
#
# Poissons Ratio (x) = 0.22865 -0.03164
# Poissons Ratio (y) = 0.30649 0.05979
# Poissons Ratio (z) = -0.22048 0.31082
#
# Static dielectric constant tensor:
#      x y z
#    x 1.817390 0.000000 -0.049310 
#    y 0.000000 1.817300 0.000000 
#    z -0.049310 0.000000 1.854280 
# 
# From -- ./inp_files/37629.got.cif
#   From: 2010.05.17/outbox.cif.g08.bks.cpg/sg14_19_cif.got.tgz:37629.got - 2010.06.03 17:49:19.
