data_PCOD9249941
_publ_section_title
;
Structure prediction by ZEFSAII (Michael W. Deem and Ramdas Pophale) SiO2 
 PCOD9249941
Probable space group: P 21/C
;
_chemical_formula_sum "Si O2"
_cell_formula_units_Z 20
_cell_length_a 9.301584
_cell_length_b 8.264908
_cell_length_c 23.183782
_cell_angle_alpha 90.000000
_cell_angle_beta 156.705050
_cell_angle_gamma 90.000000
_cell_volume 704.833892
_symmetry_space_group_name_H-M "P 21/C"
_symmetry_group_IT_number 14
_symmetry_cell_setting 'monoclinic'
loop_
_space_group_symop_operation_xyz
x,y,z
-x,1/2+y,1/2-z
-x,-y,-z
x,1/2-y,1/2+z
loop_
_atom_site_type_symbol
_atom_site_label
_atom_site_fract_x
_atom_site_fract_y
_atom_site_fract_z
Si Si1 0.729255 0.939278 0.479042
Si Si2 0.341483 0.994546 0.015851
Si Si3 0.467537 0.774621 0.152172
Si Si4 0.747304 0.243600 0.613263
Si Si5 0.338590 0.769951 0.237779
O O1 0.441562 0.906217 0.424330
O O2 0.642860 0.805259 0.397404
O O3 0.112244 0.896361 0.649387
O O4 0.689826 0.106348 0.431077
O O5 0.253141 0.921611 0.044923
O O6 0.684279 0.114067 0.137074
O O7 0.423706 0.841707 0.004219
O O8 0.980991 0.097142 0.865864
O O9 0.484992 0.783770 0.226913
O O10 0.860702 0.788759 0.267082
#
# Coordination Sequence:
#
# PCOD9249941 Si02
#       5
#     4   4   4   4   4
#     4  11  26  48  70 106 142 188 241 296 358 431
#     4  10  23  46  70 100 144 192 232 300 359 422
#     4  12  24  42  74 104 138 188 243 291 358 429
#     4  10  23  44  73  98 143 184 241 291 359 423
#     4  11  26  48  70 103 151 185 237 300 362 427
#
# _framework density 28.375478999999999
#
# number of rings (size 3 to 8) (size 9 to 14) (size 15 to 20)
#    0.000    1.200    2.000    2.400    8.400    4.000 
#    7.200    0.000    0.000    0.000    0.000    0.000 
#    0.000    0.000    0.000    0.000    0.000    0.000 
#
# Total GULP energy -112060.951439 kJ/mol
# GULP energy per Si atom -5603.047572 kJ/mol
# Density = 2.831090 g / cm^3
# Si number density = 28.375479 Si / 1000 Ang^3
#
#
#
# Elastic Constant Matrix: (Units=GPa)
#
#
# Indices 1 2 3 4 5 6 
#
# 1 200.0494 62.7174 36.4661 0.0000 -1.5968 0.0000
# 2 62.7174 97.9615 35.7436 0.0000 -11.4653 0.0000
# 3 36.4661 35.7436 68.1309 0.0000 1.1556 0.0000
# 4 0.0000 0.0000 0.0000 40.6821 0.0000 -10.2309
# 5 -1.5968 -11.4653 1.1556 0.0000 50.6835 0.0000
# 6 0.0000 0.0000 0.0000 -10.2309 0.0000 44.9166
#
#
#
# Elastic Compliance Matrix: (Units=1/GPa)
#
#
# Indices 1 2 3 4 5 6 
#
# 1 0.006404 -0.003613 -0.001523 0.000000 -0.000581 0.000000
# 2 -0.003613 0.015138 -0.006067 0.000000 0.003449 0.000000
# 3 -0.001523 -0.006067 0.018707 0.000000 -0.001847 0.000000
# 4 0.000000 0.000000 0.000000 0.026074 0.000000 0.005939
# 5 -0.000581 0.003449 -0.001847 0.000000 0.020534 0.000000
# 6 0.000000 0.000000 0.000000 0.005939 0.000000 0.023616
#
#
# Mechanical properties :
#
#
# Convention : Reuss Voigt Hill
#
# Bulk Modulus (GPa) = 56.03799 70.66622 63.35210
# Shear Modulus (GPa) = 36.01604 42.67076 39.34340
#
# Velocity S-wave (km/s) = 3.56654 3.88208 3.72765
# Velocity P-wave (km/s) = 6.06233 6.71209 6.39547
#
# Compressibility (1/GPa) = 0.01784504
#
# Stress axis : x y z
#
# Youngs Moduli (GPa) = 156.14609 66.05781 53.45640
#
# Poissons Ratio (x) = 0.23864 0.08140
# Poissons Ratio (y) = 0.56408 0.32432
# Poissons Ratio (z) = 0.23776 0.40077
#
# Static dielectric constant tensor:
#      x y z
#    x 2.203850 0.000000 -0.045440 
#    y 0.000000 2.306530 0.000000 
#    z -0.045440 0.000000 2.280490 
# 
# From -- ./inp_files/72111.got.cif
#   From: 2010.05.17/outbox.cif.g08.bks.cpg/sg14_37_cif.got.tgz:72111.got - 2010.06.03 17:49:19.
