data_PCOD9249153
_publ_section_title
;
Structure prediction by ZEFSAII (Michael W. Deem and Ramdas Pophale) SiO2 
 PCOD9249153
Probable space group: P 21/C
;
_chemical_formula_sum "Si O2"
_cell_formula_units_Z 20
_cell_length_a 11.456224
_cell_length_b 5.692229
_cell_length_c 23.735471
_cell_angle_alpha 90.000000
_cell_angle_beta 30.887058
_cell_angle_gamma 90.000000
_cell_volume 794.571708
_symmetry_space_group_name_H-M "P 21/C"
_symmetry_group_IT_number 14
_symmetry_cell_setting 'monoclinic'
loop_
_space_group_symop_operation_xyz
x,y,z
-x,1/2+y,1/2-z
-x,-y,-z
x,1/2-y,1/2+z
loop_
_atom_site_type_symbol
_atom_site_label
_atom_site_fract_x
_atom_site_fract_y
_atom_site_fract_z
Si Si1 0.789514 0.255022 0.261226
Si Si2 0.126187 0.535182 0.054632
Si Si3 0.326444 0.363137 0.406193
Si Si4 0.163602 0.412063 0.357280
Si Si5 0.369016 0.749471 0.550973
O O1 0.565544 0.409841 0.338012
O O2 0.788648 0.234717 0.328450
O O3 0.027731 0.360551 0.142384
O O4 0.767371 0.024508 0.230707
O O5 0.248092 0.733909 0.040793
O O6 0.903931 0.640915 0.118226
O O7 0.278002 0.405506 0.946130
O O8 0.340927 0.431816 0.334630
O O9 0.080693 0.473065 0.524485
O O10 0.500000 0.500000 0.500000
O O11 0.500000 0.000000 0.500000
#
# Coordination Sequence:
#
# PCOD9249153 Si02
#       5
#     4   4   4   4   4
#     4  11  26  42  71 109 144 195 254 314 381 453
#     4  11  25  43  73 102 145 193 253 310 381 458
#     4  10  22  47  66 104 146 187 248 307 392 443
#     4  10  24  42  71 100 143 192 246 315 372 469
#     4  12  28  49  77 106 152 204 251 317 384 453
#
# _framework density 25.170794999999998
#
# number of rings (size 3 to 8) (size 9 to 14) (size 15 to 20)
#    0.000    1.200    2.000    1.800   11.200    1.600 
#    0.000    0.000    0.000    0.000    0.000    0.000 
#    0.000    0.000    0.000    0.000    0.000    0.000 
#
# Total GULP energy -111593.693503 kJ/mol
# GULP energy per Si atom -5579.684675 kJ/mol
# Density = 2.511351 g / cm^3
# Si number density = 25.170795 Si / 1000 Ang^3
#
#
#
# Elastic Constant Matrix: (Units=GPa)
#
#
# Indices 1 2 3 4 5 6 
#
# 1 101.4679 17.6303 -17.1379 0.0000 2.1622 0.0000
# 2 17.6303 81.0735 41.3520 0.0000 5.3629 0.0000
# 3 -17.1379 41.3520 57.9057 0.0000 -1.8053 0.0000
# 4 0.0000 0.0000 0.0000 30.1706 0.0000 -17.9205
# 5 2.1622 5.3629 -1.8053 0.0000 38.2651 0.0000
# 6 0.0000 0.0000 0.0000 -17.9205 0.0000 25.7776
#
#
#
# Elastic Compliance Matrix: (Units=1/GPa)
#
#
# Indices 1 2 3 4 5 6 
#
# 1 0.012666 -0.007437 0.009083 0.000000 0.000755 0.000000
# 2 -0.007437 0.024214 -0.019615 0.000000 -0.003899 0.000000
# 3 0.009083 -0.019615 0.034085 0.000000 0.003844 0.000000
# 4 0.000000 0.000000 0.000000 0.056458 0.000000 0.039249
# 5 0.000755 -0.003899 0.003844 0.000000 0.026819 0.000000
# 6 0.000000 0.000000 0.000000 0.039249 0.000000 0.066080
#
#
# Mechanical properties :
#
#
# Convention : Reuss Voigt Hill
#
# Bulk Modulus (GPa) = 28.54906 36.01509 32.28207
# Shear Modulus (GPa) = 18.66130 32.08283 25.37207
#
# Velocity S-wave (km/s) = 2.72580 3.57403 3.17834
# Velocity P-wave (km/s) = 4.61231 5.60098 5.13051
#
# Compressibility (1/GPa) = 0.03502742
#
# Stress axis : x y z
#
# Youngs Moduli (GPa) = 78.95403 41.29793 29.33842
#
# Poissons Ratio (x) = 0.30714 -0.26649
# Poissons Ratio (y) = 0.58719 0.57547
# Poissons Ratio (z) = -0.71715 0.81005
#
# Static dielectric constant tensor:
#      x y z
#    x 2.069060 0.000000 0.016070 
#    y 0.000000 2.211650 0.000000 
#    z 0.016070 0.000000 1.989180 
# 
# From -- ./inp_files/66206.got.cif
#   From: 2010.05.17/outbox.cif.g08.bks.cpg/sg14_34_cif.got.tgz:66206.got - 2010.06.03 17:49:19.
