data_PCOD9249287
_publ_section_title
;
Structure prediction by ZEFSAII (Michael W. Deem and Ramdas Pophale) SiO2 
 PCOD9249287
Probable space group: P 21/C
;
_chemical_formula_sum "Si O2"
_cell_formula_units_Z 20
_cell_length_a 8.399581
_cell_length_b 8.878505
_cell_length_c 11.219499
_cell_angle_alpha 90.000000
_cell_angle_beta 79.025116
_cell_angle_gamma 90.000000
_cell_volume 821.399566
_symmetry_space_group_name_H-M "P 21/C"
_symmetry_group_IT_number 14
_symmetry_cell_setting 'monoclinic'
loop_
_space_group_symop_operation_xyz
x,y,z
-x,1/2+y,1/2-z
-x,-y,-z
x,1/2-y,1/2+z
loop_
_atom_site_type_symbol
_atom_site_label
_atom_site_fract_x
_atom_site_fract_y
_atom_site_fract_z
Si Si1 0.656245 0.319240 0.736143
Si Si2 0.927191 0.846800 0.065400
Si Si3 0.817794 0.096391 0.558580
Si Si4 0.916040 0.994362 0.311803
Si Si5 0.435708 0.400753 0.401661
O O1 0.673931 0.199063 0.626517
O O2 0.836687 0.363245 0.754927
O O3 0.581822 0.475964 0.702347
O O4 0.553938 0.234017 0.849761
O O5 0.743289 0.838383 0.047375
O O6 0.913514 0.867742 0.210333
O O7 0.048186 0.716930 0.007508
O O8 0.000000 0.000000 0.000000
O O9 0.800780 0.990105 0.445987
O O10 0.902917 0.011464 0.657958
O O11 0.500000 0.500000 0.500000
#
# Coordination Sequence:
#
# PCOD9249287 Si02
#       5
#     4   4   4   4   4
#     4  11  24  44  68 105 144 181 235 286 357 419
#     4  11  23  43  66  98 130 181 236 276 341 407
#     4  11  22  41  70 100 135 182 231 292 343 410
#     4  10  23  39  68 101 133 179 228 290 340 413
#     4  11  26  44  70 100 143 188 224 295 350 418
#
# _framework density 24.348685
#
# number of rings (size 3 to 8) (size 9 to 14) (size 15 to 20)
#    0.000    1.200    4.000    2.400    2.800    6.400 
#    0.000    6.000    0.000    0.000    0.000    0.000 
#    0.000    0.000    0.000    0.000    0.000    0.000 
#
# Total GULP energy -111696.134056 kJ/mol
# GULP energy per Si atom -5584.806703 kJ/mol
# Density = 2.429327 g / cm^3
# Si number density = 24.348685 Si / 1000 Ang^3
#
#
#
# Elastic Constant Matrix: (Units=GPa)
#
#
# Indices 1 2 3 4 5 6 
#
# 1 65.2260 36.6489 39.3379 0.0000 -7.4451 0.0000
# 2 36.6489 110.5629 27.9328 0.0000 -11.3415 0.0000
# 3 39.3379 27.9328 96.8502 0.0000 11.7731 0.0000
# 4 0.0000 0.0000 0.0000 54.3483 0.0000 -15.8129
# 5 -7.4451 -11.3415 11.7731 0.0000 41.0135 0.0000
# 6 0.0000 0.0000 0.0000 -15.8129 0.0000 48.1242
#
#
#
# Elastic Compliance Matrix: (Units=1/GPa)
#
#
# Indices 1 2 3 4 5 6 
#
# 1 0.024371 -0.005213 -0.009075 0.000000 0.005587 0.000000
# 2 -0.005213 0.011422 -0.001498 0.000000 0.002642 0.000000
# 3 -0.009075 -0.001498 0.015225 0.000000 -0.006432 0.000000
# 4 0.000000 0.000000 0.000000 0.020345 0.000000 0.006685
# 5 0.005587 0.002642 -0.006432 0.000000 0.027974 0.000000
# 6 0.000000 0.000000 0.000000 0.006685 0.000000 0.022976
#
#
# Mechanical properties :
#
#
# Convention : Reuss Voigt Hill
#
# Bulk Modulus (GPa) = 51.42163 53.38649 52.40406
# Shear Modulus (GPa) = 31.17875 39.94518 35.56197
#
# Velocity S-wave (km/s) = 3.58230 4.05476 3.82583
# Velocity P-wave (km/s) = 6.18670 6.62532 6.40976
#
# Compressibility (1/GPa) = 0.01944707
#
# Stress axis : x y z
#
# Youngs Moduli (GPa) = 41.03276 87.55001 65.68115
#
# Poissons Ratio (x) = 0.45636 0.59603
# Poissons Ratio (y) = 0.21389 0.09841
# Poissons Ratio (z) = 0.37235 0.13117
#
# Static dielectric constant tensor:
#      x y z
#    x 1.950160 0.000000 0.035790 
#    y 0.000000 2.005690 0.000000 
#    z 0.035790 0.000000 2.010510 
# 
# From -- ./inp_files/23028.got.cif
#   From: 2010.05.17/outbox.cif.g08.bks.cpg/sg14_12_cif.got.tgz:23028.got - 2010.06.03 17:49:19.
