data_PCOD9249314
_publ_section_title
;
Structure prediction by ZEFSAII (Michael W. Deem and Ramdas Pophale) SiO2 
 PCOD9249314
Probable space group: P 21/C
;
_chemical_formula_sum "Si O2"
_cell_formula_units_Z 28
_cell_length_a 7.270921
_cell_length_b 27.579930
_cell_length_c 8.695624
_cell_angle_alpha 90.000000
_cell_angle_beta 50.049920
_cell_angle_gamma 90.000000
_cell_volume 1336.763345
_symmetry_space_group_name_H-M "P 21/C"
_symmetry_group_IT_number 14
_symmetry_cell_setting 'monoclinic'
loop_
_space_group_symop_operation_xyz
x,y,z
-x,1/2+y,1/2-z
-x,-y,-z
x,1/2-y,1/2+z
loop_
_atom_site_type_symbol
_atom_site_label
_atom_site_fract_x
_atom_site_fract_y
_atom_site_fract_z
Si Si1 0.461253 0.576070 0.409690
Si Si2 0.601675 0.415562 0.214129
Si Si3 0.016295 0.031420 0.335752
Si Si4 0.694608 0.998377 0.257299
Si Si5 0.335431 0.319298 0.769951
Si Si6 0.556413 0.242701 0.419807
Si Si7 0.778738 0.184707 0.572798
O O1 0.329155 0.573216 0.645665
O O2 0.722000 0.553637 0.306905
O O3 0.353286 0.543039 0.332431
O O4 0.508212 0.631752 0.335995
O O5 0.371937 0.447878 0.290979
O O6 0.589329 0.358042 0.209743
O O7 0.810247 0.429261 0.981730
O O8 0.000000 0.000000 0.500000
O O9 0.941051 0.004585 0.218778
O O10 0.500000 0.000000 0.500000
O O11 0.396464 0.280570 0.603229
O O12 0.404198 0.291320 0.888856
O O13 0.054061 0.331939 0.923771
O O14 0.704961 0.208893 0.453571
O O15 0.739351 0.274427 0.221678
#
# Coordination Sequence:
#
# PCOD9249314 Si02
#       7
#     4   4   4   4   4   4   4
#     4  12  23  41  63  92 129 163 205 256 309 368
#     4  11  23  41  62  93 128 160 206 257 302 371
#     4  11  23  42  65  87 126 171 204 251 311 361
#     4  10  23  40  63  92 125 164 208 249 305 367
#     4  11  23  40  67  89 122 166 204 250 320 361
#     4  10  24  42  63  92 123 157 209 263 305 363
#     4  11  22  42  65  90 124 160 207 255 310 368
#
# _framework density 20.946116
#
# number of rings (size 3 to 8) (size 9 to 14) (size 15 to 20)
#    0.000    1.143    5.714    1.286    4.000    0.571 
#    0.000    0.000    0.000    0.000    0.000    0.000 
#    0.000    0.000    0.000    0.000    0.000    0.000 
#
# Total GULP energy -156395.130082 kJ/mol
# GULP energy per Si atom -5585.540360 kJ/mol
# Density = 2.089844 g / cm^3
# Si number density = 20.946116 Si / 1000 Ang^3
#
#
#
# Elastic Constant Matrix: (Units=GPa)
#
#
# Indices 1 2 3 4 5 6 
#
# 1 109.2665 63.5996 43.4249 0.0000 28.0044 0.0000
# 2 63.5996 123.5080 32.5615 0.0000 22.3691 0.0000
# 3 43.4249 32.5615 75.2239 0.0000 19.7550 0.0000
# 4 0.0000 0.0000 0.0000 18.4064 0.0000 -14.3669
# 5 28.0044 22.3691 19.7550 0.0000 39.3550 0.0000
# 6 0.0000 0.0000 0.0000 -14.3669 0.0000 3.7031
#
#
#
# Elastic Compliance Matrix: (Units=1/GPa)
#
#
# Indices 1 2 3 4 5 6 
#
# 1 0.016088 -0.005902 -0.005306 0.000000 -0.005429 0.000000
# 2 -0.005902 0.011797 -0.001199 0.000000 -0.001903 0.000000
# 3 -0.005306 -0.001199 0.018090 0.000000 -0.004623 0.000000
# 4 0.000000 0.000000 0.000000 -0.026787 0.000000 -0.103923
# 5 -0.005429 -0.001903 -0.004623 0.000000 0.032676 0.000000
# 6 0.000000 0.000000 0.000000 -0.103923 0.000000 -0.133143
#
#
# Mechanical properties :
#
#
# Convention : Reuss Voigt Hill
#
# Bulk Modulus (GPa) = 47.26130 65.24117 56.25123
# Shear Modulus (GPa) = -101.19326 23.52039 -38.83643
#
# Velocity S-wave (km/s) = -6.95817 3.35461 -4.31061
# Velocity P-wave (km/s) = 6.47631 6.79848 1.46231
#
# Compressibility (1/GPa) = 0.02115896
#
# Stress axis : x y z
#
# Youngs Moduli (GPa) = 62.15965 84.76925 55.27860
#
# Poissons Ratio (x) = 0.50030 0.29333
# Poissons Ratio (y) = 0.36686 0.06631
# Poissons Ratio (z) = 0.32985 0.10168
#
# Static dielectric constant tensor:
#      x y z
#    x 1.753280 0.000000 -0.008810 
#    y 0.000000 1.744560 0.000000 
#    z -0.008810 0.000000 1.794470 
# 
# From -- ./inp_files/11313.got.cif
#   From: 2010.05.17/outbox.cif.g08.bks.cpg/sg14_6_cif.got.tgz:11313.got - 2010.06.03 17:49:19.
