data_PCOD9249784
_publ_section_title
;
Structure prediction by ZEFSAII (Michael W. Deem and Ramdas Pophale) SiO2 
 PCOD9249784
Probable space group: P 21/C
;
_chemical_formula_sum "Si O2"
_cell_formula_units_Z 28
_cell_length_a 12.841230
_cell_length_b 9.035706
_cell_length_c 15.265704
_cell_angle_alpha 90.000000
_cell_angle_beta 141.727422
_cell_angle_gamma 90.000000
_cell_volume 1097.132583
_symmetry_space_group_name_H-M "P 21/C"
_symmetry_group_IT_number 14
_symmetry_cell_setting 'monoclinic'
loop_
_space_group_symop_operation_xyz
x,y,z
-x,1/2+y,1/2-z
-x,-y,-z
x,1/2-y,1/2+z
loop_
_atom_site_type_symbol
_atom_site_label
_atom_site_fract_x
_atom_site_fract_y
_atom_site_fract_z
Si Si1 0.861807 0.444804 0.977989
Si Si2 0.764193 0.554198 0.098118
Si Si3 0.558550 0.198913 0.685331
Si Si4 0.811925 0.554648 0.397685
Si Si5 0.906819 0.365438 0.598068
Si Si6 0.392991 0.334864 0.255289
Si Si7 0.655853 0.229455 0.072845
O O1 0.874626 0.269767 0.008376
O O2 0.683493 0.509992 0.826514
O O3 0.870019 0.515570 0.080484
O O4 0.000000 0.500000 0.000000
O O5 0.896766 0.607995 0.257085
O O6 0.668379 0.405935 0.064616
O O7 0.621836 0.669776 0.978682
O O8 0.512734 0.227004 0.756477
O O9 0.650908 0.297206 0.672890
O O10 0.669741 0.049252 0.762429
O O11 0.814132 0.512482 0.502018
O O12 0.762293 0.721022 0.345730
O O13 0.821155 0.326724 0.633063
O O14 0.000000 0.500000 0.500000
O O15 0.497902 0.332608 0.413705
#
# Coordination Sequence:
#
# PCOD9249784 Si02
#       7
#     4   4   4   4   4   4   4
#     4  10  24  44  73 104 153 192 243 315 389 435
#     4  10  23  43  70 104 143 195 252 302 361 460
#     4  11  24  42  73 102 145 195 247 304 376 439
#     4  12  25  44  76 109 146 196 257 305 378 454
#     4  11  25  44  70 108 149 186 250 316 371 452
#     4  11  25  47  73 111 148 196 253 314 369 460
#     4  11  23  44  73 102 149 193 250 302 376 447
#
# _framework density 25.521072
#
# number of rings (size 3 to 8) (size 9 to 14) (size 15 to 20)
#    0.000    1.143    2.857    2.143    4.000    8.000 
#    0.000    0.714    0.000    0.000    0.000    0.000 
#    0.000    0.000    0.000    0.000    0.000    0.000 
#
# Total GULP energy -156699.058663 kJ/mol
# GULP energy per Si atom -5596.394952 kJ/mol
# Density = 2.546299 g / cm^3
# Si number density = 25.521072 Si / 1000 Ang^3
#
#
#
# Elastic Constant Matrix: (Units=GPa)
#
#
# Indices 1 2 3 4 5 6 
#
# 1 123.7259 22.9138 21.9003 0.0000 -17.0322 0.0000
# 2 22.9138 75.1124 47.8652 0.0000 6.1900 0.0000
# 3 21.9003 47.8652 107.9370 0.0000 8.0380 0.0000
# 4 0.0000 0.0000 0.0000 41.3898 0.0000 6.3388
# 5 -17.0322 6.1900 8.0380 0.0000 56.7241 0.0000
# 6 0.0000 0.0000 0.0000 6.3388 0.0000 31.0111
#
#
#
# Elastic Compliance Matrix: (Units=1/GPa)
#
#
# Indices 1 2 3 4 5 6 
#
# 1 0.009141 -0.002393 -0.001028 0.000000 0.003152 0.000000
# 2 -0.002393 0.019227 -0.007914 0.000000 -0.001695 0.000000
# 3 -0.001028 -0.007914 0.013080 0.000000 -0.001299 0.000000
# 4 0.000000 0.000000 0.000000 0.024941 0.000000 -0.005098
# 5 0.003152 -0.001695 -0.001299 0.000000 0.018945 0.000000
# 6 0.000000 0.000000 0.000000 -0.005098 0.000000 0.033289
#
#
# Mechanical properties :
#
#
# Convention : Reuss Voigt Hill
#
# Bulk Modulus (GPa) = 53.25890 54.68153 53.97021
# Shear Modulus (GPa) = 33.88630 40.09805 36.99218
#
# Velocity S-wave (km/s) = 3.64782 3.96810 3.81133
# Velocity P-wave (km/s) = 6.21740 6.51667 6.36879
#
# Compressibility (1/GPa) = 0.01877621
#
# Stress axis : x y z
#
# Youngs Moduli (GPa) = 109.39166 52.01146 76.45476
#
# Poissons Ratio (x) = 0.12447 0.07861
# Poissons Ratio (y) = 0.26180 0.60509
# Poissons Ratio (z) = 0.11248 0.41163
#
# Static dielectric constant tensor:
#      x y z
#    x 2.095330 0.000000 -0.034240 
#    y 0.000000 2.030790 0.000000 
#    z -0.034240 0.000000 1.961920 
# 
# From -- ./inp_files/43560.got.cif
#   From: 2010.05.17/outbox.cif.g08.bks.cpg/sg14_22_cif.got.tgz:43560.got - 2010.06.03 17:49:19.
