data_PCOD9249350
_publ_section_title
;
Structure prediction by ZEFSAII (Michael W. Deem and Ramdas Pophale) SiO2 
 PCOD9249350
Probable space group: P 21/C
;
_chemical_formula_sum "Si O2"
_cell_formula_units_Z 28
_cell_length_a 15.811001
_cell_length_b 8.062409
_cell_length_c 9.787878
_cell_angle_alpha 90.000000
_cell_angle_beta 127.373183
_cell_angle_gamma 90.000000
_cell_volume 991.551563
_symmetry_space_group_name_H-M "P 21/C"
_symmetry_group_IT_number 14
_symmetry_cell_setting 'monoclinic'
loop_
_space_group_symop_operation_xyz
x,y,z
-x,1/2+y,1/2-z
-x,-y,-z
x,1/2-y,1/2+z
loop_
_atom_site_type_symbol
_atom_site_label
_atom_site_fract_x
_atom_site_fract_y
_atom_site_fract_z
Si Si1 0.323710 0.933339 0.107779
Si Si2 0.386990 0.774457 0.904968
Si Si3 0.090660 0.549962 0.252703
Si Si4 0.604650 0.747668 0.962994
Si Si5 0.829609 0.746181 0.338067
Si Si6 0.284336 0.476831 0.096766
Si Si7 0.904899 0.428181 0.269666
O O1 0.336936 0.882529 0.277524
O O2 0.385433 0.099070 0.129925
O O3 0.375972 0.798479 0.055111
O O4 0.201114 0.946517 0.945396
O O5 0.507226 0.772884 0.968834
O O6 0.320754 0.925422 0.767978
O O7 0.105913 0.401494 0.160388
O O8 0.995341 0.498366 0.258151
O O9 0.074868 0.735081 0.175110
O O10 0.610412 0.582416 0.878065
O O11 0.715545 0.737175 0.151975
O O12 0.789693 0.814450 0.444169
O O13 0.886401 0.571143 0.365439
O O14 0.203431 0.579652 0.925523
#
# Coordination Sequence:
#
# PCOD9249350 Si02
#       7
#     4   4   4   4   4   4   4
#     4  11  25  44  67 103 140 178 238 291 349 425
#     4  12  23  44  71 100 140 185 231 294 353 417
#     4  11  21  42  69  95 137 181 228 292 357 411
#     4  10  23  40  68  94 136 183 230 283 356 417
#     4  10  23  43  64  99 137 177 231 294 343 425
#     4  11  23  43  66  96 137 180 236 293 348 424
#     4  11  23  42  68  97 134 182 235 284 361 424
#
# _framework density 28.238569999999999
#
# number of rings (size 3 to 8) (size 9 to 14) (size 15 to 20)
#    0.000    1.143    5.714    1.286    2.000    1.714 
#    2.571    2.143    0.000    0.000    0.000    0.000 
#    0.000    0.000    0.000    0.000    0.000    0.000 
#
# Total GULP energy -157208.430958 kJ/mol
# GULP energy per Si atom -5614.586820 kJ/mol
# Density = 2.817430 g / cm^3
# Si number density = 28.238570 Si / 1000 Ang^3
#
#
#
# Elastic Constant Matrix: (Units=GPa)
#
#
# Indices 1 2 3 4 5 6 
#
# 1 193.5682 75.3092 34.7009 0.0000 13.6368 0.0000
# 2 75.3092 209.9700 41.4703 0.0000 9.1609 0.0000
# 3 34.7009 41.4703 91.2038 0.0000 4.8908 0.0000
# 4 0.0000 0.0000 0.0000 40.6505 0.0000 -1.1156
# 5 13.6368 9.1609 4.8908 0.0000 46.8472 0.0000
# 6 0.0000 0.0000 0.0000 -1.1156 0.0000 60.4302
#
#
#
# Elastic Compliance Matrix: (Units=1/GPa)
#
#
# Indices 1 2 3 4 5 6 
#
# 1 0.006257 -0.001902 -0.001446 0.000000 -0.001298 0.000000
# 2 -0.001902 0.005839 -0.001911 0.000000 -0.000389 0.000000
# 3 -0.001446 -0.001911 0.012410 0.000000 -0.000501 0.000000
# 4 0.000000 0.000000 0.000000 0.024612 0.000000 0.000454
# 5 -0.001298 -0.000389 -0.000501 0.000000 0.021852 0.000000
# 6 0.000000 0.000000 0.000000 0.000454 0.000000 0.016556
#
#
# Mechanical properties :
#
#
# Convention : Reuss Voigt Hill
#
# Bulk Modulus (GPa) = 71.48478 88.63364 80.05921
# Shear Modulus (GPa) = 48.68206 52.46969 50.57587
#
# Velocity S-wave (km/s) = 4.15656 4.31523 4.23664
# Velocity P-wave (km/s) = 6.95741 7.50226 7.23496
#
# Compressibility (1/GPa) = 0.01398899
#
# Stress axis : x y z
#
# Youngs Moduli (GPa) = 159.82648 171.26186 80.57831
#
# Poissons Ratio (x) = 0.32571 0.11653
# Poissons Ratio (y) = 0.30396 0.15395
# Poissons Ratio (z) = 0.23114 0.32720
#
# Static dielectric constant tensor:
#      x y z
#    x 2.151190 0.000000 -0.008690 
#    y 0.000000 2.287760 0.000000 
#    z -0.008690 0.000000 2.185070 
# 
# From -- ./inp_files/31897.got.cif
#   From: 2010.05.17/outbox.cif.g08.bks.cpg/sg14_16_cif.got.tgz:31897.got - 2010.06.03 17:49:19.
