data_PCOD9249173
_publ_section_title
;
Structure prediction by ZEFSAII (Michael W. Deem and Ramdas Pophale) SiO2 
 PCOD9249173
Probable space group: P 21/C
;
_chemical_formula_sum "Si O2"
_cell_formula_units_Z 30
_cell_length_a 11.005602
_cell_length_b 20.003426
_cell_length_c 11.062635
_cell_angle_alpha 90.000000
_cell_angle_beta 28.515148
_cell_angle_gamma 90.000000
_cell_volume 1162.655572
_symmetry_space_group_name_H-M "P 21/C"
_symmetry_group_IT_number 14
_symmetry_cell_setting 'monoclinic'
loop_
_space_group_symop_operation_xyz
x,y,z
-x,1/2+y,1/2-z
-x,-y,-z
x,1/2-y,1/2+z
loop_
_atom_site_type_symbol
_atom_site_label
_atom_site_fract_x
_atom_site_fract_y
_atom_site_fract_z
Si Si1 0.340986 0.776085 0.642378
Si Si2 0.371632 0.341750 0.628506
Si Si3 0.963683 0.928546 0.212262
Si Si4 0.471334 0.644645 0.255435
Si Si5 0.297801 0.109478 0.788992
Si Si6 0.500000 0.500000 0.500000
Si Si7 0.711539 0.042718 0.553370
Si Si8 0.998254 0.173169 0.263950
O O1 0.384663 0.698534 0.629002
O O2 0.326012 0.807898 0.788622
O O3 0.558774 0.826645 0.396270
O O4 0.131143 0.779392 0.720759
O O5 0.383826 0.322878 0.758913
O O6 0.383942 0.421062 0.602311
O O7 0.150835 0.304506 0.747434
O O8 0.702001 0.895083 0.490685
O O9 0.926377 0.917659 0.101705
O O10 0.938919 0.000745 0.294202
O O11 0.238073 0.900186 0.009687
O O12 0.485805 0.047717 0.652163
O O13 0.197429 0.133814 0.005059
O O14 0.367337 0.514187 0.748804
O O15 0.798982 0.118810 0.484486
#
# Coordination Sequence:
#
# PCOD9249173 Si02
#       8
#     4   4   4   4   4   2   4   4
#     4  10  26  51  77 111 154 213 275 332 401 473
#     4  12  28  49  81 112 167 208 268 336 410 490
#     4  11  24  46  78 114 166 210 274 331 402 476
#     4  11  26  49  76 121 156 216 270 340 396 487
#     4  10  22  47  73 113 155 208 277 331 394 477
#     4  12  26  50  68 118 164 204 262 320 430 486
#     4  11  25  44  77 112 164 214 268 332 410 491
#     4  11  25  49  79 114 158 211 266 335 408 485
#
# _framework density 25.803000999999998
#
# number of rings (size 3 to 8) (size 9 to 14) (size 15 to 20)
#    0.000    1.067    4.000    0.400    5.600    4.267 
#    2.400    0.000    0.000    0.000    0.000    0.000 
#    0.000    0.000    0.000    0.000    0.000    0.000 
#
# Total GULP energy -167147.520144 kJ/mol
# GULP energy per Si atom -5571.584005 kJ/mol
# Density = 2.574427 g / cm^3
# Si number density = 25.803001 Si / 1000 Ang^3
#
#
#
# Elastic Constant Matrix: (Units=GPa)
#
#
# Indices 1 2 3 4 5 6 
#
# 1 183.2614 24.3098 24.7203 0.0000 -12.2482 0.0000
# 2 24.3098 49.8259 4.1447 0.0000 3.5718 0.0000
# 3 24.7203 4.1447 59.5855 0.0000 -3.5151 0.0000
# 4 0.0000 0.0000 0.0000 31.3448 0.0000 -8.2594
# 5 -12.2482 3.5718 -3.5151 0.0000 24.1776 0.0000
# 6 0.0000 0.0000 0.0000 -8.2594 0.0000 10.9281
#
#
#
# Elastic Compliance Matrix: (Units=1/GPa)
#
#
# Indices 1 2 3 4 5 6 
#
# 1 0.006407 -0.003183 -0.002237 0.000000 0.003391 0.000000
# 2 -0.003183 0.022019 -0.000502 0.000000 -0.004938 0.000000
# 3 -0.002237 -0.000502 0.017836 0.000000 0.001534 0.000000
# 4 0.000000 0.000000 0.000000 0.039837 0.000000 0.030108
# 5 0.003391 -0.004938 0.001534 0.000000 0.044031 0.000000
# 6 0.000000 0.000000 0.000000 0.030108 0.000000 0.114262
#
#
# Mechanical properties :
#
#
# Convention : Reuss Voigt Hill
#
# Bulk Modulus (GPa) = 29.05490 44.33583 36.69536
# Shear Modulus (GPa) = 18.67698 29.25664 23.96681
#
# Velocity S-wave (km/s) = 2.69333 3.37092 3.05099
# Velocity P-wave (km/s) = 4.57785 5.68951 5.16368
#
# Compressibility (1/GPa) = 0.03441760
#
# Stress axis : x y z
#
# Youngs Moduli (GPa) = 156.07263 45.41591 56.06631
#
# Poissons Ratio (x) = 0.14456 0.12541
# Poissons Ratio (y) = 0.49679 0.02817
# Poissons Ratio (z) = 0.34909 0.02282
#
# Static dielectric constant tensor:
#      x y z
#    x 2.252800 0.000000 -0.124670 
#    y 0.000000 2.086710 0.000000 
#    z -0.124670 0.000000 2.180700 
# 
# From -- ./inp_files/30720.got.cif
#   From: 2010.05.17/outbox.cif.g08.bks.cpg/sg14_16_cif.got.tgz:30720.got - 2010.06.03 17:49:19.
