data_PCOD9249808
_publ_section_title
;
Structure prediction by ZEFSAII (Michael W. Deem and Ramdas Pophale) SiO2 
 PCOD9249808
Probable space group: P 21/C
;
_chemical_formula_sum "Si O2"
_cell_formula_units_Z 32
_cell_length_a 19.026526
_cell_length_b 8.735200
_cell_length_c 10.838235
_cell_angle_alpha 90.000000
_cell_angle_beta 42.009681
_cell_angle_gamma 90.000000
_cell_volume 1205.544634
_symmetry_space_group_name_H-M "P 21/C"
_symmetry_group_IT_number 14
_symmetry_cell_setting 'monoclinic'
loop_
_space_group_symop_operation_xyz
x,y,z
-x,1/2+y,1/2-z
-x,-y,-z
x,1/2-y,1/2+z
loop_
_atom_site_type_symbol
_atom_site_label
_atom_site_fract_x
_atom_site_fract_y
_atom_site_fract_z
Si Si1 0.536675 0.102998 0.631285
Si Si2 0.081343 0.808289 0.815875
Si Si3 0.771406 0.888771 0.801792
Si Si4 0.239328 0.466548 0.203855
Si Si5 0.753827 0.392838 0.540933
Si Si6 0.897617 0.857502 0.435749
Si Si7 0.536980 0.273786 0.873260
Si Si8 0.016767 0.139862 0.358617
O O1 0.662543 0.073282 0.464290
O O2 0.502066 0.153597 0.813698
O O3 0.507462 0.222392 0.557497
O O4 0.494704 0.939999 0.639161
O O5 0.137546 0.966965 0.767450
O O6 0.149949 0.709500 0.631454
O O7 0.961531 0.772423 0.934363
O O8 0.077572 0.731437 0.956387
O O9 0.738608 0.711185 0.854262
O O10 0.783732 0.901886 0.636929
O O11 0.896347 0.933396 0.663979
O O12 0.719656 0.002517 0.966935
O O13 0.226728 0.495541 0.367941
O O14 0.662714 0.279576 0.702630
O O15 0.905084 0.760489 0.304180
O O16 0.968746 0.009007 0.335906
#
# Coordination Sequence:
#
# PCOD9249808 Si02
#       8
#     4   4   4   4   4   4   4   4
#     4  10  23  45  68 103 134 176 214 267 329 398
#     4  11  21  40  61  83 120 163 210 261 317 378
#     4  11  23  40  58  87 124 163 214 266 318 376
#     4  11  25  40  65  95 123 164 218 263 323 390
#     4  11  21  44  63  90 127 167 207 272 319 381
#     4  11  23  38  59  85 124 165 214 262 322 381
#     4  10  23  43  72  97 139 173 216 267 330 396
#     4  11  23  38  58  86 122 166 212 263 319 382
#
# _framework density 26.54402
#
# number of rings (size 3 to 8) (size 9 to 14) (size 15 to 20)
#    0.000    1.250    3.750    2.250    5.250    1.500 
#    0.000    2.500    0.000    0.000    0.000    0.000 
#    0.000    0.000    0.000    0.000    0.000    0.000 
#
# Total GULP energy -178524.570034 kJ/mol
# GULP energy per Si atom -5578.892814 kJ/mol
# Density = 2.648360 g / cm^3
# Si number density = 26.544020 Si / 1000 Ang^3
#
#
#
# Elastic Constant Matrix: (Units=GPa)
#
#
# Indices 1 2 3 4 5 6 
#
# 1 54.4896 1.9326 11.9487 0.0000 7.0938 0.0000
# 2 1.9326 78.6935 3.1248 0.0000 18.1180 0.0000
# 3 11.9487 3.1248 25.6937 0.0000 9.6493 0.0000
# 4 0.0000 0.0000 0.0000 36.8025 0.0000 4.8043
# 5 7.0938 18.1180 9.6493 0.0000 29.5105 0.0000
# 6 0.0000 0.0000 0.0000 4.8043 0.0000 40.1052
#
#
#
# Elastic Compliance Matrix: (Units=1/GPa)
#
#
# Indices 1 2 3 4 5 6 
#
# 1 0.020556 0.000375 -0.008735 0.000000 -0.002315 0.000000
# 2 0.000375 0.014883 0.001688 0.000000 -0.009780 0.000000
# 3 -0.008735 0.001688 0.048310 0.000000 -0.014733 0.000000
# 4 0.000000 0.000000 0.000000 0.027604 0.000000 -0.003307
# 5 -0.002315 -0.009780 -0.014733 0.000000 0.045264 0.000000
# 6 0.000000 0.000000 0.000000 -0.003307 0.000000 0.025331
#
#
# Mechanical properties :
#
#
# Convention : Reuss Voigt Hill
#
# Bulk Modulus (GPa) = 14.20362 21.43210 17.81786
# Shear Modulus (GPa) = 22.85614 30.74170 26.79892
#
# Velocity S-wave (km/s) = 2.93758 3.40684 3.18087
# Velocity P-wave (km/s) = 4.10711 4.85460 4.49641
#
# Compressibility (1/GPa) = 0.07040457
#
# Stress axis : x y z
#
# Youngs Moduli (GPa) = 48.64811 67.19132 20.69962
#
# Poissons Ratio (x) = -0.02520 0.18082
# Poissons Ratio (y) = -0.01825 -0.03495
# Poissons Ratio (z) = 0.42496 -0.11344
#
# Static dielectric constant tensor:
#      x y z
#    x 2.384830 0.000000 0.294770 
#    y 0.000000 2.104050 0.000000 
#    z 0.294770 0.000000 2.426310 
# 
# From -- ./inp_files/35736.got.cif
#   From: 2010.05.17/outbox.cif.g08.bks.cpg/sg14_18_cif.got.tgz:35736.got - 2010.06.03 17:49:19.
