data_PCOD9249731
_publ_section_title
;
Structure prediction by ZEFSAII (Michael W. Deem and Ramdas Pophale) SiO2 
 PCOD9249731
Probable space group: P 21/C
;
_chemical_formula_sum "Si O2"
_cell_formula_units_Z 28
_cell_length_a 20.086860
_cell_length_b 8.960044
_cell_length_c 14.802305
_cell_angle_alpha 90.000000
_cell_angle_beta 28.381273
_cell_angle_gamma 90.000000
_cell_volume 1266.347406
_symmetry_space_group_name_H-M "P 21/C"
_symmetry_group_IT_number 14
_symmetry_cell_setting 'monoclinic'
loop_
_space_group_symop_operation_xyz
x,y,z
-x,1/2+y,1/2-z
-x,-y,-z
x,1/2-y,1/2+z
loop_
_atom_site_type_symbol
_atom_site_label
_atom_site_fract_x
_atom_site_fract_y
_atom_site_fract_z
Si Si1 0.356716 0.903150 0.274247
Si Si2 0.155366 0.429764 0.315545
Si Si3 0.898429 0.875916 0.926751
Si Si4 0.379055 0.909326 0.048237
Si Si5 0.553367 0.421891 0.028348
Si Si6 0.151335 0.097836 0.627018
Si Si7 0.324915 0.583565 0.408051
O O1 0.332899 0.745494 0.351362
O O2 0.519811 0.946904 0.071822
O O3 0.286095 0.031759 0.417755
O O4 0.298928 0.905137 0.240033
O O5 0.164656 0.345088 0.398909
O O6 0.176579 0.341420 0.197568
O O7 0.000000 0.500000 0.500000
O O8 0.280092 0.550491 0.165290
O O9 0.915975 0.725395 0.851959
O O10 0.044529 0.960551 0.761505
O O11 0.793129 0.984669 0.999321
O O12 0.468308 0.754983 0.945304
O O13 0.303981 0.905971 0.040705
O O14 0.470356 0.499631 0.209138
O O15 0.500000 0.500000 0.000000
#
# Coordination Sequence:
#
# PCOD9249731 Si02
#       7
#     4   4   4   4   4   4   4
#     4  11  24  41  61  94 131 168 217 283 327 391
#     4  10  23  43  67  94 131 176 219 266 333 406
#     4  11  24  43  66  97 130 175 225 274 329 408
#     4  11  24  40  63  96 131 168 219 279 334 386
#     4  12  22  42  69  94 131 179 224 269 334 399
#     4  11  24  43  67  92 132 176 220 274 339 397
#     4  12  23  40  66  95 132 171 221 273 336 392
#
# _framework density 22.110835000000002
#
# number of rings (size 3 to 8) (size 9 to 14) (size 15 to 20)
#    0.000    0.857    2.857    4.286    0.000    4.571 
#    0.000    1.429    0.000    0.000    0.000    0.000 
#    0.000    0.000    0.000    0.000    0.000    0.000 
#
# Total GULP energy -156532.981967 kJ/mol
# GULP energy per Si atom -5590.463642 kJ/mol
# Density = 2.206051 g / cm^3
# Si number density = 22.110835 Si / 1000 Ang^3
#
#
#
# Elastic Constant Matrix: (Units=GPa)
#
#
# Indices 1 2 3 4 5 6 
#
# 1 128.6164 0.1725 34.0646 0.0000 49.2408 0.0000
# 2 0.1725 46.3562 -2.3748 0.0000 16.8616 0.0000
# 3 34.0646 -2.3748 69.1198 0.0000 10.7565 0.0000
# 4 0.0000 0.0000 0.0000 13.2470 0.0000 -2.3800
# 5 49.2408 16.8616 10.7565 0.0000 57.4850 0.0000
# 6 0.0000 0.0000 0.0000 -2.3800 0.0000 18.2375
#
#
#
# Elastic Compliance Matrix: (Units=1/GPa)
#
#
# Indices 1 2 3 4 5 6 
#
# 1 0.013589 0.004056 -0.004698 0.000000 -0.011951 0.000000
# 2 0.004056 0.025628 0.000610 0.000000 -0.011105 0.000000
# 3 -0.004698 0.000610 0.016692 0.000000 0.000722 0.000000
# 4 0.000000 0.000000 0.000000 0.077301 0.000000 0.010088
# 5 -0.011951 -0.011105 0.000722 0.000000 0.030755 0.000000
# 6 0.000000 0.000000 0.000000 0.010088 0.000000 0.056148
#
#
# Mechanical properties :
#
#
# Convention : Reuss Voigt Hill
#
# Bulk Modulus (GPa) = 17.90707 34.20190 26.05449
# Shear Modulus (GPa) = 20.93861 31.94257 26.44059
#
# Velocity S-wave (km/s) = 3.08065 3.80499 3.46182
# Velocity P-wave (km/s) = 4.55744 5.89965 5.27144
#
# Compressibility (1/GPa) = 0.05584387
#
# Stress axis : x y z
#
# Youngs Moduli (GPa) = 73.58679 39.02026 59.91037
#
# Poissons Ratio (x) = -0.15826 0.28147
# Poissons Ratio (y) = -0.29845 -0.03654
# Poissons Ratio (z) = 0.34572 -0.02380
#
# Static dielectric constant tensor:
#      x y z
#    x 1.872800 0.000000 0.015100 
#    y 0.000000 1.760570 0.000000 
#    z 0.015100 0.000000 1.838220 
# 
# From -- ./inp_files/50223.got.cif
#   From: 2010.05.17/outbox.cif.g08.bks.cpg/sg14_26_cif.got.tgz:50223.got - 2010.06.03 17:49:19.
