data_PCOD9249271
_publ_section_title
;
Structure prediction by ZEFSAII (Michael W. Deem and Ramdas Pophale) SiO2 
 PCOD9249271
Probable space group: P 21/C
;
_chemical_formula_sum "Si O2"
_cell_formula_units_Z 28
_cell_length_a 18.901225
_cell_length_b 5.675143
_cell_length_c 11.048903
_cell_angle_alpha 90.000000
_cell_angle_beta 107.357845
_cell_angle_gamma 90.000000
_cell_volume 1131.211195
_symmetry_space_group_name_H-M "P 21/C"
_symmetry_group_IT_number 14
_symmetry_cell_setting 'monoclinic'
loop_
_space_group_symop_operation_xyz
x,y,z
-x,1/2+y,1/2-z
-x,-y,-z
x,1/2-y,1/2+z
loop_
_atom_site_type_symbol
_atom_site_label
_atom_site_fract_x
_atom_site_fract_y
_atom_site_fract_z
Si Si1 0.986514 0.814970 0.888834
Si Si2 0.247898 0.071882 0.715954
Si Si3 0.580432 0.890629 0.558416
Si Si4 0.844669 0.941000 0.675749
Si Si5 0.294274 0.762909 0.949420
Si Si6 0.362475 0.137442 0.140503
Si Si7 0.886649 0.036387 0.470346
O O1 0.070675 0.720102 0.922554
O O2 0.928070 0.946134 0.773266
O O3 0.942148 0.577564 0.902547
O O4 0.000000 0.000000 0.000000
O O5 0.202085 0.282816 0.755639
O O6 0.297902 0.171011 0.633863
O O7 0.185969 0.888441 0.637810
O O8 0.295609 0.962029 0.846263
O O9 0.645370 0.072403 0.557400
O O10 0.500000 0.000000 0.500000
O O11 0.589791 0.697597 0.454908
O O12 0.592992 0.849689 0.709418
O O13 0.787880 0.150104 0.607790
O O14 0.861015 0.831802 0.550577
O O15 0.320285 0.892774 0.086065
#
# Coordination Sequence:
#
# PCOD9249271 Si02
#       7
#     4   4   4   4   4   4   4
#     4  10  23  41  60  93 135 188 245 307 388 451
#     4  11  23  46  72 111 147 193 259 324 380 465
#     4  12  31  50  81 118 160 209 252 320 392 473
#     4  11  24  41  69 106 140 197 254 320 381 462
#     4  12  25  46  79 108 148 204 256 308 395 461
#     4  12  27  51  77 118 163 195 267 325 385 480
#     4  10  23  39  64  94 143 182 247 322 378 454
#
# _framework density 24.752231999999999
#
# number of rings (size 3 to 8) (size 9 to 14) (size 15 to 20)
#    0.000    0.857    2.857    2.571    8.000    4.000 
#    0.000    0.000    0.000    0.000    0.000    0.000 
#    0.000    0.000    0.000    0.000    0.000    0.000 
#
# Total GULP energy -156070.036112 kJ/mol
# GULP energy per Si atom -5573.929861 kJ/mol
# Density = 2.469590 g / cm^3
# Si number density = 24.752232 Si / 1000 Ang^3
#
#
#
# Elastic Constant Matrix: (Units=GPa)
#
#
# Indices 1 2 3 4 5 6 
#
# 1 117.3097 13.4359 66.2637 0.0000 27.8025 0.0000
# 2 13.4359 42.3265 36.9616 0.0000 9.3590 0.0000
# 3 66.2637 36.9616 197.8766 0.0000 22.2770 0.0000
# 4 0.0000 0.0000 0.0000 45.4460 0.0000 -0.5429
# 5 27.8025 9.3590 22.2770 0.0000 45.8575 0.0000
# 6 0.0000 0.0000 0.0000 -0.5429 0.0000 34.2289
#
#
#
# Elastic Compliance Matrix: (Units=1/GPa)
#
#
# Indices 1 2 3 4 5 6 
#
# 1 0.011693 0.000464 -0.003378 0.000000 -0.005543 0.000000
# 2 0.000464 0.028755 -0.005114 0.000000 -0.003666 0.000000
# 3 -0.003378 -0.005114 0.007185 0.000000 -0.000398 0.000000
# 4 0.000000 0.000000 0.000000 0.022008 0.000000 0.000349
# 5 -0.005543 -0.003666 -0.000398 0.000000 0.026109 0.000000
# 6 0.000000 0.000000 0.000000 0.000349 0.000000 0.029221
#
#
# Mechanical properties :
#
#
# Convention : Reuss Voigt Hill
#
# Bulk Modulus (GPa) = 31.66909 65.64836 48.65872
# Shear Modulus (GPa) = 32.99176 41.16326 37.07751
#
# Velocity S-wave (km/s) = 3.65482 4.08243 3.87453
# Velocity P-wave (km/s) = 5.53467 6.98580 6.30214
#
# Compressibility (1/GPa) = 0.03157653
#
# Stress axis : x y z
#
# Youngs Moduli (GPa) = 85.51883 34.77693 139.17734
#
# Poissons Ratio (x) = -0.01614 0.47020
# Poissons Ratio (y) = -0.03968 0.71173
# Poissons Ratio (z) = 0.28892 0.17784
#
# Static dielectric constant tensor:
#      x y z
#    x 1.993130 0.000000 -0.049950 
#    y 0.000000 1.955280 0.000000 
#    z -0.049950 0.000000 2.163560 
# 
# From -- ./inp_files/34785.got.cif
#   From: 2010.05.17/outbox.cif.g08.bks.cpg/sg14_18_cif.got.tgz:34785.got - 2010.06.03 17:49:19.
