data_PCOD9249865
_publ_section_title
;
Structure prediction by ZEFSAII (Michael W. Deem and Ramdas Pophale) SiO2 
 PCOD9249865
Probable space group: P 21/C
;
_chemical_formula_sum "Si O2"
_cell_formula_units_Z 32
_cell_length_a 15.893734
_cell_length_b 7.993741
_cell_length_c 9.499546
_cell_angle_alpha 90.000000
_cell_angle_beta 88.838754
_cell_angle_gamma 90.000000
_cell_volume 1206.673176
_symmetry_space_group_name_H-M "P 21/C"
_symmetry_group_IT_number 14
_symmetry_cell_setting 'monoclinic'
loop_
_space_group_symop_operation_xyz
x,y,z
-x,1/2+y,1/2-z
-x,-y,-z
x,1/2-y,1/2+z
loop_
_atom_site_type_symbol
_atom_site_label
_atom_site_fract_x
_atom_site_fract_y
_atom_site_fract_z
Si Si1 0.593567 0.046701 0.164051
Si Si2 0.284709 0.851549 0.601415
Si Si3 0.818191 0.844104 0.489084
Si Si4 0.761798 0.015729 0.993984
Si Si5 0.085760 0.920486 0.823810
Si Si6 0.659031 0.570623 0.124076
Si Si7 0.435310 0.253547 0.633704
Si Si8 0.009285 0.261272 0.919562
O O1 0.641862 0.138043 0.289199
O O2 0.667943 0.990275 0.057234
O O3 0.521937 0.156338 0.095003
O O4 0.552337 0.890441 0.248655
O O5 0.241992 0.672113 0.610276
O O6 0.222305 0.013047 0.607684
O O7 0.325331 0.887124 0.443835
O O8 0.912577 0.875452 0.534629
O O9 0.805838 0.653470 0.437900
O O10 0.940868 0.157068 0.322075
O O11 0.820302 0.081254 0.119496
O O12 0.752602 0.648804 0.121022
O O13 0.053892 0.111259 0.831650
O O14 0.032871 0.819523 0.943065
O O15 0.619040 0.611110 0.274795
O O16 0.606823 0.662728 0.999061
#
# Coordination Sequence:
#
# PCOD9249865 Si02
#       8
#     4   4   4   4   4   4   4   4
#     4  11  25  41  66  96 134 174 227 280 339 404
#     4   9  23  42  64  97 126 176 227 265 336 405
#     4   9  21  44  70  92 138 178 221 276 337 405
#     4  11  23  44  64  99 134 180 225 279 335 406
#     4  10  25  42  68 101 144 174 237 277 343 412
#     4   9  22  43  62  92 133 171 215 272 332 399
#     4  11  24  41  65  96 133 169 224 280 332 401
#     4  10  23  44  67 107 136 184 223 290 337 408
#
# _framework density 26.519193000000001
#
# number of rings (size 3 to 8) (size 9 to 14) (size 15 to 20)
#    0.750    1.250    1.250    0.000    7.000    6.000 
#    0.000    0.000    0.000    0.000    0.000    0.000 
#    0.000    0.000    0.000    0.000    0.000    0.000 
#
# Total GULP energy -179186.189564 kJ/mol
# GULP energy per Si atom -5599.568424 kJ/mol
# Density = 2.645883 g / cm^3
# Si number density = 26.519193 Si / 1000 Ang^3
#
#
#
# Elastic Constant Matrix: (Units=GPa)
#
#
# Indices 1 2 3 4 5 6 
#
# 1 129.9869 15.1330 18.6651 0.0000 5.7737 0.0000
# 2 15.1330 98.8173 17.8495 0.0000 16.5826 0.0000
# 3 18.6651 17.8495 97.9245 0.0000 20.3252 0.0000
# 4 0.0000 0.0000 0.0000 32.6936 0.0000 3.3372
# 5 5.7737 16.5826 20.3252 0.0000 20.2930 0.0000
# 6 0.0000 0.0000 0.0000 3.3372 0.0000 40.7438
#
#
#
# Elastic Compliance Matrix: (Units=1/GPa)
#
#
# Indices 1 2 3 4 5 6 
#
# 1 0.008001 -0.000958 -0.001314 0.000000 -0.000178 0.000000
# 2 -0.000958 0.011845 -0.000030 0.000000 -0.009377 0.000000
# 3 -0.001314 -0.000030 0.013111 0.000000 -0.012733 0.000000
# 4 0.000000 0.000000 0.000000 0.030845 0.000000 -0.002526
# 5 -0.000178 -0.009377 -0.012733 0.000000 0.069744 0.000000
# 6 0.000000 0.000000 0.000000 -0.002526 0.000000 0.024751
#
#
# Mechanical properties :
#
#
# Convention : Reuss Voigt Hill
#
# Bulk Modulus (GPa) = 35.26938 47.78044 41.52491
# Shear Modulus (GPa) = 29.01039 37.08480 33.04760
#
# Velocity S-wave (km/s) = 3.31106 3.74359 3.53395
# Velocity P-wave (km/s) = 5.28639 6.06155 5.68720
#
# Compressibility (1/GPa) = 0.02835321
#
# Stress axis : x y z
#
# Youngs Moduli (GPa) = 124.98208 84.42103 76.27356
#
# Poissons Ratio (x) = 0.08089 0.10019
# Poissons Ratio (y) = 0.11976 0.00231
# Poissons Ratio (z) = 0.16416 0.00256
#
# Static dielectric constant tensor:
#      x y z
#    x 2.075910 0.000000 -0.051980 
#    y 0.000000 2.120260 0.000000 
#    z -0.051980 0.000000 2.062310 
# 
# From -- ./inp_files/31818.got.cif
#   From: 2010.05.17/outbox.cif.g08.bks.cpg/sg14_16_cif.got.tgz:31818.got - 2010.06.03 17:49:19.
