data_PCOD9249223
_publ_section_title
;
Structure prediction by ZEFSAII (Michael W. Deem and Ramdas Pophale) SiO2 
 PCOD9249223
Probable space group: P 21/C
;
_chemical_formula_sum "Si O2"
_cell_formula_units_Z 32
_cell_length_a 13.319464
_cell_length_b 13.524475
_cell_length_c 8.470780
_cell_angle_alpha 90.000000
_cell_angle_beta 81.853225
_cell_angle_gamma 90.000000
_cell_volume 1510.516702
_symmetry_space_group_name_H-M "P 21/C"
_symmetry_group_IT_number 14
_symmetry_cell_setting 'monoclinic'
loop_
_space_group_symop_operation_xyz
x,y,z
-x,1/2+y,1/2-z
-x,-y,-z
x,1/2-y,1/2+z
loop_
_atom_site_type_symbol
_atom_site_label
_atom_site_fract_x
_atom_site_fract_y
_atom_site_fract_z
Si Si1 0.960912 0.606338 0.949882
Si Si2 0.241013 0.330633 0.149485
Si Si3 0.285062 0.958354 0.202752
Si Si4 0.868079 0.293266 0.303411
Si Si5 0.381089 0.016040 0.509613
Si Si6 0.089710 0.887956 0.877744
Si Si7 0.875486 0.631310 0.286549
Si Si8 0.280746 0.016898 0.859623
O O1 0.928674 0.666110 0.112749
O O2 0.855879 0.601895 0.877903
O O3 0.000000 0.500000 0.000000
O O4 0.044421 0.659387 0.825814
O O5 0.334627 0.371342 0.023700
O O6 0.197533 0.220838 0.147148
O O7 0.273284 0.366588 0.317969
O O8 0.348255 0.971368 0.348503
O O9 0.192368 0.036533 0.235839
O O10 0.236478 0.849554 0.209192
O O11 0.328572 0.986237 0.017693
O O12 0.896296 0.320400 0.473261
O O13 0.866038 0.177051 0.275386
O O14 0.333123 0.976299 0.686946
O O15 0.500000 0.000000 0.500000
O O16 0.970931 0.901369 0.871877
O O17 0.165937 0.976866 0.891149
#
# Coordination Sequence:
#
# PCOD9249223 Si02
#       8
#     4   4   4   4   4   4   4   4
#     4  12  21  37  56  87 132 177 214 246 308 385
#     4  10  23  37  59  93 128 168 214 265 324 374
#     4  11  24  39  65  93 127 170 209 269 325 388
#     4  11  24  37  54  93 127 178 216 241 315 381
#     4  10  23  46  72  87 118 166 220 278 339 378
#     4  11  24  34  60  89 133 178 206 254 300 392
#     4  12  23  35  61  94 137 173 207 256 317 388
#     4   9  24  41  61  93 129 162 214 265 317 381
#
# _framework density 21.184802999999999
#
# number of rings (size 3 to 8) (size 9 to 14) (size 15 to 20)
#    0.750    0.500    3.750    1.500    7.000    1.500 
#    0.000    0.000    2.750    0.000    0.000    0.000 
#    0.000    0.000    0.000    0.000    0.000    0.000 
#
# Total GULP energy -178386.405172 kJ/mol
# GULP energy per Si atom -5574.575162 kJ/mol
# Density = 2.113659 g / cm^3
# Si number density = 21.184803 Si / 1000 Ang^3
#
#
#
# Elastic Constant Matrix: (Units=GPa)
#
#
# Indices 1 2 3 4 5 6 
#
# 1 107.8668 17.7021 44.3216 0.0000 14.7470 0.0000
# 2 17.7021 20.4687 -13.8819 0.0000 -3.4598 0.0000
# 3 44.3216 -13.8819 140.8657 0.0000 12.7078 0.0000
# 4 0.0000 0.0000 0.0000 29.2101 0.0000 -2.0948
# 5 14.7470 -3.4598 12.7078 0.0000 29.5233 0.0000
# 6 0.0000 0.0000 0.0000 -2.0948 0.0000 12.6716
#
#
#
# Elastic Compliance Matrix: (Units=1/GPa)
#
#
# Indices 1 2 3 4 5 6 
#
# 1 0.016095 -0.019477 -0.006297 0.000000 -0.007612 0.000000
# 2 -0.019477 0.076398 0.012455 0.000000 0.013320 0.000000
# 3 -0.006297 0.012455 0.010292 0.000000 0.000175 0.000000
# 4 0.000000 0.000000 0.000000 0.034645 0.000000 0.005727
# 5 -0.007612 0.013320 0.000175 0.000000 0.039159 0.000000
# 6 0.000000 0.000000 0.000000 0.005727 0.000000 0.079863
#
#
# Mechanical properties :
#
#
# Convention : Reuss Voigt Hill
#
# Bulk Modulus (GPa) = 13.13230 40.60942 26.87086
# Shear Modulus (GPa) = 16.20896 29.01830 22.61363
#
# Velocity S-wave (km/s) = 2.76908 3.70506 3.27072
# Velocity P-wave (km/s) = 4.05415 6.12487 5.19375
#
# Compressibility (1/GPa) = 0.07614811
#
# Stress axis : x y z
#
# Youngs Moduli (GPa) = 62.13142 13.08940 97.16478
#
# Poissons Ratio (x) = 0.25494 0.61182
# Poissons Ratio (y) = 1.21010 -1.21020
# Poissons Ratio (z) = 0.39123 -0.16303
#
# Static dielectric constant tensor:
#      x y z
#    x 1.738280 0.000000 0.010510 
#    y 0.000000 1.842360 0.000000 
#    z 0.010510 0.000000 1.877810 
# 
# From -- ./inp_files/13346.got.cif
#   From: 2010.05.17/outbox.cif.g08.bks.cpg/sg14_7_cif.got.tgz:13346.got - 2010.06.03 17:49:19.
