data_PCOD9249915
_publ_section_title
;
Structure prediction by ZEFSAII (Michael W. Deem and Ramdas Pophale) SiO2 
 PCOD9249915
Probable space group: P 21/C
;
_chemical_formula_sum "Si O2"
_cell_formula_units_Z 20
_cell_length_a 12.419369
_cell_length_b 8.866217
_cell_length_c 15.146701
_cell_angle_alpha 90.000000
_cell_angle_beta 151.838114
_cell_angle_gamma 90.000000
_cell_volume 787.163929
_symmetry_space_group_name_H-M "P 21/C"
_symmetry_group_IT_number 14
_symmetry_cell_setting 'monoclinic'
loop_
_space_group_symop_operation_xyz
x,y,z
-x,1/2+y,1/2-z
-x,-y,-z
x,1/2-y,1/2+z
loop_
_atom_site_type_symbol
_atom_site_label
_atom_site_fract_x
_atom_site_fract_y
_atom_site_fract_z
Si Si1 0.694736 0.767193 0.041149
Si Si2 0.697655 0.379426 0.162017
Si Si3 0.311901 0.564409 0.027126
Si Si4 0.185960 0.400329 0.558336
Si Si5 0.963381 0.854849 0.412433
O O1 0.748560 0.866300 0.995563
O O2 0.783797 0.599912 0.072556
O O3 0.799724 0.833191 0.207781
O O4 0.424835 0.745731 0.867976
O O5 0.925587 0.459513 0.361373
O O6 0.500000 0.500000 0.000000
O O7 0.737582 0.324496 0.090961
O O8 0.579059 0.530615 0.236864
O O9 0.203546 0.645385 0.032885
O O10 0.134561 0.259932 0.585549
O O11 0.000000 0.000000 0.500000
#
# Coordination Sequence:
#
# PCOD9249915 Si02
#       5
#     4   4   4   4   4
#     4  11  24  47  72 111 156 199 257 324 380 471
#     4  10  23  44  70 109 145 196 261 306 381 460
#     4  11  24  47  74 114 152 205 260 310 396 468
#     4  12  24  46  78 108 157 206 249 330 385 462
#     4  12  25  48  78 112 154 200 259 323 393 457
#
# _framework density 25.407667
#
# number of rings (size 3 to 8) (size 9 to 14) (size 15 to 20)
#    0.000    0.800    6.000    1.200    0.000    3.200 
#    7.200   10.000    0.000    0.000    0.000    0.000 
#    0.000    0.000    0.000    0.000    0.000    0.000 
#
# Total GULP energy -111436.062980 kJ/mol
# GULP energy per Si atom -5571.803149 kJ/mol
# Density = 2.534984 g / cm^3
# Si number density = 25.407667 Si / 1000 Ang^3
#
#
#
# Elastic Constant Matrix: (Units=GPa)
#
#
# Indices 1 2 3 4 5 6 
#
# 1 157.5447 18.6080 54.2665 0.0000 -23.8014 0.0000
# 2 18.6080 52.8434 39.7701 0.0000 -23.6311 0.0000
# 3 54.2665 39.7701 193.7276 0.0000 -10.2559 0.0000
# 4 0.0000 0.0000 0.0000 34.0994 0.0000 -7.3535
# 5 -23.8014 -23.6311 -10.2559 0.0000 59.9314 0.0000
# 6 0.0000 0.0000 0.0000 -7.3535 0.0000 35.8053
#
#
#
# Elastic Compliance Matrix: (Units=1/GPa)
#
#
# Indices 1 2 3 4 5 6 
#
# 1 0.007409 0.000024 -0.001942 0.000000 0.002620 0.000000
# 2 0.000024 0.027117 -0.005053 0.000000 0.009837 0.000000
# 3 -0.001942 -0.005053 0.006657 0.000000 -0.001624 0.000000
# 4 0.000000 0.000000 0.000000 0.030685 0.000000 0.006302
# 5 0.002620 0.009837 -0.001624 0.000000 0.021327 0.000000
# 6 0.000000 0.000000 0.000000 0.006302 0.000000 0.029223
#
#
# Mechanical properties :
#
#
# Convention : Reuss Voigt Hill
#
# Bulk Modulus (GPa) = 36.70779 69.93387 53.32083
# Shear Modulus (GPa) = 34.37830 45.39863 39.88847
#
# Velocity S-wave (km/s) = 3.68240 4.23165 3.96654
# Velocity P-wave (km/s) = 5.70605 7.17358 6.48148
#
# Compressibility (1/GPa) = 0.02724218
#
# Stress axis : x y z
#
# Youngs Moduli (GPa) = 134.96810 36.87688 150.21666
#
# Poissons Ratio (x) = -0.00087 0.29166
# Poissons Ratio (y) = -0.00320 0.75900
# Poissons Ratio (z) = 0.26206 0.18633
#
# Static dielectric constant tensor:
#      x y z
#    x 2.347180 0.000000 -0.152280 
#    y 0.000000 2.111920 0.000000 
#    z -0.152280 0.000000 2.213200 
# 
# From -- ./inp_files/29961.got.cif
#   From: 2010.05.17/outbox.cif.g08.bks.cpg/sg14_15_cif.got.tgz:29961.got - 2010.06.03 17:49:19.
