data_PCOD9249016
_publ_section_title
;
Structure prediction by ZEFSAII (Michael W. Deem and Ramdas Pophale) SiO2 
 PCOD9249016
Probable space group: P 21/C
;
_chemical_formula_sum "Si O2"
_cell_formula_units_Z 20
_cell_length_a 13.873537
_cell_length_b 7.948082
_cell_length_c 21.444624
_cell_angle_alpha 90.000000
_cell_angle_beta 159.917999
_cell_angle_gamma 90.000000
_cell_volume 811.939327
_symmetry_space_group_name_H-M "P 21/C"
_symmetry_group_IT_number 14
_symmetry_cell_setting 'monoclinic'
loop_
_space_group_symop_operation_xyz
x,y,z
-x,1/2+y,1/2-z
-x,-y,-z
x,1/2-y,1/2+z
loop_
_atom_site_type_symbol
_atom_site_label
_atom_site_fract_x
_atom_site_fract_y
_atom_site_fract_z
Si Si1 0.401568 0.405519 0.502322
Si Si2 0.653293 0.824239 0.324198
Si Si3 0.082453 0.502678 0.478427
Si Si4 0.918643 0.851057 0.763937
Si Si5 0.077344 0.069152 0.635662
O O1 0.500000 0.500000 0.500000
O O2 0.286685 0.219734 0.414911
O O3 0.687922 0.420444 0.715937
O O4 0.166144 0.532854 0.386892
O O5 0.755246 0.673906 0.430226
O O6 0.784512 0.815436 0.334424
O O7 0.325073 0.856865 0.119486
O O8 0.794205 0.988202 0.439683
O O9 0.000000 0.500000 0.500000
O O10 0.849398 0.536528 0.283638
O O11 0.973526 0.671150 0.831566
#
# Coordination Sequence:
#
# PCOD9249016 Si02
#       5
#     4   4   4   4   4
#     4  10  24  45  70 100 148 195 245 302 358 441
#     4  11  24  41  72 108 147 190 239 310 369 438
#     4  12  25  43  73 110 149 191 245 309 379 438
#     4  11  23  45  71 100 144 193 247 292 367 440
#     4  10  22  45  70 103 150 187 243 305 366 433
#
# _framework density 24.632380999999999
#
# number of rings (size 3 to 8) (size 9 to 14) (size 15 to 20)
#    0.000    1.200    4.000    1.200    2.800    3.200 
#    0.000   11.000    0.000    0.000    0.000    0.000 
#    0.000    0.000    0.000    0.000    0.000    0.000 
#
# Total GULP energy -111469.713492 kJ/mol
# GULP energy per Si atom -5573.485675 kJ/mol
# Density = 2.457632 g / cm^3
# Si number density = 24.632381 Si / 1000 Ang^3
#
#
#
# Elastic Constant Matrix: (Units=GPa)
#
#
# Indices 1 2 3 4 5 6 
#
# 1 86.3269 26.8872 6.8451 0.0000 -4.1918 0.0000
# 2 26.8872 100.8406 44.4060 0.0000 -4.1900 0.0000
# 3 6.8451 44.4060 110.5254 0.0000 -11.2988 0.0000
# 4 0.0000 0.0000 0.0000 46.9648 0.0000 -23.2817
# 5 -4.1918 -4.1900 -11.2988 0.0000 23.3668 0.0000
# 6 0.0000 0.0000 0.0000 -23.2817 0.0000 43.9194
#
#
#
# Elastic Compliance Matrix: (Units=1/GPa)
#
#
# Indices 1 2 3 4 5 6 
#
# 1 0.012771 -0.003723 0.000916 0.000000 0.002066 0.000000
# 2 -0.003723 0.013134 -0.005127 0.000000 -0.000792 0.000000
# 3 0.000916 -0.005127 0.011544 0.000000 0.004827 0.000000
# 4 0.000000 0.000000 0.000000 0.028882 0.000000 0.015311
# 5 0.002066 -0.000792 0.004827 0.000000 0.045358 0.000000
# 6 0.000000 0.000000 0.000000 0.015311 0.000000 0.030885
#
#
# Mechanical properties :
#
#
# Convention : Reuss Voigt Hill
#
# Bulk Modulus (GPa) = 46.33576 50.44103 48.38840
# Shear Modulus (GPa) = 30.18639 37.48718 33.83678
#
# Velocity S-wave (km/s) = 3.50448 3.90534 3.71033
# Velocity P-wave (km/s) = 5.93523 6.39199 6.16784
#
# Compressibility (1/GPa) = 0.02158160
#
# Stress axis : x y z
#
# Youngs Moduli (GPa) = 78.30227 76.13728 86.62174
#
# Poissons Ratio (x) = 0.28343 -0.07934
# Poissons Ratio (y) = 0.29149 0.44414
# Poissons Ratio (z) = -0.07172 0.39038
#
# Static dielectric constant tensor:
#      x y z
#    x 2.071790 0.000000 -0.072310 
#    y 0.000000 2.054230 0.000000 
#    z -0.072310 0.000000 1.979160 
# 
# From -- ./inp_files/73673.got.cif
#   From: 2010.05.17/outbox.cif.g08.bks.cpg/sg14_37_cif.got.tgz:73673.got - 2010.06.03 17:49:19.
