data_PCOD9249284
_publ_section_title
;
Structure prediction by ZEFSAII (Michael W. Deem and Ramdas Pophale) SiO2 
 PCOD9249284
Probable space group: P 21/C
;
_chemical_formula_sum "Si O2"
_cell_formula_units_Z 28
_cell_length_a 15.586408
_cell_length_b 14.456244
_cell_length_c 10.753360
_cell_angle_alpha 90.000000
_cell_angle_beta 146.772102
_cell_angle_gamma 90.000000
_cell_volume 1327.709140
_symmetry_space_group_name_H-M "P 21/C"
_symmetry_group_IT_number 14
_symmetry_cell_setting 'monoclinic'
loop_
_space_group_symop_operation_xyz
x,y,z
-x,1/2+y,1/2-z
-x,-y,-z
x,1/2-y,1/2+z
loop_
_atom_site_type_symbol
_atom_site_label
_atom_site_fract_x
_atom_site_fract_y
_atom_site_fract_z
Si Si1 0.252018 0.536689 0.292540
Si Si2 0.047327 0.109737 0.415266
Si Si3 0.308484 0.445872 0.790713
Si Si4 0.829722 0.142036 0.937344
Si Si5 0.730098 0.168438 0.406298
Si Si6 0.499986 0.954335 0.712506
Si Si7 0.989280 0.819614 0.085720
O O1 0.304202 0.619686 0.266436
O O2 0.380301 0.495263 0.540999
O O3 0.103990 0.573439 0.191763
O O4 0.188890 0.455986 0.124511
O O5 0.077413 0.216662 0.482252
O O6 0.985854 0.111503 0.200325
O O7 0.267369 0.550510 0.701692
O O8 0.408260 0.410252 0.794122
O O9 0.150123 0.389297 0.610228
O O10 0.401079 0.461478 0.030991
O O11 0.887270 0.182220 0.876788
O O12 0.734789 0.220674 0.896644
O O13 0.611942 0.121273 0.359517
O O14 0.909039 0.150068 0.670550
#
# Coordination Sequence:
#
# PCOD9249284 Si02
#       7
#     4   4   4   4   4   4   4
#     4  11  22  43  64  94 140 173 222 273 337 399
#     4  10  23  39  67  97 125 176 221 284 326 388
#     4  11  24  44  69  97 137 178 223 275 339 402
#     4  11  21  42  70  96 128 174 223 279 327 396
#     4  11  24  41  70  99 133 173 229 269 345 401
#     4  11  25  44  65  97 137 184 214 278 343 403
#     4  11  23  43  69 100 127 173 234 278 326 400
#
# _framework density 21.088957000000001
#
# number of rings (size 3 to 8) (size 9 to 14) (size 15 to 20)
#    0.000    1.143    4.286    1.714    4.000    0.000 
#    5.143    1.429    0.000    0.000    0.000    0.000 
#    0.000    0.000    0.000    0.000    0.000    0.000 
#
# Total GULP energy -156447.406841 kJ/mol
# GULP energy per Si atom -5587.407387 kJ/mol
# Density = 2.104096 g / cm^3
# Si number density = 21.088957 Si / 1000 Ang^3
#
#
#
# Elastic Constant Matrix: (Units=GPa)
#
#
# Indices 1 2 3 4 5 6 
#
# 1 27.0289 12.2428 19.7389 0.0000 4.0372 0.0000
# 2 12.2428 90.2552 61.4808 0.0000 4.7679 0.0000
# 3 19.7389 61.4808 116.2750 0.0000 -18.7077 0.0000
# 4 0.0000 0.0000 0.0000 9.3687 0.0000 0.0291
# 5 4.0372 4.7679 -18.7077 0.0000 30.5638 0.0000
# 6 0.0000 0.0000 0.0000 0.0291 0.0000 26.9012
#
#
#
# Elastic Compliance Matrix: (Units=1/GPa)
#
#
# Indices 1 2 3 4 5 6 
#
# 1 0.046068 0.001874 -0.010912 0.000000 -0.013057 0.000000
# 2 0.001874 0.020097 -0.012744 0.000000 -0.011183 0.000000
# 3 -0.010912 -0.012744 0.019681 0.000000 0.015476 0.000000
# 4 0.000000 0.000000 0.000000 0.106739 0.000000 -0.000116
# 5 -0.013057 -0.011183 0.015476 0.000000 0.045660 0.000000
# 6 0.000000 0.000000 0.000000 -0.000116 0.000000 0.037173
#
#
# Mechanical properties :
#
#
# Convention : Reuss Voigt Hill
#
# Bulk Modulus (GPa) = 23.65065 46.72046 35.18555
# Shear Modulus (GPa) = 15.01156 22.70650 18.85903
#
# Velocity S-wave (km/s) = 2.67089 3.28487 2.99366
# Velocity P-wave (km/s) = 4.55528 6.04891 5.35443
#
# Compressibility (1/GPa) = 0.04228214
#
# Stress axis : x y z
#
# Youngs Moduli (GPa) = 21.70716 49.75803 50.81024
#
# Poissons Ratio (x) = -0.09324 0.55444
# Poissons Ratio (y) = -0.04068 0.64752
# Poissons Ratio (z) = 0.23687 0.63411
#
# Static dielectric constant tensor:
#      x y z
#    x 1.776890 0.000000 -0.013720 
#    y 0.000000 1.736510 0.000000 
#    z -0.013720 0.000000 1.775660 
# 
# From -- ./inp_files/34114.got.cif
#   From: 2010.05.17/outbox.cif.g08.bks.cpg/sg14_18_cif.got.tgz:34114.got - 2010.06.03 17:49:19.
