data_PCOD9249361
_publ_section_title
;
Structure prediction by ZEFSAII (Michael W. Deem and Ramdas Pophale) SiO2 
 PCOD9249361
Probable space group: P 21/C
;
_chemical_formula_sum "Si O2"
_cell_formula_units_Z 28
_cell_length_a 6.487348
_cell_length_b 11.483650
_cell_length_c 20.569858
_cell_angle_alpha 90.000000
_cell_angle_beta 71.616145
_cell_angle_gamma 90.000000
_cell_volume 1454.214914
_symmetry_space_group_name_H-M "P 21/C"
_symmetry_group_IT_number 14
_symmetry_cell_setting 'monoclinic'
loop_
_space_group_symop_operation_xyz
x,y,z
-x,1/2+y,1/2-z
-x,-y,-z
x,1/2-y,1/2+z
loop_
_atom_site_type_symbol
_atom_site_label
_atom_site_fract_x
_atom_site_fract_y
_atom_site_fract_z
Si Si1 0.785423 0.699540 0.421727
Si Si2 0.371125 0.300459 0.421725
Si Si3 0.846999 0.138135 0.669102
Si Si4 0.124004 0.500000 0.375995
Si Si5 0.814797 0.861866 0.669103
Si Si6 0.502646 0.820822 0.822000
Si Si7 0.146644 0.820822 0.178001
O O1 0.649682 0.723656 0.500001
O O2 0.636042 0.667547 0.375182
O O3 0.941746 0.806127 0.385758
O O4 0.946782 0.591285 0.418522
O O5 0.216171 0.408713 0.418521
O O6 0.286742 0.193871 0.385757
O O7 0.613593 0.332454 0.375181
O O8 0.633595 0.201464 0.662292
O O9 0.849367 0.173843 0.744791
O O10 0.836235 0.000000 0.663767
O O11 0.327148 0.576221 0.331702
O O12 0.009447 0.423780 0.331701
O O13 0.661052 0.826159 0.744792
O O14 0.041820 0.798535 0.662292
#
# Coordination Sequence:
#
# PCOD9249361 Si02
#       7
#     4   4   4   4   4   4   4
#     4  11  24  42  64  96 134 171 211 264 323 376
#     4  11  24  42  64  96 134 171 211 264 323 376
#     4  11  24  41  66  94 129 168 219 263 315 385
#     4  10  23  40  70  96 131 164 218 266 321 374
#     4  11  24  41  66  94 129 168 219 263 315 385
#     4  11  23  41  66  98 125 169 217 266 320 375
#     4  11  23  41  66  98 125 169 217 266 320 375
#
# _framework density 19.254375
#
# number of rings (size 3 to 8) (size 9 to 14) (size 15 to 20)
#    0.000    1.143    2.857    3.000    4.000    8.571 
#    0.000    1.429    0.000    0.000    0.000    0.000 
#    0.000    0.000    0.000    0.000    0.000    0.000 
#
# Total GULP energy -156545.226533 kJ/mol
# GULP energy per Si atom -5590.900948 kJ/mol
# Density = 1.921055 g / cm^3
# Si number density = 19.254375 Si / 1000 Ang^3
#
#
#
# Elastic Constant Matrix: (Units=GPa)
#
#
# Indices 1 2 3 4 5 6 
#
# 1 107.8209 48.5521 31.9486 0.0000 -2.1979 0.0000
# 2 48.5521 123.9806 23.9351 0.0000 -0.7691 0.0000
# 3 31.9486 23.9351 109.9010 0.0000 2.2671 0.0000
# 4 0.0000 0.0000 0.0000 -12.9731 0.0000 -0.9995
# 5 -2.1979 -0.7691 2.2671 0.0000 2.9528 0.0000
# 6 0.0000 0.0000 0.0000 -0.9995 0.0000 18.9495
#
#
#
# Elastic Compliance Matrix: (Units=1/GPa)
#
#
# Indices 1 2 3 4 5 6 
#
# 1 0.012202 -0.004165 -0.002850 0.000000 0.010186 0.000000
# 2 -0.004165 0.009881 -0.000945 0.000000 0.000199 0.000000
# 3 -0.002850 -0.000945 0.010346 0.000000 -0.010311 0.000000
# 4 0.000000 0.000000 0.000000 -0.076770 0.000000 -0.004049
# 5 0.010186 0.000199 -0.010311 0.000000 0.354214 0.000000
# 6 0.000000 0.000000 0.000000 -0.004049 0.000000 0.052558
#
#
# Mechanical properties :
#
#
# Convention : Reuss Voigt Hill
#
# Bulk Modulus (GPa) = 60.57643 61.17490 60.87567
# Shear Modulus (GPa) = 13.02576 17.60361 15.31468
#
# Velocity S-wave (km/s) = 2.60380 3.02696 2.82332
# Velocity P-wave (km/s) = 6.36939 6.63759 6.50487
#
# Compressibility (1/GPa) = 0.01650807
#
# Stress axis : x y z
#
# Youngs Moduli (GPa) = 81.95083 101.20843 96.65351
#
# Poissons Ratio (x) = 0.42155 0.27549
# Poissons Ratio (y) = 0.34134 0.09135
# Poissons Ratio (z) = 0.23358 0.09566
#
# Static dielectric constant tensor:
#      x y z
#    x 1.668090 0.000000 -0.000830 
#    y 0.000000 1.669540 0.000000 
#    z -0.000830 0.000000 1.641730 
# 
# From -- ./inp_files/63280.got.cif
#   From: 2010.05.17/outbox.cif.g08.bks.cpg/sg14_32_cif.got.tgz:63280.got - 2010.06.03 17:49:19.
