data_PCOD9249790
_publ_section_title
;
Structure prediction by ZEFSAII (Michael W. Deem and Ramdas Pophale) SiO2 
 PCOD9249790
Probable space group: P 21/C
;
_chemical_formula_sum "Si O2"
_cell_formula_units_Z 16
_cell_length_a 8.219408
_cell_length_b 17.480133
_cell_length_c 5.777942
_cell_angle_alpha 90.000000
_cell_angle_beta 119.287031
_cell_angle_gamma 90.000000
_cell_volume 724.043375
_symmetry_space_group_name_H-M "P 21/C"
_symmetry_group_IT_number 14
_symmetry_cell_setting 'monoclinic'
loop_
_space_group_symop_operation_xyz
x,y,z
-x,1/2+y,1/2-z
-x,-y,-z
x,1/2-y,1/2+z
loop_
_atom_site_type_symbol
_atom_site_label
_atom_site_fract_x
_atom_site_fract_y
_atom_site_fract_z
Si Si1 0.850181 0.477582 0.208017
Si Si2 0.411531 0.566830 0.599487
Si Si3 0.974326 0.385059 0.915365
Si Si4 0.321048 0.210176 0.622708
O O1 0.660498 0.469192 0.211279
O O2 0.000000 0.500000 0.500000
O O3 0.880937 0.545479 0.046343
O O4 0.912883 0.398827 0.135435
O O5 0.500000 0.500000 0.500000
O O6 0.220344 0.602213 0.354698
O O7 0.551852 0.635595 0.745600
O O8 0.100756 0.311558 0.968628
O O9 0.358003 0.241345 0.386463
#
# Coordination Sequence:
#
# PCOD9249790 Si02
#       4
#     4   4   4   4
#     4   9  19  39  72 105 132 174 243 295 365 424
#     4  11  25  44  79 109 144 189 256 313 368 438
#     4  10  23  43  71 100 141 192 235 305 372 433
#     4  12  31  49  70 107 153 200 251 303 378 457
#
# _framework density 22.098126000000001
#
# number of rings (size 3 to 8) (size 9 to 14) (size 15 to 20)
#    0.000    1.500    0.000    4.500   14.000    4.000 
#    0.000    0.000    0.000    0.000    0.000    0.000 
#    0.000    0.000    0.000    0.000    0.000    0.000 
#
# Total GULP energy -89156.628362 kJ/mol
# GULP energy per Si atom -5572.289273 kJ/mol
# Density = 2.204783 g / cm^3
# Si number density = 22.098126 Si / 1000 Ang^3
#
#
#
# Elastic Constant Matrix: (Units=GPa)
#
#
# Indices 1 2 3 4 5 6 
#
# 1 143.8665 52.9653 60.4894 0.0000 -2.9967 0.0000
# 2 52.9653 64.4233 38.8196 0.0000 13.1967 0.0000
# 3 60.4894 38.8196 104.8945 0.0000 19.3677 0.0000
# 4 0.0000 0.0000 0.0000 32.6179 0.0000 8.8860
# 5 -2.9967 13.1967 19.3677 0.0000 55.8430 0.0000
# 6 0.0000 0.0000 0.0000 8.8860 0.0000 54.3093
#
#
#
# Elastic Compliance Matrix: (Units=1/GPa)
#
#
# Indices 1 2 3 4 5 6 
#
# 1 0.011887 -0.007758 -0.004744 0.000000 0.004117 0.000000
# 2 -0.007758 0.025321 -0.003970 0.000000 -0.005023 0.000000
# 3 -0.004744 -0.003970 0.014544 0.000000 -0.004360 0.000000
# 4 0.000000 0.000000 0.000000 0.032088 0.000000 -0.005250
# 5 0.004117 -0.005023 -0.004360 0.000000 0.020828 0.000000
# 6 0.000000 0.000000 0.000000 -0.005250 0.000000 0.019272
#
#
# Mechanical properties :
#
#
# Convention : Reuss Voigt Hill
#
# Bulk Modulus (GPa) = 53.16665 68.63700 60.90182
# Shear Modulus (GPa) = 30.64596 39.28136 34.96366
#
# Velocity S-wave (km/s) = 3.72803 4.22072 3.98200
# Velocity P-wave (km/s) = 6.53013 7.40811 6.98293
#
# Compressibility (1/GPa) = 0.01880878
#
# Stress axis : x y z
#
# Youngs Moduli (GPa) = 84.12271 39.49226 68.75914
#
# Poissons Ratio (x) = 0.30637 0.32621
# Poissons Ratio (y) = 0.65260 0.27297
# Poissons Ratio (z) = 0.39909 0.15678
#
# Static dielectric constant tensor:
#      x y z
#    x 1.842390 0.000000 -0.030830 
#    y 0.000000 1.728100 0.000000 
#    z -0.030830 0.000000 1.772270 
# 
# From -- ./inp_files/981.got.cif
#   From: 2010.05.17/outbox.cif.g08.bks.cpg/sg14_1_cif.got.tgz:981.got - 2010.06.03 17:49:19.
