data_PCOD9249186
_publ_section_title
;
Structure prediction by ZEFSAII (Michael W. Deem and Ramdas Pophale) SiO2 
 PCOD9249186
Probable space group: P 21/C
;
_chemical_formula_sum "Si O2"
_cell_formula_units_Z 18
_cell_length_a 5.365446
_cell_length_b 13.728238
_cell_length_c 13.649610
_cell_angle_alpha 90.000000
_cell_angle_beta 36.384588
_cell_angle_gamma 90.000000
_cell_volume 596.408382
_symmetry_space_group_name_H-M "P 21/C"
_symmetry_group_IT_number 14
_symmetry_cell_setting 'monoclinic'
loop_
_space_group_symop_operation_xyz
x,y,z
-x,1/2+y,1/2-z
-x,-y,-z
x,1/2-y,1/2+z
loop_
_atom_site_type_symbol
_atom_site_label
_atom_site_fract_x
_atom_site_fract_y
_atom_site_fract_z
Si Si1 0.544815 0.755383 0.751820
Si Si2 0.500000 0.500000 0.500000
Si Si3 0.608736 0.726878 0.461825
Si Si4 0.388194 0.094007 0.417606
Si Si5 0.492613 0.037286 0.778118
O O1 0.594281 0.758553 0.850987
O O2 0.779453 0.841011 0.619843
O O3 0.656387 0.647888 0.680011
O O4 0.073941 0.770972 0.860955
O O5 0.442965 0.619533 0.537603
O O6 0.570831 0.485743 0.598892
O O7 0.424458 0.825872 0.569070
O O8 0.997741 0.043442 0.595331
O O9 0.691352 0.018989 0.262016
#
# Coordination Sequence:
#
# PCOD9249186 Si02
#       5
#     4   2   4   4   4
#     4  11  24  48  71 109 144 195 242 312 364 443
#     4  12  22  48  74 116 142 200 244 312 368 450
#     4  11  26  45  76 105 153 187 250 306 370 439
#     4  10  22  48  70 109 146 198 245 307 371 442
#     4  10  23  45  77 108 151 197 250 306 373 447
#
# _framework density 30.180665000000001
#
# number of rings (size 3 to 8) (size 9 to 14) (size 15 to 20)
#    0.000    1.333    4.444    0.000    0.000    5.333 
#    8.000    0.000    0.000    0.000    0.000    0.000 
#    0.000    0.000    0.000    0.000    0.000    0.000 
#
# Total GULP energy -100616.070047 kJ/mol
# GULP energy per Si atom -5589.781669 kJ/mol
# Density = 3.011197 g / cm^3
# Si number density = 30.180665 Si / 1000 Ang^3
#
#
#
# Elastic Constant Matrix: (Units=GPa)
#
#
# Indices 1 2 3 4 5 6 
#
# 1 203.1985 43.0166 72.8546 0.0000 36.8486 0.0000
# 2 43.0166 267.4550 63.4246 0.0000 34.2396 0.0000
# 3 72.8546 63.4246 153.7036 0.0000 60.8437 0.0000
# 4 0.0000 0.0000 0.0000 84.8406 0.0000 19.3085
# 5 36.8486 34.2396 60.8437 0.0000 83.1885 0.0000
# 6 0.0000 0.0000 0.0000 19.3085 0.0000 49.7560
#
#
#
# Elastic Compliance Matrix: (Units=1/GPa)
#
#
# Indices 1 2 3 4 5 6 
#
# 1 0.005988 -0.000292 -0.002414 0.000000 -0.000766 0.000000
# 2 -0.000292 0.004183 -0.001347 0.000000 -0.000607 0.000000
# 3 -0.002414 -0.001347 0.010646 0.000000 -0.006162 0.000000
# 4 0.000000 0.000000 0.000000 0.012929 0.000000 -0.005017
# 5 -0.000766 -0.000607 -0.006162 0.000000 0.017117 0.000000
# 6 0.000000 0.000000 0.000000 -0.005017 0.000000 0.022045
#
#
# Mechanical properties :
#
#
# Convention : Reuss Voigt Hill
#
# Bulk Modulus (GPa) = 78.68690 109.21653 93.95171
# Shear Modulus (GPa) = 58.65004 73.22777 65.93890
#
# Velocity S-wave (km/s) = 4.41307 4.93111 4.67926
# Velocity P-wave (km/s) = 7.21772 8.28778 7.77119
#
# Compressibility (1/GPa) = 0.01270860
#
# Stress axis : x y z
#
# Youngs Moduli (GPa) = 167.00824 239.05298 93.93524
#
# Poissons Ratio (x) = 0.06991 0.22678
# Poissons Ratio (y) = 0.04884 0.12656
# Poissons Ratio (z) = 0.40319 0.32209
#
# Static dielectric constant tensor:
#      x y z
#    x 0.683180 0.000000 1.763080 
#    y 0.000000 2.288580 0.000000 
#    z 1.763080 0.000000 0.325730 
# 
# From -- ./inp_files/20540.got.cif
#   From: 2010.05.17/outbox.cif.g08.bks.cpg/sg14_11_cif.got.tgz:20540.got - 2010.06.03 17:49:19.
