data_PCOD9249632
_publ_section_title
;
Structure prediction by ZEFSAII (Michael W. Deem and Ramdas Pophale) SiO2 
 PCOD9249632
Probable space group: P 21/C
;
_chemical_formula_sum "Si O2"
_cell_formula_units_Z 28
_cell_length_a 20.693014
_cell_length_b 7.666792
_cell_length_c 9.622374
_cell_angle_alpha 90.000000
_cell_angle_beta 49.152367
_cell_angle_gamma 90.000000
_cell_volume 1154.784098
_symmetry_space_group_name_H-M "P 21/C"
_symmetry_group_IT_number 14
_symmetry_cell_setting 'monoclinic'
loop_
_space_group_symop_operation_xyz
x,y,z
-x,1/2+y,1/2-z
-x,-y,-z
x,1/2-y,1/2+z
loop_
_atom_site_type_symbol
_atom_site_label
_atom_site_fract_x
_atom_site_fract_y
_atom_site_fract_z
Si Si1 0.218839 0.599033 0.759646
Si Si2 0.794631 0.786838 0.500228
Si Si3 0.960970 0.958781 0.202898
Si Si4 0.510573 0.690211 0.057991
Si Si5 0.872758 0.322967 0.394460
Si Si6 0.602438 0.229482 0.017582
Si Si7 0.692476 0.609489 0.864361
O O1 0.209600 0.435325 0.873934
O O2 0.166630 0.599403 0.690464
O O3 0.316871 0.607496 0.578002
O O4 0.189965 0.769598 0.889558
O O5 0.892800 0.800649 0.310301
O O6 0.758605 0.624880 0.641365
O O7 0.737282 0.830870 0.445267
O O8 0.042998 0.926919 0.181819
O O9 0.908360 0.130882 0.310063
O O10 0.000000 0.000000 0.000000
O O11 0.467479 0.699626 0.267452
O O12 0.500000 0.500000 0.000000
O O13 0.448648 0.806410 0.051312
O O14 0.610730 0.725563 0.931746
O O15 0.647058 0.421822 0.954927
#
# Coordination Sequence:
#
# PCOD9249632 Si02
#       7
#     4   4   4   4   4   4   4
#     4  11  24  44  68 105 136 187 236 296 355 437
#     4  11  27  43  66 100 140 182 235 297 365 426
#     4  11  25  46  71 101 140 188 236 301 366 438
#     4  10  23  42  70 104 140 189 238 296 359 429
#     4  11  24  43  73 101 141 182 242 294 367 434
#     4  11  22  43  72 100 140 188 239 290 362 423
#     4  11  25  45  67 103 143 182 242 300 359 432
#
# _framework density 24.246956000000001
#
# number of rings (size 3 to 8) (size 9 to 14) (size 15 to 20)
#    0.000    1.143    1.429    4.286    2.000    9.143 
#    0.000    5.000    0.000    0.000    0.000    0.000 
#    0.000    0.000    0.000    0.000    0.000    0.000 
#
# Total GULP energy -156569.699842 kJ/mol
# GULP energy per Si atom -5591.774994 kJ/mol
# Density = 2.419177 g / cm^3
# Si number density = 24.246956 Si / 1000 Ang^3
#
#
#
# Elastic Constant Matrix: (Units=GPa)
#
#
# Indices 1 2 3 4 5 6 
#
# 1 181.7078 18.8585 21.3263 0.0000 -0.3555 0.0000
# 2 18.8585 73.8203 5.7790 0.0000 -12.2671 0.0000
# 3 21.3263 5.7790 84.5715 0.0000 -14.6429 0.0000
# 4 0.0000 0.0000 0.0000 17.2192 0.0000 8.3327
# 5 -0.3555 -12.2671 -14.6429 0.0000 30.9757 0.0000
# 6 0.0000 0.0000 0.0000 8.3327 0.0000 24.2467
#
#
#
# Elastic Compliance Matrix: (Units=1/GPa)
#
#
# Indices 1 2 3 4 5 6 
#
# 1 0.005853 -0.001589 -0.001595 0.000000 -0.001316 0.000000
# 2 -0.001589 0.014932 0.000437 0.000000 0.006102 0.000000
# 3 -0.001595 0.000437 0.013313 0.000000 0.006448 0.000000
# 4 0.000000 0.000000 0.000000 0.069659 0.000000 -0.023939
# 5 -0.001316 0.006102 0.006448 0.000000 0.037733 0.000000
# 6 0.000000 0.000000 0.000000 -0.023939 0.000000 0.049470
#
#
# Mechanical properties :
#
#
# Convention : Reuss Voigt Hill
#
# Bulk Modulus (GPa) = 34.96103 48.00302 41.48203
# Shear Modulus (GPa) = 24.27310 34.09738 29.18524
#
# Velocity S-wave (km/s) = 3.16741 3.75407 3.47315
# Velocity P-wave (km/s) = 5.27510 6.21541 5.76446
#
# Compressibility (1/GPa) = 0.02860327
#
# Stress axis : x y z
#
# Youngs Moduli (GPa) = 170.85518 66.96969 75.11359
#
# Poissons Ratio (x) = 0.10642 0.11982
# Poissons Ratio (y) = 0.27150 -0.03281
# Poissons Ratio (z) = 0.27255 -0.02925
#
# Static dielectric constant tensor:
#      x y z
#    x 1.873660 0.000000 -0.017480 
#    y 0.000000 2.111130 0.000000 
#    z -0.017480 0.000000 1.887290 
# 
# From -- ./inp_files/18703.got.cif
#   From: 2010.05.17/outbox.cif.g08.bks.cpg/sg14_10_cif.got.tgz:18703.got - 2010.06.03 17:49:19.
