data_PCOD9249904
_publ_section_title
;
Structure prediction by ZEFSAII (Michael W. Deem and Ramdas Pophale) SiO2 
 PCOD9249904
Probable space group: P 21/C
;
_chemical_formula_sum "Si O2"
_cell_formula_units_Z 20
_cell_length_a 12.762517
_cell_length_b 9.809471
_cell_length_c 10.605793
_cell_angle_alpha 90.000000
_cell_angle_beta 34.512354
_cell_angle_gamma 90.000000
_cell_volume 752.296970
_symmetry_space_group_name_H-M "P 21/C"
_symmetry_group_IT_number 14
_symmetry_cell_setting 'monoclinic'
loop_
_space_group_symop_operation_xyz
x,y,z
-x,1/2+y,1/2-z
-x,-y,-z
x,1/2-y,1/2+z
loop_
_atom_site_type_symbol
_atom_site_label
_atom_site_fract_x
_atom_site_fract_y
_atom_site_fract_z
Si Si1 0.940817 0.522085 0.266927
Si Si2 0.243730 0.521187 0.155541
Si Si3 0.072397 0.699411 0.923998
Si Si4 0.638856 0.750750 0.834032
Si Si5 0.545420 0.648662 0.688766
O O1 0.871970 0.408820 0.237578
O O2 0.755561 0.596050 0.493819
O O3 0.061400 0.466534 0.263380
O O4 0.072183 0.630768 0.062285
O O5 0.175544 0.658458 0.294636
O O6 0.335477 0.407511 0.151813
O O7 0.391609 0.554074 0.900906
O O8 0.850593 0.703809 0.120911
O O9 0.546361 0.771103 0.790533
O O10 0.527301 0.817015 0.060185
#
# Coordination Sequence:
#
# PCOD9249904 Si02
#       5
#     4   4   4   4   4
#     4  10  24  45  65 101 138 179 232 285 341 408
#     4  12  25  40  76  96 135 189 225 284 343 408
#     4  10  23  44  69  95 140 185 224 284 350 403
#     4  11  24  48  65 105 139 178 232 288 335 414
#     4  11  26  43  70 102 143 176 231 285 336 416
#
# _framework density 26.585245
#
# number of rings (size 3 to 8) (size 9 to 14) (size 15 to 20)
#    0.000    1.200    2.000    2.400    8.400    0.000 
#    0.000    4.000    0.000    0.000    0.000    0.000 
#    0.000    0.000    0.000    0.000    0.000    0.000 
#
# Total GULP energy -112014.901272 kJ/mol
# GULP energy per Si atom -5600.745064 kJ/mol
# Density = 2.652474 g / cm^3
# Si number density = 26.585245 Si / 1000 Ang^3
#
#
#
# Elastic Constant Matrix: (Units=GPa)
#
#
# Indices 1 2 3 4 5 6 
#
# 1 49.6652 -10.7519 29.5242 0.0000 7.5104 0.0000
# 2 -10.7519 87.0251 43.5185 0.0000 19.5378 0.0000
# 3 29.5242 43.5185 157.9553 0.0000 36.3703 0.0000
# 4 0.0000 0.0000 0.0000 42.2930 0.0000 18.9824
# 5 7.5104 19.5378 36.3703 0.0000 40.1524 0.0000
# 6 0.0000 0.0000 0.0000 18.9824 0.0000 22.3332
#
#
#
# Elastic Compliance Matrix: (Units=1/GPa)
#
#
# Indices 1 2 3 4 5 6 
#
# 1 0.025590 0.006771 -0.006050 0.000000 -0.002601 0.000000
# 2 0.006771 0.015645 -0.004462 0.000000 -0.004837 0.000000
# 3 -0.006050 -0.004462 0.010021 0.000000 -0.005774 0.000000
# 4 0.000000 0.000000 0.000000 0.038228 0.000000 -0.032493
# 5 -0.002601 -0.004837 -0.005774 0.000000 0.032976 0.000000
# 6 0.000000 0.000000 0.000000 -0.032493 0.000000 0.072394
#
#
# Mechanical properties :
#
#
# Convention : Reuss Voigt Hill
#
# Bulk Modulus (GPa) = 22.84454 46.58080 34.71267
# Shear Modulus (GPa) = 23.04929 36.44605 29.74767
#
# Velocity S-wave (km/s) = 2.94767 3.70660 3.34871
# Velocity P-wave (km/s) = 4.49407 5.98981 5.29502
#
# Compressibility (1/GPa) = 0.04377413
#
# Stress axis : x y z
#
# Youngs Moduli (GPa) = 39.07719 63.91872 99.79535
#
# Poissons Ratio (x) = -0.43279 0.60373
# Poissons Ratio (y) = -0.26459 0.44530
# Poissons Ratio (z) = 0.23641 0.28521
#
# Static dielectric constant tensor:
#      x y z
#    x 2.105470 0.000000 0.004950 
#    y 0.000000 2.139260 0.000000 
#    z 0.004950 0.000000 2.058860 
# 
# From -- ./inp_files/23467.got.cif
#   From: 2010.05.17/outbox.cif.g08.bks.cpg/sg14_12_cif.got.tgz:23467.got - 2010.06.03 17:49:19.
