data_PCOD9249924
_publ_section_title
;
Structure prediction by ZEFSAII (Michael W. Deem and Ramdas Pophale) SiO2 
 PCOD9249924
Probable space group: P 21/C
;
_chemical_formula_sum "Si O2"
_cell_formula_units_Z 16
_cell_length_a 5.001968
_cell_length_b 14.221345
_cell_length_c 9.301422
_cell_angle_alpha 90.000000
_cell_angle_beta 69.877183
_cell_angle_gamma 90.000000
_cell_volume 621.264850
_symmetry_space_group_name_H-M "P 21/C"
_symmetry_group_IT_number 14
_symmetry_cell_setting 'monoclinic'
loop_
_space_group_symop_operation_xyz
x,y,z
-x,1/2+y,1/2-z
-x,-y,-z
x,1/2-y,1/2+z
loop_
_atom_site_type_symbol
_atom_site_label
_atom_site_fract_x
_atom_site_fract_y
_atom_site_fract_z
Si Si1 0.255589 0.944569 0.872300
Si Si2 0.000451 0.794129 0.098293
Si Si3 0.854185 0.415590 0.939484
Si Si4 0.591365 0.387424 0.266815
O O1 0.213778 0.942388 0.709676
O O2 0.542619 0.006341 0.835061
O O3 0.221797 0.840244 0.942497
O O4 0.000000 0.000000 0.000000
O O5 0.129827 0.837709 0.221574
O O6 0.685370 0.831930 0.130935
O O7 0.981437 0.682719 0.100929
O O8 0.594478 0.390176 0.093866
O O9 0.000000 0.500000 0.000000
#
# Coordination Sequence:
#
# PCOD9249924 Si02
#       4
#     4   4   4   4
#     4  10  23  44  71 102 143 188 238 298 361 426
#     4  11  26  48  73 105 146 195 246 300 364 434
#     4  12  26  45  73 110 149 192 243 302 364 436
#     4  11  25  47  73 105 142 191 247 304 363 430
#
# _framework density 25.753914999999999
#
# number of rings (size 3 to 8) (size 9 to 14) (size 15 to 20)
#    0.000    1.000    0.000    6.000    0.000   14.000 
#    0.000    0.000    0.000    0.000    0.000    0.000 
#    0.000    0.000    0.000    0.000    0.000    0.000 
#
# Total GULP energy -89585.513285 kJ/mol
# GULP energy per Si atom -5599.094580 kJ/mol
# Density = 2.569530 g / cm^3
# Si number density = 25.753915 Si / 1000 Ang^3
#
#
#
# Elastic Constant Matrix: (Units=GPa)
#
#
# Indices 1 2 3 4 5 6 
#
# 1 74.8772 31.0257 0.0703 0.0000 15.8292 0.0000
# 2 31.0257 168.0220 14.9931 0.0000 22.0131 0.0000
# 3 0.0703 14.9931 152.0466 0.0000 39.5559 0.0000
# 4 0.0000 0.0000 0.0000 31.7833 0.0000 8.9565
# 5 15.8292 22.0131 39.5559 0.0000 32.3235 0.0000
# 6 0.0000 0.0000 0.0000 8.9565 0.0000 31.7064
#
#
#
# Elastic Compliance Matrix: (Units=1/GPa)
#
#
# Indices 1 2 3 4 5 6 
#
# 1 0.016289 -0.001936 0.002810 0.000000 -0.010098 0.000000
# 2 -0.001936 0.006824 0.000426 0.000000 -0.004221 0.000000
# 3 0.002810 0.000426 0.010221 0.000000 -0.014175 0.000000
# 4 0.000000 0.000000 0.000000 0.034184 0.000000 -0.009656
# 5 -0.010098 -0.004221 -0.014175 0.000000 0.056103 0.000000
# 6 0.000000 0.000000 0.000000 -0.009656 0.000000 0.034267
#
#
# Mechanical properties :
#
#
# Convention : Reuss Voigt Hill
#
# Bulk Modulus (GPa) = 27.82696 54.12489 40.97593
# Shear Modulus (GPa) = 29.89240 42.41975 36.15608
#
# Velocity S-wave (km/s) = 3.41059 4.06287 3.75094
# Velocity P-wave (km/s) = 5.13205 6.56285 5.89105
#
# Compressibility (1/GPa) = 0.03593637
#
# Stress axis : x y z
#
# Youngs Moduli (GPa) = 61.38956 146.54202 97.83501
#
# Poissons Ratio (x) = 0.28366 -0.27496
# Poissons Ratio (y) = 0.11883 -0.04168
# Poissons Ratio (z) = -0.17253 -0.06243
#
# Static dielectric constant tensor:
#      x y z
#    x 1.984440 0.000000 0.011460 
#    y 0.000000 2.110470 0.000000 
#    z 0.011460 0.000000 2.064840 
# 
# From -- ./inp_files/5100.got.cif
#   From: 2010.05.17/outbox.cif.g08.bks.cpg/sg14_3_cif.got.tgz:5100.got - 2010.06.03 17:49:19.
