data_PCOD9249304
_publ_section_title
;
Structure prediction by ZEFSAII (Michael W. Deem and Ramdas Pophale) SiO2 
 PCOD9249304
Probable space group: P 21/C
;
_chemical_formula_sum "Si O2"
_cell_formula_units_Z 32
_cell_length_a 13.357273
_cell_length_b 10.486349
_cell_length_c 16.213038
_cell_angle_alpha 90.000000
_cell_angle_beta 34.671323
_cell_angle_gamma 90.000000
_cell_volume 1291.867540
_symmetry_space_group_name_H-M "P 21/C"
_symmetry_group_IT_number 14
_symmetry_cell_setting 'monoclinic'
loop_
_space_group_symop_operation_xyz
x,y,z
-x,1/2+y,1/2-z
-x,-y,-z
x,1/2-y,1/2+z
loop_
_atom_site_type_symbol
_atom_site_label
_atom_site_fract_x
_atom_site_fract_y
_atom_site_fract_z
Si Si1 0.913392 0.343183 0.167317
Si Si2 0.469395 0.097283 0.594136
Si Si3 0.868848 0.043082 0.160592
Si Si4 0.399540 0.924917 0.214275
Si Si5 0.028639 0.852838 0.181163
Si Si6 0.362092 0.774395 0.389864
Si Si7 0.684499 0.648485 0.117092
Si Si8 0.683455 0.727020 0.437540
O O1 0.765006 0.438739 0.234284
O O2 0.930303 0.373168 0.251857
O O3 0.866058 0.193361 0.184072
O O4 0.110900 0.359732 0.998826
O O5 0.313645 0.020537 0.743871
O O6 0.639345 0.124443 0.534703
O O7 0.414411 0.222874 0.578327
O O8 0.500000 0.000000 0.500000
O O9 0.930561 0.966907 0.200874
O O10 0.000000 0.000000 0.000000
O O11 0.332353 0.807064 0.315425
O O12 0.413113 0.027442 0.277433
O O13 0.576975 0.894600 0.044436
O O14 0.889542 0.733693 0.274916
O O15 0.213541 0.825563 0.012582
O O16 0.573542 0.752587 0.243275
O O17 0.671552 0.680908 0.028264
#
# Coordination Sequence:
#
# PCOD9249304 Si02
#       8
#     4   4   4   4   4   4   4   4
#     4  11  23  43  65  94 131 172 220 273 334 403
#     4  11  21  38  63  91 123 160 208 265 322 379
#     4  11  23  41  68  97 127 170 222 275 328 390
#     4  11  22  41  66  90 128 174 215 267 327 392
#     4  10  23  40  61  95 132 168 215 275 332 384
#     4  11  23  38  62  94 125 167 218 264 319 391
#     4  10  23  41  61  91 128 167 216 269 327 393
#     4   9  21  40  61  90 126 168 215 264 324 392
#
# _framework density 24.770343
#
# number of rings (size 3 to 8) (size 9 to 14) (size 15 to 20)
#    0.000    1.500    0.000    4.875    0.000    9.000 
#    0.000    7.500    0.000    0.000    0.000    0.000 
#    0.000    0.000    0.000    0.000    0.000    0.000 
#
# Total GULP energy -178519.287958 kJ/mol
# GULP energy per Si atom -5578.727749 kJ/mol
# Density = 2.471396 g / cm^3
# Si number density = 24.770343 Si / 1000 Ang^3
#
#
#
# Elastic Constant Matrix: (Units=GPa)
#
#
# Indices 1 2 3 4 5 6 
#
# 1 106.1448 6.0478 -1.2707 0.0000 0.6670 0.0000
# 2 6.0478 30.1646 9.8475 0.0000 8.7060 0.0000
# 3 -1.2707 9.8475 104.9737 0.0000 0.3454 0.0000
# 4 0.0000 0.0000 0.0000 35.8102 0.0000 1.1020
# 5 0.6670 8.7060 0.3454 0.0000 22.7679 0.0000
# 6 0.0000 0.0000 0.0000 1.1020 0.0000 21.2755
#
#
#
# Elastic Compliance Matrix: (Units=1/GPa)
#
#
# Indices 1 2 3 4 5 6 
#
# 1 0.009545 -0.002176 0.000318 0.000000 0.000547 0.000000
# 2 -0.002176 0.039052 -0.003641 0.000000 -0.014814 0.000000
# 3 0.000318 -0.003641 0.009868 0.000000 0.001233 0.000000
# 4 0.000000 0.000000 0.000000 0.027970 0.000000 -0.001449
# 5 0.000547 -0.014814 0.001233 0.000000 0.049551 0.000000
# 6 0.000000 0.000000 0.000000 -0.001449 0.000000 0.047077
#
#
# Mechanical properties :
#
#
# Convention : Reuss Voigt Hill
#
# Bulk Modulus (GPa) = 21.06714 30.05914 25.56314
# Shear Modulus (GPa) = 23.82281 31.08128 27.45205
#
# Velocity S-wave (km/s) = 3.10457 3.54613 3.33267
# Velocity P-wave (km/s) = 4.62327 5.37849 5.01511
#
# Compressibility (1/GPa) = 0.04746730
#
# Stress axis : x y z
#
# Youngs Moduli (GPa) = 104.76234 25.60702 101.34235
#
# Poissons Ratio (x) = 0.05571 -0.03221
# Poissons Ratio (y) = 0.22791 0.36899
# Poissons Ratio (z) = -0.03330 0.09324
#
# Static dielectric constant tensor:
#      x y z
#    x 2.008430 0.000000 0.111820 
#    y 0.000000 2.137920 0.000000 
#    z 0.111820 0.000000 1.856410 
# 
# From -- ./inp_files/59470.got.cif
#   From: 2010.05.17/outbox.cif.g08.bks.cpg/sg14_30_cif.got.tgz:59470.got - 2010.06.03 17:49:19.
