data_PCOD9249230
_publ_section_title
;
Structure prediction by ZEFSAII (Michael W. Deem and Ramdas Pophale) SiO2 
 PCOD9249230
Probable space group: P 21/C
;
_chemical_formula_sum "Si O2"
_cell_formula_units_Z 28
_cell_length_a 13.612142
_cell_length_b 10.102817
_cell_length_c 18.322811
_cell_angle_alpha 90.000000
_cell_angle_beta 31.276599
_cell_angle_gamma 90.000000
_cell_volume 1308.189686
_symmetry_space_group_name_H-M "P 21/C"
_symmetry_group_IT_number 14
_symmetry_cell_setting 'monoclinic'
loop_
_space_group_symop_operation_xyz
x,y,z
-x,1/2+y,1/2-z
-x,-y,-z
x,1/2-y,1/2+z
loop_
_atom_site_type_symbol
_atom_site_label
_atom_site_fract_x
_atom_site_fract_y
_atom_site_fract_z
Si Si1 0.462095 0.060182 0.604758
Si Si2 0.221640 0.491283 0.697972
Si Si3 0.710619 0.320590 0.484419
Si Si4 0.149841 0.301469 0.227125
Si Si5 0.865762 0.994953 0.515680
Si Si6 0.331717 0.171981 0.458334
Si Si7 0.466691 0.946288 0.184918
O O1 0.600031 0.184289 0.536124
O O2 0.249218 0.114382 0.728284
O O3 0.500000 0.000000 0.500000
O O4 0.506351 0.939489 0.631408
O O5 0.260411 0.590731 0.607566
O O6 0.261423 0.338338 0.657011
O O7 0.342295 0.536113 0.690699
O O8 0.003443 0.478176 0.861172
O O9 0.587361 0.418405 0.613919
O O10 0.923586 0.297122 0.378170
O O11 0.198603 0.348905 0.113992
O O12 0.777842 0.855896 0.547211
O O13 0.681609 0.077568 0.655227
O O14 0.000000 0.000000 0.500000
O O15 0.406290 0.319146 0.406614
#
# Coordination Sequence:
#
# PCOD9249230 Si02
#       7
#     4   4   4   4   4   4   4
#     4  10  23  38  60 102 138 167 214 288 348 390
#     4  11  20  42  65  97 132 174 226 273 334 403
#     4  12  22  38  70  98 131 178 225 279 335 395
#     4  11  22  37  66 102 133 167 224 285 335 395
#     4  10  24  43  64  94 137 181 218 270 338 410
#     4  11  22  43  65  97 137 171 223 285 339 400
#     4  11  24  42  68  96 130 182 227 273 338 408
#
# _framework density 21.403623
#
# number of rings (size 3 to 8) (size 9 to 14) (size 15 to 20)
#    0.000    1.143    4.286    3.000    2.000    2.286 
#    5.143    0.000    0.000    1.714    0.000    0.000 
#    0.000    0.000    0.000    0.000    0.000    0.000 
#
# Total GULP energy -156077.521172 kJ/mol
# GULP energy per Si atom -5574.197185 kJ/mol
# Density = 2.135491 g / cm^3
# Si number density = 21.403623 Si / 1000 Ang^3
#
#
#
# Elastic Constant Matrix: (Units=GPa)
#
#
# Indices 1 2 3 4 5 6 
#
# 1 82.7154 33.8573 10.5530 0.0000 -21.3792 0.0000
# 2 33.8573 109.3372 7.9690 0.0000 -17.9494 0.0000
# 3 10.5530 7.9690 101.1586 0.0000 -15.5040 0.0000
# 4 0.0000 0.0000 0.0000 17.3040 0.0000 -8.1652
# 5 -21.3792 -17.9494 -15.5040 0.0000 34.0992 0.0000
# 6 0.0000 0.0000 0.0000 -8.1652 0.0000 34.9661
#
#
#
# Elastic Compliance Matrix: (Units=1/GPa)
#
#
# Indices 1 2 3 4 5 6 
#
# 1 0.015579 -0.003526 -0.000145 0.000000 0.007846 0.000000
# 2 -0.003526 0.010809 0.000053 0.000000 0.003503 0.000000
# 3 -0.000145 0.000053 0.010627 0.000000 0.004769 0.000000
# 4 0.000000 0.000000 0.000000 0.064947 0.000000 0.015166
# 5 0.007846 0.003503 0.004769 0.000000 0.038258 0.000000
# 6 0.000000 0.000000 0.000000 0.015166 0.000000 0.032141
#
#
# Mechanical properties :
#
#
# Convention : Reuss Voigt Hill
#
# Bulk Modulus (GPa) = 33.57873 44.21887 38.89880
# Shear Modulus (GPa) = 26.38210 33.32932 29.85571
#
# Velocity S-wave (km/s) = 3.51465 3.95039 3.73888
# Velocity P-wave (km/s) = 5.67386 6.44297 6.07061
#
# Compressibility (1/GPa) = 0.02978075
#
# Stress axis : x y z
#
# Youngs Moduli (GPa) = 64.18826 92.51521 94.09700
#
# Poissons Ratio (x) = 0.32618 0.01364
# Poissons Ratio (y) = 0.22630 -0.00501
# Poissons Ratio (z) = 0.00931 -0.00493
#
# Static dielectric constant tensor:
#      x y z
#    x 1.832830 0.000000 -0.009730 
#    y 0.000000 1.751110 0.000000 
#    z -0.009730 0.000000 1.850910 
# 
# From -- ./inp_files/68151.got.cif
#   From: 2010.05.17/outbox.cif.g08.bks.cpg/sg14_35_cif.got.tgz:68151.got - 2010.06.03 17:49:19.
