data_PCOD9249165
_publ_section_title
;
Structure prediction by ZEFSAII (Michael W. Deem and Ramdas Pophale) SiO2 
 PCOD9249165
Probable space group: P 21/C
;
_chemical_formula_sum "Si O2"
_cell_formula_units_Z 16
_cell_length_a 11.182889
_cell_length_b 11.223521
_cell_length_c 10.796887
_cell_angle_alpha 90.000000
_cell_angle_beta 30.695062
_cell_angle_gamma 90.000000
_cell_volume 691.752768
_symmetry_space_group_name_H-M "P 21/C"
_symmetry_group_IT_number 14
_symmetry_cell_setting 'monoclinic'
loop_
_space_group_symop_operation_xyz
x,y,z
-x,1/2+y,1/2-z
-x,-y,-z
x,1/2-y,1/2+z
loop_
_atom_site_type_symbol
_atom_site_label
_atom_site_fract_x
_atom_site_fract_y
_atom_site_fract_z
Si Si1 0.270313 0.535015 0.625593
Si Si2 0.478514 0.942210 0.324251
Si Si3 0.170201 0.406950 0.282158
Si Si4 0.107530 0.670593 0.984066
O O1 0.500000 0.500000 0.500000
O O2 0.355460 0.524538 0.409447
O O3 0.072598 0.435042 0.821698
O O4 0.174443 0.653036 0.779133
O O5 0.631450 0.876879 0.292309
O O6 0.336491 0.851900 0.363334
O O7 0.297929 0.028174 0.555392
O O8 0.000000 0.500000 0.500000
O O9 0.024036 0.292420 0.375329
#
# Coordination Sequence:
#
# PCOD9249165 Si02
#       4
#     4   4   4   4
#     4   9  20  44  69 103 130 181 230 281 347 413
#     4  10  23  45  70 105 139 186 228 287 348 417
#     4  11  25  48  66 108 143 179 234 285 352 410
#     4  10  22  47  71 101 139 180 233 289 345 419
#
# _framework density 23.129650999999999
#
# number of rings (size 3 to 8) (size 9 to 14) (size 15 to 20)
#    0.000    2.000    0.000    1.500    0.000    8.000 
#   58.500    0.000    0.000    0.000    0.000    0.000 
#    0.000    0.000    0.000    0.000    0.000    0.000 
#
# Total GULP energy -89551.869070 kJ/mol
# GULP energy per Si atom -5596.991817 kJ/mol
# Density = 2.307701 g / cm^3
# Si number density = 23.129651 Si / 1000 Ang^3
#
#
#
# Elastic Constant Matrix: (Units=GPa)
#
#
# Indices 1 2 3 4 5 6 
#
# 1 118.4455 52.9975 29.5395 0.0000 -2.6122 0.0000
# 2 52.9975 66.9726 30.4951 0.0000 -10.2000 0.0000
# 3 29.5395 30.4951 135.7033 0.0000 31.1010 0.0000
# 4 0.0000 0.0000 0.0000 25.3185 0.0000 -14.4019
# 5 -2.6122 -10.2000 31.1010 0.0000 52.3820 0.0000
# 6 0.0000 0.0000 0.0000 -14.4019 0.0000 19.4091
#
#
#
# Elastic Compliance Matrix: (Units=1/GPa)
#
#
# Indices 1 2 3 4 5 6 
#
# 1 0.013176 -0.010522 -0.000214 0.000000 -0.001265 0.000000
# 2 -0.010522 0.027062 -0.005647 0.000000 0.008098 0.000000
# 3 -0.000214 -0.005647 0.010347 0.000000 -0.007254 0.000000
# 4 0.000000 0.000000 0.000000 0.068343 0.000000 0.050712
# 5 -0.001265 0.008098 -0.007254 0.000000 0.024911 0.000000
# 6 0.000000 0.000000 0.000000 0.050712 0.000000 0.089151
#
#
# Mechanical properties :
#
#
# Convention : Reuss Voigt Hill
#
# Bulk Modulus (GPa) = 56.11631 60.79839 58.45735
# Shear Modulus (GPa) = 18.40292 33.29454 25.84873
#
# Velocity S-wave (km/s) = 2.82377 3.79816 3.34662
# Velocity P-wave (km/s) = 5.91150 6.75112 6.34522
#
# Compressibility (1/GPa) = 0.01782013
#
# Stress axis : x y z
#
# Youngs Moduli (GPa) = 75.89507 36.95166 96.64729
#
# Poissons Ratio (x) = 0.38880 0.02066
# Poissons Ratio (y) = 0.79857 0.54576
# Poissons Ratio (z) = 0.01622 0.20866
#
# Static dielectric constant tensor:
#      x y z
#    x 1.917550 0.000000 0.013740 
#    y 0.000000 1.809940 0.000000 
#    z 0.013740 0.000000 1.859630 
# 
# From -- ./inp_files/20257.got.cif
#   From: 2010.05.17/outbox.cif.g08.bks.cpg/sg14_11_cif.got.tgz:20257.got - 2010.06.03 17:49:19.
