data_PCOD9249464
_publ_section_title
;
Structure prediction by ZEFSAII (Michael W. Deem and Ramdas Pophale) SiO2 
 PCOD9249464
Probable space group: P 21/C
;
_chemical_formula_sum "Si O2"
_cell_formula_units_Z 24
_cell_length_a 13.570294
_cell_length_b 5.879086
_cell_length_c 13.974332
_cell_angle_alpha 90.000000
_cell_angle_beta 123.328400
_cell_angle_gamma 90.000000
_cell_volume 931.525692
_symmetry_space_group_name_H-M "P 21/C"
_symmetry_group_IT_number 14
_symmetry_cell_setting 'monoclinic'
loop_
_space_group_symop_operation_xyz
x,y,z
-x,1/2+y,1/2-z
-x,-y,-z
x,1/2-y,1/2+z
loop_
_atom_site_type_symbol
_atom_site_label
_atom_site_fract_x
_atom_site_fract_y
_atom_site_fract_z
Si Si1 0.760343 0.496397 0.746920
Si Si2 0.091912 0.596669 0.670303
Si Si3 0.639369 0.268606 0.512405
Si Si4 0.215497 0.384938 0.897559
Si Si5 0.461311 0.099445 0.771751
Si Si6 0.832463 0.526677 0.485539
O O1 0.881599 0.364299 0.833290
O O2 0.676758 0.327069 0.639753
O O3 0.780716 0.693257 0.681326
O O4 0.677946 0.566385 0.790034
O O5 0.126499 0.558665 0.799077
O O6 0.177347 0.495108 0.633215
O O7 0.968255 0.474723 0.584737
O O8 0.518117 0.357692 0.407022
O O9 0.736606 0.376134 0.490482
O O10 0.658122 0.998753 0.517740
O O11 0.174597 0.275927 0.972998
O O12 0.489967 0.349554 0.738432
#
# Coordination Sequence:
#
# PCOD9249464 Si02
#       6
#     4   4   4   4   4   4
#     4  10  24  45  69 102 143 193 245 309 371 448
#     4  10  23  42  68 106 143 191 241 302 372 442
#     4  10  24  45  68 104 142 193 245 306 373 447
#     4  10  24  40  74  98 148 184 243 305 366 451
#     4  12  29  45  76 106 146 196 253 316 371 451
#     4  10  23  41  69 105 145 190 241 302 371 441
#
# _framework density 25.764184
#
# number of rings (size 3 to 8) (size 9 to 14) (size 15 to 20)
#    0.000    1.667    0.000    1.500   18.667    2.000 
#    0.000    3.333    0.000    0.000    0.000    0.000 
#    0.000    0.000    0.000    0.000    0.000    0.000 
#
# Total GULP energy -133919.298938 kJ/mol
# GULP energy per Si atom -5579.970789 kJ/mol
# Density = 2.570554 g / cm^3
# Si number density = 25.764184 Si / 1000 Ang^3
#
#
#
# Elastic Constant Matrix: (Units=GPa)
#
#
# Indices 1 2 3 4 5 6 
#
# 1 70.1618 26.8647 6.3808 0.0000 -9.0881 0.0000
# 2 26.8647 80.2595 18.3423 0.0000 0.6448 0.0000
# 3 6.3808 18.3423 98.0940 0.0000 -20.3679 0.0000
# 4 0.0000 0.0000 0.0000 39.3946 0.0000 2.1713
# 5 -9.0881 0.6448 -20.3679 0.0000 21.5841 0.0000
# 6 0.0000 0.0000 0.0000 2.1713 0.0000 29.7239
#
#
#
# Elastic Compliance Matrix: (Units=1/GPa)
#
#
# Indices 1 2 3 4 5 6 
#
# 1 0.017805 -0.006508 0.002059 0.000000 0.009635 0.000000
# 2 -0.006508 0.015591 -0.003927 0.000000 -0.006912 0.000000
# 3 0.002059 -0.003927 0.013679 0.000000 0.013893 0.000000
# 4 0.000000 0.000000 0.000000 0.025487 0.000000 -0.001862
# 5 0.009635 -0.006912 0.013893 0.000000 0.063704 0.000000
# 6 0.000000 0.000000 0.000000 -0.001862 0.000000 0.033779
#
#
# Mechanical properties :
#
#
# Convention : Reuss Voigt Hill
#
# Bulk Modulus (GPa) = 32.97713 39.07676 36.02695
# Shear Modulus (GPa) = 25.39304 31.26904 28.33104
#
# Velocity S-wave (km/s) = 3.14282 3.48755 3.31966
# Velocity P-wave (km/s) = 5.09874 5.60512 5.35791
#
# Compressibility (1/GPa) = 0.03032405
#
# Stress axis : x y z
#
# Youngs Moduli (GPa) = 56.16304 64.13994 73.10291
#
# Poissons Ratio (x) = 0.41741 -0.15053
# Poissons Ratio (y) = 0.36550 0.28708
# Poissons Ratio (z) = -0.11565 0.25188
#
# Static dielectric constant tensor:
#      x y z
#    x 2.013020 0.000000 0.015380 
#    y 0.000000 2.192740 0.000000 
#    z 0.015380 0.000000 2.009850 
# 
# From -- ./inp_files/45979.got.cif
#   From: 2010.05.17/outbox.cif.g08.bks.cpg/sg14_23_cif.got.tgz:45979.got - 2010.06.03 17:49:19.
