data_PCOD9249742
_publ_section_title
;
Structure prediction by ZEFSAII (Michael W. Deem and Ramdas Pophale) SiO2 
 PCOD9249742
Probable space group: P 21/C
;
_chemical_formula_sum "Si O2"
_cell_formula_units_Z 32
_cell_length_a 18.704670
_cell_length_b 7.402537
_cell_length_c 14.295581
_cell_angle_alpha 90.000000
_cell_angle_beta 136.987402
_cell_angle_gamma 90.000000
_cell_volume 1350.262348
_symmetry_space_group_name_H-M "P 21/C"
_symmetry_group_IT_number 14
_symmetry_cell_setting 'monoclinic'
loop_
_space_group_symop_operation_xyz
x,y,z
-x,1/2+y,1/2-z
-x,-y,-z
x,1/2-y,1/2+z
loop_
_atom_site_type_symbol
_atom_site_label
_atom_site_fract_x
_atom_site_fract_y
_atom_site_fract_z
Si Si1 0.948042 0.265445 0.614257
Si Si2 0.553427 0.980339 0.948883
Si Si3 0.672039 0.525798 0.302455
Si Si4 0.264893 0.611075 0.101622
Si Si5 0.724696 0.821011 0.222312
Si Si6 0.880334 0.645413 0.592824
Si Si7 0.036735 0.293669 0.019963
Si Si8 0.543230 0.349101 0.821740
O O1 0.859367 0.110503 0.539538
O O2 0.903732 0.434660 0.625917
O O3 0.062838 0.229262 0.764099
O O4 0.958579 0.311179 0.514189
O O5 0.553191 0.169493 0.893402
O O6 0.495128 0.843249 0.823553
O O7 0.500000 0.000000 0.000000
O O8 0.668504 0.906129 0.079849
O O9 0.709886 0.318214 0.341480
O O10 0.674547 0.631521 0.206645
O O11 0.757699 0.641638 0.446237
O O12 0.554223 0.546287 0.226130
O O13 0.287138 0.469700 0.205439
O O14 0.340158 0.573186 0.084866
O O15 0.846097 0.785912 0.329269
O O16 0.948760 0.722280 0.570741
O O17 0.000000 0.500000 0.000000
#
# Coordination Sequence:
#
# PCOD9249742 Si02
#       8
#     4   4   4   4   4   4   4   4
#     4  11  23  42  65 101 138 181 235 284 358 416
#     4  12  25  45  71 102 144 184 237 299 359 434
#     4  10  23  43  68 101 140 180 238 291 353 430
#     4  11  23  43  68 100 142 181 241 294 345 443
#     4  11  24  46  71  98 142 183 232 302 362 418
#     4  10  24  41  66  98 140 178 231 293 343 424
#     4  11  22  41  70  95 133 181 228 287 352 423
#     4  12  23  44  69 102 138 187 238 290 359 427
#
# _framework density 23.699096999999998
#
# number of rings (size 3 to 8) (size 9 to 14) (size 15 to 20)
#    0.000    1.000    5.000    1.125    3.500    1.000 
#    2.250    1.875    0.000    0.000    0.000    0.000 
#    0.000    0.000    0.000    0.000    0.000    0.000 
#
# Total GULP energy -178582.723189 kJ/mol
# GULP energy per Si atom -5580.710100 kJ/mol
# Density = 2.364516 g / cm^3
# Si number density = 23.699097 Si / 1000 Ang^3
#
#
#
# Elastic Constant Matrix: (Units=GPa)
#
#
# Indices 1 2 3 4 5 6 
#
# 1 115.3418 -3.0107 6.9646 0.0000 5.5050 0.0000
# 2 -3.0107 61.9826 5.8069 0.0000 0.9556 0.0000
# 3 6.9646 5.8069 43.4151 0.0000 -3.2003 0.0000
# 4 0.0000 0.0000 0.0000 36.9181 0.0000 -1.2621
# 5 5.5050 0.9556 -3.2003 0.0000 33.6505 0.0000
# 6 0.0000 0.0000 0.0000 -1.2621 0.0000 34.4181
#
#
#
# Elastic Compliance Matrix: (Units=1/GPa)
#
#
# Indices 1 2 3 4 5 6 
#
# 1 0.008861 0.000607 -0.001622 0.000000 -0.001621 0.000000
# 2 0.000607 0.016395 -0.002348 0.000000 -0.000788 0.000000
# 3 -0.001622 -0.002348 0.023799 0.000000 0.002595 0.000000
# 4 0.000000 0.000000 0.000000 0.027121 0.000000 0.000995
# 5 -0.001621 -0.000788 0.002595 0.000000 0.030252 0.000000
# 6 0.000000 0.000000 0.000000 0.000995 0.000000 0.029091
#
#
# Mechanical properties :
#
#
# Convention : Reuss Voigt Hill
#
# Bulk Modulus (GPa) = 23.62457 26.69569 25.16013
# Shear Modulus (GPa) = 31.97848 35.06260 33.52054
#
# Velocity S-wave (km/s) = 3.67734 3.85059 3.76496
# Velocity P-wave (km/s) = 5.29345 5.57299 5.43502
#
# Compressibility (1/GPa) = 0.04232882
#
# Stress axis : x y z
#
# Youngs Moduli (GPa) = 112.85327 60.99332 42.01839
#
# Poissons Ratio (x) = -0.03705 0.06816
# Poissons Ratio (y) = -0.06854 0.09868
# Poissons Ratio (z) = 0.18307 0.14324
#
# Static dielectric constant tensor:
#      x y z
#    x 1.962100 0.000000 0.047190 
#    y 0.000000 1.958560 0.000000 
#    z 0.047190 0.000000 1.943550 
# 
# From -- ./inp_files/49945.got.cif
#   From: 2010.05.17/outbox.cif.g08.bks.cpg/sg14_25_cif.got.tgz:49945.got - 2010.06.03 17:49:19.
