data_PCOD9249252
_publ_section_title
;
Structure prediction by ZEFSAII (Michael W. Deem and Ramdas Pophale) SiO2 
 PCOD9249252
Probable space group: P 21/C
;
_chemical_formula_sum "Si O2"
_cell_formula_units_Z 28
_cell_length_a 14.183604
_cell_length_b 15.987820
_cell_length_c 8.534343
_cell_angle_alpha 90.000000
_cell_angle_beta 136.073095
_cell_angle_gamma 90.000000
_cell_volume 1342.587950
_symmetry_space_group_name_H-M "P 21/C"
_symmetry_group_IT_number 14
_symmetry_cell_setting 'monoclinic'
loop_
_space_group_symop_operation_xyz
x,y,z
-x,1/2+y,1/2-z
-x,-y,-z
x,1/2-y,1/2+z
loop_
_atom_site_type_symbol
_atom_site_label
_atom_site_fract_x
_atom_site_fract_y
_atom_site_fract_z
Si Si1 0.401054 0.642880 0.381522
Si Si2 0.906967 0.979395 0.146337
Si Si3 0.744804 0.254807 0.043098
Si Si4 0.300680 0.160504 0.630604
Si Si5 0.189185 0.506340 0.117113
Si Si6 0.201609 0.173425 0.181224
Si Si7 0.915043 0.341199 0.497025
O O1 0.316404 0.681719 0.424388
O O2 0.371802 0.705497 0.203508
O O3 0.556147 0.640353 0.616856
O O4 0.327476 0.556203 0.252671
O O5 0.838947 0.001454 0.231289
O O6 0.826314 0.907485 0.959069
O O7 0.059934 0.951395 0.377193
O O8 0.916638 0.062735 0.052839
O O9 0.863648 0.216457 0.078076
O O10 0.806095 0.324573 0.230403
O O11 0.199550 0.087137 0.563431
O O12 0.307112 0.160073 0.449902
O O13 0.247108 0.248925 0.630479
O O14 0.059635 0.187754 0.103170
#
# Coordination Sequence:
#
# PCOD9249252 Si02
#       7
#     4   4   4   4   4   4   4
#     4  11  23  45  64  96 132 180 222 263 320 399
#     4  11  24  43  67  99 137 164 220 281 341 389
#     4  10  23  38  71  93 129 171 223 270 326 389
#     4  12  26  43  67  93 136 178 222 264 325 400
#     4  11  24  44  67  98 134 173 216 278 333 388
#     4  12  25  42  67  99 132 172 218 277 334 392
#     4  11  21  41  65 102 131 167 215 282 335 389
#
# _framework density 20.855245
#
# number of rings (size 3 to 8) (size 9 to 14) (size 15 to 20)
#    0.000    0.857    2.857    4.286    2.000    2.286 
#    0.000    0.714    0.000    0.000    0.000    0.000 
#    0.000    0.000    0.000    0.000    0.000    0.000 
#
# Total GULP energy -156652.059538 kJ/mol
# GULP energy per Si atom -5594.716412 kJ/mol
# Density = 2.080778 g / cm^3
# Si number density = 20.855245 Si / 1000 Ang^3
#
#
#
# Elastic Constant Matrix: (Units=GPa)
#
#
# Indices 1 2 3 4 5 6 
#
# 1 30.5674 23.9001 5.0131 0.0000 -14.9726 0.0000
# 2 23.9001 117.8184 59.4979 0.0000 -8.7575 0.0000
# 3 5.0131 59.4979 105.5796 0.0000 -12.7612 0.0000
# 4 0.0000 0.0000 0.0000 31.0008 0.0000 -3.6478
# 5 -14.9726 -8.7575 -12.7612 0.0000 32.7097 0.0000
# 6 0.0000 0.0000 0.0000 -3.6478 0.0000 33.1832
#
#
#
# Elastic Compliance Matrix: (Units=1/GPa)
#
#
# Indices 1 2 3 4 5 6 
#
# 1 0.053226 -0.012864 0.007610 0.000000 0.023888 0.000000
# 2 -0.012864 0.014984 -0.008459 0.000000 -0.005177 0.000000
# 3 0.007610 -0.008459 0.014719 0.000000 0.006961 0.000000
# 4 0.000000 0.000000 0.000000 0.032680 0.000000 0.003592
# 5 0.023888 -0.005177 0.006961 0.000000 0.042836 0.000000
# 6 0.000000 0.000000 0.000000 0.003592 0.000000 0.030531
#
#
# Mechanical properties :
#
#
# Convention : Reuss Voigt Hill
#
# Bulk Modulus (GPa) = 18.01765 47.86528 32.94147
# Shear Modulus (GPa) = 21.28532 30.41568 25.85050
#
# Velocity S-wave (km/s) = 3.19818 3.82307 3.52450
# Velocity P-wave (km/s) = 4.72186 6.51835 5.69143
#
# Compressibility (1/GPa) = 0.05550112
#
# Stress axis : x y z
#
# Youngs Moduli (GPa) = 18.78781 66.73678 67.94156
#
# Poissons Ratio (x) = 0.85853 -0.51701
# Poissons Ratio (y) = 0.24169 0.57472
# Poissons Ratio (z) = -0.14297 0.56453
#
# Static dielectric constant tensor:
#      x y z
#    x 1.730250 0.000000 -0.002600 
#    y 0.000000 1.723960 0.000000 
#    z -0.002600 0.000000 1.763710 
# 
# From -- ./inp_files/13007.got.cif
#   From: 2010.05.17/outbox.cif.g08.bks.cpg/sg14_7_cif.got.tgz:13007.got - 2010.06.03 17:49:19.
