data_PCOD9249181
_publ_section_title
;
Structure prediction by ZEFSAII (Michael W. Deem and Ramdas Pophale) SiO2 
 PCOD9249181
Probable space group: P 21/C
;
_chemical_formula_sum "Si O2"
_cell_formula_units_Z 20
_cell_length_a 10.885905
_cell_length_b 5.297911
_cell_length_c 22.665813
_cell_angle_alpha 90.000000
_cell_angle_beta 34.887157
_cell_angle_gamma 90.000000
_cell_volume 747.666102
_symmetry_space_group_name_H-M "P 21/C"
_symmetry_group_IT_number 14
_symmetry_cell_setting 'monoclinic'
loop_
_space_group_symop_operation_xyz
x,y,z
-x,1/2+y,1/2-z
-x,-y,-z
x,1/2-y,1/2+z
loop_
_atom_site_type_symbol
_atom_site_label
_atom_site_fract_x
_atom_site_fract_y
_atom_site_fract_z
Si Si1 0.903801 0.741551 0.197166
Si Si2 0.509990 0.471840 0.166000
Si Si3 0.268184 0.442454 0.619607
Si Si4 0.222113 0.375971 0.038106
Si Si5 0.239692 0.035999 0.927093
O O1 0.743523 0.939785 0.229981
O O2 0.755865 0.577694 0.300804
O O3 0.021270 0.556672 0.105138
O O4 0.086315 0.872047 0.165287
O O5 0.626211 0.717483 0.147208
O O6 0.628328 0.215394 0.136886
O O7 0.567777 0.501790 0.073091
O O8 0.500000 0.500000 0.500000
O O9 0.220730 0.173549 0.607500
O O10 0.213193 0.112255 0.006648
O O11 0.000000 0.000000 0.000000
#
# Coordination Sequence:
#
# PCOD9249181 Si02
#       5
#     4   4   4   4   4
#     4  12  24  41  66 104 150 203 238 310 361 445
#     4  10  25  43  74 103 144 184 248 301 367 431
#     4  12  26  41  67 103 150 200 252 293 365 444
#     4  10  24  41  71 100 148 187 252 302 367 434
#     4  10  22  47  78 102 135 189 242 315 377 433
#
# _framework density 26.749905999999999
#
# number of rings (size 3 to 8) (size 9 to 14) (size 15 to 20)
#    1.200    0.000    2.000    4.200    5.600    1.600 
#    0.000    0.000    8.800    0.000    0.000    0.000 
#    0.000    0.000    0.000    0.000    0.000    0.000 
#
# Total GULP energy -111934.771248 kJ/mol
# GULP energy per Si atom -5596.738562 kJ/mol
# Density = 2.668902 g / cm^3
# Si number density = 26.749906 Si / 1000 Ang^3
#
#
#
# Elastic Constant Matrix: (Units=GPa)
#
#
# Indices 1 2 3 4 5 6 
#
# 1 74.0325 25.1742 25.1842 0.0000 -18.3392 0.0000
# 2 25.1742 157.0216 26.1826 0.0000 -25.0997 0.0000
# 3 25.1842 26.1826 138.4470 0.0000 -5.2117 0.0000
# 4 0.0000 0.0000 0.0000 -11.1620 0.0000 -37.0817
# 5 -18.3392 -25.0997 -5.2117 0.0000 53.8899 0.0000
# 6 0.0000 0.0000 0.0000 -37.0817 0.0000 16.3090
#
#
#
# Elastic Compliance Matrix: (Units=1/GPa)
#
#
# Indices 1 2 3 4 5 6 
#
# 1 0.015950 -0.001423 -0.002462 0.000000 0.004527 0.000000
# 2 -0.001423 0.007207 -0.001000 0.000000 0.002776 0.000000
# 3 -0.002462 -0.001000 0.007839 0.000000 -0.000545 0.000000
# 4 0.000000 0.000000 0.000000 -0.010474 0.000000 -0.023815
# 5 0.004527 0.002776 -0.000545 0.000000 0.021337 0.000000
# 6 0.000000 0.000000 0.000000 -0.023815 0.000000 0.007169
#
#
# Mechanical properties :
#
#
# Convention : Reuss Voigt Hill
#
# Bulk Modulus (GPa) = 47.10832 58.06478 52.58655
# Shear Modulus (GPa) = 75.90300 31.33805 53.62053
#
# Velocity S-wave (km/s) = 5.33260 3.42646 4.48204
# Velocity P-wave (km/s) = 7.45415 6.11619 6.81807
#
# Compressibility (1/GPa) = 0.02122767
#
# Stress axis : x y z
#
# Youngs Moduli (GPa) = 62.69419 138.75224 127.56183
#
# Poissons Ratio (x) = 0.19745 0.31405
# Poissons Ratio (y) = 0.08922 0.12751
# Poissons Ratio (z) = 0.15435 0.13870
#
# Static dielectric constant tensor:
#      x y z
#    x 2.161520 0.000000 0.030490 
#    y 0.000000 2.155950 0.000000 
#    z 0.030490 0.000000 2.159430 
# 
# From -- ./inp_files/30966.got.cif
#   From: 2010.05.17/outbox.cif.g08.bks.cpg/sg14_16_cif.got.tgz:30966.got - 2010.06.03 17:49:19.
