data_PCOD9249064
_publ_section_title
;
Structure prediction by ZEFSAII (Michael W. Deem and Ramdas Pophale) SiO2 
 PCOD9249064
Probable space group: P 21/C
;
_chemical_formula_sum "Si O2"
_cell_formula_units_Z 30
_cell_length_a 18.781745
_cell_length_b 12.247281
_cell_length_c 21.709748
_cell_angle_alpha 90.000000
_cell_angle_beta 17.511334
_cell_angle_gamma 90.000000
_cell_volume 1502.604161
_symmetry_space_group_name_H-M "P 21/C"
_symmetry_group_IT_number 14
_symmetry_cell_setting 'monoclinic'
loop_
_space_group_symop_operation_xyz
x,y,z
-x,1/2+y,1/2-z
-x,-y,-z
x,1/2-y,1/2+z
loop_
_atom_site_type_symbol
_atom_site_label
_atom_site_fract_x
_atom_site_fract_y
_atom_site_fract_z
Si Si1 0.117733 0.989062 0.336849
Si Si2 0.489997 0.906101 0.559791
Si Si3 0.744131 0.525014 0.967420
Si Si4 0.665758 0.619659 0.155848
Si Si5 0.726826 0.552132 0.482324
Si Si6 0.685816 0.628945 0.655722
Si Si7 0.000000 0.000000 0.000000
Si Si8 0.575206 0.657972 0.481728
O O1 0.338564 0.907552 0.159424
O O2 0.912672 0.940037 0.464551
O O3 0.000000 0.000000 0.500000
O O4 0.215060 0.102908 0.230436
O O5 0.233905 0.920323 0.801717
O O6 0.537065 0.784281 0.498213
O O7 0.500000 0.000000 0.500000
O O8 0.692252 0.931523 0.442378
O O9 0.016980 0.493348 0.747610
O O10 0.648535 0.612440 0.096064
O O11 0.575139 0.420686 0.117413
O O12 0.458916 0.547656 0.357087
O O13 0.676755 0.741439 0.171733
O O14 0.746481 0.604843 0.534042
O O15 0.633136 0.632493 0.505817
O O16 0.864737 0.569918 0.555106
#
# Coordination Sequence:
#
# PCOD9249064 Si02
#       8
#     4   4   4   4   4   4   2   4
#     4  11  23  42  64  97 129 172 220 279 336 401
#     4  11  24  43  66  99 130 178 220 277 336 401
#     4  10  23  42  62  96 136 167 229 267 338 402
#     4  11  22  41  64  98 131 176 227 276 336 399
#     4  11  22  43  64  96 134 175 221 275 333 402
#     4  10  23  39  68  93 131 181 219 280 335 404
#     4  10  22  46  62  98 134 170 228 272 338 402
#     4  11  24  41  67  97 135 173 224 276 335 404
#
# _framework density 19.965339
#
# number of rings (size 3 to 8) (size 9 to 14) (size 15 to 20)
#    0.000    1.333    2.667    2.400    0.000    5.333 
#    0.000    0.000    0.000    0.000    0.000    0.000 
#    0.000    0.000    0.000    0.000    0.000    0.000 
#
# Total GULP energy -167038.508390 kJ/mol
# GULP energy per Si atom -5567.950280 kJ/mol
# Density = 1.991990 g / cm^3
# Si number density = 19.965339 Si / 1000 Ang^3
#
#
#
# Elastic Constant Matrix: (Units=GPa)
#
#
# Indices 1 2 3 4 5 6 
#
# 1 98.2009 50.6253 22.5573 0.0000 -4.4006 0.0000
# 2 50.6253 159.3165 46.2773 0.0000 9.0248 0.0000
# 3 22.5573 46.2773 96.9050 0.0000 -15.8152 0.0000
# 4 0.0000 0.0000 0.0000 15.1121 0.0000 0.9398
# 5 -4.4006 9.0248 -15.8152 0.0000 34.0418 0.0000
# 6 0.0000 0.0000 0.0000 0.9398 0.0000 14.9812
#
#
#
# Elastic Compliance Matrix: (Units=1/GPa)
#
#
# Indices 1 2 3 4 5 6 
#
# 1 0.012448 -0.003898 -0.000655 0.000000 0.002338 0.000000
# 2 -0.003898 0.009004 -0.004181 0.000000 -0.004833 0.000000
# 3 -0.000655 -0.004181 0.013672 0.000000 0.007376 0.000000
# 4 0.000000 0.000000 0.000000 0.066431 0.000000 -0.004167
# 5 0.002338 -0.004833 0.007376 0.000000 0.034386 0.000000
# 6 0.000000 0.000000 0.000000 -0.004167 0.000000 0.067012
#
#
# Mechanical properties :
#
#
# Convention : Reuss Voigt Hill
#
# Bulk Modulus (GPa) = 56.63604 65.92691 61.28148
# Shear Modulus (GPa) = 22.09403 28.49118 25.29261
#
# Velocity S-wave (km/s) = 3.33020 3.78171 3.56311
# Velocity P-wave (km/s) = 6.57387 7.22224 6.90567
#
# Compressibility (1/GPa) = 0.01765660
#
# Stress axis : x y z
#
# Youngs Moduli (GPa) = 80.33559 111.06471 73.14072
#
# Poissons Ratio (x) = 0.43291 0.04787
# Poissons Ratio (y) = 0.31313 0.30582
# Poissons Ratio (z) = 0.05258 0.46439
#
# Static dielectric constant tensor:
#      x y z
#    x 1.362420 0.000000 0.016310 
#    y 0.000000 1.688870 0.000000 
#    z 0.016310 0.000000 1.688580 
# 
# From -- ./inp_files/69285.got.cif
#   From: 2010.05.17/outbox.cif.g08.bks.cpg/sg14_35_cif.got.tgz:69285.got - 2010.06.03 17:49:19.
