data_PCOD9249070
_publ_section_title
;
Structure prediction by ZEFSAII (Michael W. Deem and Ramdas Pophale) SiO2 
 PCOD9249070
Probable space group: P 21/C
;
_chemical_formula_sum "Si O2"
_cell_formula_units_Z 26
_cell_length_a 4.999071
_cell_length_b 13.883275
_cell_length_c 14.058801
_cell_angle_alpha 90.000000
_cell_angle_beta 86.667433
_cell_angle_gamma 90.000000
_cell_volume 974.079657
_symmetry_space_group_name_H-M "P 21/C"
_symmetry_group_IT_number 14
_symmetry_cell_setting 'monoclinic'
loop_
_space_group_symop_operation_xyz
x,y,z
-x,1/2+y,1/2-z
-x,-y,-z
x,1/2-y,1/2+z
loop_
_atom_site_type_symbol
_atom_site_label
_atom_site_fract_x
_atom_site_fract_y
_atom_site_fract_z
Si Si1 0.036687 0.787550 0.286215
Si Si2 0.819100 0.479464 0.300805
Si Si3 0.349823 0.552738 0.189965
Si Si4 0.668400 0.615735 0.952147
Si Si5 0.966594 0.700976 0.110161
Si Si6 0.276841 0.704615 0.450440
Si Si7 0.500000 0.000000 0.000000
O O1 0.222537 0.868936 0.233955
O O2 0.845142 0.750325 0.205944
O O3 0.176778 0.703604 0.344064
O O4 0.878311 0.840757 0.372372
O O5 0.620981 0.546367 0.243681
O O6 0.738183 0.489874 0.411524
O O7 0.121465 0.505486 0.263747
O O8 0.387489 0.485987 0.095106
O O9 0.227680 0.650912 0.150962
O O10 0.431324 0.693397 0.955902
O O11 0.807600 0.622890 0.052154
O O12 0.041368 0.783188 0.032777
O O13 0.450614 0.612648 0.470569
#
# Coordination Sequence:
#
# PCOD9249070 Si02
#       7
#     4   4   4   4   4   4   2
#     4  10  22  46  64  99 146 189 240 295 368 431
#     4  11  25  47  73 106 149 193 243 303 366 435
#     4  11  25  46  75 107 148 191 242 304 371 435
#     4  10  24  42  70 102 138 194 240 305 363 445
#     4  11  24  42  70 104 139 191 241 304 364 438
#     4  11  24  44  69 100 144 185 247 298 369 434
#     4  12  26  46  70 112 140 198 248 308 358 448
#
# _framework density 26.691863999999999
#
# number of rings (size 3 to 8) (size 9 to 14) (size 15 to 20)
#    0.000    1.231    3.077    1.385    4.308    4.923 
#    0.000    0.000    0.000    0.000    0.000    0.000 
#    0.000    0.000    0.000    0.000    0.000    0.000 
#
# Total GULP energy -145120.948749 kJ/mol
# GULP energy per Si atom -5581.574952 kJ/mol
# Density = 2.663111 g / cm^3
# Si number density = 26.691864 Si / 1000 Ang^3
#
#
#
# Elastic Constant Matrix: (Units=GPa)
#
#
# Indices 1 2 3 4 5 6 
#
# 1 69.7179 14.9659 28.6491 0.0000 -8.7713 0.0000
# 2 14.9659 102.3212 37.9698 0.0000 -5.0956 0.0000
# 3 28.6491 37.9698 174.3477 0.0000 -16.9263 0.0000
# 4 0.0000 0.0000 0.0000 24.5674 0.0000 10.4770
# 5 -8.7713 -5.0956 -16.9263 0.0000 36.1159 0.0000
# 6 0.0000 0.0000 0.0000 10.4770 0.0000 28.1385
#
#
#
# Elastic Compliance Matrix: (Units=1/GPa)
#
#
# Indices 1 2 3 4 5 6 
#
# 1 0.015822 -0.001428 -0.002028 0.000000 0.002691 0.000000
# 2 -0.001428 0.010768 -0.002092 0.000000 0.000192 0.000000
# 3 -0.002028 -0.002092 0.006755 0.000000 0.002378 0.000000
# 4 0.000000 0.000000 0.000000 0.048388 0.000000 -0.018016
# 5 0.002691 0.000192 0.002378 0.000000 0.029484 0.000000
# 6 0.000000 0.000000 0.000000 -0.018016 0.000000 0.042247
#
#
# Mechanical properties :
#
#
# Convention : Reuss Voigt Hill
#
# Bulk Modulus (GPa) = 44.94280 56.61737 50.78009
# Shear Modulus (GPa) = 29.07411 35.41783 32.24597
#
# Velocity S-wave (km/s) = 3.30396 3.64664 3.47952
# Velocity P-wave (km/s) = 5.60616 6.24405 5.93368
#
# Compressibility (1/GPa) = 0.02225050
#
# Stress axis : x y z
#
# Youngs Moduli (GPa) = 63.20403 92.86988 148.03169
#
# Poissons Ratio (x) = 0.13259 0.30016
# Poissons Ratio (y) = 0.09024 0.30965
# Poissons Ratio (z) = 0.12816 0.19426
#
# Static dielectric constant tensor:
#      x y z
#    x 2.173030 0.000000 -0.031620 
#    y 0.000000 2.033050 0.000000 
#    z -0.031620 0.000000 2.107100 
# 
# From -- ./inp_files/37361.got.cif
#   From: 2010.05.17/outbox.cif.g08.bks.cpg/sg14_19_cif.got.tgz:37361.got - 2010.06.03 17:49:19.
