data_PCOD9249599
_publ_section_title
;
Structure prediction by ZEFSAII (Michael W. Deem and Ramdas Pophale) SiO2 
 PCOD9249599
Probable space group: P 21/C
;
_chemical_formula_sum "Si O2"
_cell_formula_units_Z 28
_cell_length_a 8.183389
_cell_length_b 10.031485
_cell_length_c 16.781636
_cell_angle_alpha 90.000000
_cell_angle_beta 48.942054
_cell_angle_gamma 90.000000
_cell_volume 1038.796273
_symmetry_space_group_name_H-M "P 21/C"
_symmetry_group_IT_number 14
_symmetry_cell_setting 'monoclinic'
loop_
_space_group_symop_operation_xyz
x,y,z
-x,1/2+y,1/2-z
-x,-y,-z
x,1/2-y,1/2+z
loop_
_atom_site_type_symbol
_atom_site_label
_atom_site_fract_x
_atom_site_fract_y
_atom_site_fract_z
Si Si1 0.740636 0.365779 0.203047
Si Si2 0.049030 0.907091 0.642124
Si Si3 0.093909 0.336418 0.416605
Si Si4 0.706782 0.699833 0.345749
Si Si5 0.571962 0.767194 0.065097
Si Si6 0.316699 0.904828 0.867263
Si Si7 0.456902 0.542395 0.901504
O O1 0.954455 0.446157 0.157024
O O2 0.595671 0.353390 0.329273
O O3 0.741367 0.215123 0.172257
O O4 0.856623 0.104332 0.005586
O O5 0.927028 0.789202 0.632697
O O6 0.951021 0.858325 0.758843
O O7 0.281472 0.910187 0.524481
O O8 0.198679 0.280331 0.463694
O O9 0.253245 0.457746 0.345066
O O10 0.608690 0.680391 0.464913
O O11 0.548549 0.627504 0.331693
O O12 0.661070 0.858108 0.345667
O O13 0.503484 0.612909 0.096110
O O14 0.654367 0.061074 0.649554
#
# Coordination Sequence:
#
# PCOD9249599 Si02
#       7
#     4   4   4   4   4   4   4
#     4  11  23  41  73 103 140 188 246 298 354 439
#     4  12  23  46  76 103 146 196 248 304 363 441
#     4  11  21  41  70 103 138 190 245 304 343 432
#     4  11  26  46  68 106 150 193 235 309 378 437
#     4  12  26  43  73 106 148 189 246 303 376 442
#     4  10  23  42  68 103 144 187 244 300 359 426
#     4  11  24  48  72 106 146 198 246 301 367 444
#
# _framework density 26.954273000000001
#
# number of rings (size 3 to 8) (size 9 to 14) (size 15 to 20)
#    0.000    0.857    4.286    4.286    4.000    2.286 
#    5.143    1.429    0.000    0.000    0.000    0.000 
#    0.000    0.000    0.000    0.000    0.000    0.000 
#
# Total GULP energy -156666.472439 kJ/mol
# GULP energy per Si atom -5595.231159 kJ/mol
# Density = 2.689292 g / cm^3
# Si number density = 26.954273 Si / 1000 Ang^3
#
#
#
# Elastic Constant Matrix: (Units=GPa)
#
#
# Indices 1 2 3 4 5 6 
#
# 1 54.8559 15.4212 27.0679 0.0000 6.0068 0.0000
# 2 15.4212 166.3797 39.9475 0.0000 4.3668 0.0000
# 3 27.0679 39.9475 159.5877 0.0000 0.9806 0.0000
# 4 0.0000 0.0000 0.0000 46.2343 0.0000 -17.0422
# 5 6.0068 4.3668 0.9806 0.0000 45.2953 0.0000
# 6 0.0000 0.0000 0.0000 -17.0422 0.0000 4.7810
#
#
#
# Elastic Compliance Matrix: (Units=1/GPa)
#
#
# Indices 1 2 3 4 5 6 
#
# 1 0.020371 -0.001060 -0.003174 0.000000 -0.002531 0.000000
# 2 -0.001060 0.006465 -0.001436 0.000000 -0.000452 0.000000
# 3 -0.003174 -0.001436 0.007161 0.000000 0.000404 0.000000
# 4 0.000000 0.000000 0.000000 -0.068901 0.000000 -0.245602
# 5 -0.002531 -0.000452 0.000404 0.000000 0.022448 0.000000
# 6 0.000000 0.000000 0.000000 -0.245602 0.000000 -0.666302
#
#
# Mechanical properties :
#
#
# Convention : Reuss Voigt Hill
#
# Bulk Modulus (GPa) = 44.13451 60.63296 52.38373
# Shear Modulus (GPa) = -7.57730 39.15456 15.78863
#
# Velocity S-wave (km/s) = -1.67847 3.81547 2.42287
# Velocity P-wave (km/s) = 3.55711 6.47719 5.22528
#
# Compressibility (1/GPa) = 0.02265801
#
# Stress axis : x y z
#
# Youngs Moduli (GPa) = 49.08968 154.67528 139.63568
#
# Poissons Ratio (x) = 0.16388 0.44326
# Poissons Ratio (y) = 0.05201 0.20050
# Poissons Ratio (z) = 0.15583 0.22209
#
# Static dielectric constant tensor:
#      x y z
#    x 2.163450 0.000000 -0.063760 
#    y 0.000000 2.099610 0.000000 
#    z -0.063760 0.000000 2.228620 
# 
# From -- ./inp_files/66980.got.cif
#   From: 2010.05.17/outbox.cif.g08.bks.cpg/sg14_34_cif.got.tgz:66980.got - 2010.06.03 17:49:19.
