data_PCOD9249612
_publ_section_title
;
Structure prediction by ZEFSAII (Michael W. Deem and Ramdas Pophale) SiO2 
 PCOD9249612
Probable space group: P 21/C
;
_chemical_formula_sum "Si O2"
_cell_formula_units_Z 28
_cell_length_a 6.182915
_cell_length_b 11.620120
_cell_length_c 21.811784
_cell_angle_alpha 90.000000
_cell_angle_beta 127.298843
_cell_angle_gamma 90.000000
_cell_volume 1246.600980
_symmetry_space_group_name_H-M "P 21/C"
_symmetry_group_IT_number 14
_symmetry_cell_setting 'monoclinic'
loop_
_space_group_symop_operation_xyz
x,y,z
-x,1/2+y,1/2-z
-x,-y,-z
x,1/2-y,1/2+z
loop_
_atom_site_type_symbol
_atom_site_label
_atom_site_fract_x
_atom_site_fract_y
_atom_site_fract_z
Si Si1 0.213642 0.032674 0.618508
Si Si2 0.114220 0.228164 0.134147
Si Si3 0.720779 0.041922 0.128715
Si Si4 0.673337 0.906582 0.494484
Si Si5 0.315191 0.870134 0.741347
Si Si6 0.139217 0.213100 0.891412
Si Si7 0.878724 0.879531 0.994431
O O1 0.059071 0.135940 0.628068
O O2 0.375368 0.084444 0.587408
O O3 0.373771 0.958422 0.695947
O O4 0.988388 0.943748 0.555166
O O5 0.427397 0.212583 0.206936
O O6 0.085558 0.201424 0.057202
O O7 0.944388 0.130295 0.139847
O O8 0.712580 0.061315 0.200076
O O9 0.438623 0.089127 0.052336
O O10 0.759987 0.906119 0.121146
O O11 0.649380 0.791246 0.532047
O O12 0.500000 0.000000 0.500000
O O13 0.043228 0.795442 0.681708
O O14 0.966882 0.167333 0.919831
O O15 0.000000 0.000000 0.000000
#
# Coordination Sequence:
#
# PCOD9249612 Si02
#       7
#     4   4   4   4   4   4   4
#     4  10  23  43  63  96 132 170 225 271 341 404
#     4  11  24  42  70  91 139 176 220 289 336 407
#     4  11  26  43  66 105 134 179 231 282 354 404
#     4  10  23  42  68  99 127 170 221 282 338 404
#     4  10  27  44  61  99 136 184 225 269 347 416
#     4  11  23  46  68  96 136 173 233 283 335 418
#     4  11  23  43  68 103 131 170 231 291 343 404
#
# _framework density 22.461078000000001
#
# number of rings (size 3 to 8) (size 9 to 14) (size 15 to 20)
#    0.000    1.429    2.857    0.429    6.000    2.286 
#    0.000    0.000    0.000    0.000    0.000    0.000 
#    0.000    0.000    0.000    0.000    0.000    0.000 
#
# Total GULP energy -156157.972811 kJ/mol
# GULP energy per Si atom -5577.070458 kJ/mol
# Density = 2.240996 g / cm^3
# Si number density = 22.461078 Si / 1000 Ang^3
#
#
#
# Elastic Constant Matrix: (Units=GPa)
#
#
# Indices 1 2 3 4 5 6 
#
# 1 50.3835 16.9285 25.9414 0.0000 -9.6745 0.0000
# 2 16.9285 148.7309 47.3111 0.0000 -10.9684 0.0000
# 3 25.9414 47.3111 109.6587 0.0000 -21.3449 0.0000
# 4 0.0000 0.0000 0.0000 30.4720 0.0000 0.9666
# 5 -9.6745 -10.9684 -21.3449 0.0000 19.6378 0.0000
# 6 0.0000 0.0000 0.0000 0.9666 0.0000 23.4939
#
#
#
# Elastic Compliance Matrix: (Units=1/GPa)
#
#
# Indices 1 2 3 4 5 6 
#
# 1 0.023445 -0.000954 -0.003793 0.000000 0.006895 0.000000
# 2 -0.000954 0.007844 -0.003041 0.000000 0.000606 0.000000
# 3 -0.003793 -0.003041 0.013488 0.000000 0.011093 0.000000
# 4 0.000000 0.000000 0.000000 0.032860 0.000000 -0.001352
# 5 0.006895 0.000606 0.011093 0.000000 0.066715 0.000000
# 6 0.000000 0.000000 0.000000 -0.001352 0.000000 0.042620
#
#
# Mechanical properties :
#
#
# Convention : Reuss Voigt Hill
#
# Bulk Modulus (GPa) = 34.24337 54.34835 44.29586
# Shear Modulus (GPa) = 23.55384 29.29354 26.42369
#
# Velocity S-wave (km/s) = 3.24180 3.61528 3.43362
# Velocity P-wave (km/s) = 5.41213 6.45571 5.95682
#
# Compressibility (1/GPa) = 0.02920273
#
# Stress axis : x y z
#
# Youngs Moduli (GPa) = 42.65319 127.48563 74.14242
#
# Poissons Ratio (x) = 0.12156 0.28120
# Poissons Ratio (y) = 0.04067 0.22544
# Poissons Ratio (z) = 0.16177 0.38763
#
# Static dielectric constant tensor:
#      x y z
#    x 1.868560 0.000000 -0.005910 
#    y 0.000000 1.887300 0.000000 
#    z -0.005910 0.000000 1.865890 
# 
# From -- ./inp_files/63600.got.cif
#   From: 2010.05.17/outbox.cif.g08.bks.cpg/sg14_32_cif.got.tgz:63600.got - 2010.06.03 17:49:19.
