data_PCOD9249794
_publ_section_title
;
Structure prediction by ZEFSAII (Michael W. Deem and Ramdas Pophale) SiO2 
 PCOD9249794
Probable space group: P 21/C
;
_chemical_formula_sum "Si O2"
_cell_formula_units_Z 20
_cell_length_a 10.077413
_cell_length_b 10.905197
_cell_length_c 7.547099
_cell_angle_alpha 90.000000
_cell_angle_beta 114.254392
_cell_angle_gamma 90.000000
_cell_volume 756.186867
_symmetry_space_group_name_H-M "P 21/C"
_symmetry_group_IT_number 14
_symmetry_cell_setting 'monoclinic'
loop_
_space_group_symop_operation_xyz
x,y,z
-x,1/2+y,1/2-z
-x,-y,-z
x,1/2-y,1/2+z
loop_
_atom_site_type_symbol
_atom_site_label
_atom_site_fract_x
_atom_site_fract_y
_atom_site_fract_z
Si Si1 0.881229 0.610727 0.720036
Si Si2 0.222029 0.038511 0.186438
Si Si3 0.378863 0.816464 0.137967
Si Si4 0.817304 0.418279 0.977631
Si Si5 0.587331 0.813428 0.956944
O O1 0.896534 0.590404 0.517257
O O2 0.738113 0.695924 0.648607
O O3 0.030711 0.649274 0.890746
O O4 0.835414 0.486646 0.799890
O O5 0.253387 0.899460 0.144578
O O6 0.194293 0.025272 0.378645
O O7 0.366470 0.105660 0.187190
O O8 0.514747 0.809531 0.346626
O O9 0.310435 0.680840 0.079659
O O10 0.456958 0.864777 0.005069
#
# Coordination Sequence:
#
# PCOD9249794 Si02
#       5
#     4   4   4   4   4
#     4   9  24  46  66 101 135 174 224 290 332 400
#     4  10  23  43  71  95 144 175 225 278 343 392
#     4  12  22  42  68 105 131 183 232 272 339 411
#     4  11  22  43  74  96 132 188 224 273 350 400
#     4  10  25  42  65 100 142 172 226 288 326 405
#
# _framework density 26.44849
#
# number of rings (size 3 to 8) (size 9 to 14) (size 15 to 20)
#    1.200    0.400    2.000    2.400    2.800    2.400 
#    3.600    0.000    0.000    0.000    0.000    0.000 
#    0.000    0.000    0.000    0.000    0.000    0.000 
#
# Total GULP energy -111673.267997 kJ/mol
# GULP energy per Si atom -5583.663400 kJ/mol
# Density = 2.638829 g / cm^3
# Si number density = 26.448490 Si / 1000 Ang^3
#
#
#
# Elastic Constant Matrix: (Units=GPa)
#
#
# Indices 1 2 3 4 5 6 
#
# 1 126.9899 22.8540 41.2743 0.0000 13.0353 0.0000
# 2 22.8540 51.3839 13.8945 0.0000 11.8381 0.0000
# 3 41.2743 13.8945 106.2907 0.0000 34.4038 0.0000
# 4 0.0000 0.0000 0.0000 21.1327 0.0000 2.8243
# 5 13.0353 11.8381 34.4038 0.0000 43.3642 0.0000
# 6 0.0000 0.0000 0.0000 2.8243 0.0000 49.4357
#
#
#
# Elastic Compliance Matrix: (Units=1/GPa)
#
#
# Indices 1 2 3 4 5 6 
#
# 1 0.009566 -0.003502 -0.003546 0.000000 0.000894 0.000000
# 2 -0.003502 0.022161 0.000108 0.000000 -0.005083 0.000000
# 3 -0.003546 0.000108 0.014041 0.000000 -0.010103 0.000000
# 4 0.000000 0.000000 0.000000 0.047684 0.000000 -0.002724
# 5 0.000894 -0.005083 -0.010103 0.000000 0.032195 0.000000
# 6 0.000000 0.000000 0.000000 -0.002724 0.000000 0.020384
#
#
# Mechanical properties :
#
#
# Convention : Reuss Voigt Hill
#
# Bulk Modulus (GPa) = 31.35948 48.96777 40.16363
# Shear Modulus (GPa) = 29.31882 36.56264 32.94073
#
# Velocity S-wave (km/s) = 3.33306 3.72211 3.53295
# Velocity P-wave (km/s) = 5.16672 6.08496 5.64454
#
# Compressibility (1/GPa) = 0.03188829
#
# Stress axis : x y z
#
# Youngs Moduli (GPa) = 104.54142 45.12532 71.21865
#
# Poissons Ratio (x) = 0.15801 0.25254
# Poissons Ratio (y) = 0.36605 -0.00769
# Poissons Ratio (z) = 0.37071 -0.00487
#
# Static dielectric constant tensor:
#      x y z
#    x 2.035970 0.000000 -0.030890 
#    y 0.000000 2.100980 0.000000 
#    z -0.030890 0.000000 2.137010 
# 
# From -- ./inp_files/12257.got.cif
#   From: 2010.05.17/outbox.cif.g08.bks.cpg/sg14_7_cif.got.tgz:12257.got - 2010.06.03 17:49:19.
