data_PCOD9249759
_publ_section_title
;
Structure prediction by ZEFSAII (Michael W. Deem and Ramdas Pophale) SiO2 
 PCOD9249759
Probable space group: P 21/C
;
_chemical_formula_sum "Si O2"
_cell_formula_units_Z 20
_cell_length_a 6.322957
_cell_length_b 9.804198
_cell_length_c 17.696684
_cell_angle_alpha 90.000000
_cell_angle_beta 126.383242
_cell_angle_gamma 90.000000
_cell_volume 883.194589
_symmetry_space_group_name_H-M "P 21/C"
_symmetry_group_IT_number 14
_symmetry_cell_setting 'monoclinic'
loop_
_space_group_symop_operation_xyz
x,y,z
-x,1/2+y,1/2-z
-x,-y,-z
x,1/2-y,1/2+z
loop_
_atom_site_type_symbol
_atom_site_label
_atom_site_fract_x
_atom_site_fract_y
_atom_site_fract_z
Si Si1 0.202679 0.598678 0.000923
Si Si2 0.723763 0.485443 0.155846
Si Si3 0.202048 0.619037 0.554556
Si Si4 0.305783 0.010318 0.785503
Si Si5 0.434855 0.721397 0.752433
O O1 0.483415 0.591286 0.104417
O O2 0.124899 0.755273 0.986492
O O3 0.238663 0.548824 0.923898
O O4 0.000000 0.500000 0.000000
O O5 0.632310 0.355775 0.184427
O O6 0.011432 0.528459 0.245175
O O7 0.495698 0.557721 0.606978
O O8 0.214998 0.680423 0.642974
O O9 0.000000 0.500000 0.500000
O O10 0.316144 0.142151 0.731480
O O11 0.435918 0.881428 0.769918
#
# Coordination Sequence:
#
# PCOD9249759 Si02
#       5
#     4   4   4   4   4
#     4  11  25  46  70 100 140 175 235 279 352 402
#     4  11  24  41  75  99 130 186 232 282 333 422
#     4  10  25  43  67 100 139 179 223 286 342 404
#     4  10  25  43  71  97 138 183 229 280 345 404
#     4  10  23  43  68  98 136 179 228 271 352 399
#
# _framework density 22.645067000000001
#
# number of rings (size 3 to 8) (size 9 to 14) (size 15 to 20)
#    1.200    0.400    0.000    3.600    8.400    1.600 
#    0.000    2.000    0.000    0.000    0.000    0.000 
#    0.000    0.000    0.000    0.000    0.000    0.000 
#
# Total GULP energy -111625.342970 kJ/mol
# GULP energy per Si atom -5581.267149 kJ/mol
# Density = 2.259353 g / cm^3
# Si number density = 22.645067 Si / 1000 Ang^3
#
#
#
# Elastic Constant Matrix: (Units=GPa)
#
#
# Indices 1 2 3 4 5 6 
#
# 1 72.0189 13.6597 17.1457 0.0000 21.6870 0.0000
# 2 13.6597 126.7715 4.6252 0.0000 21.9580 0.0000
# 3 17.1457 4.6252 49.4000 0.0000 11.6045 0.0000
# 4 0.0000 0.0000 0.0000 35.0876 0.0000 -2.8624
# 5 21.6870 21.9580 11.6045 0.0000 48.1257 0.0000
# 6 0.0000 0.0000 0.0000 -2.8624 0.0000 19.7699
#
#
#
# Elastic Compliance Matrix: (Units=1/GPa)
#
#
# Indices 1 2 3 4 5 6 
#
# 1 0.016930 -0.000571 -0.004337 0.000000 -0.006323 0.000000
# 2 -0.000571 0.008585 0.000269 0.000000 -0.003725 0.000000
# 3 -0.004337 0.000269 0.022571 0.000000 -0.003611 0.000000
# 4 0.000000 0.000000 0.000000 0.028841 0.000000 0.004176
# 5 -0.006323 -0.003725 -0.003611 0.000000 0.026198 0.000000
# 6 0.000000 0.000000 0.000000 0.004176 0.000000 0.051186
#
#
# Mechanical properties :
#
#
# Convention : Reuss Voigt Hill
#
# Bulk Modulus (GPa) = 25.76730 35.45020 30.60875
# Shear Modulus (GPa) = 28.32443 34.78064 31.55254
#
# Velocity S-wave (km/s) = 3.54050 3.92331 3.73681
# Velocity P-wave (km/s) = 5.30255 6.01763 5.67137
#
# Compressibility (1/GPa) = 0.03880888
#
# Stress axis : x y z
#
# Youngs Moduli (GPa) = 59.06628 116.48152 44.30396
#
# Poissons Ratio (x) = 0.06649 0.19216
# Poissons Ratio (y) = 0.03371 -0.01193
# Poissons Ratio (z) = 0.25619 -0.03137
#
# Static dielectric constant tensor:
#      x y z
#    x 1.877680 0.000000 0.044520 
#    y 0.000000 1.822240 0.000000 
#    z 0.044520 0.000000 1.907460 
# 
# From -- ./inp_files/52895.got.cif
#   From: 2010.05.17/outbox.cif.g08.bks.cpg/sg14_27_cif.got.tgz:52895.got - 2010.06.03 17:49:19.
