data_PCOD9249290
_publ_section_title
;
Structure prediction by ZEFSAII (Michael W. Deem and Ramdas Pophale) SiO2 
 PCOD9249290
Probable space group: P 21/C
;
_chemical_formula_sum "Si O2"
_cell_formula_units_Z 28
_cell_length_a 6.480850
_cell_length_b 15.896937
_cell_length_c 12.986336
_cell_angle_alpha 90.000000
_cell_angle_beta 120.221956
_cell_angle_gamma 90.000000
_cell_volume 1156.077652
_symmetry_space_group_name_H-M "P 21/C"
_symmetry_group_IT_number 14
_symmetry_cell_setting 'monoclinic'
loop_
_space_group_symop_operation_xyz
x,y,z
-x,1/2+y,1/2-z
-x,-y,-z
x,1/2-y,1/2+z
loop_
_atom_site_type_symbol
_atom_site_label
_atom_site_fract_x
_atom_site_fract_y
_atom_site_fract_z
Si Si1 0.883813 0.400288 0.385391
Si Si2 0.036255 0.192406 0.717595
Si Si3 0.080238 0.621001 0.242231
Si Si4 0.626853 0.547201 0.215759
Si Si5 0.403517 0.108031 0.086271
Si Si6 0.205738 0.876053 0.538736
Si Si7 0.461168 0.792399 0.070629
O O1 0.693105 0.470771 0.306865
O O2 0.766945 0.344958 0.446591
O O3 0.919786 0.348037 0.290017
O O4 0.151792 0.430577 0.484136
O O5 0.319307 0.187895 0.800261
O O6 0.953680 0.290372 0.705823
O O7 0.967827 0.138622 0.599894
O O8 0.321812 0.573441 0.342748
O O9 0.097915 0.639533 0.124676
O O10 0.852585 0.562781 0.201746
O O11 0.624974 0.623327 0.299707
O O12 0.373731 0.542283 0.095522
O O13 0.441847 0.184975 0.018145
O O14 0.399163 0.804330 0.561782
#
# Coordination Sequence:
#
# PCOD9249290 Si02
#       7
#     4   4   4   4   4   4   4
#     4  11  25  43  64  99 139 174 216 271 331 388
#     4  11  24  41  67  97 128 172 220 271 325 390
#     4  11  22  41  67  96 128 170 224 269 328 387
#     4  11  25  43  64  99 139 174 216 271 331 388
#     4  10  23  39  69  97 133 169 217 274 329 379
#     4  11  24  41  67  97 128 172 220 271 325 390
#     4  11  22  41  67  96 128 170 224 269 328 387
#
# _framework density 24.219826999999999
#
# number of rings (size 3 to 8) (size 9 to 14) (size 15 to 20)
#    0.000    1.143    4.286    1.286    0.000    7.429 
#    0.000    1.429    0.000    0.000    0.000    0.000 
#    0.000    0.000    0.000    0.000    0.000    0.000 
#
# Total GULP energy -156231.606463 kJ/mol
# GULP energy per Si atom -5579.700231 kJ/mol
# Density = 2.416470 g / cm^3
# Si number density = 24.219827 Si / 1000 Ang^3
#
#
#
# Elastic Constant Matrix: (Units=GPa)
#
#
# Indices 1 2 3 4 5 6 
#
# 1 72.0788 -6.9546 16.6042 0.0000 1.3526 0.0000
# 2 -6.9546 18.5719 -6.6993 0.0000 -7.4581 0.0000
# 3 16.6042 -6.6993 87.8337 0.0000 12.8835 0.0000
# 4 0.0000 0.0000 0.0000 11.6977 0.0000 0.2539
# 5 1.3526 -7.4581 12.8835 0.0000 36.1406 0.0000
# 6 0.0000 0.0000 0.0000 0.2539 0.0000 29.4944
#
#
#
# Elastic Compliance Matrix: (Units=1/GPa)
#
#
# Indices 1 2 3 4 5 6 
#
# 1 0.014960 0.005236 -0.002643 0.000000 0.001463 0.000000
# 2 0.005236 0.061227 0.001958 0.000000 0.011741 0.000000
# 3 -0.002643 0.001958 0.012620 0.000000 -0.003996 0.000000
# 4 0.000000 0.000000 0.000000 0.085503 0.000000 -0.000736
# 5 0.001463 0.011741 -0.003996 0.000000 0.031462 0.000000
# 6 0.000000 0.000000 0.000000 -0.000736 0.000000 0.033911
#
#
# Mechanical properties :
#
#
# Convention : Reuss Voigt Hill
#
# Bulk Modulus (GPa) = 10.21357 20.48721 15.35039
# Shear Modulus (GPa) = 18.99562 27.16882 23.08222
#
# Velocity S-wave (km/s) = 2.80357 3.35290 3.09047
# Velocity P-wave (km/s) = 3.83487 4.84422 4.36879
#
# Compressibility (1/GPa) = 0.09790900
#
# Stress axis : x y z
#
# Youngs Moduli (GPa) = 66.84310 16.33273 79.23729
#
# Poissons Ratio (x) = -0.08552 0.20945
# Poissons Ratio (y) = -0.35000 -0.15514
# Poissons Ratio (z) = 0.17669 -0.03198
#
# Static dielectric constant tensor:
#      x y z
#    x 1.925940 0.000000 0.045160 
#    y 0.000000 1.996460 0.000000 
#    z 0.045160 0.000000 1.964110 
# 
# From -- ./inp_files/21606.got.cif
#   From: 2010.05.17/outbox.cif.g08.bks.cpg/sg14_11_cif.got.tgz:21606.got - 2010.06.03 17:49:19.
