data_PCOD9249988
_publ_section_title
;
Structure prediction by ZEFSAII (Michael W. Deem and Ramdas Pophale) SiO2 
 PCOD9249988
Probable space group: P 21/C
;
_chemical_formula_sum "Si O2"
_cell_formula_units_Z 20
_cell_length_a 7.311981
_cell_length_b 5.206516
_cell_length_c 21.587006
_cell_angle_alpha 90.000000
_cell_angle_beta 96.044303
_cell_angle_gamma 90.000000
_cell_volume 817.247492
_symmetry_space_group_name_H-M "P 21/C"
_symmetry_group_IT_number 14
_symmetry_cell_setting 'monoclinic'
loop_
_space_group_symop_operation_xyz
x,y,z
-x,1/2+y,1/2-z
-x,-y,-z
x,1/2-y,1/2+z
loop_
_atom_site_type_symbol
_atom_site_label
_atom_site_fract_x
_atom_site_fract_y
_atom_site_fract_z
Si Si1 0.310130 0.630829 0.885446
Si Si2 0.964377 0.603168 0.789511
Si Si3 0.591445 0.508323 0.435751
Si Si4 0.450128 0.563275 0.211481
Si Si5 0.214720 0.511081 0.021460
O O1 0.429740 0.447977 0.846133
O O2 0.305166 0.532748 0.955835
O O3 0.107068 0.647105 0.850434
O O4 0.420925 0.900853 0.887262
O O5 0.759980 0.526987 0.802893
O O6 0.035833 0.362677 0.751079
O O7 0.500000 0.500000 0.500000
O O8 0.717014 0.256711 0.437025
O O9 0.724331 0.753896 0.442426
O O10 0.458336 0.844106 0.241741
O O11 0.000000 0.500000 0.000000
#
# Coordination Sequence:
#
# PCOD9249988 Si02
#       5
#     4   4   4   4   4
#     4  11  25  45  74  96 143 184 225 282 359 390
#     4  12  25  46  67 102 137 178 235 283 333 417
#     4  10  23  45  68  97 138 176 228 285 339 410
#     4  12  25  46  68  99 140 181 228 285 339 411
#     4  11  25  46  70 105 137 177 237 287 335 417
#
# _framework density 24.472390999999998
#
# number of rings (size 3 to 8) (size 9 to 14) (size 15 to 20)
#    0.000    0.800    4.000    3.000    2.800    9.600 
#    3.600    0.000    0.000    0.000    0.000    0.000 
#    0.000    0.000    0.000    0.000    0.000    0.000 
#
# Total GULP energy -112067.408332 kJ/mol
# GULP energy per Si atom -5603.370417 kJ/mol
# Density = 2.441669 g / cm^3
# Si number density = 24.472391 Si / 1000 Ang^3
#
#
#
# Elastic Constant Matrix: (Units=GPa)
#
#
# Indices 1 2 3 4 5 6 
#
# 1 170.7796 34.5553 30.6670 0.0000 32.0080 0.0000
# 2 34.5553 174.1592 34.9599 0.0000 9.8301 0.0000
# 3 30.6670 34.9599 90.3449 0.0000 8.8038 0.0000
# 4 0.0000 0.0000 0.0000 35.0957 0.0000 3.8544
# 5 32.0080 9.8301 8.8038 0.0000 58.9325 0.0000
# 6 0.0000 0.0000 0.0000 3.8544 0.0000 31.8632
#
#
#
# Elastic Compliance Matrix: (Units=1/GPa)
#
#
# Indices 1 2 3 4 5 6 
#
# 1 0.006969 -0.000849 -0.001707 0.000000 -0.003388 0.000000
# 2 -0.000849 0.006356 -0.002144 0.000000 -0.000279 0.000000
# 3 -0.001707 -0.002144 0.012535 0.000000 -0.000588 0.000000
# 4 0.000000 0.000000 0.000000 0.028877 0.000000 -0.003493
# 5 -0.003388 -0.000279 -0.000588 0.000000 0.018943 0.000000
# 6 0.000000 0.000000 0.000000 -0.003493 0.000000 0.031807
#
#
# Mechanical properties :
#
#
# Convention : Reuss Voigt Hill
#
# Bulk Modulus (GPa) = 60.75231 70.62756 65.68993
# Shear Modulus (GPa) = 41.53700 47.51836 44.52768
#
# Velocity S-wave (km/s) = 4.12430 4.41127 4.27020
# Velocity P-wave (km/s) = 6.89627 7.40732 7.15636
#
# Compressibility (1/GPa) = 0.01646028
#
# Stress axis : x y z
#
# Youngs Moduli (GPa) = 143.49643 157.31952 79.77555
#
# Poissons Ratio (x) = 0.13353 0.13617
# Poissons Ratio (y) = 0.12180 0.17107
# Poissons Ratio (z) = 0.24493 0.33736
#
# Static dielectric constant tensor:
#      x y z
#    x 1.926650 0.000000 0.005220 
#    y 0.000000 1.991490 0.000000 
#    z 0.005220 0.000000 2.009290 
# 
# From -- ./inp_files/75891.got.cif
#   From: 2010.05.17/outbox.cif.g08.bks.cpg/sg14_38_cif.got.tgz:75891.got - 2010.06.03 17:49:19.
