data_PCOD9249604
_publ_section_title
;
Structure prediction by ZEFSAII (Michael W. Deem and Ramdas Pophale) SiO2 
 PCOD9249604
Probable space group: P 21/C
;
_chemical_formula_sum "Si O2"
_cell_formula_units_Z 16
_cell_length_a 7.183005
_cell_length_b 11.626152
_cell_length_c 9.524032
_cell_angle_alpha 90.000000
_cell_angle_beta 110.655782
_cell_angle_gamma 90.000000
_cell_volume 744.230254
_symmetry_space_group_name_H-M "P 21/C"
_symmetry_group_IT_number 14
_symmetry_cell_setting 'monoclinic'
loop_
_space_group_symop_operation_xyz
x,y,z
-x,1/2+y,1/2-z
-x,-y,-z
x,1/2-y,1/2+z
loop_
_atom_site_type_symbol
_atom_site_label
_atom_site_fract_x
_atom_site_fract_y
_atom_site_fract_z
Si Si1 0.936691 0.983592 0.322145
Si Si2 0.345805 0.038409 0.339436
Si Si3 0.610990 0.704673 0.673000
Si Si4 0.585923 0.361067 0.665858
O O1 0.789685 0.876301 0.267210
O O2 0.809211 0.093767 0.237619
O O3 0.000000 0.000000 0.500000
O O4 0.141103 0.970569 0.291511
O O5 0.299675 0.173017 0.355254
O O6 0.455479 0.044984 0.218935
O O7 0.500000 0.000000 0.500000
O O8 0.465074 0.744936 0.760457
O O9 0.490943 0.653146 0.510837
#
# Coordination Sequence:
#
# PCOD9249604 Si02
#       4
#     4   4   4   4
#     4  12  22  42  69  97 137 179 224 280 339 399
#     4  10  23  42  68  94 136 177 220 279 331 401
#     4  10  24  45  65 103 135 178 226 277 337 404
#     4  10  24  43  66  96 139 171 232 275 335 406
#
# _framework density 21.498722000000001
#
# number of rings (size 3 to 8) (size 9 to 14) (size 15 to 20)
#    1.500    0.000    2.500    2.250    0.000    5.000 
#    0.000    0.000    0.000    0.000    0.000    0.000 
#    0.000    0.000    0.000    0.000    0.000    0.000 
#
# Total GULP energy -89340.996504 kJ/mol
# GULP energy per Si atom -5583.812281 kJ/mol
# Density = 2.144979 g / cm^3
# Si number density = 21.498722 Si / 1000 Ang^3
#
#
#
# Elastic Constant Matrix: (Units=GPa)
#
#
# Indices 1 2 3 4 5 6 
#
# 1 111.4068 27.2070 50.2828 0.0000 19.1825 0.0000
# 2 27.2070 94.9180 70.0661 0.0000 15.9960 0.0000
# 3 50.2828 70.0661 177.2429 0.0000 3.1350 0.0000
# 4 0.0000 0.0000 0.0000 49.4743 0.0000 -3.4345
# 5 19.1825 15.9960 3.1350 0.0000 41.7641 0.0000
# 6 0.0000 0.0000 0.0000 -3.4345 0.0000 29.8074
#
#
#
# Elastic Compliance Matrix: (Units=1/GPa)
#
#
# Indices 1 2 3 4 5 6 
#
# 1 0.011222 -0.000155 -0.003036 0.000000 -0.004867 0.000000
# 2 -0.000155 0.016131 -0.006233 0.000000 -0.005639 0.000000
# 3 -0.003036 -0.006233 0.008912 0.000000 0.003113 0.000000
# 4 0.000000 0.000000 0.000000 0.020375 0.000000 0.002348
# 5 -0.004867 -0.005639 0.003113 0.000000 0.028106 0.000000
# 6 0.000000 0.000000 0.000000 0.002348 0.000000 0.033819
#
#
# Mechanical properties :
#
#
# Convention : Reuss Voigt Hill
#
# Bulk Modulus (GPa) = 57.41547 75.40880 66.41214
# Shear Modulus (GPa) = 34.91089 39.94327 37.42708
#
# Velocity S-wave (km/s) = 4.03408 4.31506 4.17693
# Velocity P-wave (km/s) = 6.96153 7.74457 7.36347
#
# Compressibility (1/GPa) = 0.01741691
#
# Stress axis : x y z
#
# Youngs Moduli (GPa) = 89.10678 61.99080 112.20402
#
# Poissons Ratio (x) = 0.00962 0.34069
# Poissons Ratio (y) = 0.01383 0.69939
# Poissons Ratio (z) = 0.27056 0.38640
#
# Static dielectric constant tensor:
#      x y z
#    x 1.797640 0.000000 -0.030490 
#    y 0.000000 1.887820 0.000000 
#    z -0.030490 0.000000 1.693490 
# 
# From -- ./inp_files/23990.got.cif
#   From: 2010.05.17/outbox.cif.g08.bks.cpg/sg14_12_cif.got.tgz:23990.got - 2010.06.03 17:49:19.
