data_PCOD9249024
_publ_section_title
;
Structure prediction by ZEFSAII (Michael W. Deem and Ramdas Pophale) SiO2 
 PCOD9249024
Probable space group: P 21/C
;
_chemical_formula_sum "Si O2"
_cell_formula_units_Z 24
_cell_length_a 20.789850
_cell_length_b 4.947380
_cell_length_c 9.145180
_cell_angle_alpha 90.000000
_cell_angle_beta 102.554051
_cell_angle_gamma 90.000000
_cell_volume 918.140965
_symmetry_space_group_name_H-M "P 21/C"
_symmetry_group_IT_number 14
_symmetry_cell_setting 'monoclinic'
loop_
_space_group_symop_operation_xyz
x,y,z
-x,1/2+y,1/2-z
-x,-y,-z
x,1/2-y,1/2+z
loop_
_atom_site_type_symbol
_atom_site_label
_atom_site_fract_x
_atom_site_fract_y
_atom_site_fract_z
Si Si1 0.802615 0.794853 0.164846
Si Si2 0.714070 0.528673 0.360870
Si Si3 0.888152 0.984466 0.456015
Si Si4 0.545665 0.250643 0.978033
Si Si5 0.992925 0.199033 0.144840
Si Si6 0.631716 0.046062 0.263209
O O1 0.766273 0.598993 0.261073
O O2 0.841619 0.999194 0.290969
O O3 0.746566 0.916492 0.033092
O O4 0.850764 0.643631 0.075691
O O5 0.694264 0.218459 0.342446
O O6 0.651530 0.733277 0.298073
O O7 0.947983 0.796718 0.429362
O O8 0.923465 0.254546 0.529985
O O9 0.571217 0.344648 0.832243
O O10 0.500000 0.500000 0.000000
O O11 0.611967 0.158543 0.094903
O O12 0.500000 0.000000 0.000000
O O13 0.993924 0.413163 0.277599
#
# Coordination Sequence:
#
# PCOD9249024 Si02
#       6
#     4   4   4   4   4   4
#     4  10  22  47  66 102 133 176 240 282 342 398
#     4  11  24  44  67  95 132 187 225 280 334 406
#     4  10  22  45  71 101 136 179 221 300 338 428
#     4  12  24  41  68 104 135 174 222 276 334 398
#     4  11  24  47  70 103 136 181 226 275 376 419
#     4  12  24  45  68  96 140 178 224 274 338 398
#
# _framework density 26.139778
#
# number of rings (size 3 to 8) (size 9 to 14) (size 15 to 20)
#    0.000    1.000    1.667    5.000    0.000    2.667 
#   12.000    0.000    0.000    0.000    0.000    0.000 
#    0.000    0.000    0.000    0.000    0.000    0.000 
#
# Total GULP energy -134504.554482 kJ/mol
# GULP energy per Si atom -5604.356437 kJ/mol
# Density = 2.608028 g / cm^3
# Si number density = 26.139778 Si / 1000 Ang^3
#
#
#
# Elastic Constant Matrix: (Units=GPa)
#
#
# Indices 1 2 3 4 5 6 
#
# 1 108.1130 14.0717 26.5869 0.0000 -17.5608 0.0000
# 2 14.0717 103.7608 14.5912 0.0000 3.6914 0.0000
# 3 26.5869 14.5912 139.3850 0.0000 3.5994 0.0000
# 4 0.0000 0.0000 0.0000 24.5840 0.0000 -4.5095
# 5 -17.5608 3.6914 3.5994 0.0000 53.8946 0.0000
# 6 0.0000 0.0000 0.0000 -4.5095 0.0000 27.8271
#
#
#
# Elastic Compliance Matrix: (Units=1/GPa)
#
#
# Indices 1 2 3 4 5 6 
#
# 1 0.010488 -0.001276 -0.001961 0.000000 0.003636 0.000000
# 2 -0.001276 0.009956 -0.000772 0.000000 -0.001046 0.000000
# 3 -0.001961 -0.000772 0.007658 0.000000 -0.001097 0.000000
# 4 0.000000 0.000000 0.000000 0.041923 0.000000 0.006794
# 5 0.003636 -0.001046 -0.001097 0.000000 0.019884 0.000000
# 6 0.000000 0.000000 0.000000 0.006794 0.000000 0.037037
#
#
# Mechanical properties :
#
#
# Convention : Reuss Voigt Hill
#
# Bulk Modulus (GPa) = 49.78893 51.30650 50.54771
# Shear Modulus (GPa) = 35.29587 40.99506 38.14547
#
# Velocity S-wave (km/s) = 3.67859 3.96448 3.82421
# Velocity P-wave (km/s) = 6.09354 6.37389 6.23529
#
# Compressibility (1/GPa) = 0.02008479
#
# Stress axis : x y z
#
# Youngs Moduli (GPa) = 95.34288 100.43828 130.59008
#
# Poissons Ratio (x) = 0.12816 0.25608
# Poissons Ratio (y) = 0.12166 0.10080
# Poissons Ratio (z) = 0.18696 0.07752
#
# Static dielectric constant tensor:
#      x y z
#    x 2.125000 0.000000 0.025460 
#    y 0.000000 1.985060 0.000000 
#    z 0.025460 0.000000 2.036000 
# 
# From -- ./inp_files/19274.got.cif
#   From: 2010.05.17/outbox.cif.g08.bks.cpg/sg14_10_cif.got.tgz:19274.got - 2010.06.03 17:49:19.
