data_PCOD9249273
_publ_section_title
;
Structure prediction by ZEFSAII (Michael W. Deem and Ramdas Pophale) SiO2 
 PCOD9249273
Probable space group: P 21/C
;
_chemical_formula_sum "Si O2"
_cell_formula_units_Z 20
_cell_length_a 5.314729
_cell_length_b 17.689915
_cell_length_c 8.914822
_cell_angle_alpha 90.000000
_cell_angle_beta 91.879444
_cell_angle_gamma 90.000000
_cell_volume 837.694866
_symmetry_space_group_name_H-M "P 21/C"
_symmetry_group_IT_number 14
_symmetry_cell_setting 'monoclinic'
loop_
_space_group_symop_operation_xyz
x,y,z
-x,1/2+y,1/2-z
-x,-y,-z
x,1/2-y,1/2+z
loop_
_atom_site_type_symbol
_atom_site_label
_atom_site_fract_x
_atom_site_fract_y
_atom_site_fract_z
Si Si1 0.214671 0.838326 0.357755
Si Si2 0.565616 0.711469 0.341942
Si Si3 0.236440 0.926116 0.866532
Si Si4 0.737189 0.009492 0.794611
Si Si5 0.910956 0.750881 0.596959
O O1 0.064469 0.800523 0.215628
O O2 0.486800 0.798995 0.354167
O O3 0.758028 0.803318 0.980406
O O4 0.230540 0.926915 0.330918
O O5 0.082915 0.807431 0.504785
O O6 0.318472 0.660872 0.353727
O O7 0.706083 0.796503 0.688879
O O8 0.465693 0.970038 0.789491
O O9 0.245258 0.949329 0.041957
O O10 0.968729 0.951085 0.797503
#
# Coordination Sequence:
#
# PCOD9249273 Si02
#       5
#     4   4   4   4   4
#     4  11  23  42  66  95 128 170 217 272 318 389
#     4  11  23  42  66  95 128 170 217 272 318 389
#     4  10  23  39  64  95 130 171 215 267 326 386
#     4  10  23  39  64  95 130 171 215 267 326 386
#     4  10  24  38  68  94 126 166 226 260 330 378
#
# _framework density 23.875042000000001
#
# number of rings (size 3 to 8) (size 9 to 14) (size 15 to 20)
#    0.000    1.600    0.000    3.600   19.600    0.000 
#    0.000    2.000    0.000    0.000    0.000    0.000 
#    0.000    0.000    0.000    0.000    0.000    0.000 
#
# Total GULP energy -112072.023168 kJ/mol
# GULP energy per Si atom -5603.601158 kJ/mol
# Density = 2.382070 g / cm^3
# Si number density = 23.875042 Si / 1000 Ang^3
#
#
#
# Elastic Constant Matrix: (Units=GPa)
#
#
# Indices 1 2 3 4 5 6 
#
# 1 116.4529 16.2172 32.0082 0.0000 -18.9058 0.0000
# 2 16.2172 67.8834 3.9534 0.0000 -2.3662 0.0000
# 3 32.0082 3.9534 83.1654 0.0000 -11.6051 0.0000
# 4 0.0000 0.0000 0.0000 24.3125 0.0000 -5.7683
# 5 -18.9058 -2.3662 -11.6051 0.0000 33.2940 0.0000
# 6 0.0000 0.0000 0.0000 -5.7683 0.0000 45.3090
#
#
#
# Elastic Compliance Matrix: (Units=1/GPa)
#
#
# Indices 1 2 3 4 5 6 
#
# 1 0.010559 -0.002167 -0.003307 0.000000 0.004689 0.000000
# 2 -0.002167 0.015239 0.000093 0.000000 -0.000115 0.000000
# 3 -0.003307 0.000093 0.013698 0.000000 0.002904 0.000000
# 4 0.000000 0.000000 0.000000 0.042412 0.000000 0.005400
# 5 0.004689 -0.000115 0.002904 0.000000 0.033702 0.000000
# 6 0.000000 0.000000 0.000000 0.005400 0.000000 0.022758
#
#
# Mechanical properties :
#
#
# Convention : Reuss Voigt Hill
#
# Bulk Modulus (GPa) = 34.79881 41.31769 38.05825
# Shear Modulus (GPa) = 31.50470 34.93795 33.22133
#
# Velocity S-wave (km/s) = 3.63652 3.82955 3.73428
# Velocity P-wave (km/s) = 5.67798 6.07431 5.87949
#
# Compressibility (1/GPa) = 0.02873661
#
# Stress axis : x y z
#
# Youngs Moduli (GPa) = 94.70592 65.61987 73.00577
#
# Poissons Ratio (x) = 0.14217 0.24140
# Poissons Ratio (y) = 0.20518 -0.00682
# Poissons Ratio (z) = 0.31315 -0.00613
#
# Static dielectric constant tensor:
#      x y z
#    x 1.902970 0.000000 0.021820 
#    y 0.000000 1.911890 0.000000 
#    z 0.021820 0.000000 1.903420 
# 
# From -- ./inp_files/5540.got.cif
#   From: 2010.05.17/outbox.cif.g08.bks.cpg/sg14_3_cif.got.tgz:5540.got - 2010.06.03 17:49:19.
