data_PCOD9249401
_publ_section_title
;
Structure prediction by ZEFSAII (Michael W. Deem and Ramdas Pophale) SiO2 
 PCOD9249401
Probable space group: P 21/C
;
_chemical_formula_sum "Si O2"
_cell_formula_units_Z 28
_cell_length_a 14.542527
_cell_length_b 8.157964
_cell_length_c 13.679401
_cell_angle_alpha 90.000000
_cell_angle_beta 123.847235
_cell_angle_gamma 90.000000
_cell_volume 1347.850592
_symmetry_space_group_name_H-M "P 21/C"
_symmetry_group_IT_number 14
_symmetry_cell_setting 'monoclinic'
loop_
_space_group_symop_operation_xyz
x,y,z
-x,1/2+y,1/2-z
-x,-y,-z
x,1/2-y,1/2+z
loop_
_atom_site_type_symbol
_atom_site_label
_atom_site_fract_x
_atom_site_fract_y
_atom_site_fract_z
Si Si1 0.882075 0.087031 0.927542
Si Si2 0.742914 0.728621 0.275016
Si Si3 0.414412 0.343647 0.649700
Si Si4 0.264662 0.889952 0.973851
Si Si5 0.412800 0.373023 0.991303
Si Si6 0.799434 0.412223 0.789551
Si Si7 0.367518 0.587642 0.129533
O O1 0.879999 0.261550 0.868904
O O2 0.802084 0.946486 0.832110
O O3 0.838269 0.122965 0.011805
O O4 0.000000 0.000000 0.000000
O O5 0.656155 0.755563 0.312175
O O6 0.663676 0.707260 0.135016
O O7 0.821599 0.889285 0.309752
O O8 0.323310 0.441668 0.535589
O O9 0.477783 0.250720 0.600512
O O10 0.505787 0.441346 0.764488
O O11 0.235422 0.878990 0.842981
O O12 0.354002 0.758043 0.063703
O O13 0.500000 0.500000 0.000000
O O14 0.334380 0.462417 0.024415
O O15 0.704718 0.396590 0.816155
#
# Coordination Sequence:
#
# PCOD9249401 Si02
#       7
#     4   4   4   4   4   4   4
#     4  10  25  49  69  94 128 160 216 286 337 389
#     4  11  23  42  66  94 132 171 220 269 324 393
#     4  11  22  37  57  94 135 176 224 257 311 388
#     4  10  23  41  63  93 128 171 219 266 323 394
#     4  12  23  36  59  93 136 182 218 265 320 378
#     4  11  23  43  66  95 129 169 217 269 330 395
#     4  11  23  35  59  92 135 180 215 260 312 379
#
# _framework density 20.773814999999999
#
# number of rings (size 3 to 8) (size 9 to 14) (size 15 to 20)
#    0.000    1.143    4.286    1.714    6.000    1.143 
#    2.571    0.000    0.000    0.000    0.000    0.000 
#    0.000    0.000    0.000    0.000    0.000    0.000 
#
# Total GULP energy -155952.222203 kJ/mol
# GULP energy per Si atom -5569.722222 kJ/mol
# Density = 2.072653 g / cm^3
# Si number density = 20.773815 Si / 1000 Ang^3
#
#
#
# Elastic Constant Matrix: (Units=GPa)
#
#
# Indices 1 2 3 4 5 6 
#
# 1 49.2114 16.7624 46.1027 0.0000 -9.1629 0.0000
# 2 16.7624 94.5063 54.1987 0.0000 -9.7940 0.0000
# 3 46.1027 54.1987 130.6990 0.0000 -39.0978 0.0000
# 4 0.0000 0.0000 0.0000 39.4892 0.0000 -1.5751
# 5 -9.1629 -9.7940 -39.0978 0.0000 34.0347 0.0000
# 6 0.0000 0.0000 0.0000 -1.5751 0.0000 24.3022
#
#
#
# Elastic Compliance Matrix: (Units=1/GPa)
#
#
# Indices 1 2 3 4 5 6 
#
# 1 0.031450 0.001651 -0.013870 0.000000 -0.006991 0.000000
# 2 0.001651 0.014334 -0.007861 0.000000 -0.004461 0.000000
# 3 -0.013870 -0.007861 0.021345 0.000000 0.018524 0.000000
# 4 0.000000 0.000000 0.000000 0.025389 0.000000 0.001646
# 5 -0.006991 -0.004461 0.018524 0.000000 0.047495 0.000000
# 6 0.000000 0.000000 0.000000 0.001646 0.000000 0.041255
#
#
# Mechanical properties :
#
#
# Convention : Reuss Voigt Hill
#
# Bulk Modulus (GPa) = 37.07814 56.50491 46.79153
# Shear Modulus (GPa) = 21.69972 30.05543 25.87757
#
# Velocity S-wave (km/s) = 3.23549 3.80780 3.53325
# Velocity P-wave (km/s) = 5.64315 6.82580 6.26245
#
# Compressibility (1/GPa) = 0.02697007
#
# Stress axis : x y z
#
# Youngs Moduli (GPa) = 31.79665 69.76184 46.84978
#
# Poissons Ratio (x) = -0.11521 0.64979
# Poissons Ratio (y) = -0.05251 0.36830
# Poissons Ratio (z) = 0.44101 0.54842
#
# Static dielectric constant tensor:
#      x y z
#    x 1.736850 0.000000 -0.027720 
#    y 0.000000 1.960160 0.000000 
#    z -0.027720 0.000000 1.685020 
# 
# From -- ./inp_files/31683.got.cif
#   From: 2010.05.17/outbox.cif.g08.bks.cpg/sg14_16_cif.got.tgz:31683.got - 2010.06.03 17:49:19.
