data_PCOD9249991
_publ_section_title
;
Structure prediction by ZEFSAII (Michael W. Deem and Ramdas Pophale) SiO2 
 PCOD9249991
Probable space group: P 21/C
;
_chemical_formula_sum "Si O2"
_cell_formula_units_Z 22
_cell_length_a 4.868364
_cell_length_b 9.632485
_cell_length_c 17.351955
_cell_angle_alpha 90.000000
_cell_angle_beta 79.231581
_cell_angle_gamma 90.000000
_cell_volume 799.381143
_symmetry_space_group_name_H-M "P 21/C"
_symmetry_group_IT_number 14
_symmetry_cell_setting 'monoclinic'
loop_
_space_group_symop_operation_xyz
x,y,z
-x,1/2+y,1/2-z
-x,-y,-z
x,1/2-y,1/2+z
loop_
_atom_site_type_symbol
_atom_site_label
_atom_site_fract_x
_atom_site_fract_y
_atom_site_fract_z
Si Si1 0.136380 0.729147 0.877696
Si Si2 0.146869 0.479952 0.675013
Si Si3 0.000000 0.000000 0.500000
Si Si4 0.609801 0.631056 0.740563
Si Si5 0.260862 0.308882 0.907974
Si Si6 0.720439 0.326504 0.469823
O O1 0.946379 0.823604 0.832092
O O2 0.401784 0.673738 0.817855
O O3 0.954572 0.613022 0.930217
O O4 0.252139 0.828382 0.941085
O O5 0.908482 0.559689 0.736771
O O6 0.436652 0.517727 0.699388
O O7 0.155137 0.553438 0.590004
O O8 0.695333 0.956920 0.558054
O O9 0.658014 0.763429 0.680909
O O10 0.411444 0.198759 0.955177
O O11 0.919669 0.307455 0.936593
#
# Coordination Sequence:
#
# PCOD9249991 Si02
#       6
#     4   4   2   4   4   4
#     4  11  24  43  71 103 139 185 231 298 352 424
#     4  10  23  45  68  99 138 186 235 288 348 428
#     4  10  24  42  68 104 138 176 230 286 354 410
#     4  10  24  43  68 101 138 187 236 285 354 421
#     4   9  20  41  63  98 138 179 220 287 337 415
#     4   9  20  41  69  96 133 178 234 276 343 410
#
# _framework density 27.521291000000002
#
# number of rings (size 3 to 8) (size 9 to 14) (size 15 to 20)
#    0.000    2.182    0.000    0.545    2.545   10.182 
#   13.091   10.909    0.000    0.000    0.000    0.000 
#    0.000    0.000    0.000    0.000    0.000    0.000 
#
# Total GULP energy -122765.025837 kJ/mol
# GULP energy per Si atom -5580.228447 kJ/mol
# Density = 2.745865 g / cm^3
# Si number density = 27.521291 Si / 1000 Ang^3
#
#
#
# Elastic Constant Matrix: (Units=GPa)
#
#
# Indices 1 2 3 4 5 6 
#
# 1 88.7429 37.0220 14.5353 0.0000 -20.7142 0.0000
# 2 37.0220 78.1245 54.6026 0.0000 -14.7761 0.0000
# 3 14.5353 54.6026 136.8044 0.0000 -42.2425 0.0000
# 4 0.0000 0.0000 0.0000 47.4592 0.0000 -7.1808
# 5 -20.7142 -14.7761 -42.2425 0.0000 36.3031 0.0000
# 6 0.0000 0.0000 0.0000 -7.1808 0.0000 32.0751
#
#
#
# Elastic Compliance Matrix: (Units=1/GPa)
#
#
# Indices 1 2 3 4 5 6 
#
# 1 0.017586 -0.010235 0.006288 0.000000 0.013185 0.000000
# 2 -0.010235 0.023767 -0.011261 0.000000 -0.009269 0.000000
# 3 0.006288 -0.011261 0.016901 0.000000 0.018671 0.000000
# 4 0.000000 0.000000 0.000000 0.021809 0.000000 0.004883
# 5 0.013185 -0.009269 0.018671 0.000000 0.053022 0.000000
# 6 0.000000 0.000000 0.000000 0.004883 0.000000 0.032270
#
#
# Mechanical properties :
#
#
# Convention : Reuss Voigt Hill
#
# Bulk Modulus (GPa) = 35.92062 57.33241 46.62652
# Shear Modulus (GPa) = 24.38407 36.33493 30.35950
#
# Velocity S-wave (km/s) = 2.97982 3.63746 3.32494
# Velocity P-wave (km/s) = 4.99193 6.20635 5.63197
#
# Compressibility (1/GPa) = 0.02783916
#
# Stress axis : x y z
#
# Youngs Moduli (GPa) = 56.86352 42.07428 59.16637
#
# Poissons Ratio (x) = 0.43061 -0.37202
# Poissons Ratio (y) = 0.58197 0.66628
# Poissons Ratio (z) = -0.35754 0.47380
#
# Static dielectric constant tensor:
#      x y z
#    x 1.979660 0.000000 -0.072330 
#    y 0.000000 1.425760 0.000000 
#    z -0.072330 0.000000 1.987930 
# 
# From -- ./inp_files/52868.got.cif
#   From: 2010.05.17/outbox.cif.g08.bks.cpg/sg14_27_cif.got.tgz:52868.got - 2010.06.03 17:49:19.
