data_PCOD9249700
_publ_section_title
;
Structure prediction by ZEFSAII (Michael W. Deem and Ramdas Pophale) SiO2 
 PCOD9249700
Probable space group: P 21/C
;
_chemical_formula_sum "Si O2"
_cell_formula_units_Z 28
_cell_length_a 10.667870
_cell_length_b 9.310068
_cell_length_c 13.197459
_cell_angle_alpha 90.000000
_cell_angle_beta 63.337088
_cell_angle_gamma 90.000000
_cell_volume 1171.370289
_symmetry_space_group_name_H-M "P 21/C"
_symmetry_group_IT_number 14
_symmetry_cell_setting 'monoclinic'
loop_
_space_group_symop_operation_xyz
x,y,z
-x,1/2+y,1/2-z
-x,-y,-z
x,1/2-y,1/2+z
loop_
_atom_site_type_symbol
_atom_site_label
_atom_site_fract_x
_atom_site_fract_y
_atom_site_fract_z
Si Si1 0.333025 0.285081 0.026487
Si Si2 0.975109 0.400710 0.784805
Si Si3 0.213460 0.805514 0.478518
Si Si4 0.237676 0.264777 0.280173
Si Si5 0.571676 0.534702 0.173229
Si Si6 0.989915 0.813637 0.386718
Si Si7 0.695258 0.985552 0.088211
O O1 0.322878 0.313138 0.149091
O O2 0.177305 0.324781 0.040081
O O3 0.447156 0.376638 0.924502
O O4 0.345269 0.117631 0.991315
O O5 0.972173 0.342213 0.672223
O O6 0.095849 0.303925 0.791266
O O7 0.018821 0.563287 0.792133
O O8 0.831949 0.364250 0.895442
O O9 0.082829 0.840310 0.451204
O O10 0.242596 0.636309 0.468281
O O11 0.346229 0.889866 0.385118
O O12 0.328782 0.141418 0.299212
O O13 0.209139 0.390788 0.370451
O O14 0.438867 0.509115 0.291215
#
# Coordination Sequence:
#
# PCOD9249700 Si02
#       7
#     4   4   4   4   4   4   4
#     4  10  23  43  65  89 129 163 201 264 317 357
#     4  11  24  41  66  96 126 161 205 258 317 376
#     4  12  23  38  68  93 125 164 209 253 315 368
#     4  10  23  43  65  89 129 163 201 264 317 357
#     4  11  22  45  63  89 130 166 214 253 300 369
#     4  11  24  41  66  96 126 161 205 258 317 376
#     4  11  26  40  63  96 121 170 214 251 299 373
#
# _framework density 23.903628000000001
#
# number of rings (size 3 to 8) (size 9 to 14) (size 15 to 20)
#    0.000    1.143    2.857    3.857    8.000    2.286 
#    0.000    2.857    0.000    0.000    0.000    0.000 
#    0.000    0.000    0.000    0.000    0.000    0.000 
#
# Total GULP energy -156716.897724 kJ/mol
# GULP energy per Si atom -5597.032062 kJ/mol
# Density = 2.384922 g / cm^3
# Si number density = 23.903628 Si / 1000 Ang^3
#
#
#
# Elastic Constant Matrix: (Units=GPa)
#
#
# Indices 1 2 3 4 5 6 
#
# 1 24.1818 0.2668 -4.8800 0.0000 -4.5398 0.0000
# 2 0.2668 112.9049 -10.0477 0.0000 8.1523 0.0000
# 3 -4.8800 -10.0477 75.4290 0.0000 5.0272 0.0000
# 4 0.0000 0.0000 0.0000 46.4670 0.0000 -6.4647
# 5 -4.5398 8.1523 5.0272 0.0000 30.0061 0.0000
# 6 0.0000 0.0000 0.0000 -6.4647 0.0000 22.1295
#
#
#
# Elastic Compliance Matrix: (Units=1/GPa)
#
#
# Indices 1 2 3 4 5 6 
#
# 1 0.042991 -0.000343 0.002322 0.000000 0.006209 0.000000
# 2 -0.000343 0.009182 0.001386 0.000000 -0.002779 0.000000
# 3 0.002322 0.001386 0.013748 0.000000 -0.002329 0.000000
# 4 0.000000 0.000000 0.000000 0.022432 0.000000 0.006553
# 5 0.006209 -0.002779 -0.002329 0.000000 0.035411 0.000000
# 6 0.000000 0.000000 0.000000 0.006553 0.000000 0.047103
#
#
# Mechanical properties :
#
#
# Convention : Reuss Voigt Hill
#
# Bulk Modulus (GPa) = 13.76462 20.35490 17.05976
# Shear Modulus (GPa) = 26.54571 34.86562 30.70567
#
# Velocity S-wave (km/s) = 3.33608 3.82329 3.58797
# Velocity P-wave (km/s) = 4.53984 5.29377 4.93123
#
# Compressibility (1/GPa) = 0.07265000
#
# Stress axis : x y z
#
# Youngs Moduli (GPa) = 23.26048 108.91096 72.74026
#
# Poissons Ratio (x) = 0.03739 -0.16889
# Poissons Ratio (y) = 0.00798 -0.10082
# Poissons Ratio (z) = -0.05401 -0.15096
#
# Static dielectric constant tensor:
#      x y z
#    x 1.904570 0.000000 0.015640 
#    y 0.000000 1.945600 0.000000 
#    z 0.015640 0.000000 1.944160 
# 
# From -- ./inp_files/43600.got.cif
#   From: 2010.05.17/outbox.cif.g08.bks.cpg/sg14_22_cif.got.tgz:43600.got - 2010.06.03 17:49:19.
