data_PCOD9249977
_publ_section_title
;
Structure prediction by ZEFSAII (Michael W. Deem and Ramdas Pophale) SiO2 
 PCOD9249977
Probable space group: P 21/C
;
_chemical_formula_sum "Si O2"
_cell_formula_units_Z 28
_cell_length_a 10.330914
_cell_length_b 14.870140
_cell_length_c 8.132014
_cell_angle_alpha 90.000000
_cell_angle_beta 62.942177
_cell_angle_gamma 90.000000
_cell_volume 1112.523533
_symmetry_space_group_name_H-M "P 21/C"
_symmetry_group_IT_number 14
_symmetry_cell_setting 'monoclinic'
loop_
_space_group_symop_operation_xyz
x,y,z
-x,1/2+y,1/2-z
-x,-y,-z
x,1/2-y,1/2+z
loop_
_atom_site_type_symbol
_atom_site_label
_atom_site_fract_x
_atom_site_fract_y
_atom_site_fract_z
Si Si1 0.834467 0.790418 0.338726
Si Si2 0.953865 0.868023 0.937019
Si Si3 0.819495 0.442609 0.490525
Si Si4 0.937927 0.097889 0.582827
Si Si5 0.494303 0.210545 0.358410
Si Si6 0.499248 0.531070 0.312738
Si Si7 0.656203 0.367042 0.076054
O O1 0.857275 0.835472 0.148706
O O2 0.910492 0.693796 0.311484
O O3 0.666101 0.778232 0.475381
O O4 0.925375 0.847521 0.421826
O O5 0.921141 0.970516 0.914485
O O6 0.113522 0.870025 0.924055
O O7 0.824857 0.404113 0.303960
O O8 0.668137 0.479456 0.641162
O O9 0.829302 0.135097 0.505474
O O10 0.000000 0.000000 0.500000
O O11 0.472823 0.136659 0.226344
O O12 0.569778 0.300079 0.248876
O O13 0.597284 0.165161 0.434980
O O14 0.500000 0.500000 0.500000
O O15 0.603887 0.468722 0.145252
#
# Coordination Sequence:
#
# PCOD9249977 Si02
#       7
#     4   4   4   4   4   4   4
#     4  11  24  44  70 102 141 189 244 292 367 431
#     4  10  24  42  71  98 139 181 238 299 359 437
#     4  10  23  45  67 102 138 185 237 293 370 433
#     4  11  26  45  72 105 144 191 247 298 372 441
#     4  12  27  45  76 109 153 194 252 306 375 445
#     4  12  24  44  74 101 148 191 246 302 375 436
#     4  12  27  48  73 113 151 200 251 312 375 448
#
# _framework density 25.168006999999999
#
# number of rings (size 3 to 8) (size 9 to 14) (size 15 to 20)
#    0.000    0.857    1.429    4.714    4.000    4.571 
#    0.000    0.000    0.000    0.000    0.000    0.000 
#    0.000    0.000    0.000    0.000    0.000    0.000 
#
# Total GULP energy -156830.067675 kJ/mol
# GULP energy per Si atom -5601.073846 kJ/mol
# Density = 2.511072 g / cm^3
# Si number density = 25.168007 Si / 1000 Ang^3
#
#
#
# Elastic Constant Matrix: (Units=GPa)
#
#
# Indices 1 2 3 4 5 6 
#
# 1 132.4203 27.7483 51.2034 0.0000 -16.3271 0.0000
# 2 27.7483 76.9056 4.5908 0.0000 -4.8615 0.0000
# 3 51.2034 4.5908 87.6634 0.0000 0.1105 0.0000
# 4 0.0000 0.0000 0.0000 46.1778 0.0000 -2.2991
# 5 -16.3271 -4.8615 0.1105 0.0000 43.9509 0.0000
# 6 0.0000 0.0000 0.0000 -2.2991 0.0000 42.5056
#
#
#
# Elastic Compliance Matrix: (Units=1/GPa)
#
#
# Indices 1 2 3 4 5 6 
#
# 1 0.011199 -0.003420 -0.006367 0.000000 0.003798 0.000000
# 2 -0.003420 0.014181 0.001255 0.000000 0.000295 0.000000
# 3 -0.006367 0.001255 0.015063 0.000000 -0.002264 0.000000
# 4 0.000000 0.000000 0.000000 0.021714 0.000000 0.001174
# 5 0.003798 0.000295 -0.002264 0.000000 0.024202 0.000000
# 6 0.000000 0.000000 0.000000 0.001174 0.000000 0.023590
#
#
# Mechanical properties :
#
#
# Convention : Reuss Voigt Hill
#
# Bulk Modulus (GPa) = 42.77520 51.56378 47.16949
# Shear Modulus (GPa) = 37.09062 40.75664 38.92363
#
# Velocity S-wave (km/s) = 3.84307 4.02852 3.93689
# Velocity P-wave (km/s) = 6.06012 6.49392 6.28076
#
# Compressibility (1/GPa) = 0.02337803
#
# Stress axis : x y z
#
# Youngs Moduli (GPa) = 89.29763 70.51783 66.38745
#
# Poissons Ratio (x) = 0.24120 0.42266
# Poissons Ratio (y) = 0.30544 -0.08331
# Poissons Ratio (z) = 0.56852 -0.08849
#
# Static dielectric constant tensor:
#      x y z
#    x 2.003480 0.000000 0.037240 
#    y 0.000000 2.007190 0.000000 
#    z 0.037240 0.000000 2.038770 
# 
# From -- ./inp_files/13009.got.cif
#   From: 2010.05.17/outbox.cif.g08.bks.cpg/sg14_7_cif.got.tgz:13009.got - 2010.06.03 17:49:19.
