data_PCOD9249814
_publ_section_title
;
Structure prediction by ZEFSAII (Michael W. Deem and Ramdas Pophale) SiO2 
 PCOD9249814
Probable space group: P 21/C
;
_chemical_formula_sum "Si O2"
_cell_formula_units_Z 22
_cell_length_a 5.373898
_cell_length_b 16.388564
_cell_length_c 10.993570
_cell_angle_alpha 90.000000
_cell_angle_beta 66.565152
_cell_angle_gamma 90.000000
_cell_volume 888.344153
_symmetry_space_group_name_H-M "P 21/C"
_symmetry_group_IT_number 14
_symmetry_cell_setting 'monoclinic'
loop_
_space_group_symop_operation_xyz
x,y,z
-x,1/2+y,1/2-z
-x,-y,-z
x,1/2-y,1/2+z
loop_
_atom_site_type_symbol
_atom_site_label
_atom_site_fract_x
_atom_site_fract_y
_atom_site_fract_z
Si Si1 0.158566 0.904194 0.091799
Si Si2 0.983745 0.734234 0.211550
Si Si3 0.000000 0.500000 0.000000
Si Si4 0.333382 0.916136 0.620620
Si Si5 0.590314 0.503888 0.670367
Si Si6 0.819146 0.821741 0.487905
O O1 0.163651 0.809187 0.123937
O O2 0.346095 0.951214 0.152064
O O3 0.293190 0.932181 0.938489
O O4 0.847978 0.937612 0.147680
O O5 0.888672 0.764774 0.361685
O O6 0.120803 0.647713 0.214966
O O7 0.795914 0.717909 0.128203
O O8 0.177051 0.512961 0.086435
O O9 0.978968 0.397982 0.031351
O O10 0.519808 0.961546 0.685886
O O11 0.532596 0.859927 0.507639
#
# Coordination Sequence:
#
# PCOD9249814 Si02
#       6
#     4   4   2   4   4   4
#     4  10  23  44  71 107 147 194 245 308 376 457
#     4  11  26  45  68 108 146 189 250 313 383 455
#     4  10  24  46  68 104 140 190 254 302 368 458
#     4  11  25  45  73 104 145 198 250 318 375 457
#     4  10  23  43  73 104 144 196 249 304 375 454
#     4  11  26  45  74 103 149 196 250 314 388 454
#
# _framework density 24.765176
#
# number of rings (size 3 to 8) (size 9 to 14) (size 15 to 20)
#    0.000    1.455    0.000    2.727   10.182    4.364 
#    0.000    0.000    0.000    0.000    0.000    0.000 
#    0.000    0.000    0.000    0.000    0.000    0.000 
#
# Total GULP energy -122598.116826 kJ/mol
# GULP energy per Si atom -5572.641674 kJ/mol
# Density = 2.470881 g / cm^3
# Si number density = 24.765176 Si / 1000 Ang^3
#
#
#
# Elastic Constant Matrix: (Units=GPa)
#
#
# Indices 1 2 3 4 5 6 
#
# 1 91.5856 18.9581 18.4907 0.0000 32.9528 0.0000
# 2 18.9581 64.4544 46.3590 0.0000 27.5006 0.0000
# 3 18.4907 46.3590 90.8516 0.0000 26.4604 0.0000
# 4 0.0000 0.0000 0.0000 43.2585 0.0000 2.1355
# 5 32.9528 27.5006 26.4604 0.0000 32.3739 0.0000
# 6 0.0000 0.0000 0.0000 2.1355 0.0000 28.0549
#
#
#
# Elastic Compliance Matrix: (Units=1/GPa)
#
#
# Indices 1 2 3 4 5 6 
#
# 1 0.017898 0.003335 0.001032 0.000000 -0.021894 0.000000
# 2 0.003335 0.031058 -0.010308 0.000000 -0.021352 0.000000
# 3 0.001032 -0.010308 0.018128 0.000000 -0.007111 0.000000
# 4 0.000000 0.000000 0.000000 0.023204 0.000000 -0.001766
# 5 -0.021894 -0.021352 -0.007111 0.000000 0.077125 0.000000
# 6 0.000000 0.000000 0.000000 -0.001766 0.000000 0.035779
#
#
# Mechanical properties :
#
#
# Convention : Reuss Voigt Hill
#
# Bulk Modulus (GPa) = 18.11526 46.05637 32.08581
# Shear Modulus (GPa) = 21.41559 31.60972 26.51265
#
# Velocity S-wave (km/s) = 2.94385 3.57652 3.27549
# Velocity P-wave (km/s) = 4.34576 5.97435 5.22392
#
# Compressibility (1/GPa) = 0.05520209
#
# Stress axis : x y z
#
# Youngs Moduli (GPa) = 55.87311 32.19734 55.16381
#
# Poissons Ratio (x) = -0.10737 -0.05695
# Poissons Ratio (y) = -0.18632 0.56863
# Poissons Ratio (z) = -0.05768 0.33189
#
# Static dielectric constant tensor:
#      x y z
#    x 0.229190 0.000000 1.117790 
#    y 0.000000 1.864030 0.000000 
#    z 1.117790 0.000000 1.349870 
# 
# From -- ./inp_files/20791.got.cif
#   From: 2010.05.17/outbox.cif.g08.bks.cpg/sg14_11_cif.got.tgz:20791.got - 2010.06.03 17:49:19.
