data_PCOD9249237
_publ_section_title
;
Structure prediction by ZEFSAII (Michael W. Deem and Ramdas Pophale) SiO2 
 PCOD9249237
Probable space group: P 21/C
;
_chemical_formula_sum "Si O2"
_cell_formula_units_Z 28
_cell_length_a 18.971187
_cell_length_b 7.785820
_cell_length_c 22.668679
_cell_angle_alpha 90.000000
_cell_angle_beta 157.698119
_cell_angle_gamma 90.000000
_cell_volume 1270.636849
_symmetry_space_group_name_H-M "P 21/C"
_symmetry_group_IT_number 14
_symmetry_cell_setting 'monoclinic'
loop_
_space_group_symop_operation_xyz
x,y,z
-x,1/2+y,1/2-z
-x,-y,-z
x,1/2-y,1/2+z
loop_
_atom_site_type_symbol
_atom_site_label
_atom_site_fract_x
_atom_site_fract_y
_atom_site_fract_z
Si Si1 0.182306 0.834481 0.928218
Si Si2 0.777638 0.114467 0.428680
Si Si3 0.932809 0.782015 0.438243
Si Si4 0.182125 0.956773 0.342334
Si Si5 0.600451 0.699540 0.757788
Si Si6 0.535098 0.411370 0.180880
Si Si7 0.179464 0.932547 0.205202
O O1 0.174303 0.734206 0.861093
O O2 0.148243 0.699443 0.954806
O O3 0.397462 0.882834 0.098354
O O4 0.025523 0.973371 0.813638
O O5 0.617067 0.247323 0.280029
O O6 0.935496 0.101482 0.500078
O O7 0.704925 0.922710 0.384607
O O8 0.721701 0.825721 0.291897
O O9 0.923495 0.609128 0.391361
O O10 0.035936 0.719508 0.577849
O O11 0.240867 0.947448 0.319790
O O12 0.325467 0.066692 0.493880
O O13 0.582057 0.905486 0.749811
O O14 0.656511 0.412141 0.214800
#
# Coordination Sequence:
#
# PCOD9249237 Si02
#       7
#     4   4   4   4   4   4   4
#     4  11  27  40  61  95 128 179 210 257 327 382
#     4  11  22  42  67  94 125 166 217 263 313 379
#     4   9  18  37  65  99 116 163 211 272 311 369
#     4  11  23  42  59  91 135 166 208 261 325 384
#     4  10  23  38  63  95 126 156 218 261 311 376
#     4   9  22  41  67  95 118 169 210 268 322 367
#     4   9  17  36  69  90 123 161 216 258 322 378
#
# _framework density 22.036194999999999
#
# number of rings (size 3 to 8) (size 9 to 14) (size 15 to 20)
#    0.000    2.000    1.429    1.714    6.000    1.143 
#    0.000    0.000    0.000    7.714    0.000    0.000 
#    0.000    0.000    0.000    0.000    0.000    0.000 
#
# Total GULP energy -156225.060383 kJ/mol
# GULP energy per Si atom -5579.466442 kJ/mol
# Density = 2.198604 g / cm^3
# Si number density = 22.036195 Si / 1000 Ang^3
#
#
#
# Elastic Constant Matrix: (Units=GPa)
#
#
# Indices 1 2 3 4 5 6 
#
# 1 61.0104 9.4034 34.9151 0.0000 0.2293 0.0000
# 2 9.4034 45.0234 12.5317 0.0000 1.2168 0.0000
# 3 34.9151 12.5317 49.1295 0.0000 14.9286 0.0000
# 4 0.0000 0.0000 0.0000 33.9550 0.0000 8.5665
# 5 0.2293 1.2168 14.9286 0.0000 48.8651 0.0000
# 6 0.0000 0.0000 0.0000 8.5665 0.0000 20.5060
#
#
#
# Elastic Compliance Matrix: (Units=1/GPa)
#
#
# Indices 1 2 3 4 5 6 
#
# 1 0.029615 0.000078 -0.023175 0.000000 0.006939 0.000000
# 2 0.000078 0.023995 -0.006607 0.000000 0.001421 0.000000
# 3 -0.023175 -0.006607 0.042359 0.000000 -0.012668 0.000000
# 4 0.000000 0.000000 0.000000 0.032920 0.000000 -0.013753
# 5 0.006939 0.001421 -0.012668 0.000000 0.024267 0.000000
# 6 0.000000 0.000000 0.000000 -0.013753 0.000000 0.054512
#
#
# Mechanical properties :
#
#
# Convention : Reuss Voigt Hill
#
# Bulk Modulus (GPa) = 27.35270 29.87372 28.61321
# Shear Modulus (GPa) = 17.90415 27.21943 22.56179
#
# Velocity S-wave (km/s) = 2.85351 3.51837 3.20324
# Velocity P-wave (km/s) = 4.82662 5.48556 5.16661
#
# Compressibility (1/GPa) = 0.03655946
#
# Stress axis : x y z
#
# Youngs Moduli (GPa) = 33.76626 41.67511 23.60766
#
# Poissons Ratio (x) = -0.00324 0.54711
# Poissons Ratio (y) = -0.00262 0.15599
# Poissons Ratio (z) = 0.78254 0.27537
#
# Static dielectric constant tensor:
#      x y z
#    x 1.829180 0.000000 0.035890 
#    y 0.000000 1.853100 0.000000 
#    z 0.035890 0.000000 1.828580 
# 
# From -- ./inp_files/74672.got.cif
#   From: 2010.05.17/outbox.cif.g08.bks.cpg/sg14_38_cif.got.tgz:74672.got - 2010.06.03 17:49:19.
