data_PCOD9249394
_publ_section_title
;
Structure prediction by ZEFSAII (Michael W. Deem and Ramdas Pophale) SiO2 
 PCOD9249394
Probable space group: P 21/C
;
_chemical_formula_sum "Si O2"
_cell_formula_units_Z 20
_cell_length_a 7.901770
_cell_length_b 24.457693
_cell_length_c 5.443073
_cell_angle_alpha 90.000000
_cell_angle_beta 62.257831
_cell_angle_gamma 90.000000
_cell_volume 931.005960
_symmetry_space_group_name_H-M "P 21/C"
_symmetry_group_IT_number 14
_symmetry_cell_setting 'monoclinic'
loop_
_space_group_symop_operation_xyz
x,y,z
-x,1/2+y,1/2-z
-x,-y,-z
x,1/2-y,1/2+z
loop_
_atom_site_type_symbol
_atom_site_label
_atom_site_fract_x
_atom_site_fract_y
_atom_site_fract_z
Si Si1 0.974267 0.215994 0.721976
Si Si2 0.334726 0.872579 0.962933
Si Si3 0.528198 0.451537 0.288121
Si Si4 0.790033 0.483158 0.719479
Si Si5 0.425155 0.284013 0.943119
O O1 0.936451 0.248889 0.495405
O O2 0.838828 0.163628 0.822696
O O3 0.199714 0.202473 0.580853
O O4 0.475431 0.892595 0.084888
O O5 0.261891 0.929396 0.901959
O O6 0.447803 0.837331 0.686573
O O7 0.500000 0.500000 0.500000
O O8 0.354683 0.465408 0.221342
O O9 0.735057 0.462258 0.027314
O O10 0.000000 0.500000 0.500000
O O11 0.464428 0.245772 0.675885
#
# Coordination Sequence:
#
# PCOD9249394 Si02
#       5
#     4   4   4   4   4
#     4  10  23  41  62  98 133 165 215 265 319 392
#     4  11  23  37  68  90 122 171 210 260 330 383
#     4   9  22  41  60  90 124 162 211 263 320 385
#     4  10  23  42  63  92 128 164 216 273 322 387
#     4  10  23  42  64  95 133 168 211 268 318 387
#
# _framework density 21.482139
#
# number of rings (size 3 to 8) (size 9 to 14) (size 15 to 20)
#    0.000    2.000    0.000    1.200    5.600    9.600 
#    3.600    0.000    0.000    0.000    0.000    0.000 
#    0.000    0.000    0.000    0.000    0.000    0.000 
#
# Total GULP energy -111655.957631 kJ/mol
# GULP energy per Si atom -5582.797882 kJ/mol
# Density = 2.143324 g / cm^3
# Si number density = 21.482139 Si / 1000 Ang^3
#
#
#
# Elastic Constant Matrix: (Units=GPa)
#
#
# Indices 1 2 3 4 5 6 
#
# 1 53.0838 42.4570 36.9726 0.0000 -18.6036 0.0000
# 2 42.4570 109.3038 49.0877 0.0000 -20.4539 0.0000
# 3 36.9726 49.0877 140.0032 0.0000 -5.5559 0.0000
# 4 0.0000 0.0000 0.0000 20.2462 0.0000 -6.1368
# 5 -18.6036 -20.4539 -5.5559 0.0000 32.5326 0.0000
# 6 0.0000 0.0000 0.0000 -6.1368 0.0000 35.9649
#
#
#
# Elastic Compliance Matrix: (Units=1/GPa)
#
#
# Indices 1 2 3 4 5 6 
#
# 1 0.033922 -0.008191 -0.005558 0.000000 0.013299 0.000000
# 2 -0.008191 0.014249 -0.002681 0.000000 0.003816 0.000000
# 3 -0.005558 -0.002681 0.009421 0.000000 -0.003255 0.000000
# 4 0.000000 0.000000 0.000000 0.052086 0.000000 0.008888
# 5 0.013299 0.003816 -0.003255 0.000000 0.040187 0.000000
# 6 0.000000 0.000000 0.000000 0.008888 0.000000 0.029321
#
#
# Mechanical properties :
#
#
# Convention : Reuss Voigt Hill
#
# Bulk Modulus (GPa) = 40.43674 62.15836 51.29755
# Shear Modulus (GPa) = 22.69719 29.34031 26.01875
#
# Velocity S-wave (km/s) = 3.25400 3.69968 3.48398
# Velocity P-wave (km/s) = 5.74303 6.87371 6.33365
#
# Compressibility (1/GPa) = 0.02472999
#
# Stress axis : x y z
#
# Youngs Moduli (GPa) = 29.47961 70.18067 106.14046
#
# Poissons Ratio (x) = 0.57488 0.58997
# Poissons Ratio (y) = 0.24148 0.28459
# Poissons Ratio (z) = 0.16386 0.18817
#
# Static dielectric constant tensor:
#      x y z
#    x 1.888500 0.000000 0.083820 
#    y 0.000000 1.753750 0.000000 
#    z 0.083820 0.000000 1.825710 
# 
# From -- ./inp_files/1364.got.cif
#   From: 2010.05.17/outbox.cif.g08.bks.cpg/sg14_1_cif.got.tgz:1364.got - 2010.06.03 17:49:19.
