data_PCOD9249730
_publ_section_title
;
Structure prediction by ZEFSAII (Michael W. Deem and Ramdas Pophale) SiO2 
 PCOD9249730
Probable space group: P 21/C
;
_chemical_formula_sum "Si O2"
_cell_formula_units_Z 24
_cell_length_a 14.389140
_cell_length_b 5.786413
_cell_length_c 21.442559
_cell_angle_alpha 90.000000
_cell_angle_beta 31.607203
_cell_angle_gamma 90.000000
_cell_volume 935.684037
_symmetry_space_group_name_H-M "P 21/C"
_symmetry_group_IT_number 14
_symmetry_cell_setting 'monoclinic'
loop_
_space_group_symop_operation_xyz
x,y,z
-x,1/2+y,1/2-z
-x,-y,-z
x,1/2-y,1/2+z
loop_
_atom_site_type_symbol
_atom_site_label
_atom_site_fract_x
_atom_site_fract_y
_atom_site_fract_z
Si Si1 0.616815 0.321563 0.009590
Si Si2 0.079011 0.624433 0.574143
Si Si3 0.515612 0.301970 0.842591
Si Si4 0.288635 0.114541 0.863406
Si Si5 0.743370 0.905427 0.734026
Si Si6 0.940392 0.313057 0.753999
O O1 0.580682 0.590068 0.043488
O O2 0.429726 0.198200 0.130256
O O3 0.727920 0.286896 0.883339
O O4 0.759228 0.235671 0.979864
O O5 0.916302 0.802931 0.666986
O O6 0.015355 0.388918 0.644483
O O7 0.137318 0.560916 0.471159
O O8 0.384085 0.158333 0.874582
O O9 0.571360 0.499818 0.762814
O O10 0.692897 0.171104 0.759814
O O11 0.237653 0.330691 0.849945
O O12 0.985334 0.561787 0.764934
#
# Coordination Sequence:
#
# PCOD9249730 Si02
#       6
#     4   4   4   4   4   4
#     4  10  23  43  67  91 131 174 216 280 340 395
#     4  11  23  43  66  97 131 172 222 277 334 400
#     4  11  20  39  64  87 129 175 215 269 337 397
#     4  11  20  38  61  92 130 172 214 267 334 400
#     4  11  24  40  64  99 129 172 226 268 333 407
#     4  10  23  45  72 100 132 182 228 274 345 404
#
# _framework density 25.649685000000002
#
# number of rings (size 3 to 8) (size 9 to 14) (size 15 to 20)
#    0.000    1.333    3.333    2.500    2.333    1.333 
#   18.000    0.833    0.000    0.000    0.000    0.000 
#    0.000    0.000    0.000    0.000    0.000    0.000 
#
# Total GULP energy -134045.182452 kJ/mol
# GULP energy per Si atom -5585.215935 kJ/mol
# Density = 2.559131 g / cm^3
# Si number density = 25.649685 Si / 1000 Ang^3
#
#
#
# Elastic Constant Matrix: (Units=GPa)
#
#
# Indices 1 2 3 4 5 6 
#
# 1 75.1929 25.3939 18.7666 0.0000 -19.8422 0.0000
# 2 25.3939 62.8767 -8.2818 0.0000 -10.8973 0.0000
# 3 18.7666 -8.2818 112.1375 0.0000 -5.8002 0.0000
# 4 0.0000 0.0000 0.0000 25.8550 0.0000 -5.8561
# 5 -19.8422 -10.8973 -5.8002 0.0000 28.0112 0.0000
# 6 0.0000 0.0000 0.0000 -5.8561 0.0000 19.2605
#
#
#
# Elastic Compliance Matrix: (Units=1/GPa)
#
#
# Indices 1 2 3 4 5 6 
#
# 1 0.018906 -0.006254 -0.003092 0.000000 0.010319 0.000000
# 2 -0.006254 0.019419 0.002671 0.000000 0.003677 0.000000
# 3 -0.003092 0.002671 0.009676 0.000000 0.000852 0.000000
# 4 0.000000 0.000000 0.000000 0.041538 0.000000 0.012629
# 5 0.010319 0.003677 0.000852 0.000000 0.044617 0.000000
# 6 0.000000 0.000000 0.000000 0.012629 0.000000 0.055760
#
#
# Mechanical properties :
#
#
# Convention : Reuss Voigt Hill
#
# Bulk Modulus (GPa) = 28.85939 35.77384 32.31662
# Shear Modulus (GPa) = 23.27561 28.91392 26.09477
#
# Velocity S-wave (km/s) = 3.01565 3.36111 3.19306
# Velocity P-wave (km/s) = 4.83749 5.38889 5.12062
#
# Compressibility (1/GPa) = 0.03465076
#
# Stress axis : x y z
#
# Youngs Moduli (GPa) = 52.89295 51.49521 103.34344
#
# Poissons Ratio (x) = 0.32208 0.31956
# Poissons Ratio (y) = 0.33082 -0.27604
# Poissons Ratio (z) = 0.16355 -0.13755
#
# Static dielectric constant tensor:
#      x y z
#    x 2.063440 0.000000 -0.057740 
#    y 0.000000 2.215350 0.000000 
#    z -0.057740 0.000000 1.989780 
# 
# From -- ./inp_files/49614.got.cif
#   From: 2010.05.17/outbox.cif.g08.bks.cpg/sg14_25_cif.got.tgz:49614.got - 2010.06.03 17:49:19.
