data_PCOD9249846
_publ_section_title
;
Structure prediction by ZEFSAII (Michael W. Deem and Ramdas Pophale) SiO2 
 PCOD9249846
Probable space group: P 21/C
;
_chemical_formula_sum "Si O2"
_cell_formula_units_Z 32
_cell_length_a 9.317687
_cell_length_b 11.354860
_cell_length_c 30.538948
_cell_angle_alpha 90.000000
_cell_angle_beta 149.511362
_cell_angle_gamma 90.000000
_cell_volume 1639.330837
_symmetry_space_group_name_H-M "P 21/C"
_symmetry_group_IT_number 14
_symmetry_cell_setting 'monoclinic'
loop_
_space_group_symop_operation_xyz
x,y,z
-x,1/2+y,1/2-z
-x,-y,-z
x,1/2-y,1/2+z
loop_
_atom_site_type_symbol
_atom_site_label
_atom_site_fract_x
_atom_site_fract_y
_atom_site_fract_z
Si Si1 0.833225 0.888828 0.236336
Si Si2 0.721116 0.751080 0.399037
Si Si3 0.760280 0.239174 0.907041
Si Si4 0.099518 0.208785 0.909487
Si Si5 0.631320 0.264546 0.603303
Si Si6 0.073719 0.013372 0.833765
Si Si7 0.595639 0.490891 0.831675
Si Si8 0.302404 0.600305 0.237459
O O1 0.547744 0.815160 0.168477
O O2 0.103590 0.822256 0.326869
O O3 0.877633 0.909211 0.196702
O O4 0.797381 0.013694 0.250771
O O5 0.519540 0.742437 0.388916
O O6 0.588077 0.665239 0.327935
O O7 0.031712 0.717047 0.497615
O O8 0.708789 0.884230 0.378140
O O9 0.736183 0.379464 0.892770
O O10 0.905361 0.187697 0.901303
O O11 0.926423 0.298764 0.833466
O O12 0.151311 0.090065 0.896448
O O13 0.389917 0.262563 0.004216
O O14 0.747791 0.394911 0.624683
O O15 0.740181 0.985990 0.748755
O O16 0.651715 0.472406 0.794951
#
# Coordination Sequence:
#
# PCOD9249846 Si02
#       8
#     4   4   4   4   4   4   4   4
#     4  12  24  41  64  94 128 165 211 258 315 384
#     4  11  22  45  66  92 130 169 208 270 317 372
#     4  10  24  43  66  97 124 166 220 256 316 385
#     4  10  23  44  65  93 131 164 209 264 314 381
#     4  11  23  42  67  95 127 168 209 262 324 373
#     4  12  22  42  68  92 129 167 206 263 323 373
#     4  11  22  40  71  90 125 170 213 265 317 375
#     4  11  24  41  64  94 126 171 212 258 323 372
#
# _framework density 19.520159
#
# number of rings (size 3 to 8) (size 9 to 14) (size 15 to 20)
#    0.000    1.000    5.000    1.500    1.750    1.000 
#    6.750    0.000    0.000    0.000    0.000    0.000 
#    0.000    0.000    0.000    0.000    0.000    0.000 
#
# Total GULP energy -178937.210685 kJ/mol
# GULP energy per Si atom -5591.787834 kJ/mol
# Density = 1.947573 g / cm^3
# Si number density = 19.520159 Si / 1000 Ang^3
#
#
#
# Elastic Constant Matrix: (Units=GPa)
#
#
# Indices 1 2 3 4 5 6 
#
# 1 52.3649 18.5476 12.2927 0.0000 -1.3008 0.0000
# 2 18.5476 46.4146 -4.0202 0.0000 -14.7499 0.0000
# 3 12.2927 -4.0202 96.3530 0.0000 2.9024 0.0000
# 4 0.0000 0.0000 0.0000 -9.9359 0.0000 -15.9124
# 5 -1.3008 -14.7499 2.9024 0.0000 22.8704 0.0000
# 6 0.0000 0.0000 0.0000 -15.9124 0.0000 28.4879
#
#
#
# Elastic Compliance Matrix: (Units=1/GPa)
#
#
# Indices 1 2 3 4 5 6 
#
# 1 0.023869 -0.011650 -0.003359 0.000000 -0.005730 0.000000
# 2 -0.011650 0.032820 0.002247 0.000000 0.020219 0.000000
# 3 -0.003359 0.002247 0.010905 0.000000 -0.000126 0.000000
# 4 0.000000 0.000000 0.000000 -0.053124 0.000000 -0.029673
# 5 -0.005730 0.020219 -0.000126 0.000000 0.056455 0.000000
# 6 0.000000 0.000000 0.000000 -0.029673 0.000000 0.018528
#
#
# Mechanical properties :
#
#
# Convention : Reuss Voigt Hill
#
# Bulk Modulus (GPa) = 23.76994 27.64142 25.70568
# Shear Modulus (GPa) = 38.75929 19.50532 29.13231
#
# Velocity S-wave (km/s) = 4.46085 3.16450 3.86738
# Velocity P-wave (km/s) = 6.22380 5.24817 5.75669
#
# Compressibility (1/GPa) = 0.04206994
#
# Stress axis : x y z
#
# Youngs Moduli (GPa) = 41.89473 30.46887 91.70490
#
# Poissons Ratio (x) = 0.35496 0.30801
# Poissons Ratio (y) = 0.48808 -0.20603
# Poissons Ratio (z) = 0.14071 -0.06845
#
# Static dielectric constant tensor:
#      x y z
#    x 1.663660 0.000000 -0.005210 
#    y 0.000000 1.665050 0.000000 
#    z -0.005210 0.000000 1.674390 
# 
# From -- ./inp_files/55623.got.cif
#   From: 2010.05.17/outbox.cif.g08.bks.cpg/sg14_28_cif.got.tgz:55623.got - 2010.06.03 17:49:19.
