data_PCOD9249648
_publ_section_title
;
Structure prediction by ZEFSAII (Michael W. Deem and Ramdas Pophale) SiO2 
 PCOD9249648
Probable space group: P 21/C
;
_chemical_formula_sum "Si O2"
_cell_formula_units_Z 26
_cell_length_a 5.216135
_cell_length_b 19.568574
_cell_length_c 9.078527
_cell_angle_alpha 90.000000
_cell_angle_beta 82.933869
_cell_angle_gamma 90.000000
_cell_volume 919.628157
_symmetry_space_group_name_H-M "P 21/C"
_symmetry_group_IT_number 14
_symmetry_cell_setting 'monoclinic'
loop_
_space_group_symop_operation_xyz
x,y,z
-x,1/2+y,1/2-z
-x,-y,-z
x,1/2-y,1/2+z
loop_
_atom_site_type_symbol
_atom_site_label
_atom_site_fract_x
_atom_site_fract_y
_atom_site_fract_z
Si Si1 0.914517 0.392786 0.573983
Si Si2 0.563215 0.438766 0.844930
Si Si3 0.833478 0.834956 0.525646
Si Si4 0.230727 0.515282 0.675812
Si Si5 0.210494 0.730591 0.556844
Si Si6 0.437843 0.259749 0.208247
Si Si7 0.000000 0.500000 0.000000
O O1 0.731551 0.388458 0.730264
O O2 0.770114 0.427935 0.447251
O O3 0.139424 0.444231 0.605963
O O4 0.996970 0.320470 0.500267
O O5 0.276674 0.410299 0.921634
O O6 0.498594 0.499024 0.735759
O O7 0.737771 0.457836 0.968166
O O8 0.124312 0.808044 0.524982
O O9 0.726372 0.815984 0.371139
O O10 0.715574 0.787894 0.666818
O O11 0.034610 0.528250 0.823386
O O12 0.453011 0.716655 0.435129
O O13 0.313053 0.718281 0.712348
#
# Coordination Sequence:
#
# PCOD9249648 Si02
#       7
#     4   4   4   4   4   4   2
#     4  10  23  43  68 101 138 183 234 292 342 423
#     4  11  23  44  73  98 142 182 233 294 353 424
#     4  11  24  42  68 102 133 190 232 283 362 423
#     4  10  23  42  71 102 135 186 235 284 360 412
#     4  11  23  42  69  96 142 182 233 293 352 418
#     4  10  24  42  61  99 137 176 237 282 347 421
#     4  10  24  44  64 106 140 172 234 294 352 422
#
# _framework density 28.272296000000001
#
# number of rings (size 3 to 8) (size 9 to 14) (size 15 to 20)
#    0.000    1.538    1.538    1.846    6.462    1.231 
#    2.769    0.000    0.000    0.000    0.000    0.000 
#    0.000    0.000    0.000    0.000    0.000    0.000 
#
# Total GULP energy -145113.434421 kJ/mol
# GULP energy per Si atom -5581.285939 kJ/mol
# Density = 2.820795 g / cm^3
# Si number density = 28.272296 Si / 1000 Ang^3
#
#
#
# Elastic Constant Matrix: (Units=GPa)
#
#
# Indices 1 2 3 4 5 6 
#
# 1 97.3079 9.4967 44.1493 0.0000 32.9358 0.0000
# 2 9.4967 106.2605 51.4111 0.0000 25.8418 0.0000
# 3 44.1493 51.4111 216.0221 0.0000 28.3167 0.0000
# 4 0.0000 0.0000 0.0000 54.2258 0.0000 5.7777
# 5 32.9358 25.8418 28.3167 0.0000 67.2839 0.0000
# 6 0.0000 0.0000 0.0000 5.7777 0.0000 26.9360
#
#
#
# Elastic Compliance Matrix: (Units=1/GPa)
#
#
# Indices 1 2 3 4 5 6 
#
# 1 0.013203 0.001371 -0.002232 0.000000 -0.006050 0.000000
# 2 0.001371 0.011469 -0.002481 0.000000 -0.004032 0.000000
# 3 -0.002232 -0.002481 0.005723 0.000000 -0.000363 0.000000
# 4 0.000000 0.000000 0.000000 0.018873 0.000000 -0.004048
# 5 -0.006050 -0.004032 -0.000363 0.000000 0.019526 0.000000
# 6 0.000000 0.000000 0.000000 -0.004048 0.000000 0.037993
#
#
# Mechanical properties :
#
#
# Convention : Reuss Voigt Hill
#
# Bulk Modulus (GPa) = 42.17194 69.96717 56.06956
# Shear Modulus (GPa) = 41.19454 50.65803 45.92629
#
# Velocity S-wave (km/s) = 3.82129 4.23755 4.03479
# Velocity P-wave (km/s) = 5.86672 6.98167 6.44834
#
# Compressibility (1/GPa) = 0.02371245
#
# Stress axis : x y z
#
# Youngs Moduli (GPa) = 75.73899 87.18893 174.72168
#
# Poissons Ratio (x) = -0.11955 0.38991
# Poissons Ratio (y) = -0.10385 0.43354
# Poissons Ratio (z) = 0.16902 0.21634
#
# Static dielectric constant tensor:
#      x y z
#    x 2.175360 0.000000 -0.015430 
#    y 0.000000 2.154990 0.000000 
#    z -0.015430 0.000000 2.052910 
# 
# From -- ./inp_files/6277.got.cif
#   From: 2010.05.17/outbox.cif.g08.bks.cpg/sg14_4_cif.got.tgz:6277.got - 2010.06.03 17:49:19.
