data_PCOD9249150
_publ_section_title
;
Structure prediction by ZEFSAII (Michael W. Deem and Ramdas Pophale) SiO2 
 PCOD9249150
Probable space group: P 21/C
;
_chemical_formula_sum "Si O2"
_cell_formula_units_Z 26
_cell_length_a 7.959656
_cell_length_b 9.114209
_cell_length_c 17.851800
_cell_angle_alpha 90.000000
_cell_angle_beta 47.670977
_cell_angle_gamma 90.000000
_cell_volume 957.436937
_symmetry_space_group_name_H-M "P 21/C"
_symmetry_group_IT_number 14
_symmetry_cell_setting 'monoclinic'
loop_
_space_group_symop_operation_xyz
x,y,z
-x,1/2+y,1/2-z
-x,-y,-z
x,1/2-y,1/2+z
loop_
_atom_site_type_symbol
_atom_site_label
_atom_site_fract_x
_atom_site_fract_y
_atom_site_fract_z
Si Si1 0.902458 0.972946 0.854314
Si Si2 0.975856 0.272004 0.044833
Si Si3 0.242436 0.762178 0.187534
Si Si4 0.606657 0.771502 0.180282
Si Si5 0.545616 0.059562 0.638893
Si Si6 0.636627 0.796544 0.450497
Si Si7 0.000000 0.500000 0.500000
O O1 0.915280 0.121134 0.804318
O O2 0.691673 0.863707 0.899935
O O3 0.879031 0.008963 0.948997
O O4 0.568642 0.278289 0.930116
O O5 0.889535 0.126355 0.237977
O O6 0.809561 0.387823 0.059424
O O7 0.158774 0.186387 0.933680
O O8 0.823437 0.125683 0.093941
O O9 0.383035 0.842271 0.210832
O O10 0.602678 0.834809 0.263308
O O11 0.574234 0.601669 0.167166
O O12 0.865724 0.676213 0.933764
O O13 0.441473 0.088929 0.588430
#
# Coordination Sequence:
#
# PCOD9249150 Si02
#       7
#     4   4   4   4   4   4   2
#     4  11  25  48  81 118 160 212 267 327 401 466
#     4  10  24  48  77 110 152 200 255 323 393 462
#     4  11  26  47  76 115 156 205 266 328 392 480
#     4  11  28  47  75 109 156 199 265 320 395 470
#     4  12  27  50  76 114 153 207 260 327 393 473
#     4  10  25  49  79 111 154 204 260 325 400 473
#     4  10  22  46  80 108 154 204 260 312 394 466
#
# _framework density 27.155837999999999
#
# number of rings (size 3 to 8) (size 9 to 14) (size 15 to 20)
#    0.000    1.231    0.000    3.692    8.615    4.923 
#    5.538    0.000    0.000    0.000    0.000    0.000 
#    0.000    0.000    0.000    0.000    0.000    0.000 
#
# Total GULP energy -145054.692740 kJ/mol
# GULP energy per Si atom -5579.026644 kJ/mol
# Density = 2.709403 g / cm^3
# Si number density = 27.155838 Si / 1000 Ang^3
#
#
#
# Elastic Constant Matrix: (Units=GPa)
#
#
# Indices 1 2 3 4 5 6 
#
# 1 154.8549 80.5550 66.2411 0.0000 6.1379 0.0000
# 2 80.5550 142.9567 43.4204 0.0000 12.9617 0.0000
# 3 66.2411 43.4204 142.9397 0.0000 6.9075 0.0000
# 4 0.0000 0.0000 0.0000 43.7912 0.0000 3.5778
# 5 6.1379 12.9617 6.9075 0.0000 50.6964 0.0000
# 6 0.0000 0.0000 0.0000 3.5778 0.0000 41.7606
#
#
#
# Elastic Compliance Matrix: (Units=1/GPa)
#
#
# Indices 1 2 3 4 5 6 
#
# 1 0.010425 -0.004892 -0.003367 0.000000 0.000447 0.000000
# 2 -0.004892 0.010144 -0.000722 0.000000 -0.001903 0.000000
# 3 -0.003367 -0.000722 0.008805 0.000000 -0.000607 0.000000
# 4 0.000000 0.000000 0.000000 0.022997 0.000000 -0.001970
# 5 0.000447 -0.001903 -0.000607 0.000000 0.020240 0.000000
# 6 0.000000 0.000000 0.000000 -0.001970 0.000000 0.024115
#
#
# Mechanical properties :
#
#
# Convention : Reuss Voigt Hill
#
# Bulk Modulus (GPa) = 87.63272 91.24271 89.43772
# Shear Modulus (GPa) = 42.19700 43.95197 43.07448
#
# Velocity S-wave (km/s) = 3.94621 4.02743 3.98703
# Velocity P-wave (km/s) = 7.28723 7.43637 7.36218
#
# Compressibility (1/GPa) = 0.01141126
#
# Stress axis : x y z
#
# Youngs Moduli (GPa) = 95.92230 98.58179 113.57376
#
# Poissons Ratio (x) = 0.48231 0.38236
# Poissons Ratio (y) = 0.46930 0.08202
# Poissons Ratio (z) = 0.32294 0.07119
#
# Static dielectric constant tensor:
#      x y z
#    x 2.235310 0.000000 -0.054500 
#    y 0.000000 2.440790 0.000000 
#    z -0.054500 0.000000 2.292350 
# 
# From -- ./inp_files/55349.got.cif
#   From: 2010.05.17/outbox.cif.g08.bks.cpg/sg14_28_cif.got.tgz:55349.got - 2010.06.03 17:49:19.
