data_PCOD9249447
_publ_section_title
;
Structure prediction by ZEFSAII (Michael W. Deem and Ramdas Pophale) SiO2 
 PCOD9249447
Probable space group: P 21/C
;
_chemical_formula_sum "Si O2"
_cell_formula_units_Z 16
_cell_length_a 11.916475
_cell_length_b 7.032027
_cell_length_c 13.435591
_cell_angle_alpha 90.000000
_cell_angle_beta 31.145419
_cell_angle_gamma 90.000000
_cell_volume 582.309200
_symmetry_space_group_name_H-M "P 21/C"
_symmetry_group_IT_number 14
_symmetry_cell_setting 'monoclinic'
loop_
_space_group_symop_operation_xyz
x,y,z
-x,1/2+y,1/2-z
-x,-y,-z
x,1/2-y,1/2+z
loop_
_atom_site_type_symbol
_atom_site_label
_atom_site_fract_x
_atom_site_fract_y
_atom_site_fract_z
Si Si1 0.825143 0.092497 0.313775
Si Si2 0.288973 0.020330 0.059569
Si Si3 0.716610 0.011617 0.607396
Si Si4 0.122854 0.262289 0.357425
O O1 0.693650 0.997636 0.506115
O O2 0.827802 0.979270 0.208165
O O3 0.069110 0.070688 0.168615
O O4 0.746041 0.306667 0.374044
O O5 0.285576 0.151889 0.158816
O O6 0.490485 0.040421 0.833790
O O7 0.824639 0.825503 0.575641
O O8 0.885212 0.183664 0.504632
#
# Coordination Sequence:
#
# PCOD9249447 Si02
#       4
#     4   4   4   4
#     4  11  23  41  67  97 135 167 222 271 318 398
#     4  11  22  41  65  96 132 173 217 269 326 388
#     4  10  23  41  67  95 131 178 213 268 339 376
#     4  10  23  45  63  96 136 167 220 278 317 396
#
# _framework density 27.476807999999998
#
# number of rings (size 3 to 8) (size 9 to 14) (size 15 to 20)
#    0.000    1.500    5.000    0.750    3.500    1.000 
#    0.000   13.750    0.000    0.000    0.000    0.000 
#    0.000    0.000    0.000    0.000    0.000    0.000 
#
# Total GULP energy -89827.801503 kJ/mol
# GULP energy per Si atom -5614.237594 kJ/mol
# Density = 2.741427 g / cm^3
# Si number density = 27.476808 Si / 1000 Ang^3
#
#
#
# Elastic Constant Matrix: (Units=GPa)
#
#
# Indices 1 2 3 4 5 6 
#
# 1 46.3383 19.2980 23.6984 0.0000 2.1517 0.0000
# 2 19.2980 129.9919 42.7030 0.0000 0.9584 0.0000
# 3 23.6984 42.7030 242.1401 0.0000 -1.8252 0.0000
# 4 0.0000 0.0000 0.0000 33.7475 0.0000 24.4775
# 5 2.1517 0.9584 -1.8252 0.0000 56.9449 0.0000
# 6 0.0000 0.0000 0.0000 24.4775 0.0000 4.5067
#
#
#
# Elastic Compliance Matrix: (Units=1/GPa)
#
#
# Indices 1 2 3 4 5 6 
#
# 1 0.023770 -0.002925 -0.001817 0.000000 -0.000907 0.000000
# 2 -0.002925 0.008528 -0.001218 0.000000 -0.000072 0.000000
# 3 -0.001817 -0.001218 0.004524 0.000000 0.000234 0.000000
# 4 0.000000 0.000000 0.000000 -0.010081 0.000000 0.054752
# 5 -0.000907 -0.000072 0.000234 0.000000 0.017604 0.000000
# 6 0.000000 0.000000 0.000000 0.054752 0.000000 -0.075488
#
#
# Mechanical properties :
#
#
# Convention : Reuss Voigt Hill
#
# Bulk Modulus (GPa) = 40.15916 65.54102 52.85009
# Shear Modulus (GPa) = -457.84235 41.22453 -208.30891
#
# Velocity S-wave (km/s) = -12.92248 3.87762 -8.71649
# Velocity P-wave (km/s) = 14.42243 6.62970 9.05686
#
# Compressibility (1/GPa) = 0.02490092
#
# Stress axis : x y z
#
# Youngs Moduli (GPa) = 42.06948 117.26430 221.02821
#
# Poissons Ratio (x) = 0.34301 0.40169
# Poissons Ratio (y) = 0.12306 0.26925
# Poissons Ratio (z) = 0.07646 0.14285
#
# Static dielectric constant tensor:
#      x y z
#    x 2.166850 0.000000 -0.002880 
#    y 0.000000 2.201250 0.000000 
#    z -0.002880 0.000000 2.124650 
# 
# From -- ./inp_files/60029.got.cif
#   From: 2010.05.17/outbox.cif.g08.bks.cpg/sg14_31_cif.got.tgz:60029.got - 2010.06.03 17:49:19.
