data_PCOD9249732
_publ_section_title
;
Structure prediction by ZEFSAII (Michael W. Deem and Ramdas Pophale) SiO2 
 PCOD9249732
Probable space group: P 21/C
;
_chemical_formula_sum "Si O2"
_cell_formula_units_Z 32
_cell_length_a 15.016160
_cell_length_b 11.160378
_cell_length_c 9.673853
_cell_angle_alpha 90.000000
_cell_angle_beta 90.040502
_cell_angle_gamma 90.000000
_cell_volume 1621.202134
_symmetry_space_group_name_H-M "P 21/C"
_symmetry_group_IT_number 14
_symmetry_cell_setting 'monoclinic'
loop_
_space_group_symop_operation_xyz
x,y,z
-x,1/2+y,1/2-z
-x,-y,-z
x,1/2-y,1/2+z
loop_
_atom_site_type_symbol
_atom_site_label
_atom_site_fract_x
_atom_site_fract_y
_atom_site_fract_z
Si Si1 0.015832 0.326961 0.907162
Si Si2 0.234740 0.828356 0.227345
Si Si3 0.154057 0.974519 0.484111
Si Si4 0.535910 0.380876 0.679843
Si Si5 0.557629 0.361081 0.347100
Si Si6 0.846028 0.028981 0.006380
Si Si7 0.735637 0.445716 0.749121
Si Si8 0.022362 0.123214 0.114087
O O1 0.103030 0.406091 0.936969
O O2 0.010170 0.298753 0.747383
O O3 0.022393 0.204699 0.983379
O O4 0.928161 0.396485 0.956504
O O5 0.199314 0.905618 0.356075
O O6 0.338399 0.854265 0.195119
O O7 0.224941 0.689044 0.263147
O O8 0.185226 0.857829 0.083167
O O9 0.224708 0.994961 0.607937
O O10 0.545690 0.349731 0.514861
O O11 0.476076 0.503004 0.689198
O O12 0.515422 0.256052 0.765289
O O13 0.630627 0.426710 0.739951
O O14 0.769919 0.987935 0.111075
O O15 0.934077 0.043834 0.100525
O O16 0.883831 0.943204 0.887360
#
# Coordination Sequence:
#
# PCOD9249732 Si02
#       8
#     4   4   4   4   4   4   4   4
#     4  11  24  39  55  81 117 161 197 247 294 354
#     4  11  21  39  62  90 117 154 200 253 293 351
#     4  11  24  38  57  85 121 150 205 246 295 348
#     4  10  23  43  67  97 129 161 202 254 313 378
#     4  10  23  43  67  96 129 162 202 255 314 376
#     4  11  22  38  57  85 117 154 199 248 298 346
#     4  11  21  37  64  92 113 156 198 254 293 353
#     4  11  24  37  57  80 117 160 199 243 300 350
#
# _framework density 19.738441000000002
#
# number of rings (size 3 to 8) (size 9 to 14) (size 15 to 20)
#    0.000    1.250    3.750    2.250    8.750    0.500 
#    0.000    2.500    0.000    0.000    0.000    0.000 
#    0.000    0.000    0.000    0.000    0.000    0.000 
#
# Total GULP energy -178339.795323 kJ/mol
# GULP energy per Si atom -5573.118604 kJ/mol
# Density = 1.969351 g / cm^3
# Si number density = 19.738441 Si / 1000 Ang^3
#
#
#
# Elastic Constant Matrix: (Units=GPa)
#
#
# Indices 1 2 3 4 5 6 
#
# 1 58.1883 22.4176 30.0360 0.0000 -1.1979 0.0000
# 2 22.4176 58.9926 30.3133 0.0000 0.6510 0.0000
# 3 30.0360 30.3133 114.3981 0.0000 1.5708 0.0000
# 4 0.0000 0.0000 0.0000 53.2020 0.0000 5.7658
# 5 -1.1979 0.6510 1.5708 0.0000 26.0450 0.0000
# 6 0.0000 0.0000 0.0000 5.7658 0.0000 26.4405
#
#
#
# Elastic Compliance Matrix: (Units=1/GPa)
#
#
# Indices 1 2 3 4 5 6 
#
# 1 0.021696 -0.006162 -0.004083 0.000000 0.001398 0.000000
# 2 -0.006162 0.021374 -0.004038 0.000000 -0.000574 0.000000
# 3 -0.004083 -0.004038 0.010894 0.000000 -0.000744 0.000000
# 4 0.000000 0.000000 0.000000 0.019251 0.000000 -0.004198
# 5 0.001398 -0.000574 -0.000744 0.000000 0.038519 0.000000
# 6 0.000000 0.000000 0.000000 -0.004198 0.000000 0.038736
#
#
# Mechanical properties :
#
#
# Convention : Reuss Voigt Hill
#
# Bulk Modulus (GPa) = 39.37322 44.12363 41.74843
# Shear Modulus (GPa) = 26.66649 31.05829 28.86239
#
# Velocity S-wave (km/s) = 3.67957 3.97103 3.82808
# Velocity P-wave (km/s) = 6.16791 6.59000 6.38245
#
# Compressibility (1/GPa) = 0.02539797
#
# Stress axis : x y z
#
# Youngs Moduli (GPa) = 46.09180 46.78548 91.79742
#
# Poissons Ratio (x) = 0.28830 0.37479
# Poissons Ratio (y) = 0.28402 0.37067
# Poissons Ratio (z) = 0.18818 0.18892
#
# Static dielectric constant tensor:
#      x y z
#    x 1.725270 0.000000 0.007020 
#    y 0.000000 1.727260 0.000000 
#    z 0.007020 0.000000 1.732340 
# 
# From -- ./inp_files/15569.got.cif
#   From: 2010.05.17/outbox.cif.g08.bks.cpg/sg14_8_cif.got.tgz:15569.got - 2010.06.03 17:49:19.
