data_PCOD9249539
_publ_section_title
;
Structure prediction by ZEFSAII (Michael W. Deem and Ramdas Pophale) SiO2 
 PCOD9249539
Probable space group: P 21/C
;
_chemical_formula_sum "Si O2"
_cell_formula_units_Z 24
_cell_length_a 11.024942
_cell_length_b 7.518341
_cell_length_c 10.852893
_cell_angle_alpha 90.000000
_cell_angle_beta 78.284863
_cell_angle_gamma 90.000000
_cell_volume 880.849271
_symmetry_space_group_name_H-M "P 21/C"
_symmetry_group_IT_number 14
_symmetry_cell_setting 'monoclinic'
loop_
_space_group_symop_operation_xyz
x,y,z
-x,1/2+y,1/2-z
-x,-y,-z
x,1/2-y,1/2+z
loop_
_atom_site_type_symbol
_atom_site_label
_atom_site_fract_x
_atom_site_fract_y
_atom_site_fract_z
Si Si1 0.160526 0.745444 0.019706
Si Si2 0.357191 0.355348 0.929842
Si Si3 0.713680 0.566556 0.385318
Si Si4 0.123211 0.267386 0.845037
Si Si5 0.451895 0.664251 0.766307
Si Si6 0.232386 0.884426 0.767608
O O1 0.223795 0.640424 0.121384
O O2 0.017550 0.732993 0.085773
O O3 0.228469 0.936678 0.025162
O O4 0.168655 0.732817 0.868720
O O5 0.211071 0.355480 0.930671
O O6 0.420830 0.546651 0.894153
O O7 0.417231 0.227389 0.812280
O O8 0.362149 0.237236 0.050743
O O9 0.834081 0.627993 0.284957
O O10 0.619364 0.451410 0.323302
O O11 0.164707 0.066890 0.809145
O O12 0.374311 0.849350 0.778161
#
# Coordination Sequence:
#
# PCOD9249539 Si02
#       6
#     4   4   4   4   4   4
#     4  11  24  43  70 100 144 178 229 280 341 407
#     4  11  22  42  67  92 137 170 230 277 345 399
#     4  10  23  42  65 100 133 181 225 285 333 408
#     4  11  23  40  67  99 131 184 223 275 345 399
#     4  10  24  43  64 100 128 178 227 285 341 403
#     4  11  24  44  69 100 137 182 228 282 338 405
#
# _framework density 27.24643
#
# number of rings (size 3 to 8) (size 9 to 14) (size 15 to 20)
#    0.000    1.333    1.667    3.000    4.667    0.000 
#    3.000    7.500    0.000    0.000    0.000    0.000 
#    0.000    0.000    0.000    0.000    0.000    0.000 
#
# Total GULP energy -134185.034890 kJ/mol
# GULP energy per Si atom -5591.043120 kJ/mol
# Density = 2.718442 g / cm^3
# Si number density = 27.246430 Si / 1000 Ang^3
#
#
#
# Elastic Constant Matrix: (Units=GPa)
#
#
# Indices 1 2 3 4 5 6 
#
# 1 98.4879 5.2714 13.3459 0.0000 -22.9179 0.0000
# 2 5.2714 82.9971 5.1300 0.0000 12.9422 0.0000
# 3 13.3459 5.1300 132.5944 0.0000 1.9077 0.0000
# 4 0.0000 0.0000 0.0000 43.8827 0.0000 0.5656
# 5 -22.9179 12.9422 1.9077 0.0000 25.7900 0.0000
# 6 0.0000 0.0000 0.0000 0.5656 0.0000 25.4060
#
#
#
# Elastic Compliance Matrix: (Units=1/GPa)
#
#
# Indices 1 2 3 4 5 6 
#
# 1 0.013711 -0.002926 -0.001465 0.000000 0.013761 0.000000
# 2 -0.002926 0.013718 -0.000100 0.000000 -0.009477 0.000000
# 3 -0.001465 -0.000100 0.007719 0.000000 -0.001823 0.000000
# 4 0.000000 0.000000 0.000000 0.022795 0.000000 -0.000507
# 5 0.013761 -0.009477 -0.001823 0.000000 0.055893 0.000000
# 6 0.000000 0.000000 0.000000 -0.000507 0.000000 0.039372
#
#
# Mechanical properties :
#
#
# Convention : Reuss Voigt Hill
#
# Bulk Modulus (GPa) = 38.21600 40.17487 39.19544
# Shear Modulus (GPa) = 29.25476 38.37120 33.81298
#
# Velocity S-wave (km/s) = 3.28031 3.75681 3.52661
# Velocity P-wave (km/s) = 5.32951 5.79613 5.56771
#
# Compressibility (1/GPa) = 0.02616705
#
# Stress axis : x y z
#
# Youngs Moduli (GPa) = 72.93585 72.89456 129.54512
#
# Poissons Ratio (x) = 0.21329 0.18976
# Poissons Ratio (y) = 0.21341 0.01294
# Poissons Ratio (z) = 0.10683 0.00728
#
# Static dielectric constant tensor:
#      x y z
#    x 2.085980 0.000000 0.044210 
#    y 0.000000 2.256400 0.000000 
#    z 0.044210 0.000000 2.187400 
# 
# From -- ./inp_files/28021.got.cif
#   From: 2010.05.17/outbox.cif.g08.bks.cpg/sg14_15_cif.got.tgz:28021.got - 2010.06.03 17:49:19.
