data_PCOD9249219
_publ_section_title
;
Structure prediction by ZEFSAII (Michael W. Deem and Ramdas Pophale) SiO2 
 PCOD9249219
Probable space group: P 21/C
;
_chemical_formula_sum "Si O2"
_cell_formula_units_Z 24
_cell_length_a 21.889229
_cell_length_b 4.987178
_cell_length_c 15.536879
_cell_angle_alpha 90.000000
_cell_angle_beta 142.872159
_cell_angle_gamma 90.000000
_cell_volume 1023.752779
_symmetry_space_group_name_H-M "P 21/C"
_symmetry_group_IT_number 14
_symmetry_cell_setting 'monoclinic'
loop_
_space_group_symop_operation_xyz
x,y,z
-x,1/2+y,1/2-z
-x,-y,-z
x,1/2-y,1/2+z
loop_
_atom_site_type_symbol
_atom_site_label
_atom_site_fract_x
_atom_site_fract_y
_atom_site_fract_z
Si Si1 0.750622 0.350764 0.926125
Si Si2 0.436437 0.752062 0.173710
Si Si3 0.915237 0.764321 0.538404
Si Si4 0.227636 0.550040 0.718122
Si Si5 0.722757 0.565328 0.619175
Si Si6 0.106593 0.999655 0.806661
O O1 0.644031 0.386575 0.852148
O O2 0.734232 0.125930 0.834445
O O3 0.812586 0.575482 0.945239
O O4 0.828760 0.253114 0.087043
O O5 0.499566 0.495499 0.211597
O O6 0.373224 0.923321 0.032351
O O7 0.883736 0.571221 0.425906
O O8 0.936703 0.615419 0.653000
O O9 0.013996 0.944087 0.639166
O O10 0.293254 0.321509 0.838594
O O11 0.226230 0.820424 0.771530
O O12 0.804408 0.663804 0.639849
#
# Coordination Sequence:
#
# PCOD9249219 Si02
#       6
#     4   4   4   4   4   4
#     4  10  23  44  67  95 138 173 220 275 322 388
#     4  11  26  46  74  98 122 168 229 277 333 391
#     4  11  21  41  66  99 133 183 223 260 324 392
#     4  11  24  43  65  96 143 176 208 266 341 388
#     4  11  25  44  66  98 137 168 217 279 328 385
#     4  10  23  36  69  96 133 179 231 264 310 387
#
# _framework density 23.443159000000001
#
# number of rings (size 3 to 8) (size 9 to 14) (size 15 to 20)
#    0.000    1.333    3.333    1.000   11.667    1.333 
#    0.000    5.000    0.000    0.000    0.000    0.000 
#    0.000    0.000    0.000    0.000    0.000    0.000 
#
# Total GULP energy -133965.875794 kJ/mol
# GULP energy per Si atom -5581.911491 kJ/mol
# Density = 2.338980 g / cm^3
# Si number density = 23.443159 Si / 1000 Ang^3
#
#
#
# Elastic Constant Matrix: (Units=GPa)
#
#
# Indices 1 2 3 4 5 6 
#
# 1 37.9042 14.6095 28.5962 0.0000 15.6889 0.0000
# 2 14.6095 99.6631 20.0981 0.0000 4.4301 0.0000
# 3 28.5962 20.0981 76.8935 0.0000 0.2032 0.0000
# 4 0.0000 0.0000 0.0000 54.9383 0.0000 -16.5186
# 5 15.6889 4.4301 0.2032 0.0000 31.6002 0.0000
# 6 0.0000 0.0000 0.0000 -16.5186 0.0000 31.7663
#
#
#
# Elastic Compliance Matrix: (Units=1/GPa)
#
#
# Indices 1 2 3 4 5 6 
#
# 1 0.051837 -0.002748 -0.018493 0.000000 -0.025232 0.000000
# 2 -0.002748 0.010806 -0.001802 0.000000 -0.000139 0.000000
# 3 -0.018493 -0.001802 0.020329 0.000000 0.009303 0.000000
# 4 0.000000 0.000000 0.000000 0.021576 0.000000 0.011219
# 5 -0.025232 -0.000139 0.009303 0.000000 0.044132 0.000000
# 6 0.000000 0.000000 0.000000 0.011219 0.000000 0.037314
#
#
# Mechanical properties :
#
#
# Convention : Reuss Voigt Hill
#
# Bulk Modulus (GPa) = 27.11055 37.89647 32.50351
# Shear Modulus (GPa) = 20.46038 33.73809 27.09924
#
# Velocity S-wave (km/s) = 2.95747 3.79772 3.40362
# Velocity P-wave (km/s) = 4.82199 5.95236 5.41674
#
# Compressibility (1/GPa) = 0.03688601
#
# Stress axis : x y z
#
# Youngs Moduli (GPa) = 19.29134 92.53928 49.19119
#
# Poissons Ratio (x) = 0.25428 0.90968
# Poissons Ratio (y) = 0.05301 0.08865
# Poissons Ratio (z) = 0.35675 0.16678
#
# Static dielectric constant tensor:
#      x y z
#    x 1.934930 0.000000 -0.001460 
#    y 0.000000 1.962130 0.000000 
#    z -0.001460 0.000000 1.938810 
# 
# From -- ./inp_files/49728.got.cif
#   From: 2010.05.17/outbox.cif.g08.bks.cpg/sg14_25_cif.got.tgz:49728.got - 2010.06.03 17:49:19.
