data_PCOD9249328
_publ_section_title
;
Structure prediction by ZEFSAII (Michael W. Deem and Ramdas Pophale) SiO2 
 PCOD9249328
Probable space group: P 21/C
;
_chemical_formula_sum "Si O2"
_cell_formula_units_Z 16
_cell_length_a 13.607189
_cell_length_b 4.912815
_cell_length_c 15.120096
_cell_angle_alpha 90.000000
_cell_angle_beta 37.816572
_cell_angle_gamma 90.000000
_cell_volume 619.740513
_symmetry_space_group_name_H-M "P 21/C"
_symmetry_group_IT_number 14
_symmetry_cell_setting 'monoclinic'
loop_
_space_group_symop_operation_xyz
x,y,z
-x,1/2+y,1/2-z
-x,-y,-z
x,1/2-y,1/2+z
loop_
_atom_site_type_symbol
_atom_site_label
_atom_site_fract_x
_atom_site_fract_y
_atom_site_fract_z
Si Si1 0.534695 0.378406 0.782321
Si Si2 0.653890 0.631884 0.435382
Si Si3 0.092465 0.733748 0.212168
Si Si4 0.836339 0.100160 0.657272
O O1 0.542625 0.676689 0.735818
O O2 0.703870 0.240460 0.689688
O O3 0.419157 0.364553 0.951053
O O4 0.500000 0.500000 0.500000
O O5 0.753604 0.414938 0.424430
O O6 0.763146 0.645060 0.269789
O O7 0.946690 0.948088 0.303664
O O8 0.117199 0.690423 0.298050
O O9 0.000000 0.000000 0.500000
#
# Coordination Sequence:
#
# PCOD9249328 Si02
#       4
#     4   4   4   4
#     4  11  25  42  66  92 125 165 209 253 311 367
#     4   8  20  43  60  92 125 164 204 261 302 364
#     4  10  23  40  65  90 125 162 205 252 312 361
#     4   9  22  41  64  95 127 161 209 256 307 369
#
# _framework density 25.817257999999999
#
# number of rings (size 3 to 8) (size 9 to 14) (size 15 to 20)
#    1.500    1.000    0.000    0.000    7.000    2.000 
#    0.000    7.500    0.000    0.000    0.000    0.000 
#    0.000    0.000    0.000    0.000    0.000    0.000 
#
# Total GULP energy -89333.327665 kJ/mol
# GULP energy per Si atom -5583.332979 kJ/mol
# Density = 2.575850 g / cm^3
# Si number density = 25.817258 Si / 1000 Ang^3
#
#
#
# Elastic Constant Matrix: (Units=GPa)
#
#
# Indices 1 2 3 4 5 6 
#
# 1 128.0425 31.0400 6.3686 0.0000 -12.3021 0.0000
# 2 31.0400 115.6669 -13.7504 0.0000 -14.8139 0.0000
# 3 6.3686 -13.7504 120.1770 0.0000 -30.5559 0.0000
# 4 0.0000 0.0000 0.0000 7.6351 0.0000 -6.1289
# 5 -12.3021 -14.8139 -30.5559 0.0000 37.2997 0.0000
# 6 0.0000 0.0000 0.0000 -6.1289 0.0000 14.6684
#
#
#
# Elastic Compliance Matrix: (Units=1/GPa)
#
#
# Indices 1 2 3 4 5 6 
#
# 1 0.008497 -0.002080 -0.000235 0.000000 0.001784 0.000000
# 2 -0.002080 0.010242 0.002705 0.000000 0.005598 0.000000
# 3 -0.000235 0.002705 0.011237 0.000000 0.010203 0.000000
# 4 0.000000 0.000000 0.000000 0.197073 0.000000 0.082343
# 5 0.001784 0.005598 0.010203 0.000000 0.037980 0.000000
# 6 0.000000 0.000000 0.000000 0.082343 0.000000 0.102579
#
#
# Mechanical properties :
#
#
# Convention : Reuss Voigt Hill
#
# Bulk Modulus (GPa) = 32.51059 45.68919 39.09989
# Shear Modulus (GPa) = 13.25984 34.60253 23.93118
#
# Velocity S-wave (km/s) = 2.26874 3.66496 3.04788
# Velocity P-wave (km/s) = 4.41394 5.97033 5.25013
#
# Compressibility (1/GPa) = 0.03075920
#
# Stress axis : x y z
#
# Youngs Moduli (GPa) = 117.68648 97.63524 88.99069
#
# Poissons Ratio (x) = 0.20304 0.02087
# Poissons Ratio (y) = 0.24474 -0.24076
# Poissons Ratio (z) = 0.02760 -0.26415
#
# Static dielectric constant tensor:
#      x y z
#    x 2.011350 0.000000 -0.119920 
#    y 0.000000 2.126830 0.000000 
#    z -0.119920 0.000000 1.918360 
# 
# From -- ./inp_files/42525.got.cif
#   From: 2010.05.17/outbox.cif.g08.bks.cpg/sg14_22_cif.got.tgz:42525.got - 2010.06.03 17:49:19.
