data_PCOD9249661
_publ_section_title
;
Structure prediction by ZEFSAII (Michael W. Deem and Ramdas Pophale) SiO2 
 PCOD9249661
Probable space group: P 21/C
;
_chemical_formula_sum "Si O2"
_cell_formula_units_Z 16
_cell_length_a 9.369055
_cell_length_b 5.027918
_cell_length_c 16.257834
_cell_angle_alpha 90.000000
_cell_angle_beta 125.428054
_cell_angle_gamma 90.000000
_cell_volume 624.052553
_symmetry_space_group_name_H-M "P 21/C"
_symmetry_group_IT_number 14
_symmetry_cell_setting 'monoclinic'
loop_
_space_group_symop_operation_xyz
x,y,z
-x,1/2+y,1/2-z
-x,-y,-z
x,1/2-y,1/2+z
loop_
_atom_site_type_symbol
_atom_site_label
_atom_site_fract_x
_atom_site_fract_y
_atom_site_fract_z
Si Si1 0.464078 0.802980 0.294063
Si Si2 0.109278 0.812061 0.124229
Si Si3 0.051875 0.819294 0.818874
Si Si4 0.239401 0.541488 0.004621
O O1 0.541873 0.561971 0.267074
O O2 0.260947 0.730416 0.240086
O O3 0.586983 0.883444 0.410986
O O4 0.923923 0.660610 0.060221
O O5 0.196898 0.735564 0.067174
O O6 0.063352 0.110405 0.137260
O O7 0.231360 0.711470 0.918333
O O8 0.959682 0.594735 0.733763
#
# Coordination Sequence:
#
# PCOD9249661 Si02
#       4
#     4   4   4   4
#     4  10  24  38  64 105 132 157 218 282 322 384
#     4  10  23  42  72  97 130 170 221 272 327 383
#     4  12  25  42  65  94 134 180 220 260 323 394
#     4  10  23  43  71  98 131 171 220 271 328 382
#
# _framework density 25.638866
#
# number of rings (size 3 to 8) (size 9 to 14) (size 15 to 20)
#    0.000    1.500    2.500    0.750   17.500    0.000 
#    0.000    2.500    0.000    0.000    0.000    0.000 
#    0.000    0.000    0.000    0.000    0.000    0.000 
#
# Total GULP energy -89372.358226 kJ/mol
# GULP energy per Si atom -5585.772389 kJ/mol
# Density = 2.558051 g / cm^3
# Si number density = 25.638866 Si / 1000 Ang^3
#
#
#
# Elastic Constant Matrix: (Units=GPa)
#
#
# Indices 1 2 3 4 5 6 
#
# 1 51.5819 30.6024 50.3248 0.0000 18.1415 0.0000
# 2 30.6024 149.0772 78.0692 0.0000 -7.6525 0.0000
# 3 50.3248 78.0692 248.5589 0.0000 23.3608 0.0000
# 4 0.0000 0.0000 0.0000 75.8561 0.0000 -14.9424
# 5 18.1415 -7.6525 23.3608 0.0000 48.1664 0.0000
# 6 0.0000 0.0000 0.0000 -14.9424 0.0000 39.3904
#
#
#
# Elastic Compliance Matrix: (Units=1/GPa)
#
#
# Indices 1 2 3 4 5 6 
#
# 1 0.029062 -0.004655 -0.003482 0.000000 -0.009997 0.000000
# 2 -0.004655 0.009102 -0.002323 0.000000 0.004326 0.000000
# 3 -0.003482 -0.002323 0.005626 0.000000 -0.001786 0.000000
# 4 0.000000 0.000000 0.000000 0.014247 0.000000 0.005405
# 5 -0.009997 0.004326 -0.001786 0.000000 0.026080 0.000000
# 6 0.000000 0.000000 0.000000 0.005405 0.000000 0.027437
#
#
# Mechanical properties :
#
#
# Convention : Reuss Voigt Hill
#
# Bulk Modulus (GPa) = 43.72816 85.24568 64.48692
# Shear Modulus (GPa) = 35.68925 52.03069 43.85997
#
# Velocity S-wave (km/s) = 3.73500 4.50974 4.14053
# Velocity P-wave (km/s) = 5.97434 7.77417 6.93291
#
# Compressibility (1/GPa) = 0.02286856
#
# Stress axis : x y z
#
# Youngs Moduli (GPa) = 34.40936 109.86472 177.75576
#
# Poissons Ratio (x) = 0.51145 0.61901
# Poissons Ratio (y) = 0.16019 0.41291
# Poissons Ratio (z) = 0.11983 0.25521
#
# Static dielectric constant tensor:
#      x y z
#    x 2.147720 0.000000 -0.028740 
#    y 0.000000 2.016220 0.000000 
#    z -0.028740 0.000000 2.076710 
# 
# From -- ./inp_files/51688.got.cif
#   From: 2010.05.17/outbox.cif.g08.bks.cpg/sg14_26_cif.got.tgz:51688.got - 2010.06.03 17:49:19.
