data_PCOD9249634
_publ_section_title
;
Structure prediction by ZEFSAII (Michael W. Deem and Ramdas Pophale) SiO2 
 PCOD9249634
Probable space group: P 21/C
;
_chemical_formula_sum "Si O2"
_cell_formula_units_Z 20
_cell_length_a 8.895345
_cell_length_b 8.973150
_cell_length_c 10.354220
_cell_angle_alpha 90.000000
_cell_angle_beta 77.024229
_cell_angle_gamma 90.000000
_cell_volume 805.362501
_symmetry_space_group_name_H-M "P 21/C"
_symmetry_group_IT_number 14
_symmetry_cell_setting 'monoclinic'
loop_
_space_group_symop_operation_xyz
x,y,z
-x,1/2+y,1/2-z
-x,-y,-z
x,1/2-y,1/2+z
loop_
_atom_site_type_symbol
_atom_site_label
_atom_site_fract_x
_atom_site_fract_y
_atom_site_fract_z
Si Si1 0.704899 0.837028 0.583261
Si Si2 0.029496 0.126013 0.882325
Si Si3 0.612270 0.335534 0.746123
Si Si4 0.550247 0.333735 0.486200
Si Si5 0.874166 0.447490 0.869582
O O1 0.567581 0.883198 0.707085
O O2 0.597323 0.775568 0.486799
O O3 0.802824 0.699098 0.618727
O O4 0.818657 0.961798 0.505929
O O5 0.932714 0.281224 0.889891
O O6 0.014699 0.042452 0.746704
O O7 0.000000 0.000000 0.000000
O O8 0.651871 0.306476 0.591856
O O9 0.622791 0.190737 0.832950
O O10 0.724974 0.439677 0.803850
O O11 0.500000 0.500000 0.500000
#
# Coordination Sequence:
#
# PCOD9249634 Si02
#       5
#     4   4   4   4   4
#     4  10  24  46  75 106 149 192 255 313 380 447
#     4  12  28  49  71 105 152 201 254 309 389 469
#     4  10  25  42  78 107 151 188 253 311 378 444
#     4  10  23  42  70 111 150 192 244 317 376 444
#     4  12  26  48  72 109 147 202 255 317 384 459
#
# _framework density 24.833537
#
# number of rings (size 3 to 8) (size 9 to 14) (size 15 to 20)
#    1.200    0.000    0.000    4.800    8.400    0.000 
#    0.000    0.000    0.000    0.000    0.000    0.000 
#    0.000    0.000    0.000    0.000    0.000    0.000 
#
# Total GULP energy -111557.703420 kJ/mol
# GULP energy per Si atom -5577.885171 kJ/mol
# Density = 2.477702 g / cm^3
# Si number density = 24.833537 Si / 1000 Ang^3
#
#
#
# Elastic Constant Matrix: (Units=GPa)
#
#
# Indices 1 2 3 4 5 6 
#
# 1 85.7918 30.3910 8.7530 0.0000 -0.3910 0.0000
# 2 30.3910 157.0969 51.1040 0.0000 -11.2026 0.0000
# 3 8.7530 51.1040 116.6836 0.0000 13.2221 0.0000
# 4 0.0000 0.0000 0.0000 28.1130 0.0000 12.5493
# 5 -0.3910 -11.2026 13.2221 0.0000 29.8510 0.0000
# 6 0.0000 0.0000 0.0000 12.5493 0.0000 40.4191
#
#
#
# Elastic Compliance Matrix: (Units=1/GPa)
#
#
# Indices 1 2 3 4 5 6 
#
# 1 0.012539 -0.002591 0.000301 0.000000 -0.000941 0.000000
# 2 -0.002591 0.008565 -0.004125 0.000000 0.005007 0.000000
# 3 0.000301 -0.004125 0.011085 0.000000 -0.006454 0.000000
# 4 0.000000 0.000000 0.000000 0.041294 0.000000 -0.012821
# 5 -0.000941 0.005007 -0.006454 0.000000 0.038225 0.000000
# 6 0.000000 0.000000 0.000000 -0.012821 0.000000 0.028721
#
#
# Mechanical properties :
#
#
# Convention : Reuss Voigt Hill
#
# Bulk Modulus (GPa) = 51.65080 60.00759 55.82919
# Shear Modulus (GPa) = 31.30621 37.63157 34.46889
#
# Velocity S-wave (km/s) = 3.55440 3.89698 3.72963
# Velocity P-wave (km/s) = 6.13914 6.66820 6.40913
#
# Compressibility (1/GPa) = 0.01936079
#
# Stress axis : x y z
#
# Youngs Moduli (GPa) = 79.75209 116.74805 90.20885
#
# Poissons Ratio (x) = 0.30245 -0.02712
# Poissons Ratio (y) = 0.20661 0.37207
# Poissons Ratio (z) = -0.02398 0.48153
#
# Static dielectric constant tensor:
#      x y z
#    x 1.996130 0.000000 -0.049370 
#    y 0.000000 1.938840 0.000000 
#    z -0.049370 0.000000 1.958700 
# 
# From -- ./inp_files/7957.got.cif
#   From: 2010.05.17/outbox.cif.g08.bks.cpg/sg14_4_cif.got.tgz:7957.got - 2010.06.03 17:49:19.
