data_PCOD9249963
_publ_section_title
;
Structure prediction by ZEFSAII (Michael W. Deem and Ramdas Pophale) SiO2 
 PCOD9249963
Probable space group: P 21/C
;
_chemical_formula_sum "Si O2"
_cell_formula_units_Z 28
_cell_length_a 16.982240
_cell_length_b 5.202493
_cell_length_c 13.645712
_cell_angle_alpha 90.000000
_cell_angle_beta 66.784962
_cell_angle_gamma 90.000000
_cell_volume 1107.983446
_symmetry_space_group_name_H-M "P 21/C"
_symmetry_group_IT_number 14
_symmetry_cell_setting 'monoclinic'
loop_
_space_group_symop_operation_xyz
x,y,z
-x,1/2+y,1/2-z
-x,-y,-z
x,1/2-y,1/2+z
loop_
_atom_site_type_symbol
_atom_site_label
_atom_site_fract_x
_atom_site_fract_y
_atom_site_fract_z
Si Si1 0.760398 0.872915 0.574214
Si Si2 0.555268 0.371997 0.712973
Si Si3 0.335245 0.228423 0.700412
Si Si4 0.651764 0.990479 0.983503
Si Si5 0.019307 0.915626 0.772229
Si Si6 0.211276 0.620489 0.139901
Si Si7 0.947802 0.749753 0.996822
O O1 0.701875 0.921193 0.697946
O O2 0.701094 0.694485 0.535200
O O3 0.848110 0.749432 0.571333
O O4 0.793458 0.075601 0.476488
O O5 0.513678 0.103994 0.765333
O O6 0.618207 0.500143 0.762422
O O7 0.598010 0.336098 0.584790
O O8 0.393558 0.341107 0.583560
O O9 0.256833 0.105589 0.677592
O O10 0.723477 0.146063 0.889392
O O11 0.118653 0.841458 0.732542
O O12 0.993433 0.716723 0.697261
O O13 0.954476 0.763894 0.875925
O O14 0.000000 0.500000 0.000000
O O15 0.000000 0.000000 0.000000
#
# Coordination Sequence:
#
# PCOD9249963 Si02
#       7
#     4   4   4   4   4   4   4
#     4  10  23  45  64  99 143 188 241 302 354 425
#     4  11  28  50  77 110 150 182 227 297 365 436
#     4  10  25  45  73 107 139 192 243 289 359 440
#     4  10  25  44  76 104 139 190 239 288 362 432
#     4  12  25  44  68  99 142 193 243 304 362 404
#     4  11  24  43  74  99 143 195 247 299 354 433
#     4  12  26  41  64  98 138 185 244 301 360 410
#
# _framework density 25.271138000000001
#
# number of rings (size 3 to 8) (size 9 to 14) (size 15 to 20)
#    0.000    1.143    1.429    2.571   14.000    2.286 
#    0.000    0.000    0.000    0.000    0.000    0.000 
#    0.000    0.000    0.000    0.000    0.000    0.000 
#
# Total GULP energy -156183.987045 kJ/mol
# GULP energy per Si atom -5577.999537 kJ/mol
# Density = 2.521362 g / cm^3
# Si number density = 25.271138 Si / 1000 Ang^3
#
#
#
# Elastic Constant Matrix: (Units=GPa)
#
#
# Indices 1 2 3 4 5 6 
#
# 1 76.8145 6.4256 33.7039 0.0000 1.7279 0.0000
# 2 6.4256 88.2950 20.6022 0.0000 2.8727 0.0000
# 3 33.7039 20.6022 90.5153 0.0000 14.7361 0.0000
# 4 0.0000 0.0000 0.0000 4.9126 0.0000 7.4765
# 5 1.7279 2.8727 14.7361 0.0000 36.2853 0.0000
# 6 0.0000 0.0000 0.0000 7.4765 0.0000 6.5437
#
#
#
# Elastic Compliance Matrix: (Units=1/GPa)
#
#
# Indices 1 2 3 4 5 6 
#
# 1 0.015667 0.000243 -0.006173 0.000000 0.001742 0.000000
# 2 0.000243 0.011966 -0.002846 0.000000 0.000197 0.000000
# 3 -0.006173 -0.002846 0.014894 0.000000 -0.005530 0.000000
# 4 0.000000 0.000000 0.000000 -0.275506 0.000000 0.314780
# 5 0.001742 0.000197 -0.005530 0.000000 0.029707 0.000000
# 6 0.000000 0.000000 0.000000 0.314780 0.000000 -0.206832
#
#
# Mechanical properties :
#
#
# Convention : Reuss Voigt Hill
#
# Bulk Modulus (GPa) = 40.03795 41.89868 40.96832
# Shear Modulus (GPa) = -13.01311 22.54118 4.76404
#
# Velocity S-wave (km/s) = -2.27169 2.98983 1.37450
# Velocity P-wave (km/s) = 2.99950 5.34176 4.33194
#
# Compressibility (1/GPa) = 0.02497630
#
# Stress axis : x y z
#
# Youngs Moduli (GPa) = 63.82746 83.57243 67.13947
#
# Poissons Ratio (x) = -0.02035 0.41443
# Poissons Ratio (y) = -0.01554 0.19109
# Poissons Ratio (z) = 0.39399 0.23787
#
# Static dielectric constant tensor:
#      x y z
#    x 1.941030 0.000000 -0.076350 
#    y 0.000000 2.087580 0.000000 
#    z -0.076350 0.000000 1.819430 
# 
# From -- ./inp_files/47919.got.cif
#   From: 2010.05.17/outbox.cif.g08.bks.cpg/sg14_24_cif.got.tgz:47919.got - 2010.06.03 17:49:19.
