data_PCOD9249763
_publ_section_title
;
Structure prediction by ZEFSAII (Michael W. Deem and Ramdas Pophale) SiO2 
 PCOD9249763
Probable space group: P 21/C
;
_chemical_formula_sum "Si O2"
_cell_formula_units_Z 20
_cell_length_a 11.281151
_cell_length_b 6.772425
_cell_length_c 9.415404
_cell_angle_alpha 90.000000
_cell_angle_beta 103.607717
_cell_angle_gamma 90.000000
_cell_volume 699.151446
_symmetry_space_group_name_H-M "P 21/C"
_symmetry_group_IT_number 14
_symmetry_cell_setting 'monoclinic'
loop_
_space_group_symop_operation_xyz
x,y,z
-x,1/2+y,1/2-z
-x,-y,-z
x,1/2-y,1/2+z
loop_
_atom_site_type_symbol
_atom_site_label
_atom_site_fract_x
_atom_site_fract_y
_atom_site_fract_z
Si Si1 0.651187 0.216473 0.313633
Si Si2 0.482386 0.259828 0.508899
Si Si3 0.186021 0.699440 0.391793
Si Si4 0.941805 0.718557 0.957734
Si Si5 0.210547 0.329568 0.835131
O O1 0.564686 0.142386 0.416809
O O2 0.747261 0.115153 0.230461
O O3 0.738822 0.342384 0.442447
O O4 0.546335 0.287428 0.176888
O O5 0.500000 0.500000 0.500000
O O6 0.342758 0.224472 0.431153
O O7 0.047719 0.671060 0.401603
O O8 0.197353 0.934640 0.356132
O O9 0.821660 0.759777 0.830822
O O10 0.894644 0.771866 0.099973
O O11 0.000000 0.500000 0.000000
#
# Coordination Sequence:
#
# PCOD9249763 Si02
#       5
#     4   4   4   4   4
#     4  10  24  42  65  99 138 178 222 290 330 405
#     4  11  26  40  68 100 139 180 230 276 341 404
#     4  10  23  45  69  97 139 176 229 278 348 397
#     4  10  23  43  69 100 132 174 230 279 331 403
#     4  11  24  43  71  97 135 185 226 275 342 407
#
# _framework density 28.606107999999999
#
# number of rings (size 3 to 8) (size 9 to 14) (size 15 to 20)
#    0.000    1.600    0.000    2.400   14.000    1.600 
#    3.600    5.000    0.000    0.000    0.000    0.000 
#    0.000    0.000    0.000    0.000    0.000    0.000 
#
# Total GULP energy -111670.586539 kJ/mol
# GULP energy per Si atom -5583.529327 kJ/mol
# Density = 2.854100 g / cm^3
# Si number density = 28.606108 Si / 1000 Ang^3
#
#
#
# Elastic Constant Matrix: (Units=GPa)
#
#
# Indices 1 2 3 4 5 6 
#
# 1 157.9652 -3.2252 36.1687 0.0000 -0.0883 0.0000
# 2 -3.2252 147.9224 -1.5899 0.0000 25.5483 0.0000
# 3 36.1687 -1.5899 217.9437 0.0000 1.6953 0.0000
# 4 0.0000 0.0000 0.0000 3.7414 0.0000 3.9418
# 5 -0.0883 25.5483 1.6953 0.0000 72.4832 0.0000
# 6 0.0000 0.0000 0.0000 3.9418 0.0000 23.7586
#
#
#
# Elastic Compliance Matrix: (Units=1/GPa)
#
#
# Indices 1 2 3 4 5 6 
#
# 1 0.006583 0.000134 -0.001091 0.000000 -0.000014 0.000000
# 2 0.000134 0.007202 0.000050 0.000000 -0.002540 0.000000
# 3 -0.001091 0.000050 0.004771 0.000000 -0.000131 0.000000
# 4 0.000000 0.000000 0.000000 0.323897 0.000000 -0.053737
# 5 -0.000014 -0.002540 -0.000131 0.000000 0.014694 0.000000
# 6 0.000000 0.000000 0.000000 -0.053737 0.000000 0.051005
#
#
# Mechanical properties :
#
#
# Convention : Reuss Voigt Hill
#
# Bulk Modulus (GPa) = 59.73016 65.17097 62.45056
# Shear Modulus (GPa) = 12.03228 52.82849 32.43038
#
# Velocity S-wave (km/s) = 2.05313 4.30205 3.37068
# Velocity P-wave (km/s) = 5.15228 6.89264 6.08500
#
# Compressibility (1/GPa) = 0.01674196
#
# Stress axis : x y z
#
# Youngs Moduli (GPa) = 151.90323 138.84266 209.60644
#
# Poissons Ratio (x) = -0.01863 0.22877
# Poissons Ratio (y) = -0.02038 -0.01049
# Poissons Ratio (z) = 0.16579 -0.00695
#
# Static dielectric constant tensor:
#      x y z
#    x 2.229930 0.000000 -0.020220 
#    y 0.000000 2.428920 0.000000 
#    z -0.020220 0.000000 2.126680 
# 
# From -- ./inp_files/11756.got.cif
#   From: 2010.05.17/outbox.cif.g08.bks.cpg/sg14_6_cif.got.tgz:11756.got - 2010.06.03 17:49:19.
