data_PCOD9249202
_publ_section_title
;
Structure prediction by ZEFSAII (Michael W. Deem and Ramdas Pophale) SiO2 
 PCOD9249202
Probable space group: P 21/C
;
_chemical_formula_sum "Si O2"
_cell_formula_units_Z 26
_cell_length_a 5.106415
_cell_length_b 10.509785
_cell_length_c 20.267019
_cell_angle_alpha 90.000000
_cell_angle_beta 63.588072
_cell_angle_gamma 90.000000
_cell_volume 974.144083
_symmetry_space_group_name_H-M "P 21/C"
_symmetry_group_IT_number 14
_symmetry_cell_setting 'monoclinic'
loop_
_space_group_symop_operation_xyz
x,y,z
-x,1/2+y,1/2-z
-x,-y,-z
x,1/2-y,1/2+z
loop_
_atom_site_type_symbol
_atom_site_label
_atom_site_fract_x
_atom_site_fract_y
_atom_site_fract_z
Si Si1 0.398207 0.256921 0.379748
Si Si2 0.000000 0.000000 0.500000
Si Si3 0.892139 0.443749 0.302422
Si Si4 0.914042 0.425505 0.154972
Si Si5 0.282106 0.728081 0.024851
Si Si6 0.387785 0.252849 0.739620
Si Si7 0.270941 0.163141 0.113660
O O1 0.566364 0.390254 0.352654
O O2 0.534925 0.191392 0.429672
O O3 0.461865 0.188794 0.302446
O O4 0.052087 0.272267 0.428878
O O5 0.966764 0.992891 0.584494
O O6 0.749309 0.112557 0.523452
O O7 0.967312 0.490853 0.219852
O O8 0.948821 0.545473 0.353536
O O9 0.075186 0.313047 0.284665
O O10 0.596390 0.365841 0.200599
O O11 0.109881 0.298074 0.124159
O O12 0.480462 0.836855 0.968787
O O13 0.399263 0.336697 0.673513
#
# Coordination Sequence:
#
# PCOD9249202 Si02
#       7
#     4   2   4   4   4   4   4
#     4  11  25  49  74 111 150 197 257 308 381 462
#     4  12  26  50  72 110 152 202 246 320 386 446
#     4  10  24  47  76 109 146 205 253 315 383 455
#     4  10  24  44  71 107 149 193 256 307 386 450
#     4  12  27  48  76 112 154 199 254 321 381 455
#     4  10  22  50  68 111 148 200 257 315 374 465
#     4  11  25  47  74 110 153 197 255 321 374 467
#
# _framework density 26.690097999999999
#
# number of rings (size 3 to 8) (size 9 to 14) (size 15 to 20)
#    0.000    1.231    3.077    0.923    2.154    6.154 
#    5.538    0.000    0.000    0.000    0.000    0.000 
#    0.000    0.000    0.000    0.000    0.000    0.000 
#
# Total GULP energy -145000.509255 kJ/mol
# GULP energy per Si atom -5576.942664 kJ/mol
# Density = 2.662935 g / cm^3
# Si number density = 26.690098 Si / 1000 Ang^3
#
#
#
# Elastic Constant Matrix: (Units=GPa)
#
#
# Indices 1 2 3 4 5 6 
#
# 1 108.3272 5.3874 49.7559 0.0000 1.3118 0.0000
# 2 5.3874 64.7268 31.6118 0.0000 -2.4690 0.0000
# 3 49.7559 31.6118 138.2843 0.0000 14.8173 0.0000
# 4 0.0000 0.0000 0.0000 36.9794 0.0000 -5.5724
# 5 1.3118 -2.4690 14.8173 0.0000 46.8883 0.0000
# 6 0.0000 0.0000 0.0000 -5.5724 0.0000 27.9056
#
#
#
# Elastic Compliance Matrix: (Units=1/GPa)
#
#
# Indices 1 2 3 4 5 6 
#
# 1 0.011195 0.001284 -0.004446 0.000000 0.001159 0.000000
# 2 0.001284 0.017770 -0.004783 0.000000 0.002411 0.000000
# 3 -0.004446 -0.004783 0.010286 0.000000 -0.003378 0.000000
# 4 0.000000 0.000000 0.000000 0.027881 0.000000 0.005568
# 5 0.001159 0.002411 -0.003378 0.000000 0.022489 0.000000
# 6 0.000000 0.000000 0.000000 0.005568 0.000000 0.036947
#
#
# Mechanical properties :
#
#
# Convention : Reuss Voigt Hill
#
# Bulk Modulus (GPa) = 42.80312 53.87206 48.33759
# Shear Modulus (GPa) = 33.27859 37.32686 35.30273
#
# Velocity S-wave (km/s) = 3.53491 3.74375 3.64083
# Velocity P-wave (km/s) = 5.72125 6.23824 5.98533
#
# Compressibility (1/GPa) = 0.02336278
#
# Stress axis : x y z
#
# Youngs Moduli (GPa) = 89.32187 56.27325 97.21558
#
# Poissons Ratio (x) = -0.07224 0.43221
# Poissons Ratio (y) = -0.11466 0.46494
# Poissons Ratio (z) = 0.39712 0.26913
#
# Static dielectric constant tensor:
#      x y z
#    x 2.183910 0.000000 0.013130 
#    y 0.000000 2.265470 0.000000 
#    z 0.013130 0.000000 2.081910 
# 
# From -- ./inp_files/63270.got.cif
#   From: 2010.05.17/outbox.cif.g08.bks.cpg/sg14_32_cif.got.tgz:63270.got - 2010.06.03 17:49:19.
