data_PCOD9249887
_publ_section_title
;
Structure prediction by ZEFSAII (Michael W. Deem and Ramdas Pophale) SiO2 
 PCOD9249887
Probable space group: P 21/C
;
_chemical_formula_sum "Si O2"
_cell_formula_units_Z 24
_cell_length_a 13.394600
_cell_length_b 9.299669
_cell_length_c 8.507231
_cell_angle_alpha 90.000000
_cell_angle_beta 97.131616
_cell_angle_gamma 90.000000
_cell_volume 1051.507848
_symmetry_space_group_name_H-M "P 21/C"
_symmetry_group_IT_number 14
_symmetry_cell_setting 'monoclinic'
loop_
_space_group_symop_operation_xyz
x,y,z
-x,1/2+y,1/2-z
-x,-y,-z
x,1/2-y,1/2+z
loop_
_atom_site_type_symbol
_atom_site_label
_atom_site_fract_x
_atom_site_fract_y
_atom_site_fract_z
Si Si1 0.901969 0.041820 0.694487
Si Si2 0.317218 0.045857 0.428284
Si Si3 0.553283 0.190409 0.706023
Si Si4 0.285408 0.932034 0.763879
Si Si5 0.070015 0.826757 0.647288
Si Si6 0.591448 0.650056 0.549019
O O1 0.785278 0.000143 0.676927
O O2 0.931348 0.156163 0.832285
O O3 0.919646 0.124298 0.531428
O O4 0.972387 0.902672 0.700722
O O5 0.405456 0.935781 0.396994
O O6 0.298227 0.030714 0.611453
O O7 0.345807 0.207724 0.394218
O O8 0.648472 0.290926 0.758948
O O9 0.497704 0.123296 0.843597
O O10 0.469932 0.294791 0.613051
O O11 0.332731 0.016629 0.920830
O O12 0.170089 0.886236 0.753669
#
# Coordination Sequence:
#
# PCOD9249887 Si02
#       6
#     4   4   4   4   4   4
#     4  10  23  44  69  92 125 160 204 257 314 365
#     4  11  23  43  62  92 129 163 203 262 308 359
#     4  12  22  41  64  88 126 168 210 253 307 357
#     4  11  23  42  63  93 126 163 210 253 308 367
#     4  10  23  44  68  94 124 160 202 261 310 368
#     4  12  24  39  62  92 126 170 206 253 303 366
#
# _framework density 22.824368
#
# number of rings (size 3 to 8) (size 9 to 14) (size 15 to 20)
#    0.000    1.000    5.000    2.000    2.333    0.667 
#    3.000    0.000    0.000    0.000    0.000    0.000 
#    0.000    0.000    0.000    0.000    0.000    0.000 
#
# Total GULP energy -134309.282142 kJ/mol
# GULP energy per Si atom -5596.220089 kJ/mol
# Density = 2.277242 g / cm^3
# Si number density = 22.824368 Si / 1000 Ang^3
#
#
#
# Elastic Constant Matrix: (Units=GPa)
#
#
# Indices 1 2 3 4 5 6 
#
# 1 69.3673 11.8790 9.9524 0.0000 6.8893 0.0000
# 2 11.8790 70.5193 -17.4055 0.0000 -1.1449 0.0000
# 3 9.9524 -17.4055 17.9647 0.0000 3.7052 0.0000
# 4 0.0000 0.0000 0.0000 34.4596 0.0000 8.4335
# 5 6.8893 -1.1449 3.7052 0.0000 22.1611 0.0000
# 6 0.0000 0.0000 0.0000 8.4335 0.0000 36.0835
#
#
#
# Elastic Compliance Matrix: (Units=1/GPa)
#
#
# Indices 1 2 3 4 5 6 
#
# 1 0.018341 -0.007205 -0.016457 0.000000 -0.003323 0.000000
# 2 -0.007205 0.021566 0.025058 0.000000 -0.000836 0.000000
# 3 -0.016457 0.025058 0.090871 0.000000 -0.008783 0.000000
# 4 0.000000 0.000000 0.000000 0.030780 0.000000 -0.007194
# 5 -0.003323 -0.000836 -0.008783 0.000000 0.047582 0.000000
# 6 0.000000 0.000000 0.000000 -0.007194 0.000000 0.029395
#
#
# Mechanical properties :
#
#
# Convention : Reuss Voigt Hill
#
# Bulk Modulus (GPa) = 7.48667 18.52256 13.00462
# Shear Modulus (GPa) = 17.84021 28.76918 23.30470
#
# Velocity S-wave (km/s) = 2.79880 3.55415 3.19885
# Velocity P-wave (km/s) = 3.70562 4.99755 4.39927
#
# Compressibility (1/GPa) = 0.13357069
#
# Stress axis : x y z
#
# Youngs Moduli (GPa) = 54.52278 46.37027 11.00458
#
# Poissons Ratio (x) = 0.33411 0.18110
# Poissons Ratio (y) = 0.39285 -0.27576
# Poissons Ratio (z) = 0.89726 -1.16196
#
# Static dielectric constant tensor:
#      x y z
#    x 1.796880 0.000000 0.020840 
#    y 0.000000 1.825910 0.000000 
#    z 0.020840 0.000000 1.885830 
# 
# From -- ./inp_files/15066.got.cif
#   From: 2010.05.17/outbox.cif.g08.bks.cpg/sg14_8_cif.got.tgz:15066.got - 2010.06.03 17:49:19.
