data_PCOD9249621
_publ_section_title
;
Structure prediction by ZEFSAII (Michael W. Deem and Ramdas Pophale) SiO2 
 PCOD9249621
Probable space group: P 21/C
;
_chemical_formula_sum "Si O2"
_cell_formula_units_Z 28
_cell_length_a 11.239620
_cell_length_b 4.761138
_cell_length_c 21.924853
_cell_angle_alpha 90.000000
_cell_angle_beta 112.505417
_cell_angle_gamma 90.000000
_cell_volume 1083.920485
_symmetry_space_group_name_H-M "P 21/C"
_symmetry_group_IT_number 14
_symmetry_cell_setting 'monoclinic'
loop_
_space_group_symop_operation_xyz
x,y,z
-x,1/2+y,1/2-z
-x,-y,-z
x,1/2-y,1/2+z
loop_
_atom_site_type_symbol
_atom_site_label
_atom_site_fract_x
_atom_site_fract_y
_atom_site_fract_z
Si Si1 0.512181 0.888999 0.794036
Si Si2 0.375125 0.984550 0.884167
Si Si3 0.603485 0.217081 0.492985
Si Si4 0.976673 0.404060 0.666730
Si Si5 0.161615 0.403230 0.808214
Si Si6 0.078530 0.170408 0.565962
Si Si7 0.748576 0.194850 0.906711
O O1 0.546725 0.606267 0.766032
O O2 0.411865 0.827541 0.829112
O O3 0.635260 0.051080 0.845748
O O4 0.514707 0.060549 0.940007
O O5 0.297847 0.264123 0.850391
O O6 0.320410 0.837187 0.934225
O O7 0.697325 0.136389 0.456467
O O8 0.500000 0.000000 0.500000
O O9 0.934481 0.724381 0.667111
O O10 0.110184 0.356238 0.729743
O O11 0.991408 0.301688 0.601625
O O12 0.869431 0.225151 0.683091
O O13 0.160177 0.434406 0.556812
O O14 0.171557 0.931591 0.612852
O O15 0.000000 0.000000 0.500000
#
# Coordination Sequence:
#
# PCOD9249621 Si02
#       7
#     4   4   4   4   4   4   4
#     4  11  26  45  69 104 139 178 226 277 352 428
#     4  10  25  41  71  99 132 177 226 274 351 399
#     4  10  25  44  68 102 137 176 233 282 337 423
#     4  10  24  44  63  99 131 166 235 269 337 401
#     4  10  23  42  69  94 129 174 215 291 327 395
#     4  12  27  45  70  98 138 187 232 285 350 417
#     4  11  27  45  71 100 141 182 230 291 346 412
#
# _framework density 25.832153000000002
#
# number of rings (size 3 to 8) (size 9 to 14) (size 15 to 20)
#    0.000    1.429    0.000    2.143   20.000    0.000 
#    0.000    0.000    0.000    0.000    0.000    0.000 
#    0.000    0.000    0.000    0.000    0.000    0.000 
#
# Total GULP energy -156674.217989 kJ/mol
# GULP energy per Si atom -5595.507785 kJ/mol
# Density = 2.577336 g / cm^3
# Si number density = 25.832153 Si / 1000 Ang^3
#
#
#
# Elastic Constant Matrix: (Units=GPa)
#
#
# Indices 1 2 3 4 5 6 
#
# 1 71.0180 8.6074 28.4627 0.0000 -7.3531 0.0000
# 2 8.6074 101.0499 9.5289 0.0000 -5.3515 0.0000
# 3 28.4627 9.5289 115.8766 0.0000 -0.2751 0.0000
# 4 0.0000 0.0000 0.0000 32.7166 0.0000 4.7748
# 5 -7.3531 -5.3515 -0.2751 0.0000 46.4687 0.0000
# 6 0.0000 0.0000 0.0000 4.7748 0.0000 43.1531
#
#
#
# Elastic Compliance Matrix: (Units=1/GPa)
#
#
# Indices 1 2 3 4 5 6 
#
# 1 0.015977 -0.000871 -0.003847 0.000000 0.002405 0.000000
# 2 -0.000871 0.010082 -0.000613 0.000000 0.001020 0.000000
# 3 -0.003847 -0.000613 0.009624 0.000000 -0.000622 0.000000
# 4 0.000000 0.000000 0.000000 0.031067 0.000000 -0.003437
# 5 0.002405 0.001020 -0.000622 0.000000 0.022014 0.000000
# 6 0.000000 0.000000 0.000000 -0.003437 0.000000 0.023554
#
#
# Mechanical properties :
#
#
# Convention : Reuss Voigt Hill
#
# Bulk Modulus (GPa) = 39.96528 42.34915 41.15721
# Shear Modulus (GPa) = 38.07485 40.55739 39.31612
#
# Velocity S-wave (km/s) = 3.84335 3.96667 3.90549
# Velocity P-wave (km/s) = 5.93294 6.11627 6.02531
#
# Compressibility (1/GPa) = 0.02502172
#
# Stress axis : x y z
#
# Youngs Moduli (GPa) = 62.58845 99.18607 103.90940
#
# Poissons Ratio (x) = 0.08637 0.39976
# Poissons Ratio (y) = 0.05450 0.06367
# Poissons Ratio (z) = 0.24079 0.06078
#
# Static dielectric constant tensor:
#      x y z
#    x 2.127510 0.000000 0.020080 
#    y 0.000000 2.032910 0.000000 
#    z 0.020080 0.000000 2.064440 
# 
# From -- ./inp_files/66331.got.cif
#   From: 2010.05.17/outbox.cif.g08.bks.cpg/sg14_34_cif.got.tgz:66331.got - 2010.06.03 17:49:19.
