data_PCOD9249019
_publ_section_title
;
Structure prediction by ZEFSAII (Michael W. Deem and Ramdas Pophale) SiO2 
 PCOD9249019
Probable space group: P 21/C
;
_chemical_formula_sum "Si O2"
_cell_formula_units_Z 28
_cell_length_a 13.538609
_cell_length_b 17.115712
_cell_length_c 9.093184
_cell_angle_alpha 90.000000
_cell_angle_beta 30.974774
_cell_angle_gamma 90.000000
_cell_volume 1084.441043
_symmetry_space_group_name_H-M "P 21/C"
_symmetry_group_IT_number 14
_symmetry_cell_setting 'monoclinic'
loop_
_space_group_symop_operation_xyz
x,y,z
-x,1/2+y,1/2-z
-x,-y,-z
x,1/2-y,1/2+z
loop_
_atom_site_type_symbol
_atom_site_label
_atom_site_fract_x
_atom_site_fract_y
_atom_site_fract_z
Si Si1 0.535931 0.656677 0.101229
Si Si2 0.108645 0.428873 0.439545
Si Si3 0.964064 0.843323 0.398779
Si Si4 0.518960 0.685776 0.787935
Si Si5 0.750002 0.474285 0.499996
Si Si6 0.981036 0.814223 0.712071
Si Si7 0.391358 0.428873 0.560451
O O1 0.474716 0.730571 0.275360
O O2 0.430833 0.580425 0.293761
O O3 0.764965 0.636602 0.807142
O O4 0.460964 0.672084 0.029976
O O5 0.269631 0.471652 0.333632
O O6 0.974779 0.382199 0.726092
O O7 0.000000 0.500000 0.500000
O O8 0.039032 0.827916 0.470030
O O9 0.025280 0.769429 0.224645
O O10 0.735030 0.863397 0.692866
O O11 0.069160 0.919576 0.206251
O O12 0.749998 0.685553 0.500003
O O13 0.474775 0.617800 0.726098
O O14 0.769631 0.528349 0.333632
O O15 0.500000 0.500000 0.500000
#
# Coordination Sequence:
#
# PCOD9249019 Si02
#       7
#     4   4   4   4   4   4   4
#     4  11  25  46  69 100 143 181 235 277 350 411
#     4  11  24  44  72 102 132 187 232 290 347 401
#     4  11  25  46  69 100 143 181 235 277 350 411
#     4  10  22  45  70  98 137 184 231 280 344 418
#     4  12  26  44  66 102 148 176 228 302 330 412
#     4  10  22  45  70  98 137 184 231 280 344 418
#     4  11  24  44  72 102 132 187 232 290 347 401
#
# _framework density 25.819752000000001
#
# number of rings (size 3 to 8) (size 9 to 14) (size 15 to 20)
#    0.000    1.143    4.286    4.286    8.000    1.143 
#    0.000    0.000    0.000    0.000    0.000    0.000 
#    0.000    0.000    0.000    0.000    0.000    0.000 
#
# Total GULP energy -156687.713465 kJ/mol
# GULP energy per Si atom -5595.989767 kJ/mol
# Density = 2.576098 g / cm^3
# Si number density = 25.819752 Si / 1000 Ang^3
#
#
#
# Elastic Constant Matrix: (Units=GPa)
#
#
# Indices 1 2 3 4 5 6 
#
# 1 81.5086 60.3466 30.9152 0.0000 16.3118 0.0000
# 2 60.3466 173.0339 26.7266 0.0000 29.2529 0.0000
# 3 30.9152 26.7266 72.4258 0.0000 13.9644 0.0000
# 4 0.0000 0.0000 0.0000 26.0268 0.0000 15.7443
# 5 16.3118 29.2529 13.9644 0.0000 40.9513 0.0000
# 6 0.0000 0.0000 0.0000 15.7443 0.0000 68.4876
#
#
#
# Elastic Compliance Matrix: (Units=1/GPa)
#
#
# Indices 1 2 3 4 5 6 
#
# 1 0.018743 -0.005372 -0.005693 0.000000 -0.001687 0.000000
# 2 -0.005372 0.008297 -0.000041 0.000000 -0.003773 0.000000
# 3 -0.005693 -0.000041 0.016922 0.000000 -0.003473 0.000000
# 4 0.000000 0.000000 0.000000 0.044628 0.000000 -0.010259
# 5 -0.001687 -0.003773 -0.003473 0.000000 0.028971 0.000000
# 6 0.000000 0.000000 0.000000 -0.010259 0.000000 0.016960
#
#
# Mechanical properties :
#
#
# Convention : Reuss Voigt Hill
#
# Bulk Modulus (GPa) = 45.97754 62.54946 54.26350
# Shear Modulus (GPa) = 30.49104 41.02515 35.75809
#
# Velocity S-wave (km/s) = 3.44018 3.99043 3.72548
# Velocity P-wave (km/s) = 5.79875 6.74607 6.29027
#
# Compressibility (1/GPa) = 0.02174975
#
# Stress axis : x y z
#
# Youngs Moduli (GPa) = 53.35377 120.52536 59.09434
#
# Poissons Ratio (x) = 0.64749 0.33641
# Poissons Ratio (y) = 0.28663 0.00243
# Poissons Ratio (z) = 0.30373 0.00496
#
# Static dielectric constant tensor:
#      x y z
#    x 2.104880 0.000000 0.040740 
#    y 0.000000 1.995710 0.000000 
#    z 0.040740 0.000000 2.049830 
# 
# From -- ./inp_files/16407.got.cif
#   From: 2010.05.17/outbox.cif.g08.bks.cpg/sg14_9_cif.got.tgz:16407.got - 2010.06.03 17:49:19.
