data_PCOD9249433
_publ_section_title
;
Structure prediction by ZEFSAII (Michael W. Deem and Ramdas Pophale) SiO2 
 PCOD9249433
Probable space group: P 21/C
;
_chemical_formula_sum "Si O2"
_cell_formula_units_Z 24
_cell_length_a 17.150253
_cell_length_b 7.607954
_cell_length_c 23.365932
_cell_angle_alpha 90.000000
_cell_angle_beta 22.418339
_cell_angle_gamma 90.000000
_cell_volume 1162.689660
_symmetry_space_group_name_H-M "P 21/C"
_symmetry_group_IT_number 14
_symmetry_cell_setting 'monoclinic'
loop_
_space_group_symop_operation_xyz
x,y,z
-x,1/2+y,1/2-z
-x,-y,-z
x,1/2-y,1/2+z
loop_
_atom_site_type_symbol
_atom_site_label
_atom_site_fract_x
_atom_site_fract_y
_atom_site_fract_z
Si Si1 0.093615 0.591129 0.236037
Si Si2 0.700704 0.323589 0.632338
Si Si3 0.085247 0.832577 0.409622
Si Si4 0.039624 0.691525 0.145937
Si Si5 0.249014 0.202182 0.954764
Si Si6 0.700850 0.095044 0.841950
O O1 0.065850 0.385561 0.272633
O O2 0.255971 0.712178 0.160203
O O3 0.131638 0.627315 0.143723
O O4 0.874968 0.678330 0.402214
O O5 0.847002 0.304529 0.588054
O O6 0.468341 0.290554 0.808411
O O7 0.706839 0.511291 0.599731
O O8 0.794938 0.202860 0.517506
O O9 0.282034 0.880924 0.237767
O O10 0.911430 0.778352 0.482486
O O11 0.000000 0.000000 0.500000
O O12 0.877627 0.542837 0.239144
O O13 0.500000 0.000000 0.000000
#
# Coordination Sequence:
#
# PCOD9249433 Si02
#       6
#     4   4   4   4   4   4
#     4  10  23  41  66  91 127 167 213 265 308 382
#     4  11  23  40  65  93 125 170 209 263 321 376
#     4  11  22  42  63  90 132 161 209 266 312 379
#     4  11  22  42  64  92 128 165 215 260 315 379
#     4  10  24  40  64  95 124 167 216 256 323 376
#     4  11  25  42  64  95 129 167 211 264 322 373
#
# _framework density 20.641794000000001
#
# number of rings (size 3 to 8) (size 9 to 14) (size 15 to 20)
#    0.000    1.333    3.333    1.500    4.667    2.000 
#    0.000    0.000    0.000    0.000    0.000    0.000 
#    0.000    0.000    0.000    0.000    0.000    0.000 
#
# Total GULP energy -133937.467639 kJ/mol
# GULP energy per Si atom -5580.727818 kJ/mol
# Density = 2.059481 g / cm^3
# Si number density = 20.641794 Si / 1000 Ang^3
#
#
#
# Elastic Constant Matrix: (Units=GPa)
#
#
# Indices 1 2 3 4 5 6 
#
# 1 62.0835 -4.4957 12.5529 0.0000 19.1379 0.0000
# 2 -4.4957 57.1453 -3.8529 0.0000 -3.9282 0.0000
# 3 12.5529 -3.8529 47.5462 0.0000 -0.7981 0.0000
# 4 0.0000 0.0000 0.0000 24.9876 0.0000 -1.7877
# 5 19.1379 -3.9282 -0.7981 0.0000 31.4772 0.0000
# 6 0.0000 0.0000 0.0000 -1.7877 0.0000 30.5854
#
#
#
# Elastic Compliance Matrix: (Units=1/GPa)
#
#
# Indices 1 2 3 4 5 6 
#
# 1 0.021344 0.000388 -0.005823 0.000000 -0.013076 0.000000
# 2 0.000388 0.017761 0.001371 0.000000 0.002016 0.000000
# 3 -0.005823 0.001371 0.022753 0.000000 0.004288 0.000000
# 4 0.000000 0.000000 0.000000 0.040188 0.000000 0.002349
# 5 -0.013076 0.002016 0.004288 0.000000 0.040079 0.000000
# 6 0.000000 0.000000 0.000000 0.002349 0.000000 0.032833
#
#
# Mechanical properties :
#
#
# Convention : Reuss Voigt Hill
#
# Bulk Modulus (GPa) = 18.61241 19.46482 19.03862
# Shear Modulus (GPa) = 24.87616 28.24808 26.56212
#
# Velocity S-wave (km/s) = 3.47527 3.70332 3.59111
# Velocity P-wave (km/s) = 5.01396 5.26654 5.14180
#
# Compressibility (1/GPa) = 0.05372760
#
# Stress axis : x y z
#
# Youngs Moduli (GPa) = 46.85231 56.30399 43.95095
#
# Poissons Ratio (x) = -0.02183 0.25593
# Poissons Ratio (y) = -0.01816 -0.06024
# Poissons Ratio (z) = 0.27283 -0.07718
#
# Static dielectric constant tensor:
#      x y z
#    x 1.782630 0.000000 -0.016370 
#    y 0.000000 1.764010 0.000000 
#    z -0.016370 0.000000 1.815500 
# 
# From -- ./inp_files/38930.got.cif
#   From: 2010.05.17/outbox.cif.g08.bks.cpg/sg14_20_cif.got.tgz:38930.got - 2010.06.03 17:49:19.
