data_PCOD9249774
_publ_section_title
;
Structure prediction by ZEFSAII (Michael W. Deem and Ramdas Pophale) SiO2 
 PCOD9249774
Probable space group: P 21/C
;
_chemical_formula_sum "Si O2"
_cell_formula_units_Z 20
_cell_length_a 7.127822
_cell_length_b 17.577455
_cell_length_c 7.721809
_cell_angle_alpha 90.000000
_cell_angle_beta 88.716828
_cell_angle_gamma 90.000000
_cell_volume 967.214890
_symmetry_space_group_name_H-M "P 21/C"
_symmetry_group_IT_number 14
_symmetry_cell_setting 'monoclinic'
loop_
_space_group_symop_operation_xyz
x,y,z
-x,1/2+y,1/2-z
-x,-y,-z
x,1/2-y,1/2+z
loop_
_atom_site_type_symbol
_atom_site_label
_atom_site_fract_x
_atom_site_fract_y
_atom_site_fract_z
Si Si1 0.098690 0.433312 0.109346
Si Si2 0.575404 0.270736 0.584005
Si Si3 0.246930 0.856588 0.206723
Si Si4 0.375937 0.144961 0.355327
Si Si5 0.533513 0.989153 0.206537
O O1 0.260351 0.466766 0.231295
O O2 0.950934 0.389955 0.234110
O O3 0.190991 0.376175 0.966263
O O4 0.000000 0.500000 0.000000
O O5 0.698307 0.336300 0.491113
O O6 0.713285 0.224042 0.704857
O O7 0.495153 0.203749 0.466484
O O8 0.391832 0.310420 0.672575
O O9 0.398562 0.919415 0.261352
O O10 0.471272 0.064356 0.310215
O O11 0.500000 0.000000 0.000000
#
# Coordination Sequence:
#
# PCOD9249774 Si02
#       5
#     4   4   4   4   4
#     4  12  25  42  74 105 134 180 241 289 337 411
#     4  10  23  43  69  96 143 184 221 295 354 411
#     4  11  23  45  66 102 136 183 232 285 347 411
#     4  11  22  43  70  97 140 186 228 279 355 410
#     4  12  24  46  72 101 142 186 232 282 347 416
#
# _framework density 20.677928999999999
#
# number of rings (size 3 to 8) (size 9 to 14) (size 15 to 20)
#    0.000    0.800    6.000    1.800    0.000    2.400 
#    0.000    0.000    0.000    0.000    0.000    0.000 
#    0.000    0.000    0.000    0.000    0.000    0.000 
#
# Total GULP energy -111482.085437 kJ/mol
# GULP energy per Si atom -5574.104272 kJ/mol
# Density = 2.063086 g / cm^3
# Si number density = 20.677929 Si / 1000 Ang^3
#
#
#
# Elastic Constant Matrix: (Units=GPa)
#
#
# Indices 1 2 3 4 5 6 
#
# 1 115.7927 45.6380 50.4341 0.0000 -12.2068 0.0000
# 2 45.6380 119.1094 42.1682 0.0000 -7.7265 0.0000
# 3 50.4341 42.1682 97.6641 0.0000 -17.4796 0.0000
# 4 0.0000 0.0000 0.0000 51.5748 0.0000 -16.9068
# 5 -12.2068 -7.7265 -17.4796 0.0000 26.4158 0.0000
# 6 0.0000 0.0000 0.0000 -16.9068 0.0000 31.0743
#
#
#
# Elastic Compliance Matrix: (Units=1/GPa)
#
#
# Indices 1 2 3 4 5 6 
#
# 1 0.011950 -0.002823 -0.004664 0.000000 0.001610 0.000000
# 2 -0.002823 0.010578 -0.003164 0.000000 -0.000304 0.000000
# 3 -0.004664 -0.003164 0.015271 0.000000 0.007024 0.000000
# 4 0.000000 0.000000 0.000000 0.023598 0.000000 0.012839
# 5 0.001610 -0.000304 0.007024 0.000000 0.043159 0.000000
# 6 0.000000 0.000000 0.000000 0.012839 0.000000 0.039167
#
#
# Mechanical properties :
#
#
# Convention : Reuss Voigt Hill
#
# Bulk Modulus (GPa) = 60.61684 67.67186 64.14435
# Shear Modulus (GPa) = 29.32162 34.76802 32.04482
#
# Velocity S-wave (km/s) = 3.76974 4.10495 3.94091
# Velocity P-wave (km/s) = 6.95171 7.43405 7.19692
#
# Compressibility (1/GPa) = 0.01649707
#
# Stress axis : x y z
#
# Youngs Moduli (GPa) = 83.68235 94.53894 65.48469
#
# Poissons Ratio (x) = 0.26690 0.30541
# Poissons Ratio (y) = 0.23625 0.20717
# Poissons Ratio (z) = 0.39028 0.29908
#
# Static dielectric constant tensor:
#      x y z
#    x 1.692650 0.000000 0.000820 
#    y 0.000000 1.698790 0.000000 
#    z 0.000820 0.000000 1.912090 
# 
# From -- ./inp_files/5428.got.cif
#   From: 2010.05.17/outbox.cif.g08.bks.cpg/sg14_3_cif.got.tgz:5428.got - 2010.06.03 17:49:19.
