data_PCOD9249389
_publ_section_title
;
Structure prediction by ZEFSAII (Michael W. Deem and Ramdas Pophale) SiO2 
 PCOD9249389
Probable space group: P 21/C
;
_chemical_formula_sum "Si O2"
_cell_formula_units_Z 26
_cell_length_a 16.502478
_cell_length_b 8.661934
_cell_length_c 8.993056
_cell_angle_alpha 90.000000
_cell_angle_beta 124.294211
_cell_angle_gamma 90.000000
_cell_volume 1062.020710
_symmetry_space_group_name_H-M "P 21/C"
_symmetry_group_IT_number 14
_symmetry_cell_setting 'monoclinic'
loop_
_space_group_symop_operation_xyz
x,y,z
-x,1/2+y,1/2-z
-x,-y,-z
x,1/2-y,1/2+z
loop_
_atom_site_type_symbol
_atom_site_label
_atom_site_fract_x
_atom_site_fract_y
_atom_site_fract_z
Si Si1 0.058048 0.624173 0.859998
Si Si2 0.500000 0.000000 0.000000
Si Si3 0.198571 0.070546 0.326349
Si Si4 0.398304 0.576565 0.092355
Si Si5 0.743138 0.618807 0.442784
Si Si6 0.878703 0.425161 0.748491
Si Si7 0.555387 0.807063 0.574415
O O1 0.099580 0.495952 0.790336
O O2 0.074201 0.785380 0.795157
O O3 0.948807 0.574789 0.794766
O O4 0.119630 0.616066 0.076660
O O5 0.563325 0.078032 0.202709
O O6 0.584926 0.865116 0.067938
O O7 0.195647 0.105280 0.148460
O O8 0.233531 0.222553 0.449339
O O9 0.283326 0.942193 0.445898
O O10 0.451785 0.710025 0.052961
O O11 0.444353 0.421221 0.063763
O O12 0.774403 0.475035 0.575734
O O13 0.632524 0.620884 0.269162
#
# Coordination Sequence:
#
# PCOD9249389 Si02
#       7
#     4   2   4   4   4   4   4
#     4  11  25  46  71 106 135 181 224 277 342 409
#     4  12  20  38  68  92 124 180 228 282 330 406
#     4  11  23  43  64 100 135 175 233 277 350 399
#     4  10  23  41  61  93 131 177 219 284 329 407
#     4  11  23  42  68  97 136 182 225 290 336 411
#     4  11  25  46  74 101 139 178 224 280 342 407
#     4  10  23  43  62  94 135 176 231 273 348 391
#
# _framework density 24.481634
#
# number of rings (size 3 to 8) (size 9 to 14) (size 15 to 20)
#    0.000    1.231    1.538    3.692    2.154    6.154 
#   13.846    0.000    0.000    0.000    0.000    0.000 
#    0.000    0.000    0.000    0.000    0.000    0.000 
#
# Total GULP energy -145074.835307 kJ/mol
# GULP energy per Si atom -5579.801358 kJ/mol
# Density = 2.442591 g / cm^3
# Si number density = 24.481634 Si / 1000 Ang^3
#
#
#
# Elastic Constant Matrix: (Units=GPa)
#
#
# Indices 1 2 3 4 5 6 
#
# 1 57.7984 3.1147 3.5609 0.0000 -10.2982 0.0000
# 2 3.1147 55.6847 29.5097 0.0000 -7.6685 0.0000
# 3 3.5609 29.5097 102.1660 0.0000 -33.1966 0.0000
# 4 0.0000 0.0000 0.0000 37.1274 0.0000 2.4058
# 5 -10.2982 -7.6685 -33.1966 0.0000 32.3647 0.0000
# 6 0.0000 0.0000 0.0000 2.4058 0.0000 27.9868
#
#
#
# Elastic Compliance Matrix: (Units=1/GPa)
#
#
# Indices 1 2 3 4 5 6 
#
# 1 0.018649 -0.001151 0.002283 0.000000 0.008003 0.000000
# 2 -0.001151 0.021352 -0.006903 0.000000 -0.002387 0.000000
# 3 0.002283 -0.006903 0.017109 0.000000 0.016639 0.000000
# 4 0.000000 0.000000 0.000000 0.027085 0.000000 -0.002328
# 5 0.008003 -0.002387 0.016639 0.000000 0.049946 0.000000
# 6 0.000000 0.000000 0.000000 -0.002328 0.000000 0.035931
#
#
# Mechanical properties :
#
#
# Convention : Reuss Voigt Hill
#
# Bulk Modulus (GPa) = 21.94542 32.00220 26.97381
# Shear Modulus (GPa) = 25.40612 31.46002 28.43307
#
# Velocity S-wave (km/s) = 3.22493 3.58864 3.41164
# Velocity P-wave (km/s) = 4.78021 5.50195 5.15373
#
# Compressibility (1/GPa) = 0.04556760
#
# Stress axis : x y z
#
# Youngs Moduli (GPa) = 53.62289 46.83400 58.44919
#
# Poissons Ratio (x) = 0.05389 -0.13342
# Poissons Ratio (y) = 0.06171 0.40347
# Poissons Ratio (z) = -0.12240 0.32329
#
# Static dielectric constant tensor:
#      x y z
#    x 2.035610 0.000000 -0.046890 
#    y 0.000000 2.047340 0.000000 
#    z -0.046890 0.000000 1.993860 
# 
# From -- ./inp_files/18642.got.cif
#   From: 2010.05.17/outbox.cif.g08.bks.cpg/sg14_10_cif.got.tgz:18642.got - 2010.06.03 17:49:19.
