data_PCOD9249973
_publ_section_title
;
Structure prediction by ZEFSAII (Michael W. Deem and Ramdas Pophale) SiO2 
 PCOD9249973
Probable space group: P 21/C
;
_chemical_formula_sum "Si O2"
_cell_formula_units_Z 32
_cell_length_a 20.453271
_cell_length_b 14.645306
_cell_length_c 13.799885
_cell_angle_alpha 90.000000
_cell_angle_beta 156.200366
_cell_angle_gamma 90.000000
_cell_volume 1668.102333
_symmetry_space_group_name_H-M "P 21/C"
_symmetry_group_IT_number 14
_symmetry_cell_setting 'monoclinic'
loop_
_space_group_symop_operation_xyz
x,y,z
-x,1/2+y,1/2-z
-x,-y,-z
x,1/2-y,1/2+z
loop_
_atom_site_type_symbol
_atom_site_label
_atom_site_fract_x
_atom_site_fract_y
_atom_site_fract_z
Si Si1 0.320412 0.522694 0.718566
Si Si2 0.675778 0.998754 0.288542
Si Si3 0.267455 0.336420 0.994344
Si Si4 0.393545 0.647996 0.641319
Si Si5 0.812334 0.489325 0.768306
Si Si6 0.670488 0.877683 0.924252
Si Si7 0.673208 0.359796 0.964437
Si Si8 0.066677 0.912053 0.036107
O O1 0.345012 0.603508 0.675879
O O2 0.264660 0.436744 0.577492
O O3 0.189444 0.553317 0.619604
O O4 0.500000 0.500000 0.000000
O O5 0.792679 0.016662 0.356809
O O6 0.687061 0.072930 0.390753
O O7 0.708565 0.899447 0.378780
O O8 0.500000 0.000000 0.000000
O O9 0.417171 0.367303 0.128233
O O10 0.290228 0.228200 0.037194
O O11 0.088729 0.357753 0.713116
O O12 0.282661 0.596049 0.410448
O O13 0.366362 0.755579 0.613684
O O14 0.733998 0.578922 0.611075
O O15 0.000000 0.500000 0.000000
O O16 0.477229 0.891724 0.672664
O O17 0.831453 0.359098 0.245077
O O18 0.000000 0.000000 0.000000
#
# Coordination Sequence:
#
# PCOD9249973 Si02
#       8
#     4   4   4   4   4   4   4   4
#     4  11  22  43  70  95 130 175 218 268 332 394
#     4  12  22  43  67  95 130 173 220 266 332 398
#     4  11  24  44  66 100 134 172 222 275 332 393
#     4  10  24  44  67  95 133 173 222 272 333 393
#     4  11  25  43  65  93 134 173 214 275 332 390
#     4  10  23  45  66  96 133 172 222 270 333 392
#     4  11  23  43  68  99 130 175 221 271 331 393
#     4  12  25  43  67  95 136 175 220 276 328 390
#
# _framework density 19.183477
#
# number of rings (size 3 to 8) (size 9 to 14) (size 15 to 20)
#    0.000    1.000    5.000    1.500    5.250    2.000 
#    4.500    0.000    0.000    0.000    0.000    0.000 
#    0.000    0.000    0.000    0.000    0.000    0.000 
#
# Total GULP energy -178660.849826 kJ/mol
# GULP energy per Si atom -5583.151557 kJ/mol
# Density = 1.913981 g / cm^3
# Si number density = 19.183477 Si / 1000 Ang^3
#
#
#
# Elastic Constant Matrix: (Units=GPa)
#
#
# Indices 1 2 3 4 5 6 
#
# 1 147.4970 54.0355 45.0448 0.0000 11.1640 0.0000
# 2 54.0355 107.8178 26.5671 0.0000 -3.4831 0.0000
# 3 45.0448 26.5671 134.8462 0.0000 5.8613 0.0000
# 4 0.0000 0.0000 0.0000 15.9027 0.0000 1.1108
# 5 11.1640 -3.4831 5.8613 0.0000 35.6902 0.0000
# 6 0.0000 0.0000 0.0000 1.1108 0.0000 4.9426
#
#
#
# Elastic Compliance Matrix: (Units=1/GPa)
#
#
# Indices 1 2 3 4 5 6 
#
# 1 0.009176 -0.004172 -0.002116 0.000000 -0.002930 0.000000
# 2 -0.004172 0.011703 -0.001026 0.000000 0.002616 0.000000
# 3 -0.002116 -0.001026 0.008360 0.000000 -0.000811 0.000000
# 4 0.000000 0.000000 0.000000 0.063885 0.000000 -0.014357
# 5 -0.002930 0.002616 -0.000811 0.000000 0.029324 0.000000
# 6 0.000000 0.000000 0.000000 -0.014357 0.000000 0.205551
#
#
# Mechanical properties :
#
#
# Convention : Reuss Voigt Hill
#
# Bulk Modulus (GPa) = 68.43810 71.27286 69.85548
# Shear Modulus (GPa) = 14.38858 28.94133 21.66496
#
# Velocity S-wave (km/s) = 2.74168 3.88836 3.36423
# Velocity P-wave (km/s) = 6.76575 7.57582 7.18221
#
# Compressibility (1/GPa) = 0.01461174
#
# Stress axis : x y z
#
# Youngs Moduli (GPa) = 108.97707 85.44714 119.61698
#
# Poissons Ratio (x) = 0.35650 0.25310
# Poissons Ratio (y) = 0.45467 0.12269
# Poissons Ratio (z) = 0.23059 0.08765
#
# Static dielectric constant tensor:
#      x y z
#    x 1.680710 0.000000 0.023360 
#    y 0.000000 1.665430 0.000000 
#    z 0.023360 0.000000 1.617560 
# 
# From -- ./inp_files/50637.got.cif
#   From: 2010.05.17/outbox.cif.g08.bks.cpg/sg14_26_cif.got.tgz:50637.got - 2010.06.03 17:49:19.
