data_PCOD9249090
_publ_section_title
;
Structure prediction by ZEFSAII (Michael W. Deem and Ramdas Pophale) SiO2 
 PCOD9249090
Probable space group: P 21/C
;
_chemical_formula_sum "Si O2"
_cell_formula_units_Z 16
_cell_length_a 17.060652
_cell_length_b 4.999198
_cell_length_c 11.409974
_cell_angle_alpha 90.000000
_cell_angle_beta 140.627513
_cell_angle_gamma 90.000000
_cell_volume 617.328010
_symmetry_space_group_name_H-M "P 21/C"
_symmetry_group_IT_number 14
_symmetry_cell_setting 'monoclinic'
loop_
_space_group_symop_operation_xyz
x,y,z
-x,1/2+y,1/2-z
-x,-y,-z
x,1/2-y,1/2+z
loop_
_atom_site_type_symbol
_atom_site_label
_atom_site_fract_x
_atom_site_fract_y
_atom_site_fract_z
Si Si1 0.130374 0.151135 0.657274
Si Si2 0.505288 0.979210 0.687341
Si Si3 0.922215 0.907276 0.145418
Si Si4 0.624390 0.672699 0.643097
O O1 0.121525 0.370383 0.540579
O O2 0.146694 0.199177 0.815655
O O3 0.255965 0.012326 0.756717
O O4 0.000000 0.000000 0.500000
O O5 0.553191 0.245439 0.803882
O O6 0.403574 0.092644 0.481663
O O7 0.619557 0.826991 0.759620
O O8 0.043991 0.715786 0.293659
O O9 0.500000 0.500000 0.500000
#
# Coordination Sequence:
#
# PCOD9249090 Si02
#       4
#     4   4   4   4
#     4  10  24  47  72 108 144 193 241 307 371 445
#     4  11  24  47  70 108 150 199 248 315 380 455
#     4  10  22  46  68 102 140 188 236 294 360 436
#     4  11  25  46  73 113 144 197 252 314 376 455
#
# _framework density 25.918151999999999
#
# number of rings (size 3 to 8) (size 9 to 14) (size 15 to 20)
#    0.000    1.500    2.500    0.750    3.500    0.000 
#   40.500    0.000    0.000    0.000    0.000    0.000 
#    0.000    0.000    0.000    0.000    0.000    0.000 
#
# Total GULP energy -89165.813047 kJ/mol
# GULP energy per Si atom -5572.863315 kJ/mol
# Density = 2.585916 g / cm^3
# Si number density = 25.918152 Si / 1000 Ang^3
#
#
#
# Elastic Constant Matrix: (Units=GPa)
#
#
# Indices 1 2 3 4 5 6 
#
# 1 148.5765 36.7524 49.1791 0.0000 7.9846 0.0000
# 2 36.7524 118.3746 29.2786 0.0000 -2.0484 0.0000
# 3 49.1791 29.2786 104.9260 0.0000 -10.5010 0.0000
# 4 0.0000 0.0000 0.0000 -148.8854 0.0000 72.5082
# 5 7.9846 -2.0484 -10.5010 0.0000 60.1916 0.0000
# 6 0.0000 0.0000 0.0000 72.5082 0.0000 -10.3304
#
#
#
# Elastic Compliance Matrix: (Units=1/GPa)
#
#
# Indices 1 2 3 4 5 6 
#
# 1 0.008476 -0.001757 -0.003665 0.000000 -0.001824 0.000000
# 2 -0.001757 0.009439 -0.001786 0.000000 0.000243 0.000000
# 3 -0.003665 -0.001786 0.011999 0.000000 0.002519 0.000000
# 4 0.000000 0.000000 0.000000 0.002777 0.000000 0.019495
# 5 -0.001824 0.000243 0.002519 0.000000 0.017303 0.000000
# 6 0.000000 0.000000 0.000000 0.019495 0.000000 0.040029
#
#
# Mechanical properties :
#
#
# Convention : Reuss Voigt Hill
#
# Bulk Modulus (GPa) = 64.52398 66.92192 65.72295
# Shear Modulus (GPa) = 45.61761 -2.69372 21.46195
#
# Velocity S-wave (km/s) = 4.19986 -1.02058 2.88074
# Velocity P-wave (km/s) = 6.96188 4.94851 6.03968
#
# Compressibility (1/GPa) = 0.01549811
#
# Stress axis : x y z
#
# Youngs Moduli (GPa) = 117.97649 105.94142 83.34082
#
# Poissons Ratio (x) = 0.18611 0.30546
# Poissons Ratio (y) = 0.20725 0.14887
# Poissons Ratio (z) = 0.43240 0.18924
#
# Static dielectric constant tensor:
#      x y z
#    x 2.153560 0.000000 -0.062810 
#    y 0.000000 2.183460 0.000000 
#    z -0.062810 0.000000 2.195830 
# 
# From -- ./inp_files/27393.got.cif
#   From: 2010.05.17/outbox.cif.g08.bks.cpg/sg14_14_cif.got.tgz:27393.got - 2010.06.03 17:49:19.
