data_PCOD9249608
_publ_section_title
;
Structure prediction by ZEFSAII (Michael W. Deem and Ramdas Pophale) SiO2 
 PCOD9249608
Probable space group: P 21/C
;
_chemical_formula_sum "Si O2"
_cell_formula_units_Z 32
_cell_length_a 28.257083
_cell_length_b 8.642323
_cell_length_c 12.696032
_cell_angle_alpha 90.000000
_cell_angle_beta 29.498145
_cell_angle_gamma 90.000000
_cell_volume 1526.651117
_symmetry_space_group_name_H-M "P 21/C"
_symmetry_group_IT_number 14
_symmetry_cell_setting 'monoclinic'
loop_
_space_group_symop_operation_xyz
x,y,z
-x,1/2+y,1/2-z
-x,-y,-z
x,1/2-y,1/2+z
loop_
_atom_site_type_symbol
_atom_site_label
_atom_site_fract_x
_atom_site_fract_y
_atom_site_fract_z
Si Si1 0.041328 0.067304 0.029141
Si Si2 0.304881 0.736025 0.838314
Si Si3 0.222060 0.649545 0.215456
Si Si4 0.154687 0.914025 0.472334
Si Si5 0.494157 0.365262 0.600431
Si Si6 0.352288 0.405026 0.291118
Si Si7 0.649215 0.572157 0.944766
Si Si8 0.801542 0.803209 0.749299
O O1 0.955236 0.077607 0.278954
O O2 0.096129 0.231420 0.916387
O O3 0.126747 0.953679 0.898038
O O4 0.000000 0.000000 0.000000
O O5 0.210410 0.681387 0.955686
O O6 0.394938 0.672125 0.599609
O O7 0.342759 0.906652 0.803506
O O8 0.282877 0.646804 0.990819
O O9 0.180332 0.817584 0.318581
O O10 0.296364 0.592193 0.160789
O O11 0.187816 0.083361 0.371520
O O12 0.500000 0.500000 0.500000
O O13 0.434754 0.205938 0.684745
O O14 0.445311 0.427920 0.801418
O O15 0.363007 0.364170 0.147701
O O16 0.252908 0.365455 0.542193
O O17 0.727541 0.673612 0.853638
#
# Coordination Sequence:
#
# PCOD9249608 Si02
#       8
#     4   4   4   4   4   4   4   4
#     4  11  24  43  68  98 133 178 223 281 345 407
#     4  12  24  43  69  96 135 181 222 279 341 409
#     4  11  22  44  65  97 137 173 228 275 345 407
#     4  12  24  43  68  98 133 178 223 282 346 404
#     4  11  25  42  67  99 135 173 226 280 329 410
#     4  11  24  45  66  99 136 174 229 276 340 406
#     4  10  23  42  68  96 132 180 216 277 342 404
#     4  10  25  42  67  99 134 173 227 282 331 410
#
# _framework density 20.960912
#
# number of rings (size 3 to 8) (size 9 to 14) (size 15 to 20)
#    0.000    1.000    5.000    1.125    3.500    2.000 
#    2.250    1.250    0.000    0.000    0.000    0.000 
#    0.000    0.000    0.000    0.000    0.000    0.000 
#
# Total GULP energy -178153.321815 kJ/mol
# GULP energy per Si atom -5567.291307 kJ/mol
# Density = 2.091320 g / cm^3
# Si number density = 20.960912 Si / 1000 Ang^3
#
#
#
# Elastic Constant Matrix: (Units=GPa)
#
#
# Indices 1 2 3 4 5 6 
#
# 1 32.6653 -7.4728 11.6123 0.0000 -4.3484 0.0000
# 2 -7.4728 64.0048 19.0959 0.0000 -15.1241 0.0000
# 3 11.6123 19.0959 159.8178 0.0000 -12.8036 0.0000
# 4 0.0000 0.0000 0.0000 38.6652 0.0000 -3.6426
# 5 -4.3484 -15.1241 -12.8036 0.0000 32.5137 0.0000
# 6 0.0000 0.0000 0.0000 -3.6426 0.0000 20.0980
#
#
#
# Elastic Compliance Matrix: (Units=1/GPa)
#
#
# Indices 1 2 3 4 5 6 
#
# 1 0.033855 0.006265 -0.002697 0.000000 0.006380 0.000000
# 2 0.006265 0.019063 -0.002019 0.000000 0.008910 0.000000
# 3 -0.002697 -0.002019 0.006805 0.000000 0.001380 0.000000
# 4 0.000000 0.000000 0.000000 0.026312 0.000000 0.004769
# 5 0.006380 0.008910 0.001380 0.000000 0.036297 0.000000
# 6 0.000000 0.000000 0.000000 0.004769 0.000000 0.050620
#
#
# Mechanical properties :
#
#
# Convention : Reuss Voigt Hill
#
# Bulk Modulus (GPa) = 15.91848 33.66205 24.79027
# Shear Modulus (GPa) = 26.20596 33.80556 30.00576
#
# Velocity S-wave (km/s) = 3.53970 4.02031 3.78764
# Velocity P-wave (km/s) = 4.93120 6.13554 5.56604
#
# Compressibility (1/GPa) = 0.06282006
#
# Stress axis : x y z
#
# Youngs Moduli (GPa) = 29.53777 52.45720 146.95276
#
# Poissons Ratio (x) = -0.32864 0.39638
# Poissons Ratio (y) = -0.18505 0.29672
# Poissons Ratio (z) = 0.07967 0.10592
#
# Static dielectric constant tensor:
#      x y z
#    x 1.750560 0.000000 0.016030 
#    y 0.000000 1.856160 0.000000 
#    z 0.016030 0.000000 1.716370 
# 
# From -- ./inp_files/36464.got.cif
#   From: 2010.05.17/outbox.cif.g08.bks.cpg/sg14_19_cif.got.tgz:36464.got - 2010.06.03 17:49:19.
