data_PCOD9249581
_publ_section_title
;
Structure prediction by ZEFSAII (Michael W. Deem and Ramdas Pophale) SiO2 
 PCOD9249581
Probable space group: P 21/C
;
_chemical_formula_sum "Si O2"
_cell_formula_units_Z 20
_cell_length_a 9.099349
_cell_length_b 8.545574
_cell_length_c 13.572958
_cell_angle_alpha 90.000000
_cell_angle_beta 134.785697
_cell_angle_gamma 90.000000
_cell_volume 749.082062
_symmetry_space_group_name_H-M "P 21/C"
_symmetry_group_IT_number 14
_symmetry_cell_setting 'monoclinic'
loop_
_space_group_symop_operation_xyz
x,y,z
-x,1/2+y,1/2-z
-x,-y,-z
x,1/2-y,1/2+z
loop_
_atom_site_type_symbol
_atom_site_label
_atom_site_fract_x
_atom_site_fract_y
_atom_site_fract_z
Si Si1 0.582894 0.667951 0.150682
Si Si2 0.865918 0.423869 0.082125
Si Si3 0.928323 0.192165 0.421176
Si Si4 0.498764 0.485587 0.689893
Si Si5 0.829094 0.643383 0.615624
O O1 0.608679 0.547040 0.254316
O O2 0.742075 0.708280 0.138000
O O3 0.552820 0.834918 0.192442
O O4 0.364907 0.617519 0.997121
O O5 0.885335 0.570398 0.017412
O O6 0.046225 0.452349 0.244161
O O7 0.930379 0.281138 0.038742
O O8 0.705210 0.121033 0.290112
O O9 0.993474 0.327867 0.380758
O O10 0.358184 0.430870 0.532275
#
# Coordination Sequence:
#
# PCOD9249581 Si02
#       5
#     4   4   4   4   4
#     4  11  25  46  69 100 137 181 226 281 337 406
#     4  10  23  42  67  94 140 174 223 275 342 393
#     4  10  23  45  68  94 139 182 215 284 343 393
#     4  11  25  47  71  98 140 183 223 280 345 399
#     4  12  23  40  73 101 128 180 233 274 332 408
#
# _framework density 26.699342000000001
#
# number of rings (size 3 to 8) (size 9 to 14) (size 15 to 20)
#    0.000    1.200    2.000    3.000    8.400    0.800 
#    7.200    5.000    0.000    0.000    0.000    0.000 
#    0.000    0.000    0.000    0.000    0.000    0.000 
#
# Total GULP energy -111858.297511 kJ/mol
# GULP energy per Si atom -5592.914876 kJ/mol
# Density = 2.663857 g / cm^3
# Si number density = 26.699342 Si / 1000 Ang^3
#
#
#
# Elastic Constant Matrix: (Units=GPa)
#
#
# Indices 1 2 3 4 5 6 
#
# 1 141.9053 26.6033 32.4612 0.0000 7.2114 0.0000
# 2 26.6033 42.1425 14.7441 0.0000 11.7962 0.0000
# 3 32.4612 14.7441 195.4192 0.0000 2.0884 0.0000
# 4 0.0000 0.0000 0.0000 17.5727 0.0000 6.1138
# 5 7.2114 11.7962 2.0884 0.0000 37.8018 0.0000
# 6 0.0000 0.0000 0.0000 6.1138 0.0000 44.7850
#
#
#
# Elastic Compliance Matrix: (Units=1/GPa)
#
#
# Indices 1 2 3 4 5 6 
#
# 1 0.008177 -0.004813 -0.000995 0.000000 -0.000003 0.000000
# 2 -0.004813 0.029539 -0.001341 0.000000 -0.008226 0.000000
# 3 -0.000995 -0.001341 0.005380 0.000000 0.000311 0.000000
# 4 0.000000 0.000000 0.000000 0.059744 0.000000 -0.008156
# 5 -0.000003 -0.008226 0.000311 0.000000 0.029004 0.000000
# 6 0.000000 0.000000 0.000000 -0.008156 0.000000 0.023442
#
#
# Mechanical properties :
#
#
# Convention : Reuss Voigt Hill
#
# Bulk Modulus (GPa) = 34.72498 58.56492 46.64495
# Shear Modulus (GPa) = 27.90420 40.40913 34.15666
#
# Velocity S-wave (km/s) = 3.23635 3.89458 3.58062
# Velocity P-wave (km/s) = 5.19610 6.49663 5.88242
#
# Compressibility (1/GPa) = 0.02879771
#
# Stress axis : x y z
#
# Youngs Moduli (GPa) = 122.29375 33.85357 185.86044
#
# Poissons Ratio (x) = 0.16293 0.18496
# Poissons Ratio (y) = 0.58859 0.24929
# Poissons Ratio (z) = 0.12170 0.04541
#
# Static dielectric constant tensor:
#      x y z
#    x 2.147480 0.000000 -0.084760 
#    y 0.000000 2.220550 0.000000 
#    z -0.084760 0.000000 2.151420 
# 
# From -- ./inp_files/39477.got.cif
#   From: 2010.05.17/outbox.cif.g08.bks.cpg/sg14_20_cif.got.tgz:39477.got - 2010.06.03 17:49:19.
