data_PCOD9249488
_publ_section_title
;
Structure prediction by ZEFSAII (Michael W. Deem and Ramdas Pophale) SiO2 
 PCOD9249488
Probable space group: P 21/C
;
_chemical_formula_sum "Si O2"
_cell_formula_units_Z 28
_cell_length_a 25.596343
_cell_length_b 8.436305
_cell_length_c 16.630901
_cell_angle_alpha 90.000000
_cell_angle_beta 22.904652
_cell_angle_gamma 90.000000
_cell_volume 1397.711056
_symmetry_space_group_name_H-M "P 21/C"
_symmetry_group_IT_number 14
_symmetry_cell_setting 'monoclinic'
loop_
_space_group_symop_operation_xyz
x,y,z
-x,1/2+y,1/2-z
-x,-y,-z
x,1/2-y,1/2+z
loop_
_atom_site_type_symbol
_atom_site_label
_atom_site_fract_x
_atom_site_fract_y
_atom_site_fract_z
Si Si1 0.106734 0.175608 0.319446
Si Si2 0.024463 0.255756 0.614084
Si Si3 0.151041 0.962556 0.031448
Si Si4 0.833779 0.269185 0.649334
Si Si5 0.344104 0.016217 0.898801
Si Si6 0.815783 0.476087 0.821732
Si Si7 0.417827 0.774572 0.392647
O O1 0.157602 0.340027 0.206519
O O2 0.096942 0.204203 0.428737
O O3 0.956286 0.153852 0.498105
O O4 0.212875 0.046643 0.140213
O O5 0.966623 0.107329 0.745286
O O6 0.897491 0.364227 0.766322
O O7 0.111925 0.371202 0.545970
O O8 0.168353 0.831288 0.937481
O O9 0.283356 0.986232 0.897409
O O10 0.864755 0.421920 0.663050
O O11 0.687378 0.220769 0.888737
O O12 0.444602 0.162939 0.766400
O O13 0.422439 0.864295 0.821466
O O14 0.661884 0.419851 0.037653
#
# Coordination Sequence:
#
# PCOD9249488 Si02
#       7
#     4   4   4   4   4   4   4
#     4  11  19  39  66  89 120 169 201 245 302 381
#     4  11  21  37  61  95 131 151 204 250 312 352
#     4  12  22  36  61 100 123 157 197 269 308 352
#     4   9  19  37  64  85 124 155 201 243 312 356
#     4  12  25  39  65  90 121 160 216 250 303 359
#     4   9  17  40  61  82 123 166 191 239 294 377
#     4  10  23  42  58  86 120 167 204 248 295 376
#
# _framework density 20.032755000000002
#
# number of rings (size 3 to 8) (size 9 to 14) (size 15 to 20)
#    0.857    0.571    4.286    2.571    0.000    4.000 
#    0.000    0.000    0.000    1.714    0.000    0.000 
#    0.000    0.000    0.000    0.000    0.000    0.000 
#
# Total GULP energy -156236.152900 kJ/mol
# GULP energy per Si atom -5579.862604 kJ/mol
# Density = 1.998716 g / cm^3
# Si number density = 20.032755 Si / 1000 Ang^3
#
#
#
# Elastic Constant Matrix: (Units=GPa)
#
#
# Indices 1 2 3 4 5 6 
#
# 1 122.2779 29.8946 46.8867 0.0000 4.8660 0.0000
# 2 29.8946 62.5064 12.7923 0.0000 1.6516 0.0000
# 3 46.8867 12.7923 67.1101 0.0000 -11.9008 0.0000
# 4 0.0000 0.0000 0.0000 32.8863 0.0000 -7.0523
# 5 4.8660 1.6516 -11.9008 0.0000 24.3511 0.0000
# 6 0.0000 0.0000 0.0000 -7.0523 0.0000 23.7215
#
#
#
# Elastic Compliance Matrix: (Units=1/GPa)
#
#
# Indices 1 2 3 4 5 6 
#
# 1 0.013182 -0.004137 -0.009677 0.000000 -0.007083 0.000000
# 2 -0.004137 0.018140 -0.000700 0.000000 -0.000746 0.000000
# 3 -0.009677 -0.000700 0.024248 0.000000 0.013832 0.000000
# 4 0.000000 0.000000 0.000000 0.032478 0.000000 0.009656
# 5 -0.007083 -0.000746 0.013832 0.000000 0.049292 0.000000
# 6 0.000000 0.000000 0.000000 0.009656 0.000000 0.045026
#
#
# Mechanical properties :
#
#
# Convention : Reuss Voigt Hill
#
# Bulk Modulus (GPa) = 37.67560 47.89350 42.78455
# Shear Modulus (GPa) = 22.70240 27.01318 24.85779
#
# Velocity S-wave (km/s) = 3.37005 3.67611 3.52640
# Velocity P-wave (km/s) = 5.83016 6.47903 6.16314
#
# Compressibility (1/GPa) = 0.02654238
#
# Stress axis : x y z
#
# Youngs Moduli (GPa) = 75.86125 55.12745 41.24051
#
# Poissons Ratio (x) = 0.22805 0.39909
# Poissons Ratio (y) = 0.31383 0.02886
# Poissons Ratio (z) = 0.73412 0.03857
#
# Static dielectric constant tensor:
#      x y z
#    x 1.698100 0.000000 -0.002760 
#    y 0.000000 1.742990 0.000000 
#    z -0.002760 0.000000 1.719520 
# 
# From -- ./inp_files/51123.got.cif
#   From: 2010.05.17/outbox.cif.g08.bks.cpg/sg14_26_cif.got.tgz:51123.got - 2010.06.03 17:49:19.
