data_PCOD9249182
_publ_section_title
;
Structure prediction by ZEFSAII (Michael W. Deem and Ramdas Pophale) SiO2 
 PCOD9249182
Probable space group: P 21/C
;
_chemical_formula_sum "Si O2"
_cell_formula_units_Z 16
_cell_length_a 5.231921
_cell_length_b 13.304524
_cell_length_c 11.079716
_cell_angle_alpha 90.000000
_cell_angle_beta 103.190508
_cell_angle_gamma 90.000000
_cell_volume 750.891470
_symmetry_space_group_name_H-M "P 21/C"
_symmetry_group_IT_number 14
_symmetry_cell_setting 'monoclinic'
loop_
_space_group_symop_operation_xyz
x,y,z
-x,1/2+y,1/2-z
-x,-y,-z
x,1/2-y,1/2+z
loop_
_atom_site_type_symbol
_atom_site_label
_atom_site_fract_x
_atom_site_fract_y
_atom_site_fract_z
Si Si1 0.844496 0.578838 0.565743
Si Si2 0.419553 0.400273 0.921559
Si Si3 0.108333 0.712090 0.120027
Si Si4 0.576424 0.086620 0.176784
O O1 0.597468 0.612451 0.457275
O O2 0.729149 0.516443 0.665096
O O3 0.000000 0.500000 0.500000
O O4 0.026788 0.672724 0.614621
O O5 0.658391 0.319840 0.945176
O O6 0.396916 0.426094 0.776214
O O7 0.151159 0.351971 0.937297
O O8 0.500000 0.500000 0.000000
O O9 0.219950 0.672340 0.260426
#
# Coordination Sequence:
#
# PCOD9249182 Si02
#       4
#     4   4   4   4
#     4  11  23  47  67 106 144 180 235 286 353 420
#     4  10  22  48  65 105 135 179 232 286 345 408
#     4  10  24  45  68 104 136 183 233 278 355 409
#     4   9  24  41  73  99 141 186 226 289 348 411
#
# _framework density 21.308005999999999
#
# number of rings (size 3 to 8) (size 9 to 14) (size 15 to 20)
#    1.500    0.500    0.000    2.250    7.000    0.000 
#   18.000    0.000    0.000    0.000    0.000    0.000 
#    0.000    0.000    0.000    0.000    0.000    0.000 
#
# Total GULP energy -89290.066508 kJ/mol
# GULP energy per Si atom -5580.629157 kJ/mol
# Density = 2.125951 g / cm^3
# Si number density = 21.308006 Si / 1000 Ang^3
#
#
#
# Elastic Constant Matrix: (Units=GPa)
#
#
# Indices 1 2 3 4 5 6 
#
# 1 107.4076 37.3766 13.3439 0.0000 24.9552 0.0000
# 2 37.3766 139.8684 53.1817 0.0000 34.1472 0.0000
# 3 13.3439 53.1817 42.1089 0.0000 11.9449 0.0000
# 4 0.0000 0.0000 0.0000 24.0031 0.0000 2.4225
# 5 24.9552 34.1472 11.9449 0.0000 25.8365 0.0000
# 6 0.0000 0.0000 0.0000 2.4225 0.0000 45.5823
#
#
#
# Elastic Compliance Matrix: (Units=1/GPa)
#
#
# Indices 1 2 3 4 5 6 
#
# 1 0.012034 -0.000542 -0.000040 0.000000 -0.010888 0.000000
# 2 -0.000542 0.017718 -0.018083 0.000000 -0.014533 0.000000
# 3 -0.000040 -0.018083 0.045817 0.000000 0.002756 0.000000
# 4 0.000000 0.000000 0.000000 0.041886 0.000000 -0.002226
# 5 -0.010888 -0.014533 0.002756 0.000000 0.067156 0.000000
# 6 0.000000 0.000000 0.000000 -0.002226 0.000000 0.022057
#
#
# Mechanical properties :
#
#
# Convention : Reuss Voigt Hill
#
# Bulk Modulus (GPa) = 26.15155 55.24324 40.69740
# Shear Modulus (GPa) = 19.47469 31.44989 25.46229
#
# Velocity S-wave (km/s) = 3.02646 3.84600 3.46057
# Velocity P-wave (km/s) = 4.95100 6.76052 5.92524
#
# Compressibility (1/GPa) = 0.03823865
#
# Stress axis : x y z
#
# Youngs Moduli (GPa) = 83.09956 56.43882 21.82609
#
# Poissons Ratio (x) = 0.03062 0.00087
# Poissons Ratio (y) = 0.04508 0.39468
# Poissons Ratio (z) = 0.00330 1.02058
#
# Static dielectric constant tensor:
#      x y z
#    x 1.811670 0.000000 -0.008090 
#    y 0.000000 1.739270 0.000000 
#    z -0.008090 0.000000 1.782720 
# 
# From -- ./inp_files/20333.got.cif
#   From: 2010.05.17/outbox.cif.g08.bks.cpg/sg14_11_cif.got.tgz:20333.got - 2010.06.03 17:49:19.
