data_PCOD9249564
_publ_section_title
;
Structure prediction by ZEFSAII (Michael W. Deem and Ramdas Pophale) SiO2 
 PCOD9249564
Probable space group: P 21/C
;
_chemical_formula_sum "Si O2"
_cell_formula_units_Z 32
_cell_length_a 22.247900
_cell_length_b 7.599696
_cell_length_c 13.694124
_cell_angle_alpha 90.000000
_cell_angle_beta 147.338887
_cell_angle_gamma 90.000000
_cell_volume 1249.530951
_symmetry_space_group_name_H-M "P 21/C"
_symmetry_group_IT_number 14
_symmetry_cell_setting 'monoclinic'
loop_
_space_group_symop_operation_xyz
x,y,z
-x,1/2+y,1/2-z
-x,-y,-z
x,1/2-y,1/2+z
loop_
_atom_site_type_symbol
_atom_site_label
_atom_site_fract_x
_atom_site_fract_y
_atom_site_fract_z
Si Si1 0.573491 0.342049 0.955460
Si Si2 0.947250 0.022284 0.565535
Si Si3 0.373762 0.167558 0.800935
Si Si4 0.875920 0.207848 0.107950
Si Si5 0.682938 0.078192 0.972441
Si Si6 0.454331 0.846330 0.801957
Si Si7 0.774822 0.937232 0.816964
Si Si8 0.846998 0.818678 0.256373
O O1 0.467158 0.277848 0.869499
O O2 0.643314 0.168612 0.017899
O O3 0.538618 0.410740 0.799954
O O4 0.659991 0.466598 0.128381
O O5 0.882010 0.107163 0.564566
O O6 0.046413 0.158250 0.668422
O O7 0.873002 0.971009 0.372127
O O8 0.008264 0.847602 0.685592
O O9 0.261623 0.273069 0.665104
O O10 0.373614 0.977718 0.749892
O O11 0.430535 0.149836 0.984580
O O12 0.787986 0.187331 0.073954
O O13 0.844721 0.069276 0.979473
O O14 0.591759 0.147368 0.768876
O O15 0.731776 0.882675 0.048638
O O16 0.831196 0.859609 0.795866
#
# Coordination Sequence:
#
# PCOD9249564 Si02
#       8
#     4   4   4   4   4   4   4   4
#     4  10  24  42  65  97 137 181 221 274 331 383
#     4  10  23  43  67  93 130 168 214 281 345 397
#     4  11  24  42  64  98 137 178 230 273 329 390
#     4  11  23  42  67  97 130 170 222 273 338 399
#     4   9  22  42  68  94 128 175 223 276 325 397
#     4   9  24  40  66  97 128 184 222 276 332 389
#     4  12  26  39  66 100 133 178 225 275 322 409
#     4  10  23  42  66  96 130 170 217 277 339 397
#
# _framework density 25.609611000000001
#
# number of rings (size 3 to 8) (size 9 to 14) (size 15 to 20)
#    0.750    1.000    0.000    2.625    7.000    4.500 
#    0.000    0.000    0.000    0.000    0.000    0.000 
#    0.000    0.000    0.000    0.000    0.000    0.000 
#
# Total GULP energy -179106.398924 kJ/mol
# GULP energy per Si atom -5597.074966 kJ/mol
# Density = 2.555132 g / cm^3
# Si number density = 25.609611 Si / 1000 Ang^3
#
#
#
# Elastic Constant Matrix: (Units=GPa)
#
#
# Indices 1 2 3 4 5 6 
#
# 1 81.0281 5.0256 22.1311 0.0000 -0.8360 0.0000
# 2 5.0256 53.8273 27.8056 0.0000 2.6312 0.0000
# 3 22.1311 27.8056 85.4927 0.0000 -18.5970 0.0000
# 4 0.0000 0.0000 0.0000 36.7489 0.0000 -7.7981
# 5 -0.8360 2.6312 -18.5970 0.0000 32.8979 0.0000
# 6 0.0000 0.0000 0.0000 -7.7981 0.0000 43.9165
#
#
#
# Elastic Compliance Matrix: (Units=1/GPa)
#
#
# Indices 1 2 3 4 5 6 
#
# 1 0.013426 0.001073 -0.004297 0.000000 -0.002174 0.000000
# 2 0.001073 0.023798 -0.009607 0.000000 -0.007307 0.000000
# 3 -0.004297 -0.009607 0.018331 0.000000 0.011022 0.000000
# 4 0.000000 0.000000 0.000000 0.028277 0.000000 0.005021
# 5 -0.002174 -0.007307 0.011022 0.000000 0.037157 0.000000
# 6 0.000000 0.000000 0.000000 0.005021 0.000000 0.023662
#
#
# Mechanical properties :
#
#
# Convention : Reuss Voigt Hill
#
# Bulk Modulus (GPa) = 33.45400 36.69698 35.07549
# Shear Modulus (GPa) = 27.73481 33.73838 30.73660
#
# Velocity S-wave (km/s) = 3.29444 3.63355 3.46815
# Velocity P-wave (km/s) = 5.25001 5.65368 5.45558
#
# Compressibility (1/GPa) = 0.02989180
#
# Stress axis : x y z
#
# Youngs Moduli (GPa) = 74.48153 42.02087 54.55100
#
# Poissons Ratio (x) = -0.04507 0.23442
# Poissons Ratio (y) = -0.07989 0.52407
# Poissons Ratio (z) = 0.32007 0.40370
#
# Static dielectric constant tensor:
#      x y z
#    x 1.999080 0.000000 0.034630 
#    y 0.000000 2.059040 0.000000 
#    z 0.034630 0.000000 2.061990 
# 
# From -- ./inp_files/51284.got.cif
#   From: 2010.05.17/outbox.cif.g08.bks.cpg/sg14_26_cif.got.tgz:51284.got - 2010.06.03 17:49:19.
