data_PCOD9249860
_publ_section_title
;
Structure prediction by ZEFSAII (Michael W. Deem and Ramdas Pophale) SiO2 
 PCOD9249860
Probable space group: P 21/C
;
_chemical_formula_sum "Si O2"
_cell_formula_units_Z 32
_cell_length_a 8.433421
_cell_length_b 12.488929
_cell_length_c 16.667451
_cell_angle_alpha 90.000000
_cell_angle_beta 124.890292
_cell_angle_gamma 90.000000
_cell_volume 1439.937930
_symmetry_space_group_name_H-M "P 21/C"
_symmetry_group_IT_number 14
_symmetry_cell_setting 'monoclinic'
loop_
_space_group_symop_operation_xyz
x,y,z
-x,1/2+y,1/2-z
-x,-y,-z
x,1/2-y,1/2+z
loop_
_atom_site_type_symbol
_atom_site_label
_atom_site_fract_x
_atom_site_fract_y
_atom_site_fract_z
Si Si1 0.160520 0.824478 0.214278
Si Si2 0.887020 0.380375 0.999717
Si Si3 0.707593 0.556078 0.054928
Si Si4 0.846206 0.274251 0.619581
Si Si5 0.205618 0.074454 0.235392
Si Si6 0.189697 0.245082 0.001897
Si Si7 0.510545 0.075531 0.081289
Si Si8 0.606762 0.124878 0.272722
O O1 0.106245 0.804501 0.291946
O O2 0.335800 0.743630 0.242718
O O3 0.985312 0.786960 0.107401
O O4 0.198495 0.949153 0.210091
O O5 0.770761 0.402622 0.884817
O O6 0.089863 0.319263 0.041548
O O7 0.858146 0.485751 0.045701
O O8 0.784552 0.290021 0.023483
O O9 0.790726 0.574864 0.167062
O O10 0.676700 0.669713 0.004403
O O11 0.500000 0.500000 0.000000
O O12 0.666944 0.340925 0.596833
O O13 0.022805 0.355695 0.655203
O O14 0.403138 0.123220 0.258842
O O15 0.312956 0.137349 0.048838
O O16 0.594176 0.043268 0.193327
O O17 0.500000 0.000000 0.000000
#
# Coordination Sequence:
#
# PCOD9249860 Si02
#       8
#     4   4   4   4   4   4   4   4
#     4  10  23  44  66  99 143 182 233 296 356 438
#     4  11  23  44  70 103 142 186 232 303 366 432
#     4  12  23  40  70 105 138 190 236 296 368 430
#     4  11  23  42  70 101 136 186 234 290 371 434
#     4  12  23  44  72 104 144 187 242 295 366 440
#     4  11  24  44  66 101 143 181 242 297 356 436
#     4  11  25  46  69  99 140 191 241 297 359 438
#     4  10  25  43  67 103 140 183 241 297 353 435
#
# _framework density 22.223181
#
# number of rings (size 3 to 8) (size 9 to 14) (size 15 to 20)
#    0.000    1.000    3.750    2.625    1.750    2.000 
#    0.000    5.625    0.000    0.000    0.000    0.000 
#    0.000    0.000    0.000    0.000    0.000    0.000 
#
# Total GULP energy -178617.356351 kJ/mol
# GULP energy per Si atom -5581.792386 kJ/mol
# Density = 2.217260 g / cm^3
# Si number density = 22.223181 Si / 1000 Ang^3
#
#
#
# Elastic Constant Matrix: (Units=GPa)
#
#
# Indices 1 2 3 4 5 6 
#
# 1 110.4320 44.4607 30.6020 0.0000 4.4261 0.0000
# 2 44.4607 89.3889 35.4792 0.0000 -3.5202 0.0000
# 3 30.6020 35.4792 100.2610 0.0000 -18.8719 0.0000
# 4 0.0000 0.0000 0.0000 24.3754 0.0000 -6.9681
# 5 4.4261 -3.5202 -18.8719 0.0000 35.9699 0.0000
# 6 0.0000 0.0000 0.0000 -6.9681 0.0000 40.9409
#
#
#
# Elastic Compliance Matrix: (Units=1/GPa)
#
#
# Indices 1 2 3 4 5 6 
#
# 1 0.011909 -0.005079 -0.002449 0.000000 -0.003247 0.000000
# 2 -0.005079 0.015234 -0.003819 0.000000 0.000112 0.000000
# 3 -0.002449 -0.003819 0.013381 0.000000 0.006948 0.000000
# 4 0.000000 0.000000 0.000000 0.043123 0.000000 0.007340
# 5 -0.003247 0.000112 0.006948 0.000000 0.031857 0.000000
# 6 0.000000 0.000000 0.000000 0.007340 0.000000 0.025675
#
#
# Mechanical properties :
#
#
# Convention : Reuss Voigt Hill
#
# Bulk Modulus (GPa) = 56.08923 57.90728 56.99826
# Shear Modulus (GPa) = 29.44366 32.89323 31.16845
#
# Velocity S-wave (km/s) = 3.64388 3.85142 3.74909
# Velocity P-wave (km/s) = 6.55726 6.77434 6.66668
#
# Compressibility (1/GPa) = 0.01782873
#
# Stress axis : x y z
#
# Youngs Moduli (GPa) = 83.96973 65.64346 74.73455
#
# Poissons Ratio (x) = 0.33343 0.18300
# Poissons Ratio (y) = 0.42651 0.28544
# Poissons Ratio (z) = 0.20562 0.25071
#
# Static dielectric constant tensor:
#      x y z
#    x 1.847740 0.000000 -0.032470 
#    y 0.000000 1.823690 0.000000 
#    z -0.032470 0.000000 1.886530 
# 
# From -- ./inp_files/55613.got.cif
#   From: 2010.05.17/outbox.cif.g08.bks.cpg/sg14_28_cif.got.tgz:55613.got - 2010.06.03 17:49:19.
