data_PCOD9249437
_publ_section_title
;
Structure prediction by ZEFSAII (Michael W. Deem and Ramdas Pophale) SiO2 
 PCOD9249437
Probable space group: P 21/C
;
_chemical_formula_sum "Si O2"
_cell_formula_units_Z 28
_cell_length_a 12.514780
_cell_length_b 10.009318
_cell_length_c 18.012725
_cell_angle_alpha 90.000000
_cell_angle_beta 31.688682
_cell_angle_gamma 90.000000
_cell_volume 1185.270517
_symmetry_space_group_name_H-M "P 21/C"
_symmetry_group_IT_number 14
_symmetry_cell_setting 'monoclinic'
loop_
_space_group_symop_operation_xyz
x,y,z
-x,1/2+y,1/2-z
-x,-y,-z
x,1/2-y,1/2+z
loop_
_atom_site_type_symbol
_atom_site_label
_atom_site_fract_x
_atom_site_fract_y
_atom_site_fract_z
Si Si1 0.809604 0.962970 0.960662
Si Si2 0.347251 0.169515 0.431672
Si Si3 0.224096 0.654589 0.854721
Si Si4 0.614703 0.245946 0.590826
Si Si5 0.232277 0.909351 0.765279
Si Si6 0.834438 0.036416 0.356657
Si Si7 0.784899 0.854872 0.658454
O O1 0.998550 0.961926 0.909489
O O2 0.933579 0.957172 0.809472
O O3 0.671134 0.829798 0.044773
O O4 0.692766 0.101157 0.041333
O O5 0.558702 0.081651 0.311209
O O6 0.255820 0.145664 0.405474
O O7 0.209256 0.100578 0.575738
O O8 0.382329 0.693189 0.825943
O O9 0.205025 0.752750 0.796815
O O10 0.243616 0.509919 0.807963
O O11 0.020409 0.675209 0.024648
O O12 0.753434 0.153888 0.457357
O O13 0.376242 0.256446 0.708997
O O14 0.284116 0.948871 0.651126
#
# Coordination Sequence:
#
# PCOD9249437 Si02
#       7
#     4   4   4   4   4   4   4
#     4  10  25  41  66  95 131 171 221 268 327 384
#     4  12  20  45  67  91 138 173 211 279 323 392
#     4  11  23  44  65  99 134 171 216 278 320 395
#     4  12  24  44  70 101 131 174 223 267 328 394
#     4  10  23  41  66  95 131 166 223 266 327 380
#     4  10  24  44  65  96 131 175 218 267 330 392
#     4  11  24  40  69  98 132 173 220 264 342 380
#
# _framework density 23.623298999999999
#
# number of rings (size 3 to 8) (size 9 to 14) (size 15 to 20)
#    0.857    0.286    4.286    2.143    0.000    1.714 
#    2.571    1.429    0.000    0.000    0.000    0.000 
#    0.000    0.000    0.000    0.000    0.000    0.000 
#
# Total GULP energy -156023.258590 kJ/mol
# GULP energy per Si atom -5572.259235 kJ/mol
# Density = 2.356953 g / cm^3
# Si number density = 23.623299 Si / 1000 Ang^3
#
#
#
# Elastic Constant Matrix: (Units=GPa)
#
#
# Indices 1 2 3 4 5 6 
#
# 1 27.9030 3.2581 0.3226 0.0000 -8.4897 0.0000
# 2 3.2581 91.7494 19.4340 0.0000 10.9670 0.0000
# 3 0.3226 19.4340 95.0358 0.0000 -12.7935 0.0000
# 4 0.0000 0.0000 0.0000 68.1287 0.0000 -151.7118
# 5 -8.4897 10.9670 -12.7935 0.0000 41.0941 0.0000
# 6 0.0000 0.0000 0.0000 -151.7118 0.0000 761.8604
#
#
#
# Elastic Compliance Matrix: (Units=1/GPa)
#
#
# Indices 1 2 3 4 5 6 
#
# 1 0.039000 -0.002866 0.001713 0.000000 0.009355 0.000000
# 2 -0.002866 0.012246 -0.003146 0.000000 -0.004840 0.000000
# 3 0.001713 -0.003146 0.011816 0.000000 0.004872 0.000000
# 4 0.000000 0.000000 0.000000 0.026373 0.000000 0.005252
# 5 0.009355 -0.004840 0.004872 0.000000 0.029075 0.000000
# 6 0.000000 0.000000 0.000000 0.005252 0.000000 0.002358
#
#
# Mechanical properties :
#
#
# Convention : Reuss Voigt Hill
#
# Bulk Modulus (GPa) = 18.36095 28.96864 23.66479
# Shear Modulus (GPa) = 33.87072 186.99489 110.43280
#
# Velocity S-wave (km/s) = 3.79064 8.90667 6.84463
# Velocity P-wave (km/s) = 5.19114 10.86559 8.51496
#
# Compressibility (1/GPa) = 0.05446342
#
# Stress axis : x y z
#
# Youngs Moduli (GPa) = 25.64125 81.66011 84.63314
#
# Poissons Ratio (x) = 0.23404 -0.14498
# Poissons Ratio (y) = 0.07349 0.26625
# Poissons Ratio (z) = -0.04393 0.25690
#
# Static dielectric constant tensor:
#      x y z
#    x 1.884540 0.000000 -0.097920 
#    y 0.000000 1.911260 0.000000 
#    z -0.097920 0.000000 2.005310 
# 
# From -- ./inp_files/68301.got.cif
#   From: 2010.05.17/outbox.cif.g08.bks.cpg/sg14_35_cif.got.tgz:68301.got - 2010.06.03 17:49:19.
