data_PCOD9249476
_publ_section_title
;
Structure prediction by ZEFSAII (Michael W. Deem and Ramdas Pophale) SiO2 
 PCOD9249476
Probable space group: P 21/C
;
_chemical_formula_sum "Si O2"
_cell_formula_units_Z 16
_cell_length_a 5.210918
_cell_length_b 8.270356
_cell_length_c 15.798071
_cell_angle_alpha 90.000000
_cell_angle_beta 54.973815
_cell_angle_gamma 90.000000
_cell_volume 557.529665
_symmetry_space_group_name_H-M "P 21/C"
_symmetry_group_IT_number 14
_symmetry_cell_setting 'monoclinic'
loop_
_space_group_symop_operation_xyz
x,y,z
-x,1/2+y,1/2-z
-x,-y,-z
x,1/2-y,1/2+z
loop_
_atom_site_type_symbol
_atom_site_label
_atom_site_fract_x
_atom_site_fract_y
_atom_site_fract_z
Si Si1 0.401684 0.098807 0.250534
Si Si2 0.940401 0.832936 0.896979
Si Si3 0.075947 0.653894 0.706757
Si Si4 0.337030 0.419973 0.950901
O O1 0.692999 0.183820 0.149067
O O2 0.070611 0.194005 0.318301
O O3 0.511635 0.075449 0.327565
O O4 0.346262 0.930915 0.213563
O O5 0.921930 0.014412 0.865928
O O6 0.882378 0.714392 0.828050
O O7 0.718211 0.767090 0.011803
O O8 0.500000 0.500000 0.000000
O O9 0.000000 0.500000 0.000000
#
# Coordination Sequence:
#
# PCOD9249476 Si02
#       4
#     4   4   4   4
#     4  11  24  45  71 110 147 195 252 300 380 435
#     4  11  23  44  71 104 146 193 241 308 369 436
#     4  10  23  41  70 103 147 195 243 310 366 444
#     4  12  28  47  76 111 147 197 249 303 368 448
#
# _framework density 28.698025999999999
#
# number of rings (size 3 to 8) (size 9 to 14) (size 15 to 20)
#    0.000    1.000    2.500    3.000   10.500    1.000 
#    0.000    2.500    0.000    0.000    0.000    0.000 
#    0.000    0.000    0.000    0.000    0.000    0.000 
#
# Total GULP energy -89133.749317 kJ/mol
# GULP energy per Si atom -5570.859332 kJ/mol
# Density = 2.863271 g / cm^3
# Si number density = 28.698026 Si / 1000 Ang^3
#
#
#
# Elastic Constant Matrix: (Units=GPa)
#
#
# Indices 1 2 3 4 5 6 
#
# 1 180.4630 46.7419 32.3633 0.0000 30.2235 0.0000
# 2 46.7419 142.7830 61.9438 0.0000 -1.4070 0.0000
# 3 32.3633 61.9438 93.4335 0.0000 21.2409 0.0000
# 4 0.0000 0.0000 0.0000 61.0985 0.0000 9.5565
# 5 30.2235 -1.4070 21.2409 0.0000 28.4951 0.0000
# 6 0.0000 0.0000 0.0000 9.5565 0.0000 66.5791
#
#
#
# Elastic Compliance Matrix: (Units=1/GPa)
#
#
# Indices 1 2 3 4 5 6 
#
# 1 0.007724 -0.003395 0.001777 0.000000 -0.009685 0.000000
# 2 -0.003395 0.012412 -0.009645 0.000000 0.011403 0.000000
# 3 0.001777 -0.009645 0.020491 0.000000 -0.017635 0.000000
# 4 0.000000 0.000000 0.000000 0.016743 0.000000 -0.002403
# 5 -0.009685 0.011403 -0.017635 0.000000 0.059075 0.000000
# 6 0.000000 0.000000 0.000000 -0.002403 0.000000 0.015365
#
#
# Mechanical properties :
#
#
# Convention : Reuss Voigt Hill
#
# Bulk Modulus (GPa) = 55.24691 77.64192 66.44441
# Shear Modulus (GPa) = 31.17824 49.60992 40.39408
#
# Velocity S-wave (km/s) = 3.29967 4.16226 3.75581
# Velocity P-wave (km/s) = 5.81464 7.08609 6.48162
#
# Compressibility (1/GPa) = 0.01810056
#
# Stress axis : x y z
#
# Youngs Moduli (GPa) = 129.46834 80.56914 48.80216
#
# Poissons Ratio (x) = 0.27352 -0.08672
# Poissons Ratio (y) = 0.43953 0.47070
# Poissons Ratio (z) = -0.23007 0.77710
#
# Static dielectric constant tensor:
#      x y z
#    x 2.378570 0.000000 -0.006490 
#    y 0.000000 2.436910 0.000000 
#    z -0.006490 0.000000 2.151770 
# 
# From -- ./inp_files/36758.got.cif
#   From: 2010.05.17/outbox.cif.g08.bks.cpg/sg14_19_cif.got.tgz:36758.got - 2010.06.03 17:49:19.
