data_PCOD9249760
_publ_section_title
;
Structure prediction by ZEFSAII (Michael W. Deem and Ramdas Pophale) SiO2 
 PCOD9249760
Probable space group: P 21/C
;
_chemical_formula_sum "Si O2"
_cell_formula_units_Z 22
_cell_length_a 5.412511
_cell_length_b 10.638840
_cell_length_c 15.115946
_cell_angle_alpha 90.000000
_cell_angle_beta 111.183433
_cell_angle_gamma 90.000000
_cell_volume 811.603403
_symmetry_space_group_name_H-M "P 21/C"
_symmetry_group_IT_number 14
_symmetry_cell_setting 'monoclinic'
loop_
_space_group_symop_operation_xyz
x,y,z
-x,1/2+y,1/2-z
-x,-y,-z
x,1/2-y,1/2+z
loop_
_atom_site_type_symbol
_atom_site_label
_atom_site_fract_x
_atom_site_fract_y
_atom_site_fract_z
Si Si1 0.687644 0.257277 0.546373
Si Si2 0.966778 0.507321 0.345667
Si Si3 0.534224 0.813002 0.801382
Si Si4 0.000000 0.500000 0.000000
Si Si5 0.120755 0.084035 0.675370
Si Si6 0.883243 0.260064 0.892304
O O1 0.484410 0.280009 0.597972
O O2 0.652903 0.254311 0.437497
O O3 0.880213 0.377635 0.589327
O O4 0.851353 0.125655 0.585195
O O5 0.658918 0.549400 0.307536
O O6 0.013611 0.376502 0.400454
O O7 0.051247 0.485258 0.255546
O O8 0.730294 0.711647 0.783716
O O9 0.255588 0.787227 0.718926
O O10 0.246401 0.483468 0.106648
O O11 0.925075 0.631060 0.047691
#
# Coordination Sequence:
#
# PCOD9249760 Si02
#       6
#     4   4   4   2   4   4
#     4  10  23  44  64  99 135 177 230 281 346 417
#     4  11  24  43  70  98 140 182 227 288 349 408
#     4  11  25  44  69 101 136 180 234 283 345 417
#     4  10  24  42  72  98 138 182 226 282 348 406
#     4  10  23  43  68  99 138 179 228 289 344 407
#     4  11  24  44  70 101 135 184 228 287 350 410
#
# _framework density 27.106833000000002
#
# number of rings (size 3 to 8) (size 9 to 14) (size 15 to 20)
#    0.000    1.455    1.818    1.636    7.636    2.182 
#    6.545    3.636    0.000    0.000    0.000    0.000 
#    0.000    0.000    0.000    0.000    0.000    0.000 
#
# Total GULP energy -122627.332635 kJ/mol
# GULP energy per Si atom -5573.969665 kJ/mol
# Density = 2.704514 g / cm^3
# Si number density = 27.106833 Si / 1000 Ang^3
#
#
#
# Elastic Constant Matrix: (Units=GPa)
#
#
# Indices 1 2 3 4 5 6 
#
# 1 47.6171 11.1411 12.2363 0.0000 -16.8321 0.0000
# 2 11.1411 138.3165 35.3442 0.0000 4.8047 0.0000
# 3 12.2363 35.3442 144.3857 0.0000 -13.4746 0.0000
# 4 0.0000 0.0000 0.0000 44.1459 0.0000 -9.0333
# 5 -16.8321 4.8047 -13.4746 0.0000 39.2831 0.0000
# 6 0.0000 0.0000 0.0000 -9.0333 0.0000 32.8344
#
#
#
# Elastic Compliance Matrix: (Units=1/GPa)
#
#
# Indices 1 2 3 4 5 6 
#
# 1 0.025592 -0.002298 -0.000575 0.000000 0.011050 0.000000
# 2 -0.002298 0.008023 -0.002017 0.000000 -0.002658 0.000000
# 3 -0.000575 -0.002017 0.007715 0.000000 0.002647 0.000000
# 4 0.000000 0.000000 0.000000 0.024003 0.000000 0.006604
# 5 0.011050 -0.002658 0.002647 0.000000 0.031424 0.000000
# 6 0.000000 0.000000 0.000000 0.006604 0.000000 0.032273
#
#
# Mechanical properties :
#
#
# Convention : Reuss Voigt Hill
#
# Bulk Modulus (GPa) = 31.69635 49.75138 40.72386
# Shear Modulus (GPa) = 33.48336 41.35920 37.42128
#
# Velocity S-wave (km/s) = 3.51841 3.91037 3.71955
# Velocity P-wave (km/s) = 5.31263 6.22749 5.78817
#
# Compressibility (1/GPa) = 0.03154938
#
# Stress axis : x y z
#
# Youngs Moduli (GPa) = 39.07424 124.64645 129.61069
#
# Poissons Ratio (x) = 0.28647 0.07454
# Poissons Ratio (y) = 0.08980 0.26144
# Poissons Ratio (z) = 0.02247 0.25143
#
# Static dielectric constant tensor:
#      x y z
#    x 2.071140 0.000000 0.291410 
#    y 0.000000 2.060180 0.000000 
#    z 0.291410 0.000000 1.700640 
# 
# From -- ./inp_files/37033.got.cif
#   From: 2010.05.17/outbox.cif.g08.bks.cpg/sg14_19_cif.got.tgz:37033.got - 2010.06.03 17:49:19.
