data_PCOD9249162
_publ_section_title
;
Structure prediction by ZEFSAII (Michael W. Deem and Ramdas Pophale) SiO2 
 PCOD9249162
Probable space group: P 21/C
;
_chemical_formula_sum "Si O2"
_cell_formula_units_Z 24
_cell_length_a 10.984182
_cell_length_b 10.787853
_cell_length_c 19.904539
_cell_angle_alpha 90.000000
_cell_angle_beta 158.229422
_cell_angle_gamma 90.000000
_cell_volume 874.784658
_symmetry_space_group_name_H-M "P 21/C"
_symmetry_group_IT_number 14
_symmetry_cell_setting 'monoclinic'
loop_
_space_group_symop_operation_xyz
x,y,z
-x,1/2+y,1/2-z
-x,-y,-z
x,1/2-y,1/2+z
loop_
_atom_site_type_symbol
_atom_site_label
_atom_site_fract_x
_atom_site_fract_y
_atom_site_fract_z
Si Si1 0.793564 0.954903 0.528635
Si Si2 0.232988 0.010050 0.920465
Si Si3 0.146180 0.718166 0.708316
Si Si4 0.077740 0.641934 0.527438
Si Si5 0.347627 0.400040 0.264058
Si Si6 0.303825 0.336649 0.809201
O O1 0.488397 0.857453 0.372452
O O2 0.084052 0.859803 0.697633
O O3 0.618845 0.073765 0.474669
O O4 0.992476 0.037395 0.574145
O O5 0.395323 0.001634 0.077651
O O6 0.036613 0.138171 0.828207
O O7 0.500000 0.000000 0.000000
O O8 0.960109 0.901062 0.778818
O O9 0.015103 0.714667 0.563906
O O10 0.457519 0.654294 0.699308
O O11 0.000000 0.500000 0.500000
O O12 0.862105 0.668348 0.350856
O O13 0.368572 0.308863 0.340820
#
# Coordination Sequence:
#
# PCOD9249162 Si02
#       6
#     4   4   4   4   4   4
#     4  11  23  42  67  97 137 180 222 281 335 404
#     4  10  22  47  69  88 135 180 220 288 341 398
#     4  11  24  42  63 101 139 174 230 277 338 407
#     4  11  21  40  63  93 140 175 219 273 336 410
#     4  11  23  42  67  98 130 176 229 276 342 410
#     4  10  23  43  66  98 133 173 229 278 338 411
#
# _framework density 27.435321999999999
#
# number of rings (size 3 to 8) (size 9 to 14) (size 15 to 20)
#    0.000    1.333    5.000    3.000    2.333    0.667 
#    9.000    3.333    0.000    0.000    0.000    0.000 
#    0.000    0.000    0.000    0.000    0.000    0.000 
#
# Total GULP energy -133646.820399 kJ/mol
# GULP energy per Si atom -5568.617517 kJ/mol
# Density = 2.737288 g / cm^3
# Si number density = 27.435322 Si / 1000 Ang^3
#
#
#
# Elastic Constant Matrix: (Units=GPa)
#
#
# Indices 1 2 3 4 5 6 
#
# 1 183.3807 54.0490 53.1318 0.0000 46.6037 0.0000
# 2 54.0490 113.7535 73.1357 0.0000 31.5943 0.0000
# 3 53.1318 73.1357 70.9973 0.0000 35.1815 0.0000
# 4 0.0000 0.0000 0.0000 57.5842 0.0000 0.9132
# 5 46.6037 31.5943 35.1815 0.0000 64.8793 0.0000
# 6 0.0000 0.0000 0.0000 0.9132 0.0000 20.6091
#
#
#
# Elastic Compliance Matrix: (Units=1/GPa)
#
#
# Indices 1 2 3 4 5 6 
#
# 1 0.007412 -0.000254 -0.003703 0.000000 -0.003192 0.000000
# 2 -0.000254 0.026352 -0.028288 0.000000 0.002690 0.000000
# 3 -0.003703 -0.028288 0.051761 0.000000 -0.011632 0.000000
# 4 0.000000 0.000000 0.000000 0.017378 0.000000 -0.000770
# 5 -0.003192 0.002690 -0.011632 0.000000 0.022704 0.000000
# 6 0.000000 0.000000 0.000000 -0.000770 0.000000 0.048556
#
#
# Mechanical properties :
#
#
# Convention : Reuss Voigt Hill
#
# Bulk Modulus (GPa) = 47.54268 80.97381 64.25825
# Shear Modulus (GPa) = 20.35271 41.13553 30.74412
#
# Velocity S-wave (km/s) = 2.72664 3.87636 3.35117
# Velocity P-wave (km/s) = 5.22296 7.04368 6.20051
#
# Compressibility (1/GPa) = 0.02103373
#
# Stress axis : x y z
#
# Youngs Moduli (GPa) = 134.90982 37.94740 19.31960
#
# Poissons Ratio (x) = 0.00965 0.07154
# Poissons Ratio (y) = 0.03432 0.54652
# Poissons Ratio (z) = 0.49959 1.07347
#
# Static dielectric constant tensor:
#      x y z
#    x 2.113330 0.000000 -0.024590 
#    y 0.000000 2.182550 0.000000 
#    z -0.024590 0.000000 1.996860 
# 
# From -- ./inp_files/73325.got.cif
#   From: 2010.05.17/outbox.cif.g08.bks.cpg/sg14_37_cif.got.tgz:73325.got - 2010.06.03 17:49:19.
