data_PCOD9249017
_publ_section_title
;
Structure prediction by ZEFSAII (Michael W. Deem and Ramdas Pophale) SiO2 
 PCOD9249017
Probable space group: P 21/C
;
_chemical_formula_sum "Si O2"
_cell_formula_units_Z 22
_cell_length_a 19.007669
_cell_length_b 4.944102
_cell_length_c 8.980854
_cell_angle_alpha 90.000000
_cell_angle_beta 107.170730
_cell_angle_gamma 90.000000
_cell_volume 806.366497
_symmetry_space_group_name_H-M "P 21/C"
_symmetry_group_IT_number 14
_symmetry_cell_setting 'monoclinic'
loop_
_space_group_symop_operation_xyz
x,y,z
-x,1/2+y,1/2-z
-x,-y,-z
x,1/2-y,1/2+z
loop_
_atom_site_type_symbol
_atom_site_label
_atom_site_fract_x
_atom_site_fract_y
_atom_site_fract_z
Si Si1 0.549690 0.018425 0.777016
Si Si2 0.121679 0.223625 0.890658
Si Si3 0.000000 0.500000 0.000000
Si Si4 0.860830 0.214953 0.801227
Si Si5 0.356536 0.334914 0.936788
Si Si6 0.740565 0.981845 0.360545
O O1 0.479752 0.817858 0.712764
O O2 0.596417 0.000453 0.654551
O O3 0.594478 0.881162 0.940133
O O4 0.122690 0.421660 0.749043
O O5 0.133800 0.928514 0.830765
O O6 0.191711 0.308784 0.031190
O O7 0.043316 0.278266 0.917074
O O8 0.074996 0.678604 0.052773
O O9 0.780698 0.252893 0.823101
O O10 0.299330 0.166791 0.799906
O O11 0.314997 0.511127 0.036326
#
# Coordination Sequence:
#
# PCOD9249017 Si02
#       6
#     4   4   2   4   4   4
#     4  11  24  47  71 105 143 182 234 288 347 424
#     4  11  24  44  67  99 142 180 240 288 357 413
#     4  10  24  40  70 100 132 192 230 302 346 424
#     4  11  24  44  67  99 142 180 240 288 357 413
#     4  10  22  46  72 108 140 192 232 288 358 420
#     4  10  22  45  70 105 143 187 233 293 346 427
#
# _framework density 27.282879999999999
#
# number of rings (size 3 to 8) (size 9 to 14) (size 15 to 20)
#    0.000    1.455    1.818    2.182    0.000    7.273 
#   13.091    0.000    0.000    0.000    0.000    0.000 
#    0.000    0.000    0.000    0.000    0.000    0.000 
#
# Total GULP energy -123114.590067 kJ/mol
# GULP energy per Si atom -5596.117730 kJ/mol
# Density = 2.722078 g / cm^3
# Si number density = 27.282880 Si / 1000 Ang^3
#
#
#
# Elastic Constant Matrix: (Units=GPa)
#
#
# Indices 1 2 3 4 5 6 
#
# 1 193.5031 35.3363 46.8295 0.0000 -41.4870 0.0000
# 2 35.3363 62.5631 26.4258 0.0000 -8.5403 0.0000
# 3 46.8295 26.4258 116.1665 0.0000 -5.1736 0.0000
# 4 0.0000 0.0000 0.0000 45.6107 0.0000 7.7433
# 5 -41.4870 -8.5403 -5.1736 0.0000 46.0288 0.0000
# 6 0.0000 0.0000 0.0000 7.7433 0.0000 -70.6305
#
#
#
# Elastic Compliance Matrix: (Units=1/GPa)
#
#
# Indices 1 2 3 4 5 6 
#
# 1 0.007427 -0.002461 -0.002167 0.000000 0.005994 0.000000
# 2 -0.002461 0.018877 -0.003261 0.000000 0.000918 0.000000
# 3 -0.002167 -0.003261 0.010161 0.000000 -0.001416 0.000000
# 4 0.000000 0.000000 0.000000 0.021524 0.000000 0.002360
# 5 0.005994 0.000918 -0.001416 0.000000 0.027139 0.000000
# 6 0.000000 0.000000 0.000000 0.002360 0.000000 -0.013899
#
#
# Mechanical properties :
#
#
# Convention : Reuss Voigt Hill
#
# Bulk Modulus (GPa) = 48.34320 65.49066 56.91693
# Shear Modulus (GPa) = 53.24717 21.77787 37.51252
#
# Velocity S-wave (km/s) = 4.42256 2.82835 3.71205
# Velocity P-wave (km/s) = 6.62091 5.89258 6.26734
#
# Compressibility (1/GPa) = 0.02068543
#
# Stress axis : x y z
#
# Youngs Moduli (GPa) = 134.64655 52.97546 98.41826
#
# Poissons Ratio (x) = 0.13038 0.21328
# Poissons Ratio (y) = 0.33139 0.32095
# Poissons Ratio (z) = 0.29180 0.17276
#
# Static dielectric constant tensor:
#      x y z
#    x 2.073200 0.000000 0.009040 
#    y 0.000000 1.973250 0.000000 
#    z 0.009040 0.000000 2.181290 
# 
# From -- ./inp_files/18391.got.cif
#   From: 2010.05.17/outbox.cif.g08.bks.cpg/sg14_10_cif.got.tgz:18391.got - 2010.06.03 17:49:19.
