data_PCOD9249518
_publ_section_title
;
Structure prediction by ZEFSAII (Michael W. Deem and Ramdas Pophale) SiO2 
 PCOD9249518
Probable space group: P 21/C
;
_chemical_formula_sum "Si O2"
_cell_formula_units_Z 24
_cell_length_a 6.006131
_cell_length_b 7.780347
_cell_length_c 22.952448
_cell_angle_alpha 90.000000
_cell_angle_beta 105.169584
_cell_angle_gamma 90.000000
_cell_volume 1035.190050
_symmetry_space_group_name_H-M "P 21/C"
_symmetry_group_IT_number 14
_symmetry_cell_setting 'monoclinic'
loop_
_space_group_symop_operation_xyz
x,y,z
-x,1/2+y,1/2-z
-x,-y,-z
x,1/2-y,1/2+z
loop_
_atom_site_type_symbol
_atom_site_label
_atom_site_fract_x
_atom_site_fract_y
_atom_site_fract_z
Si Si1 0.232915 0.503020 0.053544
Si Si2 0.516116 0.250000 0.016117
Si Si3 0.512155 0.107774 0.325920
Si Si4 0.874173 0.503019 0.553544
Si Si5 0.722743 0.249998 0.222745
Si Si6 0.139681 0.107777 0.825920
O O1 0.407399 0.619143 0.028321
O O2 0.255277 0.574492 0.119920
O O3 0.353719 0.318694 0.056296
O O4 0.000000 0.500000 0.000000
O O5 0.350756 0.119144 0.971679
O O6 0.758871 0.181306 0.056295
O O7 0.571229 0.181056 0.266560
O O8 0.342784 0.249997 0.342787
O O9 0.392288 0.920276 0.312835
O O10 0.984565 0.574491 0.619920
O O11 0.000000 0.500000 0.500000
O O12 0.961886 0.318941 0.266560
O O13 0.766617 0.079719 0.187166
#
# Coordination Sequence:
#
# PCOD9249518 Si02
#       6
#     4   4   4   4   4   4
#     4  11  24  44  71 104 148 198 243 312 389 450
#     4  10  23  42  64 106 142 185 252 298 382 444
#     4  12  26  49  76 111 154 196 259 320 382 465
#     4  11  24  44  71 104 148 198 243 312 389 450
#     4  12  27  48  80 112 148 205 254 312 392 454
#     4  12  26  49  76 111 154 196 259 320 382 465
#
# _framework density 23.184151
#
# number of rings (size 3 to 8) (size 9 to 14) (size 15 to 20)
#    0.000    0.667    5.000    2.000    4.667    0.000 
#   12.000    0.000    0.000    0.000    0.000    0.000 
#    0.000    0.000    0.000    0.000    0.000    0.000 
#
# Total GULP energy -133900.679690 kJ/mol
# GULP energy per Si atom -5579.194987 kJ/mol
# Density = 2.313138 g / cm^3
# Si number density = 23.184151 Si / 1000 Ang^3
#
#
#
# Elastic Constant Matrix: (Units=GPa)
#
#
# Indices 1 2 3 4 5 6 
#
# 1 68.0163 25.1392 29.8231 0.0000 -1.0114 0.0000
# 2 25.1392 131.8264 45.7097 0.0000 -1.0179 0.0000
# 3 29.8231 45.7097 125.5498 0.0000 -1.8368 0.0000
# 4 0.0000 0.0000 0.0000 9.1663 0.0000 2.0386
# 5 -1.0114 -1.0179 -1.8368 0.0000 29.3528 0.0000
# 6 0.0000 0.0000 0.0000 2.0386 0.0000 50.3086
#
#
#
# Elastic Compliance Matrix: (Units=1/GPa)
#
#
# Indices 1 2 3 4 5 6 
#
# 1 0.016906 -0.002095 -0.003248 0.000000 0.000307 0.000000
# 2 -0.002095 0.008942 -0.002757 0.000000 0.000065 0.000000
# 3 -0.003248 -0.002757 0.009746 0.000000 0.000402 0.000000
# 4 0.000000 0.000000 0.000000 0.110087 0.000000 -0.004461
# 5 0.000307 0.000065 0.000402 0.000000 0.034106 0.000000
# 6 0.000000 0.000000 0.000000 -0.004461 0.000000 0.020058
#
#
# Mechanical properties :
#
#
# Convention : Reuss Voigt Hill
#
# Bulk Modulus (GPa) = 51.56598 58.52628 55.04613
# Shear Modulus (GPa) = 22.47089 32.74693 27.60891
#
# Velocity S-wave (km/s) = 3.11663 3.76236 3.45462
# Velocity P-wave (km/s) = 5.93645 6.64626 6.30135
#
# Compressibility (1/GPa) = 0.01939263
#
# Stress axis : x y z
#
# Youngs Moduli (GPa) = 59.15183 111.83578 102.60416
#
# Poissons Ratio (x) = 0.23431 0.33331
# Poissons Ratio (y) = 0.12393 0.28286
# Poissons Ratio (z) = 0.19215 0.30831
#
# Static dielectric constant tensor:
#      x y z
#    x 1.865470 0.000000 -0.001270 
#    y 0.000000 2.076510 0.000000 
#    z -0.001270 0.000000 1.891130 
# 
# From -- ./inp_files/71089.got.cif
#   From: 2010.05.17/outbox.cif.g08.bks.cpg/sg14_36_cif.got.tgz:71089.got - 2010.06.03 17:49:19.
