data_PCOD9249600
_publ_section_title
;
Structure prediction by ZEFSAII (Michael W. Deem and Ramdas Pophale) SiO2 
 PCOD9249600
Probable space group: P 21/C
;
_chemical_formula_sum "Si O2"
_cell_formula_units_Z 32
_cell_length_a 19.101289
_cell_length_b 7.315181
_cell_length_c 8.819474
_cell_angle_alpha 90.000000
_cell_angle_beta 75.785377
_cell_angle_gamma 90.000000
_cell_volume 1194.608790
_symmetry_space_group_name_H-M "P 21/C"
_symmetry_group_IT_number 14
_symmetry_cell_setting 'monoclinic'
loop_
_space_group_symop_operation_xyz
x,y,z
-x,1/2+y,1/2-z
-x,-y,-z
x,1/2-y,1/2+z
loop_
_atom_site_type_symbol
_atom_site_label
_atom_site_fract_x
_atom_site_fract_y
_atom_site_fract_z
Si Si1 0.446091 0.119609 0.726412
Si Si2 0.257053 0.694018 0.244445
Si Si3 0.404611 0.483803 0.902155
Si Si4 0.851337 0.974116 0.660778
Si Si5 0.027995 0.794843 0.565203
Si Si6 0.934383 0.598786 0.384495
Si Si7 0.747242 0.863638 0.464166
Si Si8 0.326716 0.530392 0.503163
O O1 0.422594 0.321905 0.776644
O O2 0.419394 0.059896 0.573359
O O3 0.532721 0.121767 0.677295
O O4 0.403952 0.010064 0.882534
O O5 0.279165 0.619643 0.395474
O O6 0.195763 0.847136 0.276657
O O7 0.229839 0.508154 0.176535
O O8 0.323292 0.811639 0.132509
O O9 0.319240 0.486439 0.933609
O O10 0.869291 0.863755 0.804243
O O11 0.806436 0.857731 0.564318
O O12 0.924203 0.064755 0.553967
O O13 0.073547 0.611221 0.566786
O O14 0.957357 0.716071 0.515651
O O15 0.004779 0.876615 0.738500
O O16 0.710249 0.668528 0.439994
#
# Coordination Sequence:
#
# PCOD9249600 Si02
#       8
#     4   4   4   4   4   4   4   4
#     4  10  23  43  70 102 148 193 260 306 388 433
#     4  12  26  48  74 107 154 198 251 315 376 458
#     4  10  23  42  68 105 142 199 250 318 368 458
#     4  12  26  48  76 111 150 203 244 308 383 450
#     4  11  25  50  75 107 149 185 246 299 364 447
#     4  11  25  47  74 106 145 187 239 302 360 443
#     4  11  26  47  72 108 157 194 255 310 379 453
#     4  11  27  47  72 108 149 203 254 321 375 453
#
# _framework density 26.787011
#
# number of rings (size 3 to 8) (size 9 to 14) (size 15 to 20)
#    0.000    1.000    3.750    1.125    3.500    2.500 
#    2.250    0.000    0.000    0.000    0.000    0.000 
#    0.000    0.000    0.000    0.000    0.000    0.000 
#
# Total GULP energy -179092.417915 kJ/mol
# GULP energy per Si atom -5596.638060 kJ/mol
# Density = 2.672604 g / cm^3
# Si number density = 26.787011 Si / 1000 Ang^3
#
#
#
# Elastic Constant Matrix: (Units=GPa)
#
#
# Indices 1 2 3 4 5 6 
#
# 1 79.2580 -1.2897 -7.4787 0.0000 7.8023 0.0000
# 2 -1.2897 145.7345 36.9164 0.0000 8.0418 0.0000
# 3 -7.4787 36.9164 80.7464 0.0000 8.3028 0.0000
# 4 0.0000 0.0000 0.0000 60.9620 0.0000 2.3383
# 5 7.8023 8.0418 8.3028 0.0000 31.2462 0.0000
# 6 0.0000 0.0000 0.0000 2.3383 0.0000 35.3147
#
#
#
# Elastic Compliance Matrix: (Units=1/GPa)
#
#
# Indices 1 2 3 4 5 6 
#
# 1 0.013133 -0.000095 0.001640 0.000000 -0.003691 0.000000
# 2 -0.000095 0.007797 -0.003464 0.000000 -0.001062 0.000000
# 3 0.001640 -0.003464 0.014466 0.000000 -0.003362 0.000000
# 4 0.000000 0.000000 0.000000 0.016445 0.000000 -0.001089
# 5 -0.003691 -0.001062 -0.003362 0.000000 0.034092 0.000000
# 6 0.000000 0.000000 0.000000 -0.001089 0.000000 0.028389
#
#
# Mechanical properties :
#
#
# Convention : Reuss Voigt Hill
#
# Bulk Modulus (GPa) = 31.68977 40.22610 35.95793
# Shear Modulus (GPa) = 38.85544 44.01065 41.43305
#
# Velocity S-wave (km/s) = 3.81272 4.05777 3.93715
# Velocity P-wave (km/s) = 5.58913 6.08306 5.84132
#
# Compressibility (1/GPa) = 0.03155593
#
# Stress axis : x y z
#
# Youngs Moduli (GPa) = 76.14126 128.25206 69.12834
#
# Poissons Ratio (x) = 0.01224 -0.11334
# Poissons Ratio (y) = 0.00727 0.23949
# Poissons Ratio (z) = -0.12484 0.44431
#
# Static dielectric constant tensor:
#      x y z
#    x 2.186660 0.000000 -0.058050 
#    y 0.000000 2.109110 0.000000 
#    z -0.058050 0.000000 2.095720 
# 
# From -- ./inp_files/18608.got.cif
#   From: 2010.05.17/outbox.cif.g08.bks.cpg/sg14_10_cif.got.tgz:18608.got - 2010.06.03 17:49:19.
