data_PCOD9249197
_publ_section_title
;
Structure prediction by ZEFSAII (Michael W. Deem and Ramdas Pophale) SiO2 
 PCOD9249197
Probable space group: P 21/C
;
_chemical_formula_sum "Si O2"
_cell_formula_units_Z 22
_cell_length_a 5.062955
_cell_length_b 12.426222
_cell_length_c 12.929160
_cell_angle_alpha 90.000000
_cell_angle_beta 78.425125
_cell_angle_gamma 90.000000
_cell_volume 796.875249
_symmetry_space_group_name_H-M "P 21/C"
_symmetry_group_IT_number 14
_symmetry_cell_setting 'monoclinic'
loop_
_space_group_symop_operation_xyz
x,y,z
-x,1/2+y,1/2-z
-x,-y,-z
x,1/2-y,1/2+z
loop_
_atom_site_type_symbol
_atom_site_label
_atom_site_fract_x
_atom_site_fract_y
_atom_site_fract_z
Si Si1 0.000000 0.500000 0.500000
Si Si2 0.878728 0.931622 0.375775
Si Si3 0.497963 0.338538 0.436430
Si Si4 0.822464 0.972667 0.827392
Si Si5 0.843026 0.156140 0.442998
Si Si6 0.698886 0.758572 0.747715
O O1 0.207907 0.390721 0.475977
O O2 0.906794 0.458060 0.627258
O O3 0.977132 0.879729 0.474189
O O4 0.743853 0.842848 0.316321
O O5 0.128751 0.971459 0.285145
O O6 0.724485 0.043870 0.408724
O O7 0.707557 0.439791 0.421390
O O8 0.622889 0.243029 0.493265
O O9 0.503905 0.281270 0.323865
O O10 0.659929 0.865750 0.817788
O O11 0.037453 0.208176 0.341307
#
# Coordination Sequence:
#
# PCOD9249197 Si02
#       6
#     2   4   4   4   4   4
#     4  12  26  48  68 108 154 192 260 320 366 462
#     4  10  22  49  74 105 155 198 257 317 385 468
#     4  12  25  46  72 110 150 198 255 314 390 449
#     4  11  26  45  71 107 145 200 248 312 386 459
#     4  10  24  47  73 110 153 198 252 323 384 461
#     4  11  25  43  74 106 152 196 248 315 380 463
#
# _framework density 27.607837
#
# number of rings (size 3 to 8) (size 9 to 14) (size 15 to 20)
#    0.000    1.091    3.636    0.545    7.636    1.455 
#    0.000    2.727    0.000    0.000    0.000    0.000 
#    0.000    0.000    0.000    0.000    0.000    0.000 
#
# Total GULP energy -122810.913381 kJ/mol
# GULP energy per Si atom -5582.314245 kJ/mol
# Density = 2.754500 g / cm^3
# Si number density = 27.607837 Si / 1000 Ang^3
#
#
#
# Elastic Constant Matrix: (Units=GPa)
#
#
# Indices 1 2 3 4 5 6 
#
# 1 85.1906 71.3310 30.5715 0.0000 -6.3531 0.0000
# 2 71.3310 209.3456 45.6543 0.0000 -7.1828 0.0000
# 3 30.5715 45.6543 101.7877 0.0000 -1.3688 0.0000
# 4 0.0000 0.0000 0.0000 56.4143 0.0000 13.5054
# 5 -6.3531 -7.1828 -1.3688 0.0000 32.0884 0.0000
# 6 0.0000 0.0000 0.0000 13.5054 0.0000 42.3040
#
#
#
# Elastic Compliance Matrix: (Units=1/GPa)
#
#
# Indices 1 2 3 4 5 6 
#
# 1 0.017258 -0.005191 -0.002827 0.000000 0.002134 0.000000
# 2 -0.005191 0.006894 -0.001527 0.000000 0.000450 0.000000
# 3 -0.002827 -0.001527 0.011353 0.000000 -0.000417 0.000000
# 4 0.000000 0.000000 0.000000 0.019193 0.000000 -0.006127
# 5 0.002134 0.000450 -0.000417 0.000000 0.031669 0.000000
# 6 0.000000 0.000000 0.000000 -0.006127 0.000000 0.025595
#
#
# Mechanical properties :
#
#
# Convention : Reuss Voigt Hill
#
# Bulk Modulus (GPa) = 60.91592 76.82636 68.87114
# Shear Modulus (GPa) = 36.62409 42.74583 39.68496
#
# Velocity S-wave (km/s) = 3.64618 3.93914 3.79549
# Velocity P-wave (km/s) = 6.31180 6.96974 6.64891
#
# Compressibility (1/GPa) = 0.01641607
#
# Stress axis : x y z
#
# Youngs Moduli (GPa) = 57.94352 145.05516 88.08566
#
# Poissons Ratio (x) = 0.75295 0.24898
# Poissons Ratio (y) = 0.30077 0.13451
# Poissons Ratio (z) = 0.16378 0.22150
#
# Static dielectric constant tensor:
#      x y z
#    x 0.009710 0.000000 -0.909660 
#    y 0.000000 1.992690 0.000000 
#    z -0.909660 0.000000 1.873740 
# 
# From -- ./inp_files/36973.got.cif
#   From: 2010.05.17/outbox.cif.g08.bks.cpg/sg14_19_cif.got.tgz:36973.got - 2010.06.03 17:49:19.
