data_PCOD9249047
_publ_section_title
;
Structure prediction by ZEFSAII (Michael W. Deem and Ramdas Pophale) SiO2 
 PCOD9249047
Probable space group: P 21/C
;
_chemical_formula_sum "Si O2"
_cell_formula_units_Z 20
_cell_length_a 8.532851
_cell_length_b 9.559632
_cell_length_c 10.526611
_cell_angle_alpha 90.000000
_cell_angle_beta 81.773127
_cell_angle_gamma 90.000000
_cell_volume 849.828965
_symmetry_space_group_name_H-M "P 21/C"
_symmetry_group_IT_number 14
_symmetry_cell_setting 'monoclinic'
loop_
_space_group_symop_operation_xyz
x,y,z
-x,1/2+y,1/2-z
-x,-y,-z
x,1/2-y,1/2+z
loop_
_atom_site_type_symbol
_atom_site_label
_atom_site_fract_x
_atom_site_fract_y
_atom_site_fract_z
Si Si1 0.051833 0.014614 0.638032
Si Si2 0.608063 0.377208 0.546015
Si Si3 0.879394 0.296979 0.343405
Si Si4 0.306902 0.237813 0.673932
Si Si5 0.809872 0.623810 0.561382
O O1 0.217460 0.097166 0.637097
O O2 0.914861 0.105399 0.720320
O O3 0.069844 0.860173 0.690044
O O4 0.000000 0.000000 0.500000
O O5 0.500000 0.500000 0.500000
O O6 0.707065 0.303127 0.423778
O O7 0.492607 0.269813 0.631144
O O8 0.734521 0.473626 0.605490
O O9 0.006423 0.357598 0.430277
O O10 0.270357 0.234276 0.829213
O O11 0.225972 0.345069 0.582088
#
# Coordination Sequence:
#
# PCOD9249047 Si02
#       5
#     4   4   4   4   4
#     4  11  25  45  78 108 146 194 256 313 362 458
#     4  10  24  45  69 102 149 194 233 306 378 440
#     4  11  25  45  76 107 145 196 254 303 376 442
#     4  10  23  47  68 106 143 189 241 304 373 432
#     4  10  22  45  74 100 145 193 248 299 365 453
#
# _framework density 23.534147999999998
#
# number of rings (size 3 to 8) (size 9 to 14) (size 15 to 20)
#    0.000    1.600    2.000    0.600   11.200    4.000 
#   25.200    0.000    0.000    0.000    0.000    0.000 
#    0.000    0.000    0.000    0.000    0.000    0.000 
#
# Total GULP energy -111619.394737 kJ/mol
# GULP energy per Si atom -5580.969737 kJ/mol
# Density = 2.348058 g / cm^3
# Si number density = 23.534148 Si / 1000 Ang^3
#
#
#
# Elastic Constant Matrix: (Units=GPa)
#
#
# Indices 1 2 3 4 5 6 
#
# 1 102.2071 25.2538 33.5880 0.0000 -38.2638 0.0000
# 2 25.2538 64.5847 31.8673 0.0000 -14.9485 0.0000
# 3 33.5880 31.8673 127.6334 0.0000 -27.6591 0.0000
# 4 0.0000 0.0000 0.0000 41.4376 0.0000 -13.1853
# 5 -38.2638 -14.9485 -27.6591 0.0000 53.0091 0.0000
# 6 0.0000 0.0000 0.0000 -13.1853 0.0000 53.4365
#
#
#
# Elastic Compliance Matrix: (Units=1/GPa)
#
#
# Indices 1 2 3 4 5 6 
#
# 1 0.014179 -0.002968 -0.001075 0.000000 0.008837 0.000000
# 2 -0.002968 0.018720 -0.003623 0.000000 0.001246 0.000000
# 3 -0.001075 -0.003623 0.009733 0.000000 0.003281 0.000000
# 4 0.000000 0.000000 0.000000 0.026189 0.000000 0.006462
# 5 0.008837 0.001246 0.003281 0.000000 0.027307 0.000000
# 6 0.000000 0.000000 0.000000 0.006462 0.000000 0.020308
#
#
# Mechanical properties :
#
#
# Convention : Reuss Voigt Hill
#
# Bulk Modulus (GPa) = 36.63025 52.87150 44.75088
# Shear Modulus (GPa) = 35.49379 43.15773 39.32576
#
# Velocity S-wave (km/s) = 3.88775 4.28698 4.09223
# Velocity P-wave (km/s) = 5.97924 6.85703 6.43312
#
# Compressibility (1/GPa) = 0.02729984
#
# Stress axis : x y z
#
# Youngs Moduli (GPa) = 70.52601 53.41810 102.73857
#
# Poissons Ratio (x) = 0.15857 0.11047
# Poissons Ratio (y) = 0.20935 0.37221
# Poissons Ratio (z) = 0.07583 0.19353
#
# Static dielectric constant tensor:
#      x y z
#    x 1.955090 0.000000 0.019400 
#    y 0.000000 1.928170 0.000000 
#    z 0.019400 0.000000 1.942600 
# 
# From -- ./inp_files/23025.got.cif
#   From: 2010.05.17/outbox.cif.g08.bks.cpg/sg14_12_cif.got.tgz:23025.got - 2010.06.03 17:49:19.
