data_PCOD9249809
_publ_section_title
;
Structure prediction by ZEFSAII (Michael W. Deem and Ramdas Pophale) SiO2 
 PCOD9249809
Probable space group: P 21/C
;
_chemical_formula_sum "Si O2"
_cell_formula_units_Z 28
_cell_length_a 10.208356
_cell_length_b 14.525019
_cell_length_c 8.333402
_cell_angle_alpha 90.000000
_cell_angle_beta 120.368829
_cell_angle_gamma 90.000000
_cell_volume 1066.103499
_symmetry_space_group_name_H-M "P 21/C"
_symmetry_group_IT_number 14
_symmetry_cell_setting 'monoclinic'
loop_
_space_group_symop_operation_xyz
x,y,z
-x,1/2+y,1/2-z
-x,-y,-z
x,1/2-y,1/2+z
loop_
_atom_site_type_symbol
_atom_site_label
_atom_site_fract_x
_atom_site_fract_y
_atom_site_fract_z
Si Si1 0.806983 0.032519 0.590626
Si Si2 0.996481 0.622552 0.532124
Si Si3 0.942044 0.766269 0.725834
Si Si4 0.779384 0.632870 0.870772
Si Si5 0.656004 0.939772 0.775100
Si Si6 0.424650 0.625787 0.592827
Si Si7 0.372075 0.680093 0.197395
O O1 0.671627 0.981250 0.604938
O O2 0.758029 0.128493 0.483469
O O3 0.925161 0.046355 0.810028
O O4 0.843855 0.965212 0.466791
O O5 0.038220 0.716298 0.651020
O O6 0.027955 0.651325 0.369123
O O7 0.815683 0.607511 0.420493
O O8 0.796593 0.808088 0.544551
O O9 0.879925 0.686960 0.804232
O O10 0.608250 0.623409 0.706698
O O11 0.629751 0.027842 0.873438
O O12 0.525691 0.864736 0.717508
O O13 0.370107 0.648985 0.380444
O O14 0.375785 0.710644 0.676109
#
# Coordination Sequence:
#
# PCOD9249809 Si02
#       7
#     4   4   4   4   4   4   4
#     4  12  27  44  69 103 143 183 226 288 352 410
#     4  11  25  46  70 103 138 182 234 284 346 415
#     4  10  23  43  72  99 136 184 232 285 343 418
#     4  11  22  43  70 103 135 180 234 283 348 414
#     4  12  25  45  73 100 143 180 233 288 350 411
#     4  12  26  44  74 102 142 180 237 289 348 408
#     4  12  27  47  70 104 140 184 235 288 346 412
#
# _framework density 26.263864999999999
#
# number of rings (size 3 to 8) (size 9 to 14) (size 15 to 20)
#    0.000    0.571    2.857    5.571    4.000    2.857 
#    2.571    0.000    0.000    0.000    0.000    0.000 
#    0.000    0.000    0.000    0.000    0.000    0.000 
#
# Total GULP energy -156941.016255 kJ/mol
# GULP energy per Si atom -5605.036295 kJ/mol
# Density = 2.620409 g / cm^3
# Si number density = 26.263865 Si / 1000 Ang^3
#
#
#
# Elastic Constant Matrix: (Units=GPa)
#
#
# Indices 1 2 3 4 5 6 
#
# 1 56.6677 3.2275 15.4501 0.0000 5.2117 0.0000
# 2 3.2275 98.4665 6.0015 0.0000 8.6335 0.0000
# 3 15.4501 6.0015 130.9684 0.0000 6.0947 0.0000
# 4 0.0000 0.0000 0.0000 60.1951 0.0000 -4.7716
# 5 5.2117 8.6335 6.0947 0.0000 34.3074 0.0000
# 6 0.0000 0.0000 0.0000 -4.7716 0.0000 36.6655
#
#
#
# Elastic Compliance Matrix: (Units=1/GPa)
#
#
# Indices 1 2 3 4 5 6 
#
# 1 0.018440 -0.000272 -0.002053 0.000000 -0.002368 0.000000
# 2 -0.000272 0.010405 -0.000328 0.000000 -0.002519 0.000000
# 3 -0.002053 -0.000328 0.007940 0.000000 -0.001016 0.000000
# 4 0.000000 0.000000 0.000000 0.016786 0.000000 0.002184
# 5 -0.002368 -0.002519 -0.001016 0.000000 0.030322 0.000000
# 6 0.000000 0.000000 0.000000 0.002184 0.000000 0.027558
#
#
# Mechanical properties :
#
#
# Convention : Reuss Voigt Hill
#
# Bulk Modulus (GPa) = 31.76488 37.27342 34.51915
# Shear Modulus (GPa) = 39.29317 43.66185 41.47751
#
# Velocity S-wave (km/s) = 3.87213 4.08171 3.97830
# Velocity P-wave (km/s) = 5.66674 6.03627 5.85442
#
# Compressibility (1/GPa) = 0.03148131
#
# Stress axis : x y z
#
# Youngs Moduli (GPa) = 54.23099 96.10319 125.94656
#
# Poissons Ratio (x) = 0.02611 0.25852
# Poissons Ratio (y) = 0.01473 0.04125
# Poissons Ratio (z) = 0.11132 0.03148
#
# Static dielectric constant tensor:
#      x y z
#    x 2.081070 0.000000 -0.017380 
#    y 0.000000 2.121700 0.000000 
#    z -0.017380 0.000000 2.055560 
# 
# From -- ./inp_files/13411.got.cif
#   From: 2010.05.17/outbox.cif.g08.bks.cpg/sg14_7_cif.got.tgz:13411.got - 2010.06.03 17:49:19.
