data_PCOD9249554
_publ_section_title
;
Structure prediction by ZEFSAII (Michael W. Deem and Ramdas Pophale) SiO2 
 PCOD9249554
Probable space group: P 21/C
;
_chemical_formula_sum "Si O2"
_cell_formula_units_Z 16
_cell_length_a 5.084773
_cell_length_b 5.387599
_cell_length_c 31.949166
_cell_angle_alpha 90.000000
_cell_angle_beta 41.005097
_cell_angle_gamma 90.000000
_cell_volume 574.266809
_symmetry_space_group_name_H-M "P 21/C"
_symmetry_group_IT_number 14
_symmetry_cell_setting 'monoclinic'
loop_
_space_group_symop_operation_xyz
x,y,z
-x,1/2+y,1/2-z
-x,-y,-z
x,1/2-y,1/2+z
loop_
_atom_site_type_symbol
_atom_site_label
_atom_site_fract_x
_atom_site_fract_y
_atom_site_fract_z
Si Si1 0.625074 0.754078 0.042597
Si Si2 0.560292 0.746472 0.921061
Si Si3 0.588455 0.703700 0.762402
Si Si4 0.415755 0.939467 0.655113
O O1 0.418988 0.499248 0.053711
O O2 0.646895 0.711489 0.090900
O O3 0.348764 0.992653 0.069270
O O4 0.074379 0.773566 0.971834
O O5 0.742810 0.669138 0.854804
O O6 0.558253 0.480232 0.732338
O O7 0.410748 0.577923 0.825624
O O8 0.061118 0.760769 0.712697
#
# Coordination Sequence:
#
# PCOD9249554 Si02
#       4
#     4   4   4   4
#     4   8  16  31  61  90 109 160 211 243 322 385
#     4   8  16  31  61  90 109 160 211 243 322 385
#     4  12  28  40  62 100 126 172 228 252 310 394
#     4  10  23  42  66  80 139 168 196 274 326 346
#
# _framework density 27.861615
#
# number of rings (size 3 to 8) (size 9 to 14) (size 15 to 20)
#    1.500    1.000    0.000    1.500   10.500    0.000 
#    0.000    0.000    0.000   12.000    0.000    0.000 
#    0.000    0.000    0.000    0.000    0.000    0.000 
#
# Total GULP energy -89268.382929 kJ/mol
# GULP energy per Si atom -5579.273933 kJ/mol
# Density = 2.779820 g / cm^3
# Si number density = 27.861615 Si / 1000 Ang^3
#
#
#
# Elastic Constant Matrix: (Units=GPa)
#
#
# Indices 1 2 3 4 5 6 
#
# 1 79.8210 28.9568 35.6290 0.0002 21.7659 -0.0002
# 2 28.9568 240.0998 20.4882 -0.0002 4.8744 0.0000
# 3 35.6290 20.4882 118.2941 0.0005 6.5901 -0.0007
# 4 0.0002 -0.0002 0.0005 48.6027 -0.0001 -0.8291
# 5 21.7659 4.8744 6.5901 -0.0001 34.6333 0.0003
# 6 -0.0002 0.0000 -0.0007 -0.8291 0.0003 23.6871
#
#
#
# Elastic Compliance Matrix: (Units=1/GPa)
#
#
# Indices 1 2 3 4 5 6 
#
# 1 0.017899 -0.001564 -0.004554 0.000000 -0.010162 0.000000
# 2 -0.001564 0.004371 -0.000310 0.000000 0.000427 0.000000
# 3 -0.004554 -0.000310 0.009821 0.000000 0.001037 0.000000
# 4 0.000000 0.000000 0.000000 0.020587 0.000000 0.000721
# 5 -0.010162 0.000427 0.001037 0.000000 0.035003 -0.000001
# 6 0.000000 0.000000 0.000000 0.000721 -0.000001 0.042242
#
#
# Mechanical properties :
#
#
# Convention : Reuss Voigt Hill
#
# Bulk Modulus (GPa) = 51.98548 67.59589 59.79068
# Shear Modulus (GPa) = 33.51383 44.92734 39.22059
#
# Velocity S-wave (km/s) = 3.47200 4.01997 3.75599
# Velocity P-wave (km/s) = 5.89678 6.77207 6.34952
#
# Compressibility (1/GPa) = 0.01923614
#
# Stress axis : x y z
#
# Youngs Moduli (GPa) = 55.86826 228.76422 101.82201
#
# Poissons Ratio (x) = 0.35774 0.46371
# Poissons Ratio (y) = 0.08737 0.03155
# Poissons Ratio (z) = 0.25443 0.07089
#
# Static dielectric constant tensor:
#      x y z
#    x 2.174330 0.000000 -0.096780 
#    y 0.000000 2.287180 0.000000 
#    z -0.096780 0.000000 2.177690 
# 
# From -- ./inp_files/70796.got.cif
#   From: 2010.05.17/outbox.cif.g08.bks.cpg/sg14_36_cif.got.tgz:70796.got - 2010.06.03 17:49:19.
