data_PCOD9249681
_publ_section_title
;
Structure prediction by ZEFSAII (Michael W. Deem and Ramdas Pophale) SiO2 
 PCOD9249681
Probable space group: P 21/C
;
_chemical_formula_sum "Si O2"
_cell_formula_units_Z 28
_cell_length_a 28.756532
_cell_length_b 7.682324
_cell_length_c 27.831423
_cell_angle_alpha 90.000000
_cell_angle_beta 169.874435
_cell_angle_gamma 90.000000
_cell_volume 1080.931574
_symmetry_space_group_name_H-M "P 21/C"
_symmetry_group_IT_number 14
_symmetry_cell_setting 'monoclinic'
loop_
_space_group_symop_operation_xyz
x,y,z
-x,1/2+y,1/2-z
-x,-y,-z
x,1/2-y,1/2+z
loop_
_atom_site_type_symbol
_atom_site_label
_atom_site_fract_x
_atom_site_fract_y
_atom_site_fract_z
Si Si1 0.058730 0.721310 0.223600
Si Si2 0.532944 0.794625 0.351964
Si Si3 0.609746 0.583598 0.826068
Si Si4 0.367064 0.611783 0.784770
Si Si5 0.732876 0.056981 0.203007
Si Si6 0.875732 0.421573 0.304661
Si Si7 0.042517 0.113139 0.653320
O O1 0.337959 0.655896 0.527451
O O2 0.118774 0.873921 0.246908
O O3 0.935324 0.568192 0.064559
O O4 0.846131 0.713496 0.050144
O O5 0.374966 0.618466 0.175355
O O6 0.809223 0.724344 0.655298
O O7 0.585172 0.908734 0.358411
O O8 0.385609 0.895305 0.245111
O O9 0.180740 0.471432 0.621996
O O10 0.187484 0.782691 0.607170
O O11 0.669572 0.575872 0.106273
O O12 0.725780 0.949789 0.146302
O O13 0.765964 0.257231 0.221774
O O14 0.000000 0.000000 0.500000
O O15 0.500000 0.000000 0.000000
#
# Coordination Sequence:
#
# PCOD9249681 Si02
#       7
#     4   4   4   4   4   4   4
#     4  10  23  43  63  93 135 189 234 285 342 423
#     4  11  26  43  67  99 141 193 232 298 341 418
#     4  11  25  39  64  95 134 179 251 286 342 391
#     4  12  23  43  67 101 138 188 225 278 352 418
#     4  11  26  49  79 108 136 179 238 292 354 449
#     4  11  25  42  73 102 139 183 227 283 360 418
#     4  10  24  47  72  96 144 189 227 289 374 416
#
# _framework density 25.903580999999999
#
# number of rings (size 3 to 8) (size 9 to 14) (size 15 to 20)
#    0.000    1.143    2.857    1.714    8.000    2.286 
#    0.000    4.286    0.000    0.000    0.000    0.000 
#    0.000    0.000    0.000    0.000    0.000    0.000 
#
# Total GULP energy -156688.688335 kJ/mol
# GULP energy per Si atom -5596.024583 kJ/mol
# Density = 2.584462 g / cm^3
# Si number density = 25.903581 Si / 1000 Ang^3
#
#
#
# Elastic Constant Matrix: (Units=GPa)
#
#
# Indices 1 2 3 4 5 6 
#
# 1 93.3005 6.9524 24.4561 0.0000 19.1360 0.0000
# 2 6.9524 77.4970 17.1350 0.0000 -0.5308 0.0000
# 3 24.4561 17.1350 137.3476 0.0000 31.4827 0.0000
# 4 0.0000 0.0000 0.0000 29.9447 0.0000 3.3770
# 5 19.1360 -0.5308 31.4827 0.0000 44.4905 0.0000
# 6 0.0000 0.0000 0.0000 3.3770 0.0000 42.7070
#
#
#
# Elastic Compliance Matrix: (Units=1/GPa)
#
#
# Indices 1 2 3 4 5 6 
#
# 1 0.011958 -0.000882 -0.001000 0.000000 -0.004446 0.000000
# 2 -0.000882 0.013429 -0.001960 0.000000 0.001927 0.000000
# 3 -0.001000 -0.001960 0.009084 0.000000 -0.006021 0.000000
# 4 0.000000 0.000000 0.000000 0.033695 0.000000 -0.002664
# 5 -0.004446 0.001927 -0.006021 0.000000 0.028673 0.000000
# 6 0.000000 0.000000 0.000000 -0.002664 0.000000 0.023626
#
#
# Mechanical properties :
#
#
# Convention : Reuss Voigt Hill
#
# Bulk Modulus (GPa) = 37.33212 45.02581 41.17896
# Shear Modulus (GPa) = 36.47564 40.73521 38.60542
#
# Velocity S-wave (km/s) = 3.75658 3.96987 3.86469
# Velocity P-wave (km/s) = 5.76707 6.19943 5.98715
#
# Compressibility (1/GPa) = 0.02678659
#
# Stress axis : x y z
#
# Youngs Moduli (GPa) = 83.62737 74.46350 110.08967
#
# Poissons Ratio (x) = 0.06568 0.11009
# Poissons Ratio (y) = 0.07377 0.21577
# Poissons Ratio (z) = 0.08363 0.14594
#
# Static dielectric constant tensor:
#      x y z
#    x 2.076850 0.000000 0.014030 
#    y 0.000000 2.075960 0.000000 
#    z 0.014030 0.000000 1.992020 
# 
# From -- ./inp_files/80926.got.cif
#   From: 2010.05.17/outbox.cif.g08.bks.cpg/sg14_41_cif.got.tgz:80926.got - 2010.06.03 17:49:19.
