data_PCOD9249643
_publ_section_title
;
Structure prediction by ZEFSAII (Michael W. Deem and Ramdas Pophale) SiO2 
 PCOD9249643
Probable space group: P 21/C
;
_chemical_formula_sum "Si O2"
_cell_formula_units_Z 24
_cell_length_a 13.895057
_cell_length_b 13.684121
_cell_length_c 10.947252
_cell_angle_alpha 90.000000
_cell_angle_beta 150.227333
_cell_angle_gamma 90.000000
_cell_volume 1033.603641
_symmetry_space_group_name_H-M "P 21/C"
_symmetry_group_IT_number 14
_symmetry_cell_setting 'monoclinic'
loop_
_space_group_symop_operation_xyz
x,y,z
-x,1/2+y,1/2-z
-x,-y,-z
x,1/2-y,1/2+z
loop_
_atom_site_type_symbol
_atom_site_label
_atom_site_fract_x
_atom_site_fract_y
_atom_site_fract_z
Si Si1 0.918565 0.754441 0.645340
Si Si2 0.079978 0.125072 0.646194
Si Si3 0.826643 0.532689 0.985139
Si Si4 0.601730 0.644781 0.161848
Si Si5 0.728363 0.286969 0.597573
Si Si6 0.508723 0.457693 0.210591
O O1 0.903451 0.870487 0.636472
O O2 0.789310 0.710738 0.394114
O O3 0.142159 0.732384 0.862572
O O4 0.834931 0.707718 0.675096
O O5 0.892131 0.169000 0.368850
O O6 0.219573 0.073767 0.702177
O O7 0.993834 0.043939 0.642354
O O8 0.650683 0.498245 0.872782
O O9 0.613276 0.549628 0.262722
O O10 0.419814 0.713457 0.000325
O O11 0.578035 0.602713 0.999950
O O12 0.623279 0.378249 0.417474
#
# Coordination Sequence:
#
# PCOD9249643 Si02
#       6
#     4   4   4   4   4   4
#     4  11  24  43  71  99 137 178 221 281 343 405
#     4  10  24  44  67 106 134 176 238 276 338 410
#     4  10  23  42  70  99 134 181 223 279 341 393
#     4  11  26  46  68 102 140 182 228 280 347 410
#     4  11  24  45  70 103 136 182 227 287 337 410
#     4  11  25  46  67 104 139 179 232 283 345 404
#
# _framework density 23.219733000000002
#
# number of rings (size 3 to 8) (size 9 to 14) (size 15 to 20)
#    0.000    1.333    1.667    2.000   11.667    0.667 
#    3.000    2.500    0.000    0.000    0.000    0.000 
#    0.000    0.000    0.000    0.000    0.000    0.000 
#
# Total GULP energy -134152.771776 kJ/mol
# GULP energy per Si atom -5589.698824 kJ/mol
# Density = 2.316688 g / cm^3
# Si number density = 23.219733 Si / 1000 Ang^3
#
#
#
# Elastic Constant Matrix: (Units=GPa)
#
#
# Indices 1 2 3 4 5 6 
#
# 1 107.6690 22.4790 20.7442 0.0000 1.9851 0.0000
# 2 22.4790 98.9725 12.2936 0.0000 -10.3543 0.0000
# 3 20.7442 12.2936 54.4379 0.0000 -12.2427 0.0000
# 4 0.0000 0.0000 0.0000 22.5195 0.0000 0.5778
# 5 1.9851 -10.3543 -12.2427 0.0000 31.2293 0.0000
# 6 0.0000 0.0000 0.0000 0.5778 0.0000 42.8042
#
#
#
# Elastic Compliance Matrix: (Units=1/GPa)
#
#
# Indices 1 2 3 4 5 6 
#
# 1 0.010622 -0.002207 -0.004239 0.000000 -0.003069 0.000000
# 2 -0.002207 0.011077 -0.000881 0.000000 0.003468 0.000000
# 3 -0.004239 -0.000881 0.022130 0.000000 0.008653 0.000000
# 4 0.000000 0.000000 0.000000 0.044421 0.000000 -0.000600
# 5 -0.003069 0.003468 0.008653 0.000000 0.036758 0.000000
# 6 0.000000 0.000000 0.000000 -0.000600 0.000000 0.023370
#
#
# Mechanical properties :
#
#
# Convention : Reuss Voigt Hill
#
# Bulk Modulus (GPa) = 34.27595 41.34589 37.81092
# Shear Modulus (GPa) = 28.94226 33.01478 30.97852
#
# Velocity S-wave (km/s) = 3.53434 3.77482 3.65656
# Velocity P-wave (km/s) = 5.60794 6.06993 5.84350
#
# Compressibility (1/GPa) = 0.02917498
#
# Stress axis : x y z
#
# Youngs Moduli (GPa) = 94.14557 90.27510 45.18781
#
# Poissons Ratio (x) = 0.19923 0.19157
# Poissons Ratio (y) = 0.20777 0.03980
# Poissons Ratio (z) = 0.39912 0.07951
#
# Static dielectric constant tensor:
#      x y z
#    x 1.921160 0.000000 -0.017160 
#    y 0.000000 1.882910 0.000000 
#    z -0.017160 0.000000 1.872710 
# 
# From -- ./inp_files/32654.got.cif
#   From: 2010.05.17/outbox.cif.g08.bks.cpg/sg14_17_cif.got.tgz:32654.got - 2010.06.03 17:49:19.
