data_PCOD9249435
_publ_section_title
;
Structure prediction by ZEFSAII (Michael W. Deem and Ramdas Pophale) SiO2 
 PCOD9249435
Probable space group: P 21/C
;
_chemical_formula_sum "Si O2"
_cell_formula_units_Z 26
_cell_length_a 19.773457
_cell_length_b 5.064852
_cell_length_c 28.091111
_cell_angle_alpha 90.000000
_cell_angle_beta 160.200954
_cell_angle_gamma 90.000000
_cell_volume 952.932217
_symmetry_space_group_name_H-M "P 21/C"
_symmetry_group_IT_number 14
_symmetry_cell_setting 'monoclinic'
loop_
_space_group_symop_operation_xyz
x,y,z
-x,1/2+y,1/2-z
-x,-y,-z
x,1/2-y,1/2+z
loop_
_atom_site_type_symbol
_atom_site_label
_atom_site_fract_x
_atom_site_fract_y
_atom_site_fract_z
Si Si1 0.065834 0.195533 0.694861
Si Si2 0.672880 0.604479 0.929843
Si Si3 0.263507 0.347487 0.628389
Si Si4 0.489531 0.633588 0.902322
Si Si5 0.890377 0.080966 0.700683
Si Si6 0.887863 0.715721 0.379784
Si Si7 0.500000 0.000000 0.000000
O O1 0.077181 0.497858 0.722321
O O2 0.086428 0.136381 0.652538
O O3 0.260738 0.071270 0.847420
O O4 0.849665 0.084572 0.563620
O O5 0.487188 0.432722 0.788019
O O6 0.740613 0.765536 0.928888
O O7 0.592654 0.753916 0.923438
O O8 0.191063 0.155837 0.623417
O O9 0.102305 0.578741 0.527980
O O10 0.288955 0.490550 0.751928
O O11 0.651148 0.422370 0.031529
O O12 0.453278 0.834438 0.920175
O O13 0.995156 0.832881 0.743349
#
# Coordination Sequence:
#
# PCOD9249435 Si02
#       7
#     4   4   4   4   4   4   2
#     4  11  24  41  69 100 144 191 244 295 383 434
#     4  11  22  43  65 102 132 194 243 315 358 445
#     4  10  23  41  66  93 137 177 252 299 371 432
#     4  10  23  42  67 100 147 185 245 298 376 434
#     4  11  25  45  71 110 145 192 247 308 364 455
#     4  10  23  43  64  97 138 191 230 313 369 448
#     4  10  24  42  60 102 136 188 226 296 362 458
#
# _framework density 27.284209000000001
#
# number of rings (size 3 to 8) (size 9 to 14) (size 15 to 20)
#    0.000    1.538    1.538    1.846    2.154    9.231 
#    0.000    0.000    0.000    0.000    0.000    0.000 
#    0.000    0.000    0.000    0.000    0.000    0.000 
#
# Total GULP energy -145208.782469 kJ/mol
# GULP energy per Si atom -5584.953172 kJ/mol
# Density = 2.722211 g / cm^3
# Si number density = 27.284209 Si / 1000 Ang^3
#
#
#
# Elastic Constant Matrix: (Units=GPa)
#
#
# Indices 1 2 3 4 5 6 
#
# 1 148.6266 24.0436 2.6020 0.0000 -3.4897 0.0000
# 2 24.0436 68.4563 38.6622 0.0000 5.3629 0.0000
# 3 2.6020 38.6622 214.8616 0.0000 9.4327 0.0000
# 4 0.0000 0.0000 0.0000 33.0501 0.0000 -2.2054
# 5 -3.4897 5.3629 9.4327 0.0000 49.0692 0.0000
# 6 0.0000 0.0000 0.0000 -2.2054 0.0000 44.4259
#
#
#
# Elastic Compliance Matrix: (Units=1/GPa)
#
#
# Indices 1 2 3 4 5 6 
#
# 1 0.007192 -0.002801 0.000384 0.000000 0.000744 0.000000
# 2 -0.002801 0.017425 -0.003035 0.000000 -0.001520 0.000000
# 3 0.000384 -0.003035 0.005224 0.000000 -0.000645 0.000000
# 4 0.000000 0.000000 0.000000 0.030358 0.000000 0.001507
# 5 0.000744 -0.001520 -0.000645 0.000000 0.020722 0.000000
# 6 0.000000 0.000000 0.000000 0.001507 0.000000 0.022584
#
#
# Mechanical properties :
#
#
# Convention : Reuss Voigt Hill
#
# Bulk Modulus (GPa) = 52.80597 62.50668 57.65632
# Shear Modulus (GPa) = 41.41770 49.75149 45.58460
#
# Velocity S-wave (km/s) = 3.90039 4.27482 4.09189
# Velocity P-wave (km/s) = 6.29922 6.87930 6.59564
#
# Compressibility (1/GPa) = 0.01893725
#
# Stress axis : x y z
#
# Youngs Moduli (GPa) = 139.03956 57.38936 191.42772
#
# Poissons Ratio (x) = 0.16077 -0.07357
# Poissons Ratio (y) = 0.38951 0.58094
# Poissons Ratio (z) = -0.05344 0.17416
#
# Static dielectric constant tensor:
#      x y z
#    x 2.264160 0.000000 -0.056080 
#    y 0.000000 2.223970 0.000000 
#    z -0.056080 0.000000 2.053250 
# 
# From -- ./inp_files/80476.got.cif
#   From: 2010.05.17/outbox.cif.g08.bks.cpg/sg14_41_cif.got.tgz:80476.got - 2010.06.03 17:49:19.
