data_PCOD9249065
_publ_section_title
;
Structure prediction by ZEFSAII (Michael W. Deem and Ramdas Pophale) SiO2 
 PCOD9249065
Probable space group: P 21/C
;
_chemical_formula_sum "Si O2"
_cell_formula_units_Z 16
_cell_length_a 10.308419
_cell_length_b 12.527318
_cell_length_c 9.259927
_cell_angle_alpha 90.000000
_cell_angle_beta 42.092853
_cell_angle_gamma 90.000000
_cell_volume 801.583954
_symmetry_space_group_name_H-M "P 21/C"
_symmetry_group_IT_number 14
_symmetry_cell_setting 'monoclinic'
loop_
_space_group_symop_operation_xyz
x,y,z
-x,1/2+y,1/2-z
-x,-y,-z
x,1/2-y,1/2+z
loop_
_atom_site_type_symbol
_atom_site_label
_atom_site_fract_x
_atom_site_fract_y
_atom_site_fract_z
Si Si1 0.833382 0.486148 0.019534
Si Si2 0.712577 0.790622 0.661715
Si Si3 0.067291 0.416506 0.564006
Si Si4 0.441393 0.375020 0.406224
O O1 0.780572 0.606548 0.016387
O O2 0.643534 0.433815 0.244943
O O3 0.000000 0.500000 0.000000
O O4 0.911604 0.418549 0.820794
O O5 0.883687 0.702408 0.534592
O O6 0.550132 0.726506 0.707950
O O7 0.638325 0.832858 0.876005
O O8 0.272960 0.446564 0.470441
O O9 0.000000 0.500000 0.500000
#
# Coordination Sequence:
#
# PCOD9249065 Si02
#       4
#     4   4   4   4
#     4  12  23  43  71  99 136 183 227 276 343 402
#     4  10  22  46  63 100 143 175 231 270 352 396
#     4  10  24  44  68 101 136 175 231 280 331 409
#     4  10  24  44  65 102 137 179 224 289 326 414
#
# _framework density 19.960477999999998
#
# number of rings (size 3 to 8) (size 9 to 14) (size 15 to 20)
#    1.500    0.000    2.500    2.250    0.000    3.000 
#    4.500    0.000    0.000    0.000    0.000    0.000 
#    0.000    0.000    0.000    0.000    0.000    0.000 
#
# Total GULP energy -89176.140216 kJ/mol
# GULP energy per Si atom -5573.508764 kJ/mol
# Density = 1.991505 g / cm^3
# Si number density = 19.960478 Si / 1000 Ang^3
#
#
#
# Elastic Constant Matrix: (Units=GPa)
#
#
# Indices 1 2 3 4 5 6 
#
# 1 86.2947 40.7161 50.7893 0.0000 -8.6713 0.0000
# 2 40.7161 123.0749 61.6136 0.0000 -14.3488 0.0000
# 3 50.7893 61.6136 145.1962 0.0000 -2.1319 0.0000
# 4 0.0000 0.0000 0.0000 40.9069 0.0000 -3.5384
# 5 -8.6713 -14.3488 -2.1319 0.0000 28.1867 0.0000
# 6 0.0000 0.0000 0.0000 -3.5384 0.0000 38.2910
#
#
#
# Elastic Compliance Matrix: (Units=1/GPa)
#
#
# Indices 1 2 3 4 5 6 
#
# 1 0.015702 -0.002668 -0.004314 0.000000 0.003146 0.000000
# 2 -0.002668 0.011502 -0.003878 0.000000 0.004741 0.000000
# 3 -0.004314 -0.003878 0.010005 0.000000 -0.002545 0.000000
# 4 0.000000 0.000000 0.000000 0.024643 0.000000 0.002277
# 5 0.003146 0.004741 -0.002545 0.000000 0.038667 0.000000
# 6 0.000000 0.000000 0.000000 0.002277 0.000000 0.026326
#
#
# Mechanical properties :
#
#
# Convention : Reuss Voigt Hill
#
# Bulk Modulus (GPa) = 64.56480 73.42267 68.99374
# Shear Modulus (GPa) = 32.52504 34.90672 33.71588
#
# Velocity S-wave (km/s) = 4.04105 4.18639 4.11436
# Velocity P-wave (km/s) = 7.36139 7.76091 7.56379
#
# Compressibility (1/GPa) = 0.01548831
#
# Stress axis : x y z
#
# Youngs Moduli (GPa) = 63.68443 86.94218 99.95445
#
# Poissons Ratio (x) = 0.23197 0.43123
# Poissons Ratio (y) = 0.16992 0.38761
# Poissons Ratio (z) = 0.27475 0.33715
#
# Static dielectric constant tensor:
#      x y z
#    x 1.728460 0.000000 0.011170 
#    y 0.000000 1.745810 0.000000 
#    z 0.011170 0.000000 1.697930 
# 
# From -- ./inp_files/7702.got.cif
#   From: 2010.05.17/outbox.cif.g08.bks.cpg/sg14_4_cif.got.tgz:7702.got - 2010.06.03 17:49:19.
