data_PCOD9249566
_publ_section_title
;
Structure prediction by ZEFSAII (Michael W. Deem and Ramdas Pophale) SiO2 
 PCOD9249566
Probable space group: P 21/C
;
_chemical_formula_sum "Si O2"
_cell_formula_units_Z 32
_cell_length_a 14.572458
_cell_length_b 14.018527
_cell_length_c 13.041844
_cell_angle_alpha 90.000000
_cell_angle_beta 34.085738
_cell_angle_gamma 90.000000
_cell_volume 1493.130563
_symmetry_space_group_name_H-M "P 21/C"
_symmetry_group_IT_number 14
_symmetry_cell_setting 'monoclinic'
loop_
_space_group_symop_operation_xyz
x,y,z
-x,1/2+y,1/2-z
-x,-y,-z
x,1/2-y,1/2+z
loop_
_atom_site_type_symbol
_atom_site_label
_atom_site_fract_x
_atom_site_fract_y
_atom_site_fract_z
Si Si1 0.343627 0.445174 0.105659
Si Si2 0.367575 0.210310 0.296896
Si Si3 0.146052 0.372788 0.456662
Si Si4 0.448100 0.776367 0.676763
Si Si5 0.929959 0.290423 0.479896
Si Si6 0.941922 0.590916 0.229418
Si Si7 0.588000 0.903688 0.952478
Si Si8 0.884537 0.580210 0.856505
O O1 0.207841 0.452644 0.320580
O O2 0.251090 0.474643 0.087390
O O3 0.500000 0.500000 0.000000
O O4 0.415907 0.339632 0.009855
O O5 0.314456 0.317782 0.325936
O O6 0.518150 0.203129 0.235019
O O7 0.392111 0.155770 0.169818
O O8 0.212160 0.163981 0.497473
O O9 0.072308 0.398937 0.633703
O O10 0.029403 0.308636 0.492942
O O11 0.482729 0.665634 0.622663
O O12 0.262525 0.800546 0.822265
O O13 0.973452 0.184897 0.396229
O O14 0.993191 0.367322 0.336604
O O15 0.762813 0.581879 0.345067
O O16 0.038231 0.491358 0.132899
O O17 0.500000 0.000000 0.000000
#
# Coordination Sequence:
#
# PCOD9249566 Si02
#       8
#     4   4   4   4   4   4   4   4
#     4  10  23  42  66  97 129 168 222 268 327 388
#     4  11  22  48  67  88 138 181 212 271 327 390
#     4  11  22  44  72  86 135 177 214 269 328 385
#     4  11  25  44  66  98 134 173 221 270 333 397
#     4  11  25  43  66 101 131 171 225 268 327 397
#     4  12  25  44  68  96 134 175 220 270 333 390
#     4  12  27  44  68 102 133 178 224 271 333 397
#     4  10  25  42  65  98 129 171 218 269 327 393
#
# _framework density 21.431483
#
# number of rings (size 3 to 8) (size 9 to 14) (size 15 to 20)
#    0.000    1.000    5.000    0.750    7.000    5.500 
#    0.000    0.000    0.000    0.000    0.000    0.000 
#    0.000    0.000    0.000    0.000    0.000    0.000 
#
# Total GULP energy -178752.368951 kJ/mol
# GULP energy per Si atom -5586.011530 kJ/mol
# Density = 2.138270 g / cm^3
# Si number density = 21.431483 Si / 1000 Ang^3
#
#
#
# Elastic Constant Matrix: (Units=GPa)
#
#
# Indices 1 2 3 4 5 6 
#
# 1 106.3201 17.9847 25.8699 0.0000 -4.6221 0.0000
# 2 17.9847 64.9750 -3.4095 0.0000 -15.3007 0.0000
# 3 25.8699 -3.4095 56.7462 0.0000 -9.8146 0.0000
# 4 0.0000 0.0000 0.0000 18.5012 0.0000 -10.9560
# 5 -4.6221 -15.3007 -9.8146 0.0000 32.0944 0.0000
# 6 0.0000 0.0000 0.0000 -10.9560 0.0000 34.4766
#
#
#
# Elastic Compliance Matrix: (Units=1/GPa)
#
#
# Indices 1 2 3 4 5 6 
#
# 1 0.011387 -0.003925 -0.005772 0.000000 -0.001996 0.000000
# 2 -0.003925 0.019064 0.004655 0.000000 0.009947 0.000000
# 3 -0.005772 0.004655 0.021934 0.000000 0.008095 0.000000
# 4 0.000000 0.000000 0.000000 0.066580 0.000000 0.021158
# 5 -0.001996 0.009947 0.008095 0.000000 0.038088 0.000000
# 6 0.000000 0.000000 0.000000 0.021158 0.000000 0.035729
#
#
# Mechanical properties :
#
#
# Convention : Reuss Voigt Hill
#
# Bulk Modulus (GPa) = 23.64074 34.32572 28.98323
# Shear Modulus (GPa) = 23.04514 29.52086 26.28300
#
# Velocity S-wave (km/s) = 3.28272 3.71543 3.50576
# Velocity P-wave (km/s) = 5.04214 5.87002 5.47176
#
# Compressibility (1/GPa) = 0.04229985
#
# Stress axis : x y z
#
# Youngs Moduli (GPa) = 87.81756 52.45626 45.59189
#
# Poissons Ratio (x) = 0.20589 0.26318
# Poissons Ratio (y) = 0.34468 -0.21223
# Poissons Ratio (z) = 0.50692 -0.24419
#
# Static dielectric constant tensor:
#      x y z
#    x 1.763690 0.000000 0.047370 
#    y 0.000000 1.819980 0.000000 
#    z 0.047370 0.000000 1.812270 
# 
# From -- ./inp_files/47404.got.cif
#   From: 2010.05.17/outbox.cif.g08.bks.cpg/sg14_24_cif.got.tgz:47404.got - 2010.06.03 17:49:19.
