data_PCOD9249966
_publ_section_title
;
Structure prediction by ZEFSAII (Michael W. Deem and Ramdas Pophale) SiO2 
 PCOD9249966
Probable space group: P 21/C
;
_chemical_formula_sum "Si O2"
_cell_formula_units_Z 16
_cell_length_a 8.581055
_cell_length_b 7.543403
_cell_length_c 17.969725
_cell_angle_alpha 90.000000
_cell_angle_beta 40.606603
_cell_angle_gamma 90.000000
_cell_volume 757.073688
_symmetry_space_group_name_H-M "P 21/C"
_symmetry_group_IT_number 14
_symmetry_cell_setting 'monoclinic'
loop_
_space_group_symop_operation_xyz
x,y,z
-x,1/2+y,1/2-z
-x,-y,-z
x,1/2-y,1/2+z
loop_
_atom_site_type_symbol
_atom_site_label
_atom_site_fract_x
_atom_site_fract_y
_atom_site_fract_z
Si Si1 0.022646 0.049489 0.405934
Si Si2 0.089206 0.957587 0.050404
Si Si3 0.645887 0.510627 0.337155
Si Si4 0.966165 0.750414 0.318521
O O1 0.944511 0.250395 0.424017
O O2 0.289908 0.030160 0.273846
O O3 0.883264 0.908718 0.403957
O O4 0.000000 0.000000 0.500000
O O5 0.960700 0.085680 0.155866
O O6 0.369959 0.003510 0.953618
O O7 0.000000 0.000000 0.000000
O O8 0.769380 0.676253 0.333877
O O9 0.801853 0.338544 0.303971
#
# Coordination Sequence:
#
# PCOD9249966 Si02
#       4
#     4   4   4   4
#     4  10  23  45  65 101 134 180 229 278 348 404
#     4  12  23  43  69 101 141 176 230 284 338 419
#     4  10  24  44  69  99 135 181 225 283 347 395
#     4  10  23  46  64  99 138 172 234 276 344 407
#
# _framework density 21.134005999999999
#
# number of rings (size 3 to 8) (size 9 to 14) (size 15 to 20)
#    1.500    0.000    2.500    2.250    0.000    5.000 
#    9.000    0.000    0.000    0.000    0.000    0.000 
#    0.000    0.000    0.000    0.000    0.000    0.000 
#
# Total GULP energy -89230.821522 kJ/mol
# GULP energy per Si atom -5576.926345 kJ/mol
# Density = 2.108590 g / cm^3
# Si number density = 21.134006 Si / 1000 Ang^3
#
#
#
# Elastic Constant Matrix: (Units=GPa)
#
#
# Indices 1 2 3 4 5 6 
#
# 1 66.3284 38.7327 11.7319 0.0000 -1.3384 0.0000
# 2 38.7327 168.0999 30.9211 0.0000 2.2573 0.0000
# 3 11.7319 30.9211 60.6677 0.0000 2.8282 0.0000
# 4 0.0000 0.0000 0.0000 40.4131 0.0000 18.1598
# 5 -1.3384 2.2573 2.8282 0.0000 40.4805 0.0000
# 6 0.0000 0.0000 0.0000 18.1598 0.0000 30.6949
#
#
#
# Elastic Compliance Matrix: (Units=1/GPa)
#
#
# Indices 1 2 3 4 5 6 
#
# 1 0.017571 -0.003783 -0.001512 0.000000 0.000897 0.000000
# 2 -0.003783 0.007379 -0.003014 0.000000 -0.000326 0.000000
# 3 -0.001512 -0.003014 0.018366 0.000000 -0.001165 0.000000
# 4 0.000000 0.000000 0.000000 0.033705 0.000000 -0.019940
# 5 0.000897 -0.000326 -0.001165 0.000000 0.024833 0.000000
# 6 0.000000 0.000000 0.000000 -0.019940 0.000000 0.044376
#
#
# Mechanical properties :
#
#
# Convention : Reuss Voigt Hill
#
# Bulk Modulus (GPa) = 37.45472 50.87415 44.16444
# Shear Modulus (GPa) = 29.11263 36.56504 32.83884
#
# Velocity S-wave (km/s) = 3.71553 4.16402 3.94615
# Velocity P-wave (km/s) = 6.01397 6.87337 6.45798
#
# Compressibility (1/GPa) = 0.02669890
#
# Stress axis : x y z
#
# Youngs Moduli (GPa) = 56.91247 135.51505 54.44757
#
# Poissons Ratio (x) = 0.51259 0.08231
# Poissons Ratio (y) = 0.21527 0.16413
# Poissons Ratio (z) = 0.08604 0.40850
#
# Static dielectric constant tensor:
#      x y z
#    x 1.757350 0.000000 0.046050 
#    y 0.000000 1.766180 0.000000 
#    z 0.046050 0.000000 1.790460 
# 
# From -- ./inp_files/22513.got.cif
#   From: 2010.05.17/outbox.cif.g08.bks.cpg/sg14_12_cif.got.tgz:22513.got - 2010.06.03 17:49:19.
