data_PCOD9249493
_publ_section_title
;
Structure prediction by ZEFSAII (Michael W. Deem and Ramdas Pophale) SiO2 
 PCOD9249493
Probable space group: P 21/C
;
_chemical_formula_sum "Si O2"
_cell_formula_units_Z 32
_cell_length_a 28.219832
_cell_length_b 9.352955
_cell_length_c 11.237926
_cell_angle_alpha 90.000000
_cell_angle_beta 29.256052
_cell_angle_gamma 90.000000
_cell_volume 1449.584986
_symmetry_space_group_name_H-M "P 21/C"
_symmetry_group_IT_number 14
_symmetry_cell_setting 'monoclinic'
loop_
_space_group_symop_operation_xyz
x,y,z
-x,1/2+y,1/2-z
-x,-y,-z
x,1/2-y,1/2+z
loop_
_atom_site_type_symbol
_atom_site_label
_atom_site_fract_x
_atom_site_fract_y
_atom_site_fract_z
Si Si1 0.589105 0.725896 0.584360
Si Si2 0.276328 0.661114 0.276182
Si Si3 0.086032 0.487373 0.076938
Si Si4 0.297282 0.437906 0.017637
Si Si5 0.726125 0.018922 0.699167
Si Si6 0.883427 0.488991 0.256623
Si Si7 0.557317 0.497973 0.996614
Si Si8 0.893955 0.663241 0.454803
O O1 0.617617 0.827490 0.633457
O O2 0.679160 0.618936 0.364902
O O3 0.501655 0.614951 0.792341
O O4 0.569211 0.844314 0.526280
O O5 0.292810 0.568367 0.121477
O O6 0.166056 0.643529 0.565750
O O7 0.309241 0.823198 0.186991
O O8 0.337807 0.575695 0.240974
O O9 0.066418 0.320941 0.130941
O O10 0.983775 0.565897 0.296952
O O11 0.160314 0.523581 0.018748
O O12 0.140267 0.512005 0.830954
O O13 0.195937 0.356141 0.260428
O O14 0.300549 0.497518 0.879239
O O15 0.856023 0.618941 0.405746
O O16 0.000000 0.500000 0.000000
O O17 0.500000 0.500000 0.000000
#
# Coordination Sequence:
#
# PCOD9249493 Si02
#       8
#     4   4   4   4   4   4   4   4
#     4  11  24  46  67 104 132 175 224 274 345 399
#     4  10  25  44  67 100 133 179 227 273 335 400
#     4  11  25  38  67  93 131 178 226 272 335 400
#     4  10  24  45  65  95 143 172 223 284 329 399
#     4  12  26  40  71  99 133 182 225 275 338 401
#     4   9  22  43  66  89 137 175 220 279 330 387
#     4  11  25  44  74  97 136 177 220 280 337 404
#     4  10  23  42  61  95 131 176 226 278 330 398
#
# _framework density 22.075282999999999
#
# number of rings (size 3 to 8) (size 9 to 14) (size 15 to 20)
#    0.000    1.500    1.250    1.500   10.500    3.500 
#    0.000    4.375    0.000    0.000    0.000    0.000 
#    0.000    0.000    0.000    0.000    0.000    0.000 
#
# Total GULP energy -178668.564964 kJ/mol
# GULP energy per Si atom -5583.392655 kJ/mol
# Density = 2.202504 g / cm^3
# Si number density = 22.075283 Si / 1000 Ang^3
#
#
#
# Elastic Constant Matrix: (Units=GPa)
#
#
# Indices 1 2 3 4 5 6 
#
# 1 89.5583 30.2651 -12.9280 0.0000 -12.3910 0.0000
# 2 30.2651 162.0108 11.0747 0.0000 -7.8954 0.0000
# 3 -12.9280 11.0747 31.7296 0.0000 -14.9668 0.0000
# 4 0.0000 0.0000 0.0000 24.3073 0.0000 -14.3573
# 5 -12.3910 -7.8954 -14.9668 0.0000 24.6412 0.0000
# 6 0.0000 0.0000 0.0000 -14.3573 0.0000 26.0226
#
#
#
# Elastic Compliance Matrix: (Units=1/GPa)
#
#
# Indices 1 2 3 4 5 6 
#
# 1 0.017133 -0.003472 0.016442 0.000000 0.017489 0.000000
# 2 -0.003472 0.007043 -0.005091 0.000000 -0.002581 0.000000
# 3 0.016442 -0.005091 0.060439 0.000000 0.043347 0.000000
# 4 0.000000 0.000000 0.000000 0.061028 0.000000 0.033670
# 5 0.017489 -0.002581 0.043347 0.000000 0.074879 0.000000
# 6 0.000000 0.000000 0.000000 0.033670 0.000000 0.057005
#
#
# Mechanical properties :
#
#
# Convention : Reuss Voigt Hill
#
# Bulk Modulus (GPa) = 9.96278 37.79134 23.87706
# Shear Modulus (GPa) = 16.93626 31.98667 24.46147
#
# Velocity S-wave (km/s) = 2.77285 3.81068 3.33241
# Velocity P-wave (km/s) = 3.84376 6.04303 5.06422
#
# Compressibility (1/GPa) = 0.10037360
#
# Stress axis : x y z
#
# Youngs Moduli (GPa) = 58.36844 141.98010 16.54566
#
# Poissons Ratio (x) = 0.49297 -0.27205
# Poissons Ratio (y) = 0.20266 0.08423
# Poissons Ratio (z) = -0.95970 0.72275
#
# Static dielectric constant tensor:
#      x y z
#    x 1.870930 0.000000 -0.034390 
#    y 0.000000 1.837400 0.000000 
#    z -0.034390 0.000000 1.872720 
# 
# From -- ./inp_files/36471.got.cif
#   From: 2010.05.17/outbox.cif.g08.bks.cpg/sg14_19_cif.got.tgz:36471.got - 2010.06.03 17:49:19.
