data_PCOD9249430
_publ_section_title
;
Structure prediction by ZEFSAII (Michael W. Deem and Ramdas Pophale) SiO2 
 PCOD9249430
Probable space group: P 21/C
;
_chemical_formula_sum "Si O2"
_cell_formula_units_Z 28
_cell_length_a 7.974184
_cell_length_b 17.628845
_cell_length_c 7.236738
_cell_angle_alpha 90.000000
_cell_angle_beta 94.010179
_cell_angle_gamma 90.000000
_cell_volume 1014.818438
_symmetry_space_group_name_H-M "P 21/C"
_symmetry_group_IT_number 14
_symmetry_cell_setting 'monoclinic'
loop_
_space_group_symop_operation_xyz
x,y,z
-x,1/2+y,1/2-z
-x,-y,-z
x,1/2-y,1/2+z
loop_
_atom_site_type_symbol
_atom_site_label
_atom_site_fract_x
_atom_site_fract_y
_atom_site_fract_z
Si Si1 0.019306 0.093273 0.486567
Si Si2 0.238180 0.507911 0.475697
Si Si3 0.484076 0.969900 0.295773
Si Si4 0.651213 0.336505 0.021100
Si Si5 0.471314 0.195545 0.145486
Si Si6 0.992497 0.874112 0.941798
Si Si7 0.232331 0.179262 0.807555
O O1 0.839812 0.131504 0.527266
O O2 0.052861 0.119546 0.277231
O O3 0.162036 0.128898 0.631254
O O4 0.000000 0.000000 0.500000
O O5 0.361904 0.492982 0.317953
O O6 0.323992 0.498015 0.678653
O O7 0.095776 0.444379 0.455691
O O8 0.181164 0.595330 0.462166
O O9 0.500000 0.000000 0.500000
O O10 0.557113 0.348933 0.818782
O O11 0.327304 0.251335 0.728659
O O12 0.615635 0.249142 0.067911
O O13 0.552051 0.381899 0.171197
O O14 0.068247 0.193574 0.930544
O O15 0.367748 0.153108 0.977429
#
# Coordination Sequence:
#
# PCOD9249430 Si02
#       7
#     4   4   4   4   4   4   4
#     4  12  27  49  81 117 161 209 262 330 418 487
#     4  10  23  41  66 110 149 194 246 309 384 475
#     4  11  23  41  74 110 152 200 255 321 406 462
#     4  11  25  51  76 114 157 205 274 334 391 482
#     4  10  27  52  78 112 152 213 276 328 399 470
#     4  11  23  43  70 102 151 194 250 313 386 470
#     4  11  26  50  80 110 155 209 270 333 393 491
#
# _framework density 27.591145000000001
#
# number of rings (size 3 to 8) (size 9 to 14) (size 15 to 20)
#    0.000    1.143    0.000    5.143    6.000    3.429 
#   12.857    1.429    0.000    0.000    0.000    0.000 
#    0.000    0.000    0.000    0.000    0.000    0.000 
#
# Total GULP energy -156781.675258 kJ/mol
# GULP energy per Si atom -5599.345545 kJ/mol
# Density = 2.752835 g / cm^3
# Si number density = 27.591145 Si / 1000 Ang^3
#
#
#
# Elastic Constant Matrix: (Units=GPa)
#
#
# Indices 1 2 3 4 5 6 
#
# 1 115.4914 58.3100 37.2192 0.0000 -1.3238 0.0000
# 2 58.3100 118.1818 33.9906 0.0000 -3.8889 0.0000
# 3 37.2192 33.9906 189.2623 0.0000 4.1405 0.0000
# 4 0.0000 0.0000 0.0000 51.9629 0.0000 -1.7637
# 5 -1.3238 -3.8889 4.1405 0.0000 62.8501 0.0000
# 6 0.0000 0.0000 0.0000 -1.7637 0.0000 56.5334
#
#
#
# Elastic Compliance Matrix: (Units=1/GPa)
#
#
# Indices 1 2 3 4 5 6 
#
# 1 0.011849 -0.005458 -0.001350 0.000000 0.000001 0.000000
# 2 -0.005458 0.011464 -0.001000 0.000000 0.000660 0.000000
# 3 -0.001350 -0.001000 0.005739 0.000000 -0.000468 0.000000
# 4 0.000000 0.000000 0.000000 0.019265 0.000000 0.000601
# 5 0.000001 0.000660 -0.000468 0.000000 0.015983 0.000000
# 6 0.000000 0.000000 0.000000 0.000601 0.000000 0.017707
#
#
# Mechanical properties :
#
#
# Convention : Reuss Voigt Hill
#
# Bulk Modulus (GPa) = 74.42600 75.77501 75.10050
# Shear Modulus (GPa) = 48.97059 53.83032 51.40045
#
# Velocity S-wave (km/s) = 4.21749 4.42180 4.32085
# Velocity P-wave (km/s) = 7.12386 7.32072 7.22296
#
# Compressibility (1/GPa) = 0.01343616
#
# Stress axis : x y z
#
# Youngs Moduli (GPa) = 84.39201 87.23066 174.24671
#
# Poissons Ratio (x) = 0.47612 0.23524
# Poissons Ratio (y) = 0.46062 0.17423
# Poissons Ratio (z) = 0.11393 0.08722
#
# Static dielectric constant tensor:
#      x y z
#    x 2.310230 0.000000 -0.026000 
#    y 0.000000 2.303410 0.000000 
#    z -0.026000 0.000000 2.068830 
# 
# From -- ./inp_files/10859.got.cif
#   From: 2010.05.17/outbox.cif.g08.bks.cpg/sg14_6_cif.got.tgz:10859.got - 2010.06.03 17:49:19.
