data_PCOD9249563
_publ_section_title
;
Structure prediction by ZEFSAII (Michael W. Deem and Ramdas Pophale) SiO2 
 PCOD9249563
Probable space group: P 21/C
;
_chemical_formula_sum "Si O2"
_cell_formula_units_Z 28
_cell_length_a 12.539536
_cell_length_b 9.462322
_cell_length_c 11.025650
_cell_angle_alpha 90.000000
_cell_angle_beta 112.920883
_cell_angle_gamma 90.000000
_cell_volume 1204.934784
_symmetry_space_group_name_H-M "P 21/C"
_symmetry_group_IT_number 14
_symmetry_cell_setting 'monoclinic'
loop_
_space_group_symop_operation_xyz
x,y,z
-x,1/2+y,1/2-z
-x,-y,-z
x,1/2-y,1/2+z
loop_
_atom_site_type_symbol
_atom_site_label
_atom_site_fract_x
_atom_site_fract_y
_atom_site_fract_z
Si Si1 0.164953 0.384371 0.694270
Si Si2 0.522566 0.424472 0.384343
Si Si3 0.257895 0.768296 0.498987
Si Si4 0.881903 0.209644 0.813605
Si Si5 0.928025 0.857784 0.481320
Si Si6 0.695932 0.917112 0.500532
Si Si7 0.602570 0.806832 0.812719
O O1 0.110816 0.539899 0.670823
O O2 0.076922 0.257686 0.627733
O O3 0.238013 0.373889 0.848965
O O4 0.267736 0.368561 0.640708
O O5 0.500000 0.500000 0.500000
O O6 0.648058 0.353558 0.446844
O O7 0.435208 0.300248 0.309348
O O8 0.523164 0.555755 0.290537
O O9 0.186690 0.763900 0.595139
O O10 0.180657 0.754546 0.341781
O O11 0.326192 0.916314 0.507289
O O12 0.008652 0.277359 0.880640
O O13 0.796621 0.903258 0.444326
O O14 0.000000 0.000000 0.500000
O O15 0.599801 0.802098 0.425000
#
# Coordination Sequence:
#
# PCOD9249563 Si02
#       7
#     4   4   4   4   4   4   4
#     4  10  23  43  63  95 135 173 227 273 345 398
#     4  12  27  43  71 100 132 183 234 293 356 427
#     4  11  25  45  70  99 140 175 232 285 351 409
#     4  11  24  45  66 100 138 182 223 285 338 414
#     4  11  23  39  65  97 134 177 228 270 333 409
#     4  10  23  42  66  95 135 177 218 285 337 412
#     4  11  24  44  67  98 133 170 231 280 353 409
#
# _framework density 23.237772
#
# number of rings (size 3 to 8) (size 9 to 14) (size 15 to 20)
#    0.000    1.143    2.857    2.143    6.000    1.143 
#    0.000    3.571    0.000    0.000    0.000    0.000 
#    0.000    0.000    0.000    0.000    0.000    0.000 
#
# Total GULP energy -156310.373681 kJ/mol
# GULP energy per Si atom -5582.513346 kJ/mol
# Density = 2.318488 g / cm^3
# Si number density = 23.237772 Si / 1000 Ang^3
#
#
#
# Elastic Constant Matrix: (Units=GPa)
#
#
# Indices 1 2 3 4 5 6 
#
# 1 32.4862 22.6265 -2.9738 0.0000 3.7400 0.0000
# 2 22.6265 173.7479 59.6695 0.0000 12.7653 0.0000
# 3 -2.9738 59.6695 123.8589 0.0000 1.1122 0.0000
# 4 0.0000 0.0000 0.0000 44.2936 0.0000 13.9516
# 5 3.7400 12.7653 1.1122 0.0000 22.9400 0.0000
# 6 0.0000 0.0000 0.0000 13.9516 0.0000 27.4793
#
#
#
# Elastic Compliance Matrix: (Units=1/GPa)
#
#
# Indices 1 2 3 4 5 6 
#
# 1 0.035354 -0.005630 0.003586 0.000000 -0.002805 0.000000
# 2 -0.005630 0.008118 -0.004015 0.000000 -0.003405 0.000000
# 3 0.003586 -0.004015 0.010084 0.000000 0.001161 0.000000
# 4 0.000000 0.000000 0.000000 0.026874 0.000000 -0.013645
# 5 -0.002805 -0.003405 0.001161 0.000000 0.045888 0.000000
# 6 0.000000 0.000000 0.000000 -0.013645 0.000000 0.043319
#
#
# Mechanical properties :
#
#
# Convention : Reuss Voigt Hill
#
# Bulk Modulus (GPa) = 24.13221 54.30414 39.21818
# Shear Modulus (GPa) = 25.56671 35.66063 30.61367
#
# Velocity S-wave (km/s) = 3.32056 3.92164 3.63355
# Velocity P-wave (km/s) = 5.01088 6.62762 5.87513
#
# Compressibility (1/GPa) = 0.04143839
#
# Stress axis : x y z
#
# Youngs Moduli (GPa) = 28.28499 123.18787 99.16922
#
# Poissons Ratio (x) = 0.69349 -0.35563
# Poissons Ratio (y) = 0.15923 0.39820
# Poissons Ratio (z) = -0.10143 0.49464
#
# Static dielectric constant tensor:
#      x y z
#    x 1.938170 0.000000 -0.043890 
#    y 0.000000 1.881910 0.000000 
#    z -0.043890 0.000000 1.903710 
# 
# From -- ./inp_files/31466.got.cif
#   From: 2010.05.17/outbox.cif.g08.bks.cpg/sg14_16_cif.got.tgz:31466.got - 2010.06.03 17:49:19.
