data_PCOD9249292
_publ_section_title
;
Structure prediction by ZEFSAII (Michael W. Deem and Ramdas Pophale) SiO2 
 PCOD9249292
Probable space group: P 21/C
;
_chemical_formula_sum "Si O2"
_cell_formula_units_Z 28
_cell_length_a 17.755442
_cell_length_b 9.922914
_cell_length_c 7.426456
_cell_angle_alpha 90.000000
_cell_angle_beta 105.227580
_cell_angle_gamma 90.000000
_cell_volume 1262.496584
_symmetry_space_group_name_H-M "P 21/C"
_symmetry_group_IT_number 14
_symmetry_cell_setting 'monoclinic'
loop_
_space_group_symop_operation_xyz
x,y,z
-x,1/2+y,1/2-z
-x,-y,-z
x,1/2-y,1/2+z
loop_
_atom_site_type_symbol
_atom_site_label
_atom_site_fract_x
_atom_site_fract_y
_atom_site_fract_z
Si Si1 0.099980 0.912820 0.151716
Si Si2 0.137219 0.374646 0.989057
Si Si3 0.715552 0.475663 0.811951
Si Si4 0.260695 0.787935 0.320724
Si Si5 0.430426 0.848916 0.323058
Si Si6 0.063630 0.107323 0.816249
Si Si7 0.542146 0.447174 0.754314
O O1 0.176549 0.822700 0.187323
O O2 0.023727 0.844130 0.190124
O O3 0.120019 0.033686 0.304111
O O4 0.077459 0.974993 0.945002
O O5 0.223601 0.405210 0.119748
O O6 0.079400 0.411884 0.116315
O O7 0.122552 0.221899 0.922921
O O8 0.735221 0.374005 0.661827
O O9 0.624487 0.511496 0.745209
O O10 0.730193 0.377471 0.994131
O O11 0.337579 0.828782 0.253780
O O12 0.444613 0.909345 0.528368
O O13 0.467471 0.699899 0.338357
O O14 0.470609 0.949180 0.206042
#
# Coordination Sequence:
#
# PCOD9249292 Si02
#       7
#     4   4   4   4   4   4   4
#     4  10  23  40  59  84 112 155 198 236 292 343
#     4  11  22  42  59  85 118 153 193 242 288 345
#     4   9  20  36  58  83 113 147 190 235 287 343
#     4   9  19  36  57  81 112 146 190 237 282 346
#     4   9  18  35  58  81 117 148 190 237 288 343
#     4  11  23  39  60  82 118 153 193 245 290 340
#     4   9  18  36  56  85 115 151 188 239 287 346
#
# _framework density 22.178277000000001
#
# number of rings (size 3 to 8) (size 9 to 14) (size 15 to 20)
#    0.000    2.286    1.429    0.429    2.000    4.000 
#    2.571    1.429    0.000    0.000    0.000    0.000 
#    0.000    0.000    0.000    0.000    0.000    0.000 
#
# Total GULP energy -156365.277225 kJ/mol
# GULP energy per Si atom -5584.474187 kJ/mol
# Density = 2.212780 g / cm^3
# Si number density = 22.178277 Si / 1000 Ang^3
#
#
#
# Elastic Constant Matrix: (Units=GPa)
#
#
# Indices 1 2 3 4 5 6 
#
# 1 103.3263 36.8616 1.8716 0.0000 4.7828 0.0000
# 2 36.8616 47.5937 -5.1221 0.0000 0.1613 0.0000
# 3 1.8716 -5.1221 46.2296 0.0000 -1.9908 0.0000
# 4 0.0000 0.0000 0.0000 12.1495 0.0000 15.4437
# 5 4.7828 0.1613 -1.9908 0.0000 25.5801 0.0000
# 6 0.0000 0.0000 0.0000 15.4437 0.0000 3.6265
#
#
#
# Elastic Compliance Matrix: (Units=1/GPa)
#
#
# Indices 1 2 3 4 5 6 
#
# 1 0.013683 -0.010789 -0.001863 0.000000 -0.002635 0.000000
# 2 -0.010789 0.029772 0.003827 0.000000 0.002127 0.000000
# 3 -0.001863 0.003827 0.022219 0.000000 0.002053 0.000000
# 4 0.000000 0.000000 0.000000 -0.018650 0.000000 0.079423
# 5 -0.002635 0.002127 0.002053 0.000000 0.039732 0.000000
# 6 0.000000 0.000000 0.000000 0.079423 0.000000 -0.062482
#
#
# Mechanical properties :
#
#
# Convention : Reuss Voigt Hill
#
# Bulk Modulus (GPa) = 20.82278 29.37464 25.09871
# Shear Modulus (GPa) = 86.30972 19.17379 52.74175
#
# Velocity S-wave (km/s) = 6.24506 2.94348 4.88185
# Velocity P-wave (km/s) = 7.83647 4.98253 6.56643
#
# Compressibility (1/GPa) = 0.04802433
#
# Stress axis : x y z
#
# Youngs Moduli (GPa) = 73.08484 33.58873 45.00645
#
# Poissons Ratio (x) = 0.36239 0.08384
# Poissons Ratio (y) = 0.78850 -0.17224
# Poissons Ratio (z) = 0.13614 -0.12854
#
# Static dielectric constant tensor:
#      x y z
#    x 1.831900 0.000000 -0.022410 
#    y 0.000000 1.793590 0.000000 
#    z -0.022410 0.000000 1.851340 
# 
# From -- ./inp_files/17600.got.cif
#   From: 2010.05.17/outbox.cif.g08.bks.cpg/sg14_9_cif.got.tgz:17600.got - 2010.06.03 17:49:19.
