data_PCOD9249650
_publ_section_title
;
Structure prediction by ZEFSAII (Michael W. Deem and Ramdas Pophale) SiO2 
 PCOD9249650
Probable space group: P 21/C
;
_chemical_formula_sum "Si O2"
_cell_formula_units_Z 32
_cell_length_a 5.637252
_cell_length_b 11.486032
_cell_length_c 19.810590
_cell_angle_alpha 90.000000
_cell_angle_beta 76.363761
_cell_angle_gamma 90.000000
_cell_volume 1246.571447
_symmetry_space_group_name_H-M "P 21/C"
_symmetry_group_IT_number 14
_symmetry_cell_setting 'monoclinic'
loop_
_space_group_symop_operation_xyz
x,y,z
-x,1/2+y,1/2-z
-x,-y,-z
x,1/2-y,1/2+z
loop_
_atom_site_type_symbol
_atom_site_label
_atom_site_fract_x
_atom_site_fract_y
_atom_site_fract_z
Si Si1 0.859836 0.775926 0.276354
Si Si2 0.821440 0.330647 0.628804
Si Si3 0.450534 0.589900 0.860174
Si Si4 0.762644 0.845647 0.990195
Si Si5 0.879396 0.238032 0.378480
Si Si6 0.419633 0.051110 0.229203
Si Si7 0.618486 0.456427 0.406604
Si Si8 0.340800 0.366692 0.930854
O O1 0.728566 0.889051 0.315940
O O2 0.661929 0.684622 0.259885
O O3 0.981037 0.718585 0.332748
O O4 0.042986 0.774900 0.201848
O O5 0.656212 0.218368 0.622956
O O6 0.690311 0.431718 0.680252
O O7 0.965373 0.368440 0.552727
O O8 0.359308 0.519960 0.799794
O O9 0.368562 0.505951 0.926423
O O10 0.612403 0.921711 0.946003
O O11 0.645073 0.894825 0.067026
O O12 0.710606 0.707528 0.997732
O O13 0.804473 0.358435 0.420300
O O14 0.618627 0.170412 0.390384
O O15 0.103208 0.172899 0.401508
O O16 0.301991 0.987236 0.173769
#
# Coordination Sequence:
#
# PCOD9249650 Si02
#       8
#     4   4   4   4   4   4   4   4
#     4  11  24  42  67 103 142 180 235 298 360 431
#     4  11  25  42  68 102 141 184 238 296 354 434
#     4  11  26  42  70 103 140 192 234 295 367 425
#     4  10  24  44  68 101 142 185 244 291 353 430
#     4  11  25  43  72 108 140 178 239 303 359 427
#     4  11  23  43  71 104 140 176 238 300 366 423
#     4  10  23  42  71 104 136 186 234 304 366 414
#     4  11  26  47  69 103 144 190 241 293 351 435
#
# _framework density 25.670413
#
# number of rings (size 3 to 8) (size 9 to 14) (size 15 to 20)
#    0.000    1.250    2.500    1.500    8.750    6.500 
#    0.000    0.625    0.000    0.000    0.000    0.000 
#    0.000    0.000    0.000    0.000    0.000    0.000 
#
# Total GULP energy -178507.182001 kJ/mol
# GULP energy per Si atom -5578.349438 kJ/mol
# Density = 2.561199 g / cm^3
# Si number density = 25.670413 Si / 1000 Ang^3
#
#
#
# Elastic Constant Matrix: (Units=GPa)
#
#
# Indices 1 2 3 4 5 6 
#
# 1 92.6990 23.9023 7.5594 0.0000 -18.7510 0.0000
# 2 23.9023 77.9208 -1.6137 0.0000 -10.0935 0.0000
# 3 7.5594 -1.6137 55.1892 0.0000 -19.9995 0.0000
# 4 0.0000 0.0000 0.0000 44.8992 0.0000 -13.0468
# 5 -18.7510 -10.0935 -19.9995 0.0000 41.2578 0.0000
# 6 0.0000 0.0000 0.0000 -13.0468 0.0000 37.7644
#
#
#
# Elastic Compliance Matrix: (Units=1/GPa)
#
#
# Indices 1 2 3 4 5 6 
#
# 1 0.012621 -0.003234 -0.000038 0.000000 0.004926 0.000000
# 2 -0.003234 0.014248 0.001929 0.000000 0.002951 0.000000
# 3 -0.000038 0.001929 0.022255 0.000000 0.011243 0.000000
# 4 0.000000 0.000000 0.000000 0.024757 0.000000 0.008553
# 5 0.004926 0.002951 0.011243 0.000000 0.032649 0.000000
# 6 0.000000 0.000000 0.000000 0.008553 0.000000 0.029435
#
#
# Mechanical properties :
#
#
# Convention : Reuss Voigt Hill
#
# Bulk Modulus (GPa) = 21.53431 31.72278 26.62854
# Shear Modulus (GPa) = 32.43990 37.84834 35.14412
#
# Velocity S-wave (km/s) = 3.55872 3.84395 3.70408
# Velocity P-wave (km/s) = 5.02921 5.66444 5.35625
#
# Compressibility (1/GPa) = 0.04643753
#
# Stress axis : x y z
#
# Youngs Moduli (GPa) = 79.23212 70.18613 44.93317
#
# Poissons Ratio (x) = 0.22700 0.00171
# Poissons Ratio (y) = 0.25625 -0.08667
# Poissons Ratio (z) = 0.00302 -0.13538
#
# Static dielectric constant tensor:
#      x y z
#    x 2.141220 0.000000 -0.031010 
#    y 0.000000 2.060800 0.000000 
#    z -0.031010 0.000000 2.042480 
# 
# From -- ./inp_files/71239.got.cif
#   From: 2010.05.17/outbox.cif.g08.bks.cpg/sg14_36_cif.got.tgz:71239.got - 2010.06.03 17:49:19.
