data_PCOD9249241
_publ_section_title
;
Structure prediction by ZEFSAII (Michael W. Deem and Ramdas Pophale) SiO2 
 PCOD9249241
Probable space group: P 21/C
;
_chemical_formula_sum "Si O2"
_cell_formula_units_Z 28
_cell_length_a 14.572862
_cell_length_b 5.702703
_cell_length_c 19.620363
_cell_angle_alpha 90.000000
_cell_angle_beta 46.761836
_cell_angle_gamma 90.000000
_cell_volume 1187.872014
_symmetry_space_group_name_H-M "P 21/C"
_symmetry_group_IT_number 14
_symmetry_cell_setting 'monoclinic'
loop_
_space_group_symop_operation_xyz
x,y,z
-x,1/2+y,1/2-z
-x,-y,-z
x,1/2-y,1/2+z
loop_
_atom_site_type_symbol
_atom_site_label
_atom_site_fract_x
_atom_site_fract_y
_atom_site_fract_z
Si Si1 0.402825 0.067010 0.229367
Si Si2 0.206250 0.275341 0.724261
Si Si3 0.119739 0.589140 0.361121
Si Si4 0.457274 0.067150 0.357976
Si Si5 0.964932 0.985292 0.382976
Si Si6 0.742045 0.714309 0.449536
Si Si7 0.840729 0.373806 0.512531
O O1 0.275881 0.098666 0.251517
O O2 0.392048 0.074126 0.316590
O O3 0.480391 0.307013 0.170257
O O4 0.459396 0.808658 0.183785
O O5 0.281402 0.335056 0.617641
O O6 0.062341 0.361119 0.791098
O O7 0.193295 0.007050 0.757956
O O8 0.199485 0.575628 0.389930
O O9 0.055650 0.838555 0.385243
O O10 0.990345 0.439280 0.433979
O O11 0.361972 0.111141 0.468316
O O12 0.881866 0.824580 0.376957
O O13 0.857474 0.107412 0.482785
O O14 0.760375 0.508714 0.496499
#
# Coordination Sequence:
#
# PCOD9249241 Si02
#       7
#     4   4   4   4   4   4   4
#     4  10  24  48  74 101 133 178 239 303 357 410
#     4  11  25  40  65  97 140 185 226 278 346 427
#     4   9  19  37  59  90 125 168 225 277 329 396
#     4  10  24  48  74 101 133 178 239 303 357 410
#     4  10  23  38  64  96 139 184 222 278 347 414
#     4  11  25  40  65  97 140 185 226 278 346 427
#     4   9  19  37  59  90 125 168 225 277 329 396
#
# _framework density 23.571562
#
# number of rings (size 3 to 8) (size 9 to 14) (size 15 to 20)
#    0.000    2.000    0.000    1.286   10.000    4.571 
#    0.000    0.000    0.000    0.000    0.000    0.000 
#    0.000    0.000    0.000    0.000    0.000    0.000 
#
# Total GULP energy -156118.733167 kJ/mol
# GULP energy per Si atom -5575.669042 kJ/mol
# Density = 2.351791 g / cm^3
# Si number density = 23.571562 Si / 1000 Ang^3
#
#
#
# Elastic Constant Matrix: (Units=GPa)
#
#
# Indices 1 2 3 4 5 6 
#
# 1 37.8186 19.2410 -12.5142 0.0000 -11.8375 0.0000
# 2 19.2410 93.1085 23.4273 0.0000 -6.3453 0.0000
# 3 -12.5142 23.4273 60.0481 0.0000 -11.7236 0.0000
# 4 0.0000 0.0000 0.0000 17.8140 0.0000 -17.2626
# 5 -11.8375 -6.3453 -11.7236 0.0000 19.8431 0.0000
# 6 0.0000 0.0000 0.0000 -17.2626 0.0000 30.9517
#
#
#
# Elastic Compliance Matrix: (Units=1/GPa)
#
#
# Indices 1 2 3 4 5 6 
#
# 1 0.057298 -0.015511 0.026787 0.000000 0.045048 0.000000
# 2 -0.015511 0.016133 -0.011672 0.000000 -0.010990 0.000000
# 3 0.026787 -0.011672 0.032986 0.000000 0.031736 0.000000
# 4 0.000000 0.000000 0.000000 0.122158 0.000000 0.068131
# 5 0.045048 -0.010990 0.031736 0.000000 0.092505 0.000000
# 6 0.000000 0.000000 0.000000 0.068131 0.000000 0.070307
#
#
# Mechanical properties :
#
#
# Convention : Reuss Voigt Hill
#
# Bulk Modulus (GPa) = 9.46743 27.92036 18.69390
# Shear Modulus (GPa) = 11.69902 24.44316 18.07109
#
# Velocity S-wave (km/s) = 2.23024 3.22371 2.77184
# Velocity P-wave (km/s) = 3.26453 5.07218 4.26522
#
# Compressibility (1/GPa) = 0.10562526
#
# Stress axis : x y z
#
# Youngs Moduli (GPa) = 17.45272 61.98311 30.31604
#
# Poissons Ratio (x) = 0.96140 -0.81209
# Poissons Ratio (y) = 0.27070 0.35386
# Poissons Ratio (z) = -0.46751 0.72350
#
# Static dielectric constant tensor:
#      x y z
#    x 1.965370 0.000000 0.037890 
#    y 0.000000 2.077940 0.000000 
#    z 0.037890 0.000000 1.928020 
# 
# From -- ./inp_files/58400.got.cif
#   From: 2010.05.17/outbox.cif.g08.bks.cpg/sg14_30_cif.got.tgz:58400.got - 2010.06.03 17:49:19.
