data_PCOD9249148
_publ_section_title
;
Structure prediction by ZEFSAII (Michael W. Deem and Ramdas Pophale) SiO2 
 PCOD9249148
Probable space group: P 21/C
;
_chemical_formula_sum "Si O2"
_cell_formula_units_Z 24
_cell_length_a 13.222634
_cell_length_b 4.834195
_cell_length_c 18.317055
_cell_angle_alpha 90.000000
_cell_angle_beta 44.840259
_cell_angle_gamma 90.000000
_cell_volume 825.597930
_symmetry_space_group_name_H-M "P 21/C"
_symmetry_group_IT_number 14
_symmetry_cell_setting 'monoclinic'
loop_
_space_group_symop_operation_xyz
x,y,z
-x,1/2+y,1/2-z
-x,-y,-z
x,1/2-y,1/2+z
loop_
_atom_site_type_symbol
_atom_site_label
_atom_site_fract_x
_atom_site_fract_y
_atom_site_fract_z
Si Si1 0.586339 0.672659 0.374713
Si Si2 0.089426 0.176300 0.538543
Si Si3 0.660271 0.885430 0.486022
Si Si4 0.432873 0.699455 0.746026
Si Si5 0.171767 0.430880 0.348688
Si Si6 0.931104 0.200234 0.322302
O O1 0.613922 0.676071 0.446495
O O2 0.549067 0.401824 0.346633
O O3 0.731435 0.780342 0.260941
O O4 0.460702 0.897158 0.427207
O O5 0.237350 0.252912 0.505349
O O6 0.454094 0.081380 0.280264
O O7 0.120180 0.217092 0.437341
O O8 0.055141 0.890452 0.599274
O O9 0.772460 0.092873 0.386814
O O10 0.046941 0.874727 0.881273
O O11 0.281499 0.851532 0.831251
O O12 0.960348 0.502805 0.277793
#
# Coordination Sequence:
#
# PCOD9249148 Si02
#       6
#     4   4   4   4   4   4
#     4  11  24  49  83 123 170 227 284 351 436 513
#     4   9  24  48  82 129 168 222 285 350 425 522
#     4   9  24  48  82 129 168 222 285 350 425 522
#     4  12  28  50  84 118 166 226 284 350 430 500
#     4  11  24  49  83 123 170 227 284 351 436 513
#     4  10  22  46  78 114 166 216 266 342 416 490
#
# _framework density 29.069841
#
# number of rings (size 3 to 8) (size 9 to 14) (size 15 to 20)
#    1.000    0.667    1.667    1.000    7.000    0.000 
#    9.000    3.333    0.000    2.000    0.000    0.000 
#    0.000    0.000    0.000    0.000    0.000    0.000 
#
# Total GULP energy -134680.566010 kJ/mol
# GULP energy per Si atom -5611.690250 kJ/mol
# Density = 2.900368 g / cm^3
# Si number density = 29.069841 Si / 1000 Ang^3
#
#
#
# Elastic Constant Matrix: (Units=GPa)
#
#
# Indices 1 2 3 4 5 6 
#
# 1 153.6758 31.4900 43.7377 0.0000 5.9188 0.0000
# 2 31.4900 151.1816 27.8803 0.0000 -10.2038 0.0000
# 3 43.7377 27.8803 155.4373 0.0000 15.1846 0.0000
# 4 0.0000 0.0000 0.0000 42.4651 0.0000 3.8945
# 5 5.9188 -10.2038 15.1846 0.0000 52.6701 0.0000
# 6 0.0000 0.0000 0.0000 3.8945 0.0000 49.8100
#
#
#
# Elastic Compliance Matrix: (Units=1/GPa)
#
#
# Indices 1 2 3 4 5 6 
#
# 1 0.007285 -0.001226 -0.001777 0.000000 -0.000544 0.000000
# 2 -0.001226 0.007204 -0.001129 0.000000 0.001859 0.000000
# 3 -0.001777 -0.001129 0.007345 0.000000 -0.002136 0.000000
# 4 0.000000 0.000000 0.000000 0.023719 0.000000 -0.001855
# 5 -0.000544 0.001859 -0.002136 0.000000 0.020023 0.000000
# 6 0.000000 0.000000 0.000000 -0.001855 0.000000 0.020221
#
#
# Mechanical properties :
#
#
# Convention : Reuss Voigt Hill
#
# Bulk Modulus (GPa) = 73.69390 74.05674 73.87532
# Shear Modulus (GPa) = 50.71837 52.80148 51.75993
#
# Velocity S-wave (km/s) = 4.18150 4.26651 4.22422
# Velocity P-wave (km/s) = 6.97990 7.05702 7.01856
#
# Compressibility (1/GPa) = 0.01356964
#
# Stress axis : x y z
#
# Youngs Moduli (GPa) = 137.26499 138.81931 136.15534
#
# Poissons Ratio (x) = 0.17026 0.24192
# Poissons Ratio (y) = 0.16836 0.15366
# Poissons Ratio (z) = 0.24389 0.15667
#
# Static dielectric constant tensor:
#      x y z
#    x 2.310930 0.000000 -0.072110 
#    y 0.000000 2.224930 0.000000 
#    z -0.072110 0.000000 2.378580 
# 
# From -- ./inp_files/74457.got.cif
#   From: 2010.05.17/outbox.cif.g08.bks.cpg/sg14_38_cif.got.tgz:74457.got - 2010.06.03 17:49:19.
