data_PCOD9249319
_publ_section_title
;
Structure prediction by ZEFSAII (Michael W. Deem and Ramdas Pophale) SiO2 
 PCOD9249319
Probable space group: P 21/C
;
_chemical_formula_sum "Si O2"
_cell_formula_units_Z 32
_cell_length_a 31.928857
_cell_length_b 8.244937
_cell_length_c 18.642369
_cell_angle_alpha 90.000000
_cell_angle_beta 17.563772
_cell_angle_gamma 90.000000
_cell_volume 1480.961422
_symmetry_space_group_name_H-M "P 21/C"
_symmetry_group_IT_number 14
_symmetry_cell_setting 'monoclinic'
loop_
_space_group_symop_operation_xyz
x,y,z
-x,1/2+y,1/2-z
-x,-y,-z
x,1/2-y,1/2+z
loop_
_atom_site_type_symbol
_atom_site_label
_atom_site_fract_x
_atom_site_fract_y
_atom_site_fract_z
Si Si1 0.080088 0.826694 0.709263
Si Si2 0.505187 0.691883 0.477357
Si Si3 0.730965 0.159643 0.739967
Si Si4 0.224658 0.349850 0.417797
Si Si5 0.710667 0.380412 0.583701
Si Si6 0.868475 0.879292 0.727407
Si Si7 0.199667 0.185925 0.318615
Si Si8 0.984356 0.316702 0.391679
O O1 0.176933 0.856521 0.482715
O O2 0.186815 0.770289 0.596116
O O3 0.002994 0.993010 0.851503
O O4 0.965370 0.684925 0.893878
O O5 0.500000 0.500000 0.500000
O O6 0.417268 0.719450 0.547915
O O7 0.663347 0.746417 0.220220
O O8 0.434571 0.801310 0.655914
O O9 0.824918 0.265074 0.640534
O O10 0.725417 0.980212 0.782192
O O11 0.240857 0.529658 0.421419
O O12 0.252230 0.321057 0.288868
O O13 0.075228 0.279905 0.683449
O O14 0.748558 0.513831 0.462526
O O15 0.804418 0.802874 0.760141
O O16 0.939088 0.743868 0.661923
O O17 0.000000 0.000000 0.500000
#
# Coordination Sequence:
#
# PCOD9249319 Si02
#       8
#     4   4   4   4   4   4   4   4
#     4  11  20  33  60  97 122 158 210 272 320 370
#     4  11  22  39  65  98 123 161 216 274 326 384
#     4  11  20  36  61  97 122 163 207 280 323 371
#     4  11  21  39  64  96 122 165 215 275 321 382
#     4  10  23  40  64  89 134 165 210 272 333 381
#     4  11  22  40  59  91 130 175 205 257 330 391
#     4  12  21  35  62  87 129 165 213 259 324 384
#     4  11  22  37  65  93 131 160 216 269 324 385
#
# _framework density 21.607586000000001
#
# number of rings (size 3 to 8) (size 9 to 14) (size 15 to 20)
#    0.000    1.000    6.250    1.875    3.500    0.500 
#    0.000    0.000    5.500    0.000    0.000    0.000 
#    0.000    0.000    0.000    0.000    0.000    0.000 
#
# Total GULP energy -178419.672075 kJ/mol
# GULP energy per Si atom -5575.614752 kJ/mol
# Density = 2.155841 g / cm^3
# Si number density = 21.607586 Si / 1000 Ang^3
#
#
#
# Elastic Constant Matrix: (Units=GPa)
#
#
# Indices 1 2 3 4 5 6 
#
# 1 135.1502 23.5380 9.0959 0.0000 -0.8178 0.0000
# 2 23.5380 76.7221 2.3339 0.0000 0.1840 0.0000
# 3 9.0959 2.3339 34.8271 0.0000 -18.3010 0.0000
# 4 0.0000 0.0000 0.0000 28.3528 0.0000 -2.8412
# 5 -0.8178 0.1840 -18.3010 0.0000 31.8493 0.0000
# 6 0.0000 0.0000 0.0000 -2.8412 0.0000 30.6247
#
#
#
# Elastic Compliance Matrix: (Units=1/GPa)
#
#
# Indices 1 2 3 4 5 6 
#
# 1 0.007978 -0.002366 -0.002593 0.000000 -0.001272 0.000000
# 2 -0.002366 0.013777 -0.000543 0.000000 -0.000452 0.000000
# 3 -0.002593 -0.000543 0.042108 0.000000 0.024132 0.000000
# 4 0.000000 0.000000 0.000000 0.035601 0.000000 0.003303
# 5 -0.001272 -0.000452 0.024132 0.000000 0.045235 0.000000
# 6 0.000000 0.000000 0.000000 0.003303 0.000000 0.032960
#
#
# Mechanical properties :
#
#
# Convention : Reuss Voigt Hill
#
# Bulk Modulus (GPa) = 18.91820 35.18168 27.04994
# Shear Modulus (GPa) = 24.23853 32.28078 28.25966
#
# Velocity S-wave (km/s) = 3.35290 3.86937 3.62036
# Velocity P-wave (km/s) = 4.87480 6.02330 5.47922
#
# Compressibility (1/GPa) = 0.05285914
#
# Stress axis : x y z
#
# Youngs Moduli (GPa) = 125.34417 72.58243 23.74838
#
# Poissons Ratio (x) = 0.17171 0.06159
# Poissons Ratio (y) = 0.29652 0.01290
# Poissons Ratio (z) = 0.32506 0.03943
#
# Static dielectric constant tensor:
#      x y z
#    x 1.858940 0.000000 -0.010470 
#    y 0.000000 1.825870 0.000000 
#    z -0.010470 0.000000 1.805110 
# 
# From -- ./inp_files/62657.got.cif
#   From: 2010.05.17/outbox.cif.g08.bks.cpg/sg14_32_cif.got.tgz:62657.got - 2010.06.03 17:49:19.
