data_PCOD9249207
_publ_section_title
;
Structure prediction by ZEFSAII (Michael W. Deem and Ramdas Pophale) SiO2 
 PCOD9249207
Probable space group: P 21/C
;
_chemical_formula_sum "Si O2"
_cell_formula_units_Z 28
_cell_length_a 8.915689
_cell_length_b 17.783418
_cell_length_c 8.896189
_cell_angle_alpha 90.000000
_cell_angle_beta 96.601610
_cell_angle_gamma 90.000000
_cell_volume 1401.151143
_symmetry_space_group_name_H-M "P 21/C"
_symmetry_group_IT_number 14
_symmetry_cell_setting 'monoclinic'
loop_
_space_group_symop_operation_xyz
x,y,z
-x,1/2+y,1/2-z
-x,-y,-z
x,1/2-y,1/2+z
loop_
_atom_site_type_symbol
_atom_site_label
_atom_site_fract_x
_atom_site_fract_y
_atom_site_fract_z
Si Si1 0.017991 0.736050 0.439224
Si Si2 0.443240 0.448624 0.632100
Si Si3 0.736317 0.005822 0.624926
Si Si4 0.060271 0.355274 0.841335
Si Si5 0.138149 0.454858 0.431434
Si Si6 0.100052 0.853281 0.209935
Si Si7 0.262908 0.573584 0.204609
O O1 0.106251 0.791423 0.338547
O O2 0.130899 0.686594 0.554693
O O3 0.916748 0.789951 0.533041
O O4 0.923449 0.681383 0.320578
O O5 0.500000 0.500000 0.500000
O O6 0.406748 0.487901 0.787535
O O7 0.275491 0.429504 0.553763
O O8 0.584247 0.396133 0.697645
O O9 0.843555 0.931344 0.626355
O O10 0.814450 0.072987 0.727600
O O11 0.709345 0.036998 0.455363
O O12 0.880965 0.372826 0.831980
O O13 0.202011 0.510585 0.312898
O O14 0.000000 0.500000 0.500000
O O15 0.068964 0.383381 0.339071
#
# Coordination Sequence:
#
# PCOD9249207 Si02
#       7
#     4   4   4   4   4   4   4
#     4  10  23  34  54  95 125 155 196 260 306 366
#     4  10  23  35  55  96 123 154 196 267 311 361
#     4  12  21  38  65  91 119 160 212 262 305 357
#     4  11  21  38  62  91 121 160 206 257 303 367
#     4  11  19  36  61  90 117 157 202 255 303 356
#     4  11  20  36  59  90 119 153 205 254 305 352
#     4  11  21  35  59  91 126 152 202 256 308 359
#
# _framework density 19.98357
#
# number of rings (size 3 to 8) (size 9 to 14) (size 15 to 20)
#    0.000    1.143    4.286    3.429    2.000    0.000 
#    0.000    0.000    0.000    6.857    0.000    0.000 
#    0.000    0.000    0.000    0.000    0.000    0.000 
#
# Total GULP energy -155947.893583 kJ/mol
# GULP energy per Si atom -5569.567628 kJ/mol
# Density = 1.993809 g / cm^3
# Si number density = 19.983570 Si / 1000 Ang^3
#
#
#
# Elastic Constant Matrix: (Units=GPa)
#
#
# Indices 1 2 3 4 5 6 
#
# 1 85.9860 26.8697 30.8525 0.0000 11.5136 0.0000
# 2 26.8697 88.5235 30.9135 0.0000 11.4764 0.0000
# 3 30.8525 30.9135 122.3478 0.0000 -0.6162 0.0000
# 4 0.0000 0.0000 0.0000 33.9557 0.0000 -1.6443
# 5 11.5136 11.4764 -0.6162 0.0000 34.4054 0.0000
# 6 0.0000 0.0000 0.0000 -1.6443 0.0000 4.0622
#
#
#
# Elastic Compliance Matrix: (Units=1/GPa)
#
#
# Indices 1 2 3 4 5 6 
#
# 1 0.014032 -0.002765 -0.002859 0.000000 -0.003825 0.000000
# 2 -0.002765 0.013569 -0.002750 0.000000 -0.003650 0.000000
# 3 -0.002859 -0.002750 0.009599 0.000000 0.002046 0.000000
# 4 0.000000 0.000000 0.000000 0.030039 0.000000 0.012159
# 5 -0.003825 -0.003650 0.002046 0.000000 0.031599 0.000000
# 6 0.000000 0.000000 0.000000 0.012159 0.000000 0.251093
#
#
# Mechanical properties :
#
#
# Convention : Reuss Voigt Hill
#
# Bulk Modulus (GPa) = 48.89218 52.68096 50.78657
# Shear Modulus (GPa) = 13.38703 28.36611 20.87657
#
# Velocity S-wave (km/s) = 2.59105 3.77167 3.23567
# Velocity P-wave (km/s) = 5.78539 6.73697 6.27923
#
# Compressibility (1/GPa) = 0.02045317
#
# Stress axis : x y z
#
# Youngs Moduli (GPa) = 71.26693 73.69690 104.17265
#
# Poissons Ratio (x) = 0.20376 0.29784
# Poissons Ratio (y) = 0.19704 0.28644
# Poissons Ratio (z) = 0.20376 0.20264
#
# Static dielectric constant tensor:
#      x y z
#    x 1.748790 0.000000 0.011550 
#    y 0.000000 1.774470 0.000000 
#    z 0.011550 0.000000 1.781590 
# 
# From -- ./inp_files/9467.got.cif
#   From: 2010.05.17/outbox.cif.g08.bks.cpg/sg14_5_cif.got.tgz:9467.got - 2010.06.03 17:49:19.
