data_PCOD9249073
_publ_section_title
;
Structure prediction by ZEFSAII (Michael W. Deem and Ramdas Pophale) SiO2 
 PCOD9249073
Probable space group: P 21/C
;
_chemical_formula_sum "Si O2"
_cell_formula_units_Z 24
_cell_length_a 10.702561
_cell_length_b 9.782526
_cell_length_c 10.401297
_cell_angle_alpha 90.000000
_cell_angle_beta 70.855946
_cell_angle_gamma 90.000000
_cell_volume 1028.771144
_symmetry_space_group_name_H-M "P 21/C"
_symmetry_group_IT_number 14
_symmetry_cell_setting 'monoclinic'
loop_
_space_group_symop_operation_xyz
x,y,z
-x,1/2+y,1/2-z
-x,-y,-z
x,1/2-y,1/2+z
loop_
_atom_site_type_symbol
_atom_site_label
_atom_site_fract_x
_atom_site_fract_y
_atom_site_fract_z
Si Si1 0.921451 0.059126 0.907917
Si Si2 0.681480 0.210159 0.113537
Si Si3 0.026310 0.354794 0.825850
Si Si4 0.578845 0.662991 0.171269
Si Si5 0.797643 0.019657 0.541416
Si Si6 0.551390 0.847497 0.961650
O O1 0.999044 0.193376 0.827353
O O2 0.783580 0.109480 0.013079
O O3 0.909401 0.935551 0.812750
O O4 0.000000 0.000000 0.000000
O O5 0.578689 0.150193 0.251916
O O6 0.762750 0.342301 0.133915
O O7 0.576004 0.244584 0.035727
O O8 0.110691 0.405859 0.920878
O O9 0.880722 0.422499 0.894959
O O10 0.655553 0.546711 0.069550
O O11 0.606485 0.795854 0.077270
O O12 0.632363 0.661945 0.300795
O O13 0.500000 0.000000 0.000000
#
# Coordination Sequence:
#
# PCOD9249073 Si02
#       6
#     4   4   4   4   4   4
#     4  11  26  46  73 106 140 189 246 293 359 436
#     4   9  24  40  71  96 142 187 233 302 370 424
#     4  10  26  44  74  99 145 190 240 301 357 426
#     4  10  23  41  72  98 139 184 237 293 368 426
#     4  10  22  46  66 101 139 187 241 292 363 428
#     4  10  23  41  63 104 135 184 233 293 365 430
#
# _framework density 23.328803000000001
#
# number of rings (size 3 to 8) (size 9 to 14) (size 15 to 20)
#    1.000    1.000    0.000    1.000   11.667    4.667 
#    0.000    0.000    0.000    0.000    0.000    0.000 
#    0.000    0.000    0.000    0.000    0.000    0.000 
#
# Total GULP energy -133732.379706 kJ/mol
# GULP energy per Si atom -5572.182488 kJ/mol
# Density = 2.327571 g / cm^3
# Si number density = 23.328803 Si / 1000 Ang^3
#
#
#
# Elastic Constant Matrix: (Units=GPa)
#
#
# Indices 1 2 3 4 5 6 
#
# 1 46.2942 27.6553 6.7366 0.0000 -24.5207 0.0000
# 2 27.6553 126.2330 52.6021 0.0000 -5.3903 0.0000
# 3 6.7366 52.6021 55.4680 0.0000 -1.4377 0.0000
# 4 0.0000 0.0000 0.0000 27.0313 0.0000 0.3021
# 5 -24.5207 -5.3903 -1.4377 0.0000 43.9756 0.0000
# 6 0.0000 0.0000 0.0000 0.3021 0.0000 34.8138
#
#
#
# Elastic Compliance Matrix: (Units=1/GPa)
#
#
# Indices 1 2 3 4 5 6 
#
# 1 0.036742 -0.009205 0.004773 0.000000 0.019515 0.000000
# 2 -0.009205 0.015468 -0.013646 0.000000 -0.003683 0.000000
# 3 0.004773 -0.013646 0.030441 0.000000 0.001984 0.000000
# 4 0.000000 0.000000 0.000000 0.036998 0.000000 -0.000321
# 5 0.019515 -0.003683 0.001984 0.000000 0.033235 0.000000
# 6 0.000000 0.000000 0.000000 -0.000321 0.000000 0.028727
#
#
# Mechanical properties :
#
#
# Convention : Reuss Voigt Hill
#
# Bulk Modulus (GPa) = 21.50794 44.66479 33.08636
# Shear Modulus (GPa) = 21.43493 30.56422 25.99958
#
# Velocity S-wave (km/s) = 3.03449 3.62353 3.34201
# Velocity P-wave (km/s) = 4.63864 6.05755 5.39495
#
# Compressibility (1/GPa) = 0.04649445
#
# Stress axis : x y z
#
# Youngs Moduli (GPa) = 27.21696 64.65122 32.85035
#
# Poissons Ratio (x) = 0.59512 -0.15680
# Poissons Ratio (y) = 0.25053 0.44827
# Poissons Ratio (z) = -0.12991 0.88223
#
# Static dielectric constant tensor:
#      x y z
#    x 1.914990 0.000000 0.027870 
#    y 0.000000 1.885010 0.000000 
#    z 0.027870 0.000000 1.886310 
# 
# From -- ./inp_files/28012.got.cif
#   From: 2010.05.17/outbox.cif.g08.bks.cpg/sg14_15_cif.got.tgz:28012.got - 2010.06.03 17:49:19.
