data_PCOD9249462
_publ_section_title
;
Structure prediction by ZEFSAII (Michael W. Deem and Ramdas Pophale) SiO2 
 PCOD9249462
Probable space group: P 21/C
;
_chemical_formula_sum "Si O2"
_cell_formula_units_Z 20
_cell_length_a 7.193286
_cell_length_b 20.132557
_cell_length_c 5.672374
_cell_angle_alpha 90.000000
_cell_angle_beta 110.820855
_cell_angle_gamma 90.000000
_cell_volume 767.823985
_symmetry_space_group_name_H-M "P 21/C"
_symmetry_group_IT_number 14
_symmetry_cell_setting 'monoclinic'
loop_
_space_group_symop_operation_xyz
x,y,z
-x,1/2+y,1/2-z
-x,-y,-z
x,1/2-y,1/2+z
loop_
_atom_site_type_symbol
_atom_site_label
_atom_site_fract_x
_atom_site_fract_y
_atom_site_fract_z
Si Si1 0.570024 0.051684 0.333966
Si Si2 0.206255 0.990788 0.959734
Si Si3 0.389502 0.855801 0.262237
Si Si4 0.847669 0.830043 0.398912
Si Si5 0.995343 0.819022 0.967710
O O1 0.606587 0.123464 0.460935
O O2 0.500000 0.000000 0.500000
O O3 0.372800 0.047087 0.085352
O O4 0.768049 0.021471 0.306848
O O5 0.297880 0.921193 0.096290
O O6 0.000000 0.000000 0.000000
O O7 0.613815 0.842556 0.296299
O O8 0.229021 0.802604 0.106245
O O9 0.940286 0.854530 0.191956
O O10 0.882405 0.750793 0.412376
O O11 0.941010 0.853329 0.693059
#
# Coordination Sequence:
#
# PCOD9249462 Si02
#       5
#     4   4   4   4   4
#     4   9  22  42  63  99 135 179 223 290 344 413
#     4  10  23  41  68  98 141 178 236 285 352 422
#     4  11  25  39  72  99 136 185 229 286 352 416
#     4  10  25  45  67  99 141 179 237 288 343 416
#     4  10  25  44  69 100 135 186 233 285 350 413
#
# _framework density 26.047635
#
# number of rings (size 3 to 8) (size 9 to 14) (size 15 to 20)
#    0.000    2.000    0.000    0.000    8.400   12.800 
#    0.000    0.000    0.000    0.000    0.000    0.000 
#    0.000    0.000    0.000    0.000    0.000    0.000 
#
# Total GULP energy -111712.459344 kJ/mol
# GULP energy per Si atom -5585.622967 kJ/mol
# Density = 2.598835 g / cm^3
# Si number density = 26.047635 Si / 1000 Ang^3
#
#
#
# Elastic Constant Matrix: (Units=GPa)
#
#
# Indices 1 2 3 4 5 6 
#
# 1 217.8475 31.8035 87.6501 0.0000 -4.2478 0.0000
# 2 31.8035 57.0802 24.7552 0.0000 11.9533 0.0000
# 3 87.6501 24.7552 146.8356 0.0000 -26.0951 0.0000
# 4 0.0000 0.0000 0.0000********** 0.0000**********
# 5 -4.2478 11.9533 -26.0951 0.0000 52.3658 0.0000
# 6 0.0000 0.0000 0.0000********** 0.0000-3952.2242
#
#
#
# Elastic Compliance Matrix: (Units=1/GPa)
#
#
# Indices 1 2 3 4 5 6 
#
# 1 0.006282 -0.001746 -0.003614 0.000000 -0.000893 0.000000
# 2 -0.001746 0.021625 -0.003847 0.000000 -0.006995 0.000000
# 3 -0.003614 -0.003847 0.010665 0.000000 0.005899 0.000000
# 4 0.000000 0.000000 0.000000 0.003178 0.000000 -0.008532
# 5 -0.000893 -0.006995 0.005899 0.000000 0.023560 0.000000
# 6 0.000000 0.000000 0.000000 -0.008532 0.000000 0.022655
#
#
# Mechanical properties :
#
#
# Convention : Reuss Voigt Hill
#
# Bulk Modulus (GPa) = 49.60767 78.90896 64.25831
# Shear Modulus (GPa) = 44.20944 -6396.66107 -3176.22581
#
# Velocity S-wave (km/s) = 4.12424 -49.60934 -34.95767
# Velocity P-wave (km/s) = 6.46262 57.01832 40.05823
#
# Compressibility (1/GPa) = 0.02015818
#
# Stress axis : x y z
#
# Youngs Moduli (GPa) = 159.18495 46.24279 93.76659
#
# Poissons Ratio (x) = 0.08072 0.33890
# Poissons Ratio (y) = 0.27788 0.36071
# Poissons Ratio (z) = 0.57534 0.17789
#
# Static dielectric constant tensor:
#      x y z
#    x 2.069020 0.000000 -0.057930 
#    y 0.000000 2.045560 0.000000 
#    z -0.057930 0.000000 2.370430 
# 
# From -- ./inp_files/615.got.cif
#   From: 2010.05.17/outbox.cif.g08.bks.cpg/sg14_1_cif.got.tgz:615.got - 2010.06.03 17:49:19.
