data_PCOD9249263
_publ_section_title
;
Structure prediction by ZEFSAII (Michael W. Deem and Ramdas Pophale) SiO2 
 PCOD9249263
Probable space group: P 21/C
;
_chemical_formula_sum "Si O2"
_cell_formula_units_Z 24
_cell_length_a 20.591762
_cell_length_b 9.389600
_cell_length_c 13.230726
_cell_angle_alpha 90.000000
_cell_angle_beta 18.711949
_cell_angle_gamma 90.000000
_cell_volume 820.678174
_symmetry_space_group_name_H-M "P 21/C"
_symmetry_group_IT_number 14
_symmetry_cell_setting 'monoclinic'
loop_
_space_group_symop_operation_xyz
x,y,z
-x,1/2+y,1/2-z
-x,-y,-z
x,1/2-y,1/2+z
loop_
_atom_site_type_symbol
_atom_site_label
_atom_site_fract_x
_atom_site_fract_y
_atom_site_fract_z
Si Si1 0.120463 0.738748 0.757553
Si Si2 0.948058 0.170180 0.853893
Si Si3 0.471682 0.403324 0.306599
Si Si4 0.267925 0.426005 0.214172
Si Si5 0.213907 0.573349 0.822172
Si Si6 0.623526 0.738707 0.254474
O O1 0.101710 0.635933 0.688232
O O2 0.128473 0.646839 0.846153
O O3 0.330698 0.824177 0.442639
O O4 0.928836 0.844587 0.037541
O O5 0.181600 0.135858 0.528424
O O6 0.934576 0.343413 0.880874
O O7 0.807168 0.081027 0.135648
O O8 0.306659 0.429581 0.636654
O O9 0.377328 0.324127 0.349353
O O10 0.566745 0.546499 0.116458
O O11 0.361611 0.344557 0.172009
O O12 0.422251 0.646817 0.552392
#
# Coordination Sequence:
#
# PCOD9249263 Si02
#       6
#     4   4   4   4   4   4
#     4  10  23  39  62  96 122 163 210 259 307 364
#     4  11  23  41  63  91 129 159 211 258 313 366
#     4  11  22  40  64  91 124 166 212 252 312 370
#     4  11  21  41  69  89 121 173 209 256 303 378
#     4  11  24  38  64  95 126 162 208 262 306 372
#     4  10  23  39  62  96 122 163 210 259 307 364
#
# _framework density 29.244105999999999
#
# number of rings (size 3 to 8) (size 9 to 14) (size 15 to 20)
#    0.000    1.333    3.333    3.000    4.667    1.333 
#    0.000    0.000    0.000    0.000    0.000    0.000 
#    0.000    0.000    0.000    0.000    0.000    0.000 
#
# Total GULP energy -134814.661994 kJ/mol
# GULP energy per Si atom -5617.277583 kJ/mol
# Density = 2.917754 g / cm^3
# Si number density = 29.244106 Si / 1000 Ang^3
#
#
#
# Elastic Constant Matrix: (Units=GPa)
#
#
# Indices 1 2 3 4 5 6 
#
# 1 123.0655 14.5739 44.1544 0.0000 -18.8302 0.0000
# 2 14.5739 89.9150 11.6726 0.0000 -4.4638 0.0000
# 3 44.1544 11.6726 112.8881 0.0000 3.5107 0.0000
# 4 0.0000 0.0000 0.0000 45.5410 0.0000 11.7718
# 5 -18.8302 -4.4638 3.5107 0.0000 66.3376 0.0000
# 6 0.0000 0.0000 0.0000 11.7718 0.0000 37.4443
#
#
#
# Elastic Compliance Matrix: (Units=1/GPa)
#
#
# Indices 1 2 3 4 5 6 
#
# 1 0.010121 -0.000978 -0.003951 0.000000 0.003016 0.000000
# 2 -0.000978 0.011412 -0.000814 0.000000 0.000533 0.000000
# 3 -0.003951 -0.000814 0.010542 0.000000 -0.001734 0.000000
# 4 0.000000 0.000000 0.000000 0.023900 0.000000 -0.007514
# 5 0.003016 0.000533 -0.001734 0.000000 0.016058 0.000000
# 6 0.000000 0.000000 0.000000 -0.007514 0.000000 0.029069
#
#
# Mechanical properties :
#
#
# Convention : Reuss Voigt Hill
#
# Bulk Modulus (GPa) = 48.57072 51.85226 50.21149
# Shear Modulus (GPa) = 41.85806 46.89577 44.37691
#
# Velocity S-wave (km/s) = 3.78740 4.00884 3.89969
# Velocity P-wave (km/s) = 5.98086 6.26075 6.12241
#
# Compressibility (1/GPa) = 0.02058854
#
# Stress axis : x y z
#
# Youngs Moduli (GPa) = 98.80736 87.62498 94.85936
#
# Poissons Ratio (x) = 0.08567 0.37481
# Poissons Ratio (y) = 0.09661 0.07723
# Poissons Ratio (z) = 0.39041 0.07134
#
# Static dielectric constant tensor:
#      x y z
#    x 2.197000 0.000000 0.058900 
#    y 0.000000 2.450250 0.000000 
#    z 0.058900 0.000000 2.236560 
# 
# From -- ./inp_files/24163.got.cif
#   From: 2010.05.17/outbox.cif.g08.bks.cpg/sg14_13_cif.got.tgz:24163.got - 2010.06.03 17:49:19.
