data_PCOD9249333
_publ_section_title
;
Structure prediction by ZEFSAII (Michael W. Deem and Ramdas Pophale) SiO2 
 PCOD9249333
Probable space group: P 21/C
;
_chemical_formula_sum "Si O2"
_cell_formula_units_Z 24
_cell_length_a 13.241753
_cell_length_b 14.510629
_cell_length_c 5.459853
_cell_angle_alpha 90.000000
_cell_angle_beta 65.350480
_cell_angle_gamma 90.000000
_cell_volume 953.492538
_symmetry_space_group_name_H-M "P 21/C"
_symmetry_group_IT_number 14
_symmetry_cell_setting 'monoclinic'
loop_
_space_group_symop_operation_xyz
x,y,z
-x,1/2+y,1/2-z
-x,-y,-z
x,1/2-y,1/2+z
loop_
_atom_site_type_symbol
_atom_site_label
_atom_site_fract_x
_atom_site_fract_y
_atom_site_fract_z
Si Si1 0.473979 0.301014 0.025586
Si Si2 0.077736 0.345242 0.337100
Si Si3 0.713964 0.229494 0.784103
Si Si4 0.990214 0.135071 0.423886
Si Si5 0.289821 0.067328 0.750129
Si Si6 0.247379 0.539617 0.793079
O O1 0.439429 0.243198 0.301190
O O2 0.415436 0.398453 0.111307
O O3 0.607837 0.296919 0.890712
O O4 0.206872 0.346124 0.281899
O O5 0.021802 0.244350 0.375808
O O6 0.021312 0.398151 0.620779
O O7 0.062123 0.392938 0.089204
O O8 0.777272 0.250604 0.469900
O O9 0.668893 0.125938 0.826116
O O10 0.868753 0.095924 0.603527
O O11 0.265020 0.001497 0.544237
O O12 0.262040 0.025741 0.044239
#
# Coordination Sequence:
#
# PCOD9249333 Si02
#       6
#     4   4   4   4   4   4
#     4  10  23  45  72 100 130 185 230 268 338 425
#     4  10  23  40  65  99 134 185 227 266 332 412
#     4  10  23  45  72 100 130 185 230 268 338 425
#     4  10  23  40  65  99 134 185 227 266 332 412
#     4  12  26  43  70 107 140 172 226 294 342 384
#     4  12  26  43  70 107 140 172 226 294 342 384
#
# _framework density 25.170622000000002
#
# number of rings (size 3 to 8) (size 9 to 14) (size 15 to 20)
#    0.000    1.333    0.000    4.000    9.333    4.000 
#    0.000   20.000    0.000    0.000    0.000    0.000 
#    0.000    0.000    0.000    0.000    0.000    0.000 
#
# Total GULP energy -134118.106761 kJ/mol
# GULP energy per Si atom -5588.254448 kJ/mol
# Density = 2.511333 g / cm^3
# Si number density = 25.170622 Si / 1000 Ang^3
#
#
#
# Elastic Constant Matrix: (Units=GPa)
#
#
# Indices 1 2 3 4 5 6 
#
# 1 65.0668 20.2212 29.5188 0.0000 -1.9591 0.0000
# 2 20.2212 64.2910 20.7219 0.0000 -3.9814 0.0000
# 3 29.5188 20.7219 175.9458 0.0000 57.7235 0.0000
# 4 0.0000 0.0000 0.0000 46.3507 0.0000 -4.3968
# 5 -1.9591 -3.9814 57.7235 0.0000 43.2990 0.0000
# 6 0.0000 0.0000 0.0000 -4.3968 0.0000 45.1453
#
#
#
# Elastic Compliance Matrix: (Units=1/GPa)
#
#
# Indices 1 2 3 4 5 6 
#
# 1 0.019159 -0.003891 -0.005195 0.000000 0.007435 0.000000
# 2 -0.003891 0.018309 -0.003551 0.000000 0.006242 0.000000
# 3 -0.005195 -0.003551 0.012722 0.000000 -0.017522 0.000000
# 4 0.000000 0.000000 0.000000 0.021776 0.000000 0.002121
# 5 0.007435 0.006242 -0.017522 0.000000 0.047365 0.000000
# 6 0.000000 0.000000 0.000000 0.002121 0.000000 0.022357
#
#
# Mechanical properties :
#
#
# Convention : Reuss Voigt Hill
#
# Bulk Modulus (GPa) = 40.13723 49.58080 44.85901
# Shear Modulus (GPa) = 28.52771 42.61512 35.57142
#
# Velocity S-wave (km/s) = 3.37021 4.11913 3.76335
# Velocity P-wave (km/s) = 5.57899 6.50874 6.06172
#
# Compressibility (1/GPa) = 0.02491453
#
# Stress axis : x y z
#
# Youngs Moduli (GPa) = 52.19508 54.61697 78.60441
#
# Poissons Ratio (x) = 0.21251 0.40838
# Poissons Ratio (y) = 0.20309 0.27916
# Poissons Ratio (z) = 0.27117 0.19397
#
# Static dielectric constant tensor:
#      x y z
#    x 2.014120 0.000000 -0.013290 
#    y 0.000000 2.085670 0.000000 
#    z -0.013290 0.000000 2.044430 
# 
# From -- ./inp_files/3556.got.cif
#   From: 2010.05.17/outbox.cif.g08.bks.cpg/sg14_2_cif.got.tgz:3556.got - 2010.06.03 17:49:19.
