data_PCOD9249010
_publ_section_title
;
Structure prediction by ZEFSAII (Michael W. Deem and Ramdas Pophale) SiO2 
 PCOD9249010
Probable space group: P 21/C
;
_chemical_formula_sum "Si O2"
_cell_formula_units_Z 30
_cell_length_a 19.148524
_cell_length_b 5.240076
_cell_length_c 20.382036
_cell_angle_alpha 90.000000
_cell_angle_beta 32.437995
_cell_angle_gamma 90.000000
_cell_volume 1096.979116
_symmetry_space_group_name_H-M "P 21/C"
_symmetry_group_IT_number 14
_symmetry_cell_setting 'monoclinic'
loop_
_space_group_symop_operation_xyz
x,y,z
-x,1/2+y,1/2-z
-x,-y,-z
x,1/2-y,1/2+z
loop_
_atom_site_type_symbol
_atom_site_label
_atom_site_fract_x
_atom_site_fract_y
_atom_site_fract_z
Si Si1 0.300167 0.465196 0.587438
Si Si2 0.431819 0.448854 0.832799
Si Si3 0.924338 0.352276 0.330554
Si Si4 0.756419 0.974127 0.619102
Si Si5 0.532893 0.799150 0.371717
Si Si6 0.000000 0.500000 0.000000
Si Si7 0.911991 0.628303 0.681971
Si Si8 0.714586 0.194668 0.275545
O O1 0.209636 0.599271 0.602714
O O2 0.447431 0.544068 0.449467
O O3 0.209479 0.217417 0.674807
O O4 0.314370 0.587196 0.649241
O O5 0.489587 0.172052 0.768911
O O6 0.285639 0.489023 0.922608
O O7 0.444530 0.508570 0.899080
O O8 0.021537 0.569544 0.224841
O O9 0.953360 0.395540 0.384987
O O10 0.731752 0.216433 0.686959
O O11 0.899408 0.897196 0.522108
O O12 0.652695 0.778834 0.730956
O O13 0.606832 0.972577 0.366445
O O14 0.926992 0.671822 0.112522
O O15 0.857297 0.386819 0.686597
#
# Coordination Sequence:
#
# PCOD9249010 Si02
#       8
#     4   4   4   4   4   2   4   4
#     4  11  24  43  70 103 141 184 229 297 355 425
#     4  10  22  45  70 100 145 182 236 290 350 428
#     4  10  22  45  70 100 145 182 236 290 350 428
#     4  11  25  44  68 102 137 184 240 290 355 430
#     4  11  24  43  70 103 141 184 229 297 355 425
#     4  12  24  46  70  92 142 186 234 300 360 422
#     4  11  25  44  68 102 137 184 240 290 355 430
#     4  12  21  45  66 104 136 179 233 294 350 436
#
# _framework density 27.347830999999999
#
# number of rings (size 3 to 8) (size 9 to 14) (size 15 to 20)
#    0.000    1.067    5.333    0.400    1.867    3.733 
#    0.000    0.000   11.733    0.000    0.000    0.000 
#    0.000    0.000    0.000    0.000    0.000    0.000 
#
# Total GULP energy -167126.482414 kJ/mol
# GULP energy per Si atom -5570.882747 kJ/mol
# Density = 2.728559 g / cm^3
# Si number density = 27.347831 Si / 1000 Ang^3
#
#
#
# Elastic Constant Matrix: (Units=GPa)
#
#
# Indices 1 2 3 4 5 6 
#
# 1 136.3831 58.0017 -0.7256 0.0000 -62.7736 0.0000
# 2 58.0017 21.2265 47.9449 0.0000 11.3860 0.0000
# 3 -0.7256 47.9449 29.8725 0.0000 -29.7312 0.0000
# 4 0.0000 0.0000 0.0000 -4.0215 0.0000 -16.4211
# 5 -62.7736 11.3860 -29.7312 0.0000 42.4178 0.0000
# 6 0.0000 0.0000 0.0000 -16.4211 0.0000 34.4123
#
#
#
# Elastic Compliance Matrix: (Units=1/GPa)
#
#
# Indices 1 2 3 4 5 6 
#
# 1 0.005021 0.005383 -0.008469 0.000000 0.000049 0.000000
# 2 0.005383 0.002723 0.009791 0.000000 0.014098 0.000000
# 3 -0.008469 0.009791 0.008153 0.000000 -0.009446 0.000000
# 4 0.000000 0.000000 0.000000 -0.084335 0.000000 -0.040244
# 5 0.000049 0.014098 -0.009446 0.000000 0.013243 0.000000
# 6 0.000000 0.000000 0.000000 -0.040244 0.000000 0.009856
#
#
# Mechanical properties :
#
#
# Convention : Reuss Voigt Hill
#
# Bulk Modulus (GPa) = 34.11940 44.21379 39.16659
# Shear Modulus (GPa) = -102.07811 20.04580 -41.01615
#
# Velocity S-wave (km/s) = -6.11612 2.71032 -3.87692
# Velocity P-wave (km/s) = 6.11332 5.09870 2.38494
#
# Compressibility (1/GPa) = 0.02930884
#
# Stress axis : x y z
#
# Youngs Moduli (GPa) = 199.17932 367.20884 122.65009
#
# Poissons Ratio (x) = -1.97668 1.03868
# Poissons Ratio (y) = -1.07218 -1.20093
# Poissons Ratio (z) = 1.68677 -3.59552
#
# Static dielectric constant tensor:
#      x y z
#    x 2.126340 0.000000 0.077070 
#    y 0.000000 2.210070 0.000000 
#    z 0.077070 0.000000 2.139910 
# 
# From -- ./inp_files/30708.got.cif
#   From: 2010.05.17/outbox.cif.g08.bks.cpg/sg14_16_cif.got.tgz:30708.got - 2010.06.03 17:49:19.
