data_PCOD9249229
_publ_section_title
;
Structure prediction by ZEFSAII (Michael W. Deem and Ramdas Pophale) SiO2 
 PCOD9249229
Probable space group: P 21/C
;
_chemical_formula_sum "Si O2"
_cell_formula_units_Z 32
_cell_length_a 14.497479
_cell_length_b 8.500264
_cell_length_c 12.622971
_cell_angle_alpha 90.000000
_cell_angle_beta 66.439814
_cell_angle_gamma 90.000000
_cell_volume 1425.888695
_symmetry_space_group_name_H-M "P 21/C"
_symmetry_group_IT_number 14
_symmetry_cell_setting 'monoclinic'
loop_
_space_group_symop_operation_xyz
x,y,z
-x,1/2+y,1/2-z
-x,-y,-z
x,1/2-y,1/2+z
loop_
_atom_site_type_symbol
_atom_site_label
_atom_site_fract_x
_atom_site_fract_y
_atom_site_fract_z
Si Si1 0.005097 0.438546 0.658464
Si Si2 0.457625 0.645699 0.587183
Si Si3 0.168409 0.485842 0.417371
Si Si4 0.744228 0.818967 0.524484
Si Si5 0.337092 0.633051 0.223370
Si Si6 0.964095 0.569357 0.903795
Si Si7 0.552630 0.912257 0.731542
Si Si8 0.623176 0.803195 0.392148
O O1 0.910185 0.519049 0.643644
O O2 0.001483 0.470918 0.784934
O O3 0.102810 0.508420 0.553487
O O4 0.003655 0.252334 0.629951
O O5 0.500000 0.500000 0.500000
O O6 0.344384 0.712553 0.646040
O O7 0.471653 0.573050 0.696865
O O8 0.521643 0.787757 0.507746
O O9 0.225590 0.320723 0.408995
O O10 0.248461 0.618314 0.348341
O O11 0.842614 0.922474 0.461529
O O12 0.647657 0.916914 0.608972
O O13 0.707960 0.735453 0.432134
O O14 0.444808 0.628651 0.232690
O O15 0.337791 0.474993 0.154344
O O16 0.000000 0.500000 0.000000
O O17 0.594641 0.792472 0.800918
#
# Coordination Sequence:
#
# PCOD9249229 Si02
#       8
#     4   4   4   4   4   4   4   4
#     4  10  25  49  79 111 152 192 253 330 386 466
#     4  10  23  38  57  96 137 186 228 301 350 421
#     4  10  23  44  77 106 142 201 250 307 393 446
#     4  11  23  43  73 103 139 193 240 300 379 455
#     4  12  21  41  69  96 142 194 241 299 358 448
#     4  11  27  47  81 111 150 194 256 319 397 466
#     4  11  23  40  66  97 144 178 243 288 352 445
#     4  11  22  42  68  96 138 192 248 285 369 436
#
# _framework density 22.442145
#
# number of rings (size 3 to 8) (size 9 to 14) (size 15 to 20)
#    0.000    1.250    2.500    2.625    5.250    2.000 
#    0.000    5.000    5.500    0.000    0.000    0.000 
#    0.000    0.000    0.000    0.000    0.000    0.000 
#
# Total GULP energy -178351.578149 kJ/mol
# GULP energy per Si atom -5573.486817 kJ/mol
# Density = 2.239107 g / cm^3
# Si number density = 22.442145 Si / 1000 Ang^3
#
#
#
# Elastic Constant Matrix: (Units=GPa)
#
#
# Indices 1 2 3 4 5 6 
#
# 1 104.2352 11.7924 66.6623 0.0000 -13.0235 0.0000
# 2 11.7924 69.2230 50.9672 0.0000 1.7893 0.0000
# 3 66.6623 50.9672 163.5291 0.0000 -10.6937 0.0000
# 4 0.0000 0.0000 0.0000 40.9517 0.0000 7.5350
# 5 -13.0235 1.7893 -10.6937 0.0000 39.0325 0.0000
# 6 0.0000 0.0000 0.0000 7.5350 0.0000 18.3729
#
#
#
# Elastic Compliance Matrix: (Units=1/GPa)
#
#
# Indices 1 2 3 4 5 6 
#
# 1 0.013525 0.002010 -0.005958 0.000000 0.002788 0.000000
# 2 0.002010 0.019291 -0.006971 0.000000 -0.002123 0.000000
# 3 -0.005958 -0.006971 0.010801 0.000000 0.001291 0.000000
# 4 0.000000 0.000000 0.000000 0.026412 0.000000 -0.010832
# 5 0.002788 -0.002123 0.001291 0.000000 0.027001 0.000000
# 6 0.000000 0.000000 0.000000 -0.010832 0.000000 0.058870
#
#
# Mechanical properties :
#
#
# Convention : Reuss Voigt Hill
#
# Bulk Modulus (GPa) = 45.91299 66.20347 56.05823
# Shear Modulus (GPa) = 27.02768 33.50913 30.26840
#
# Velocity S-wave (km/s) = 3.47411 3.86830 3.67649
# Velocity P-wave (km/s) = 6.04941 7.03671 6.56166
#
# Compressibility (1/GPa) = 0.02178033
#
# Stress axis : x y z
#
# Youngs Moduli (GPa) = 73.93881 51.83795 92.58663
#
# Poissons Ratio (x) = -0.10421 0.55159
# Poissons Ratio (y) = -0.14864 0.64540
# Poissons Ratio (z) = 0.44049 0.36135
#
# Static dielectric constant tensor:
#      x y z
#    x 1.843740 0.000000 0.024820 
#    y 0.000000 1.990530 0.000000 
#    z 0.024820 0.000000 1.936120 
# 
# From -- ./inp_files/31807.got.cif
#   From: 2010.05.17/outbox.cif.g08.bks.cpg/sg14_16_cif.got.tgz:31807.got - 2010.06.03 17:49:19.
