data_PCOD9249011
_publ_section_title
;
Structure prediction by ZEFSAII (Michael W. Deem and Ramdas Pophale) SiO2 
 PCOD9249011
Probable space group: P 21/C
;
_chemical_formula_sum "Si O2"
_cell_formula_units_Z 26
_cell_length_a 23.282648
_cell_length_b 7.961586
_cell_length_c 8.974198
_cell_angle_alpha 90.000000
_cell_angle_beta 144.974283
_cell_angle_gamma 90.000000
_cell_volume 954.766494
_symmetry_space_group_name_H-M "P 21/C"
_symmetry_group_IT_number 14
_symmetry_cell_setting 'monoclinic'
loop_
_space_group_symop_operation_xyz
x,y,z
-x,1/2+y,1/2-z
-x,-y,-z
x,1/2-y,1/2+z
loop_
_atom_site_type_symbol
_atom_site_label
_atom_site_fract_x
_atom_site_fract_y
_atom_site_fract_z
Si Si1 0.716424 0.568366 0.418594
Si Si2 0.781712 0.604918 0.877326
Si Si3 0.500000 0.000000 0.000000
Si Si4 0.587171 0.331347 0.965850
Si Si5 0.678808 0.098275 0.387015
Si Si6 0.090752 0.573909 0.291722
Si Si7 0.021058 0.941606 0.208985
O O1 0.712430 0.592597 0.585785
O O2 0.759437 0.727116 0.420850
O O3 0.618716 0.484486 0.139378
O O4 0.805122 0.431525 0.572947
O O5 0.764515 0.456794 0.962781
O O6 0.893074 0.569943 0.054485
O O7 0.497766 0.875686 0.832054
O O8 0.386657 0.064257 0.710237
O O9 0.586382 0.174596 0.083087
O O10 0.680511 0.302787 0.044426
O O11 0.064379 0.756436 0.296242
O O12 0.081585 0.457276 0.417696
O O13 0.000000 0.500000 0.000000
O O14 0.000000 0.000000 0.000000
#
# Coordination Sequence:
#
# PCOD9249011 Si02
#       7
#     4   4   2   4   4   4   4
#     4  12  26  44  70  98 145 182 237 288 353 421
#     4  12  26  45  67 104 136 188 231 295 349 422
#     4   8  24  42  68 108 134 170 226 278 346 414
#     4  10  22  45  70 101 133 183 226 287 340 423
#     4  10  22  45  70  99 137 176 233 279 351 416
#     4  12  25  47  65 104 137 185 238 286 353 417
#     4  12  27  42  73  98 141 186 234 296 346 422
#
# _framework density 27.231788000000002
#
# number of rings (size 3 to 8) (size 9 to 14) (size 15 to 20)
#    0.923    0.000    1.538    5.538    4.308    1.231 
#    0.000    1.538    0.000    0.000    0.000    0.000 
#    0.000    0.000    0.000    0.000    0.000    0.000 
#
# Total GULP energy -144832.149913 kJ/mol
# GULP energy per Si atom -5570.467304 kJ/mol
# Density = 2.716981 g / cm^3
# Si number density = 27.231788 Si / 1000 Ang^3
#
#
#
# Elastic Constant Matrix: (Units=GPa)
#
#
# Indices 1 2 3 4 5 6 
#
# 1 119.2086 6.5341 4.1448 0.0000 -22.5676 0.0000
# 2 6.5341 139.0297 16.2474 0.0000 -10.9482 0.0000
# 3 4.1448 16.2474 102.6249 0.0000 -41.4270 0.0000
# 4 0.0000 0.0000 0.0000 35.0426 0.0000 1.0181
# 5 -22.5676 -10.9482 -41.4270 0.0000 50.7761 0.0000
# 6 0.0000 0.0000 0.0000 1.0181 0.0000 32.2339
#
#
#
# Elastic Compliance Matrix: (Units=1/GPa)
#
#
# Indices 1 2 3 4 5 6 
#
# 1 0.009421 -0.000221 0.001976 0.000000 0.005752 0.000000
# 2 -0.000221 0.007364 -0.000828 0.000000 0.000814 0.000000
# 3 0.001976 -0.000828 0.015027 0.000000 0.012960 0.000000
# 4 0.000000 0.000000 0.000000 0.028563 0.000000 -0.000902
# 5 0.005752 0.000814 0.012960 0.000000 0.033000 0.000000
# 6 0.000000 0.000000 0.000000 -0.000902 0.000000 0.031052
#
#
# Mechanical properties :
#
#
# Convention : Reuss Voigt Hill
#
# Bulk Modulus (GPa) = 29.70304 46.07954 37.89129
# Shear Modulus (GPa) = 37.37067 45.87297 41.62182
#
# Velocity S-wave (km/s) = 3.70850 4.10876 3.91375
# Velocity P-wave (km/s) = 5.41003 6.28229 5.86241
#
# Compressibility (1/GPa) = 0.03366659
#
# Stress axis : x y z
#
# Youngs Moduli (GPa) = 106.14616 135.79611 66.54588
#
# Poissons Ratio (x) = 0.02998 -0.13152
# Poissons Ratio (y) = 0.02343 0.05513
# Poissons Ratio (z) = -0.20979 0.11250
#
# Static dielectric constant tensor:
#      x y z
#    x 10.068110 0.000000 3.041640 
#    y 0.000000 3.031570 0.000000 
#    z 3.041640 0.000000 3.242410 
# 
# From -- ./inp_files/19688.got.cif
#   From: 2010.05.17/outbox.cif.g08.bks.cpg/sg14_10_cif.got.tgz:19688.got - 2010.06.03 17:49:19.
