data_PCOD9249443
_publ_section_title
;
Structure prediction by ZEFSAII (Michael W. Deem and Ramdas Pophale) SiO2 
 PCOD9249443
Probable space group: P 21/C
;
_chemical_formula_sum "Si O2"
_cell_formula_units_Z 20
_cell_length_a 12.467039
_cell_length_b 7.517646
_cell_length_c 22.245680
_cell_angle_alpha 90.000000
_cell_angle_beta 21.398032
_cell_angle_gamma 90.000000
_cell_volume 760.674821
_symmetry_space_group_name_H-M "P 21/C"
_symmetry_group_IT_number 14
_symmetry_cell_setting 'monoclinic'
loop_
_space_group_symop_operation_xyz
x,y,z
-x,1/2+y,1/2-z
-x,-y,-z
x,1/2-y,1/2+z
loop_
_atom_site_type_symbol
_atom_site_label
_atom_site_fract_x
_atom_site_fract_y
_atom_site_fract_z
Si Si1 0.512341 0.066708 0.911882
Si Si2 0.416386 0.591383 0.759484
Si Si3 0.100417 0.210856 0.917600
Si Si4 0.592514 0.649756 0.865289
Si Si5 0.122616 0.373806 0.153968
O O1 0.601056 0.145574 0.800715
O O2 0.484493 0.854775 0.920783
O O3 0.232203 0.178914 0.077574
O O4 0.217384 0.895947 0.184150
O O5 0.267731 0.400290 0.838727
O O6 0.751941 0.594907 0.606671
O O7 0.227105 0.720288 0.900786
O O8 0.204499 0.132595 0.799553
O O9 0.312777 0.518543 0.016802
O O10 0.779811 0.614249 0.827731
#
# Coordination Sequence:
#
# PCOD9249443 Si02
#       5
#     4   4   4   4   4
#     4  11  25  46  71 102 142 178 235 289 346 415
#     4  10  23  42  63 100 128 178 216 283 334 409
#     4  10  23  41  67  91 139 167 228 273 340 403
#     4  10  26  44  67 101 138 186 224 288 345 414
#     4  11  26  45  73 100 139 184 233 285 351 415
#
# _framework density 26.292442999999999
#
# number of rings (size 3 to 8) (size 9 to 14) (size 15 to 20)
#    0.000    1.600    0.000    1.800   16.800    2.400 
#    3.600    0.000    0.000    0.000    0.000    0.000 
#    0.000    0.000    0.000    0.000    0.000    0.000 
#
# Total GULP energy -112196.999405 kJ/mol
# GULP energy per Si atom -5609.849970 kJ/mol
# Density = 2.623260 g / cm^3
# Si number density = 26.292443 Si / 1000 Ang^3
#
#
#
# Elastic Constant Matrix: (Units=GPa)
#
#
# Indices 1 2 3 4 5 6 
#
# 1 58.3183 15.3629 24.6720 0.0000 14.4452 0.0000
# 2 15.3629 124.9544 43.6249 0.0000 9.6657 0.0000
# 3 24.6720 43.6249 105.4467 0.0000 12.7565 0.0000
# 4 0.0000 0.0000 0.0000 48.4961 0.0000 0.8820
# 5 14.4452 9.6657 12.7565 0.0000 48.2216 0.0000
# 6 0.0000 0.0000 0.0000 0.8820 0.0000 34.7777
#
#
#
# Elastic Compliance Matrix: (Units=1/GPa)
#
#
# Indices 1 2 3 4 5 6 
#
# 1 0.020171 -0.000772 -0.003810 0.000000 -0.004880 0.000000
# 2 -0.000772 0.009420 -0.003632 0.000000 -0.000696 0.000000
# 3 -0.003810 -0.003632 0.012037 0.000000 -0.001315 0.000000
# 4 0.000000 0.000000 0.000000 0.020630 0.000000 -0.000523
# 5 -0.004880 -0.000696 -0.001315 0.000000 0.022687 0.000000
# 6 0.000000 0.000000 0.000000 -0.000523 0.000000 0.028767
#
#
# Mechanical properties :
#
#
# Convention : Reuss Voigt Hill
#
# Bulk Modulus (GPa) = 39.68420 50.67101 45.17760
# Shear Modulus (GPa) = 36.09072 39.96970 38.03021
#
# Velocity S-wave (km/s) = 3.70897 3.90320 3.80732
# Velocity P-wave (km/s) = 5.78516 6.29502 6.04547
#
# Compressibility (1/GPa) = 0.02519895
#
# Stress axis : x y z
#
# Youngs Moduli (GPa) = 49.57563 106.15913 83.07997
#
# Poissons Ratio (x) = 0.08201 0.31651
# Poissons Ratio (y) = 0.03830 0.30176
# Poissons Ratio (z) = 0.18887 0.38559
#
# Static dielectric constant tensor:
#      x y z
#    x 2.013820 0.000000 0.040900 
#    y 0.000000 2.089920 0.000000 
#    z 0.040900 0.000000 2.030270 
# 
# From -- ./inp_files/27608.got.cif
#   From: 2010.05.17/outbox.cif.g08.bks.cpg/sg14_14_cif.got.tgz:27608.got - 2010.06.03 17:49:19.
