data_PCOD9249086
_publ_section_title
;
Structure prediction by ZEFSAII (Michael W. Deem and Ramdas Pophale) SiO2 
 PCOD9249086
Probable space group: P 21/C
;
_chemical_formula_sum "Si O2"
_cell_formula_units_Z 28
_cell_length_a 12.622999
_cell_length_b 5.413211
_cell_length_c 19.265285
_cell_angle_alpha 90.000000
_cell_angle_beta 118.454321
_cell_angle_gamma 90.000000
_cell_volume 1157.388763
_symmetry_space_group_name_H-M "P 21/C"
_symmetry_group_IT_number 14
_symmetry_cell_setting 'monoclinic'
loop_
_space_group_symop_operation_xyz
x,y,z
-x,1/2+y,1/2-z
-x,-y,-z
x,1/2-y,1/2+z
loop_
_atom_site_type_symbol
_atom_site_label
_atom_site_fract_x
_atom_site_fract_y
_atom_site_fract_z
Si Si1 0.081619 0.138564 0.704643
Si Si2 0.537214 0.735201 0.299310
Si Si3 0.821512 0.642257 0.397941
Si Si4 0.008632 0.239235 0.933775
Si Si5 0.435701 0.055316 0.553327
Si Si6 0.376743 0.558369 0.501694
Si Si7 0.145237 0.925873 0.859182
O O1 0.147377 0.322678 0.673337
O O2 0.954322 0.229719 0.694923
O O3 0.162517 0.088263 0.796358
O O4 0.043800 0.926793 0.638890
O O5 0.478864 0.482033 0.252672
O O6 0.679156 0.677338 0.355209
O O7 0.489730 0.821968 0.360513
O O8 0.897290 0.813927 0.475783
O O9 0.891629 0.385165 0.433881
O O10 0.085043 0.053373 0.907671
O O11 0.395850 0.778118 0.563146
O O12 0.500000 0.000000 0.500000
O O13 0.340207 0.276360 0.509038
O O14 0.500000 0.500000 0.500000
O O15 0.273051 0.672764 0.422211
#
# Coordination Sequence:
#
# PCOD9249086 Si02
#       7
#     4   4   4   4   4   4   4
#     4  11  23  41  66 102 137 183 235 309 368 425
#     4  12  28  48  73 110 153 197 240 303 374 443
#     4  10  25  43  70  99 138 192 234 299 358 445
#     4  10  22  46  67  99 134 180 248 291 363 431
#     4  10  23  46  72 100 140 191 249 286 351 430
#     4  10  23  42  68 107 139 188 236 299 355 436
#     4  11  23  38  69 100 140 180 239 305 366 427
#
# _framework density 24.192387
#
# number of rings (size 3 to 8) (size 9 to 14) (size 15 to 20)
#    0.000    1.429    1.429    2.143    6.000    4.571 
#    0.000    0.000    0.000    0.000    0.000    0.000 
#    0.000    0.000    0.000    0.000    0.000    0.000 
#
# Total GULP energy -155955.068151 kJ/mol
# GULP energy per Si atom -5569.823863 kJ/mol
# Density = 2.413732 g / cm^3
# Si number density = 24.192387 Si / 1000 Ang^3
#
#
#
# Elastic Constant Matrix: (Units=GPa)
#
#
# Indices 1 2 3 4 5 6 
#
# 1 86.3889 15.6401 41.5317 0.0000 2.3713 0.0000
# 2 15.6401 119.8746 19.9801 0.0000 3.8661 0.0000
# 3 41.5317 19.9801 115.0184 0.0000 -17.2733 0.0000
# 4 0.0000 0.0000 0.0000 41.6495 0.0000 -8.6990
# 5 2.3713 3.8661 -17.2733 0.0000 44.0568 0.0000
# 6 0.0000 0.0000 0.0000 -8.6990 0.0000 10.9358
#
#
#
# Elastic Compliance Matrix: (Units=1/GPa)
#
#
# Indices 1 2 3 4 5 6 
#
# 1 0.014455 -0.000878 -0.005496 0.000000 -0.002856 0.000000
# 2 -0.000878 0.008729 -0.001389 0.000000 -0.001263 0.000000
# 3 -0.005496 -0.001389 0.011670 0.000000 0.004993 0.000000
# 4 0.000000 0.000000 0.000000 0.028794 0.000000 0.022904
# 5 -0.002856 -0.001263 0.004993 0.000000 0.024920 0.000000
# 6 0.000000 0.000000 0.000000 0.022904 0.000000 0.109662
#
#
# Mechanical properties :
#
#
# Convention : Reuss Voigt Hill
#
# Bulk Modulus (GPa) = 51.73786 52.84285 52.29036
# Shear Modulus (GPa) = 22.70682 35.60375 29.15528
#
# Velocity S-wave (km/s) = 3.06697 3.84043 3.47528
# Velocity P-wave (km/s) = 5.82874 6.44634 6.14530
#
# Compressibility (1/GPa) = 0.01932821
#
# Stress axis : x y z
#
# Youngs Moduli (GPa) = 69.17994 114.56262 85.69035
#
# Poissons Ratio (x) = 0.10057 0.47095
# Poissons Ratio (y) = 0.06073 0.11903
# Poissons Ratio (z) = 0.38021 0.15913
#
# Static dielectric constant tensor:
#      x y z
#    x 2.016480 0.000000 -0.016880 
#    y 0.000000 2.140800 0.000000 
#    z -0.016880 0.000000 1.997780 
# 
# From -- ./inp_files/67893.got.cif
#   From: 2010.05.17/outbox.cif.g08.bks.cpg/sg14_34_cif.got.tgz:67893.got - 2010.06.03 17:49:19.
