data_PCOD9249972
_publ_section_title
;
Structure prediction by ZEFSAII (Michael W. Deem and Ramdas Pophale) SiO2 
 PCOD9249972
Probable space group: P 21/C
;
_chemical_formula_sum "Si O2"
_cell_formula_units_Z 20
_cell_length_a 10.588325
_cell_length_b 7.232023
_cell_length_c 11.316134
_cell_angle_alpha 90.000000
_cell_angle_beta 69.292597
_cell_angle_gamma 90.000000
_cell_volume 810.553609
_symmetry_space_group_name_H-M "P 21/C"
_symmetry_group_IT_number 14
_symmetry_cell_setting 'monoclinic'
loop_
_space_group_symop_operation_xyz
x,y,z
-x,1/2+y,1/2-z
-x,-y,-z
x,1/2-y,1/2+z
loop_
_atom_site_type_symbol
_atom_site_label
_atom_site_fract_x
_atom_site_fract_y
_atom_site_fract_z
Si Si1 0.582450 0.026837 0.325751
Si Si2 0.141872 0.687690 0.259465
Si Si3 0.920699 0.922740 0.641115
Si Si4 0.584144 0.686099 0.486544
Si Si5 0.218605 0.428269 0.419489
O O1 0.560434 0.824101 0.384818
O O2 0.637164 0.006170 0.175760
O O3 0.720221 0.106086 0.340155
O O4 0.532431 0.673008 0.107322
O O5 0.157437 0.901178 0.282446
O O6 0.121897 0.584545 0.393874
O O7 0.023672 0.647656 0.207315
O O8 0.827394 0.755391 0.631811
O O9 0.000000 0.000000 0.500000
O O10 0.500000 0.500000 0.500000
O O11 0.740296 0.631261 0.462765
#
# Coordination Sequence:
#
# PCOD9249972 Si02
#       5
#     4   4   4   4   4
#     4   9  24  42  61  99 129 162 219 259 322 384
#     4  10  23  45  66  93 133 170 217 269 325 383
#     4  12  24  44  68  96 132 172 221 271 323 391
#     4  11  24  42  69  94 130 172 216 262 324 388
#     4  10  25  41  66  95 128 172 212 267 325 379
#
# _framework density 24.674495
#
# number of rings (size 3 to 8) (size 9 to 14) (size 15 to 20)
#    1.200    0.400    2.000    1.200    5.600    5.600 
#    0.000    0.000    0.000    0.000    0.000    0.000 
#    0.000    0.000    0.000    0.000    0.000    0.000 
#
# Total GULP energy -111604.906064 kJ/mol
# GULP energy per Si atom -5580.245303 kJ/mol
# Density = 2.461834 g / cm^3
# Si number density = 24.674495 Si / 1000 Ang^3
#
#
#
# Elastic Constant Matrix: (Units=GPa)
#
#
# Indices 1 2 3 4 5 6 
#
# 1 73.9796 35.3820 30.8851 0.0000 28.6087 0.0000
# 2 35.3820 182.8406 33.4008 0.0000 20.3972 0.0000
# 3 30.8851 33.4008 58.1742 0.0000 14.4347 0.0000
# 4 0.0000 0.0000 0.0000 32.2733 0.0000 2.4747
# 5 28.6087 20.3972 14.4347 0.0000 56.5377 0.0000
# 6 0.0000 0.0000 0.0000 2.4747 0.0000 44.0428
#
#
#
# Elastic Compliance Matrix: (Units=1/GPa)
#
#
# Indices 1 2 3 4 5 6 
#
# 1 0.020717 -0.001656 -0.008109 0.000000 -0.007815 0.000000
# 2 -0.001656 0.006348 -0.002568 0.000000 -0.000797 0.000000
# 3 -0.008109 -0.002568 0.023190 0.000000 -0.000891 0.000000
# 4 0.000000 0.000000 0.000000 0.031119 0.000000 -0.001749
# 5 -0.007815 -0.000797 -0.000891 0.000000 0.022157 0.000000
# 6 0.000000 0.000000 0.000000 -0.001749 0.000000 0.022803
#
#
# Mechanical properties :
#
#
# Convention : Reuss Voigt Hill
#
# Bulk Modulus (GPa) = 39.07808 57.14780 48.11294
# Shear Modulus (GPa) = 31.34231 40.92584 36.13408
#
# Velocity S-wave (km/s) = 3.56790 4.07705 3.83094
# Velocity P-wave (km/s) = 5.73106 6.73602 6.25376
#
# Compressibility (1/GPa) = 0.02558979
#
# Stress axis : x y z
#
# Youngs Moduli (GPa) = 48.27032 157.53980 43.12170
#
# Poissons Ratio (x) = 0.26086 0.34966
# Poissons Ratio (y) = 0.07993 0.11073
# Poissons Ratio (z) = 0.39141 0.40452
#
# Static dielectric constant tensor:
#      x y z
#    x 1.959070 0.000000 -0.059960 
#    y 0.000000 1.918160 0.000000 
#    z -0.059960 0.000000 2.105840 
# 
# From -- ./inp_files/31142.got.cif
#   From: 2010.05.17/outbox.cif.g08.bks.cpg/sg14_16_cif.got.tgz:31142.got - 2010.06.03 17:49:19.
