data_PCOD9249343
_publ_section_title
;
Structure prediction by ZEFSAII (Michael W. Deem and Ramdas Pophale) SiO2 
 PCOD9249343
Probable space group: P 21/C
;
_chemical_formula_sum "Si O2"
_cell_formula_units_Z 24
_cell_length_a 6.012045
_cell_length_b 11.544312
_cell_length_c 16.256902
_cell_angle_alpha 90.000000
_cell_angle_beta 115.860867
_cell_angle_gamma 90.000000
_cell_volume 1015.315548
_symmetry_space_group_name_H-M "P 21/C"
_symmetry_group_IT_number 14
_symmetry_cell_setting 'monoclinic'
loop_
_space_group_symop_operation_xyz
x,y,z
-x,1/2+y,1/2-z
-x,-y,-z
x,1/2-y,1/2+z
loop_
_atom_site_type_symbol
_atom_site_label
_atom_site_fract_x
_atom_site_fract_y
_atom_site_fract_z
Si Si1 0.631824 0.324626 0.977479
Si Si2 0.063472 0.656781 0.586494
Si Si3 0.387860 0.237110 0.087132
Si Si4 0.298010 0.439024 0.703601
Si Si5 0.240614 0.021334 0.619402
Si Si6 0.926941 0.645631 0.176998
O O1 0.753158 0.218430 0.948265
O O2 0.607450 0.293951 0.069435
O O3 0.756559 0.441733 0.962609
O O4 0.349428 0.340735 0.903042
O O5 0.153044 0.530960 0.625328
O O6 0.063207 0.739578 0.666794
O O7 0.791855 0.664987 0.502789
O O8 0.226393 0.344488 0.095175
O O9 0.445204 0.151928 0.170882
O O10 0.493891 0.504102 0.793092
O O11 0.106721 0.372976 0.732016
O O12 0.051848 0.964242 0.653056
#
# Coordination Sequence:
#
# PCOD9249343 Si02
#       6
#     4   4   4   4   4   4
#     4   9  21  42  64  93 128 165 213 264 317 377
#     4  10  23  42  65  93 134 166 215 263 323 384
#     4  11  24  40  66  95 129 170 217 262 325 378
#     4  11  25  39  65  96 131 170 215 266 324 379
#     4  10  23  40  67  93 128 172 221 262 316 379
#     4   9  22  41  65  92 127 170 211 264 315 376
#
# _framework density 23.637974
#
# number of rings (size 3 to 8) (size 9 to 14) (size 15 to 20)
#    0.000    2.000    0.000    1.000    9.333   12.000 
#    0.000    0.000    0.000    0.000    0.000    0.000 
#    0.000    0.000    0.000    0.000    0.000    0.000 
#
# Total GULP energy -134299.543635 kJ/mol
# GULP energy per Si atom -5595.814318 kJ/mol
# Density = 2.358417 g / cm^3
# Si number density = 23.637974 Si / 1000 Ang^3
#
#
#
# Elastic Constant Matrix: (Units=GPa)
#
#
# Indices 1 2 3 4 5 6 
#
# 1 84.6282 12.4504 14.5164 0.0000 -23.6912 0.0000
# 2 12.4504 90.6220 47.9177 0.0000 -26.0052 0.0000
# 3 14.5164 47.9177 79.0851 0.0000 -17.0518 0.0000
# 4 0.0000 0.0000 0.0000 33.2399 0.0000 5.8661
# 5 -23.6912 -26.0052 -17.0518 0.0000 36.9519 0.0000
# 6 0.0000 0.0000 0.0000 5.8661 0.0000 17.6406
#
#
#
# Elastic Compliance Matrix: (Units=1/GPa)
#
#
# Indices 1 2 3 4 5 6 
#
# 1 0.014580 0.001622 -0.001552 0.000000 0.009773 0.000000
# 2 0.001622 0.018629 -0.009477 0.000000 0.009777 0.000000
# 3 -0.001552 -0.009477 0.018899 0.000000 0.001057 0.000000
# 4 0.000000 0.000000 0.000000 0.031960 0.000000 -0.010628
# 5 0.009773 0.009777 0.001057 0.000000 0.040696 0.000000
# 6 0.000000 0.000000 0.000000 -0.010628 0.000000 0.060222
#
#
# Mechanical properties :
#
#
# Convention : Reuss Voigt Hill
#
# Bulk Modulus (GPa) = 30.03486 44.90047 37.46766
# Shear Modulus (GPa) = 23.26697 29.52986 26.39842
#
# Velocity S-wave (km/s) = 3.14077 3.53832 3.34545
# Velocity P-wave (km/s) = 5.08786 5.97739 5.55047
#
# Compressibility (1/GPa) = 0.03329465
#
# Stress axis : x y z
#
# Youngs Moduli (GPa) = 68.58771 53.68099 52.91192
#
# Poissons Ratio (x) = -0.08707 0.08210
# Poissons Ratio (y) = -0.11124 0.50143
# Poissons Ratio (z) = 0.10643 0.50872
#
# Static dielectric constant tensor:
#      x y z
#    x 1.924180 0.000000 0.025390 
#    y 0.000000 1.839190 0.000000 
#    z 0.025390 0.000000 1.945000 
# 
# From -- ./inp_files/53212.got.cif
#   From: 2010.05.17/outbox.cif.g08.bks.cpg/sg14_27_cif.got.tgz:53212.got - 2010.06.03 17:49:19.
