data_PCOD9249388
_publ_section_title
;
Structure prediction by ZEFSAII (Michael W. Deem and Ramdas Pophale) SiO2 
 PCOD9249388
Probable space group: P 21/C
;
_chemical_formula_sum "Si O2"
_cell_formula_units_Z 32
_cell_length_a 17.899123
_cell_length_b 12.053030
_cell_length_c 17.427335
_cell_angle_alpha 90.000000
_cell_angle_beta 156.903694
_cell_angle_gamma 90.000000
_cell_volume 1474.866511
_symmetry_space_group_name_H-M "P 21/C"
_symmetry_group_IT_number 14
_symmetry_cell_setting 'monoclinic'
loop_
_space_group_symop_operation_xyz
x,y,z
-x,1/2+y,1/2-z
-x,-y,-z
x,1/2-y,1/2+z
loop_
_atom_site_type_symbol
_atom_site_label
_atom_site_fract_x
_atom_site_fract_y
_atom_site_fract_z
Si Si1 0.760994 0.195986 0.679847
Si Si2 0.283560 0.479920 0.769809
Si Si3 0.602520 0.379193 0.864977
Si Si4 0.379437 0.926739 0.206099
Si Si5 0.088356 0.254954 0.074450
Si Si6 0.911141 0.232255 0.569664
Si Si7 0.544733 0.870427 0.037897
Si Si8 0.346493 0.242723 0.015144
O O1 0.677728 0.152257 0.520866
O O2 0.609837 0.283270 0.573278
O O3 0.807512 0.085852 0.774738
O O4 0.967667 0.252917 0.882227
O O5 0.281526 0.496155 0.676739
O O6 0.194543 0.360039 0.699212
O O7 0.500000 0.500000 0.000000
O O8 0.491115 0.494911 0.753767
O O9 0.444044 0.292151 0.686642
O O10 0.786336 0.368295 0.984395
O O11 0.551536 0.858390 0.408110
O O12 0.218150 0.839035 0.030966
O O13 0.255424 0.344267 0.231686
O O14 0.943942 0.276270 0.009319
O O15 0.120516 0.242695 0.802591
O O16 0.582066 0.838770 0.984314
O O17 0.500000 0.000000 0.000000
#
# Coordination Sequence:
#
# PCOD9249388 Si02
#       8
#     4   4   4   4   4   4   4   4
#     4  12  23  40  66 105 136 166 226 286 342 403
#     4  12  19  38  70 107 133 162 214 292 351 391
#     4  11  25  39  63  97 141 175 216 276 348 409
#     4  11  21  39  68  95 128 173 219 285 343 396
#     4  11  23  41  71 101 133 174 227 278 344 403
#     4  10  23  41  61  92 133 176 218 265 330 412
#     4  11  24  44  71  94 133 186 234 282 333 402
#     4  10  23  46  63  92 133 180 229 275 341 405
#
# _framework density 21.696878999999999
#
# number of rings (size 3 to 8) (size 9 to 14) (size 15 to 20)
#    0.000    1.000    5.000    1.875    0.000    5.500 
#    0.000    1.250    0.000    0.000    0.000    0.000 
#    0.000    0.000    0.000    0.000    0.000    0.000 
#
# Total GULP energy -178565.921774 kJ/mol
# GULP energy per Si atom -5580.185055 kJ/mol
# Density = 2.164750 g / cm^3
# Si number density = 21.696879 Si / 1000 Ang^3
#
#
#
# Elastic Constant Matrix: (Units=GPa)
#
#
# Indices 1 2 3 4 5 6 
#
# 1 25.3777 16.8242 7.4022 0.0000 17.3349 0.0000
# 2 16.8242 76.3685 3.1820 0.0000 28.2427 0.0000
# 3 7.4022 3.1820 123.7859 0.0000 10.2575 0.0000
# 4 0.0000 0.0000 0.0000 26.5880 0.0000 7.6192
# 5 17.3349 28.2427 10.2575 0.0000 31.0961 0.0000
# 6 0.0000 0.0000 0.0000 7.6192 0.0000 36.5560
#
#
#
# Elastic Compliance Matrix: (Units=1/GPa)
#
#
# Indices 1 2 3 4 5 6 
#
# 1 0.063842 -0.001476 -0.000968 0.000000 -0.033929 0.000000
# 2 -0.001476 0.019874 0.001033 0.000000 -0.017568 0.000000
# 3 -0.000968 0.001033 0.008372 0.000000 -0.003160 0.000000
# 4 0.000000 0.000000 0.000000 0.040000 0.000000 -0.008337
# 5 -0.033929 -0.017568 -0.003160 0.000000 0.068071 0.000000
# 6 0.000000 0.000000 0.000000 -0.008337 0.000000 0.029093
#
#
# Mechanical properties :
#
#
# Convention : Reuss Voigt Hill
#
# Bulk Modulus (GPa) = 11.20271 31.14989 21.17630
# Shear Modulus (GPa) = 19.09646 32.05625 25.57636
#
# Velocity S-wave (km/s) = 2.96995 3.84794 3.43710
# Velocity P-wave (km/s) = 4.11525 5.84211 5.05299
#
# Compressibility (1/GPa) = 0.08926413
#
# Stress axis : x y z
#
# Youngs Moduli (GPa) = 15.66369 50.31819 119.45049
#
# Poissons Ratio (x) = 0.07429 0.11565
# Poissons Ratio (y) = 0.02313 -0.12341
# Poissons Ratio (z) = 0.01517 -0.05199
#
# Static dielectric constant tensor:
#      x y z
#    x 1.939780 0.000000 0.011150 
#    y 0.000000 1.877460 0.000000 
#    z 0.011150 0.000000 1.841110 
# 
# From -- ./inp_files/69938.got.cif
#   From: 2010.05.17/outbox.cif.g08.bks.cpg/sg14_35_cif.got.tgz:69938.got - 2010.06.03 17:49:19.
