data_PCOD9249764
_publ_section_title
;
Structure prediction by ZEFSAII (Michael W. Deem and Ramdas Pophale) SiO2 
 PCOD9249764
Probable space group: P 21/C
;
_chemical_formula_sum "Si O2"
_cell_formula_units_Z 32
_cell_length_a 31.638973
_cell_length_b 5.006692
_cell_length_c 18.379907
_cell_angle_alpha 90.000000
_cell_angle_beta 31.095768
_cell_angle_gamma 90.000000
_cell_volume 1503.701841
_symmetry_space_group_name_H-M "P 21/C"
_symmetry_group_IT_number 14
_symmetry_cell_setting 'monoclinic'
loop_
_space_group_symop_operation_xyz
x,y,z
-x,1/2+y,1/2-z
-x,-y,-z
x,1/2-y,1/2+z
loop_
_atom_site_type_symbol
_atom_site_label
_atom_site_fract_x
_atom_site_fract_y
_atom_site_fract_z
Si Si1 0.736694 0.878394 0.053074
Si Si2 0.590646 0.583287 0.057729
Si Si3 0.941541 0.251189 0.069189
Si Si4 0.601075 0.080965 0.142089
Si Si5 0.830566 0.066604 0.602964
Si Si6 0.835480 0.128809 0.356645
Si Si7 0.951835 0.448861 0.801963
Si Si8 0.722791 0.912856 0.243362
O O1 0.713826 0.834555 0.171407
O O2 0.662110 0.999507 0.116178
O O3 0.771454 0.609438 0.964186
O O4 0.805470 0.109076 0.943971
O O5 0.615401 0.365140 0.082378
O O6 0.492770 0.564591 0.192689
O O7 0.609601 0.868195 0.064887
O O8 0.639475 0.553364 0.911076
O O9 0.901361 0.320029 0.050790
O O10 0.860701 0.215026 0.238963
O O11 0.000000 0.500000 0.000000
O O12 0.000000 0.000000 0.000000
O O13 0.875847 0.969703 0.463573
O O14 0.769963 0.307838 0.676084
O O15 0.777776 0.810042 0.703988
O O16 0.920948 0.032962 0.265943
O O17 0.023762 0.649184 0.714673
#
# Coordination Sequence:
#
# PCOD9249764 Si02
#       8
#     4   4   4   4   4   4   4   4
#     4  12  24  43  66 100 136 172 218 272 329 396
#     4  10  23  43  69 101 134 174 220 264 323 396
#     4  12  26  46  64  92 130 170 224 280 334 392
#     4  10  23  43  69 101 134 174 220 264 323 396
#     4  12  25  42  65  98 128 170 222 273 327 396
#     4  12  25  42  65  98 128 170 222 273 327 396
#     4  12  22  40  64  88 125 172 213 266 324 382
#     4  12  24  43  66 100 136 172 218 272 329 396
#
# _framework density 21.280816000000002
#
# number of rings (size 3 to 8) (size 9 to 14) (size 15 to 20)
#    0.000    0.500    2.500    6.000    5.250    0.500 
#    0.000    0.000    0.000    7.500    0.000    0.000 
#    0.000    0.000    0.000    0.000    0.000    0.000 
#
# Total GULP energy -178918.570612 kJ/mol
# GULP energy per Si atom -5591.205332 kJ/mol
# Density = 2.123238 g / cm^3
# Si number density = 21.280816 Si / 1000 Ang^3
#
#
#
# Elastic Constant Matrix: (Units=GPa)
#
#
# Indices 1 2 3 4 5 6 
#
# 1 55.3012 -11.9851 20.9941 0.0000 0.0457 0.0000
# 2 -11.9851 96.9795 22.1667 0.0000 1.4230 0.0000
# 3 20.9941 22.1667 116.6720 0.0000 22.1635 0.0000
# 4 0.0000 0.0000 0.0000 21.1055 0.0000 -9.2334
# 5 0.0457 1.4230 22.1635 0.0000 27.7258 0.0000
# 6 0.0000 0.0000 0.0000 -9.2334 0.0000 22.6176
#
#
#
# Elastic Compliance Matrix: (Units=1/GPa)
#
#
# Indices 1 2 3 4 5 6 
#
# 1 0.020860 0.003710 -0.005206 0.000000 0.003937 0.000000
# 2 0.003710 0.011478 -0.003225 0.000000 0.001983 0.000000
# 3 -0.005206 -0.003225 0.011894 0.000000 -0.009333 0.000000
# 4 0.000000 0.000000 0.000000 0.057683 0.000000 0.023549
# 5 0.003937 0.001983 -0.009333 0.000000 0.043420 0.000000
# 6 0.000000 0.000000 0.000000 0.023549 0.000000 0.053827
#
#
# Mechanical properties :
#
#
# Convention : Reuss Voigt Hill
#
# Bulk Modulus (GPa) = 28.74438 36.81159 32.77798
# Shear Modulus (GPa) = 22.70649 30.14156 26.42402
#
# Velocity S-wave (km/s) = 3.27003 3.76756 3.52757
# Velocity P-wave (km/s) = 5.27200 6.02175 5.65931
#
# Compressibility (1/GPa) = 0.03478941
#
# Stress axis : x y z
#
# Youngs Moduli (GPa) = 47.93826 87.12291 84.07843
#
# Poissons Ratio (x) = -0.32325 0.43775
# Poissons Ratio (y) = -0.17786 0.27116
# Poissons Ratio (z) = 0.24959 0.28097
#
# Static dielectric constant tensor:
#      x y z
#    x 1.799810 0.000000 -0.112960 
#    y 0.000000 1.737780 0.000000 
#    z -0.112960 0.000000 2.038560 
# 
# From -- ./inp_files/62485.got.cif
#   From: 2010.05.17/outbox.cif.g08.bks.cpg/sg14_32_cif.got.tgz:62485.got - 2010.06.03 17:49:19.
