data_PCOD9249821
_publ_section_title
;
Structure prediction by ZEFSAII (Michael W. Deem and Ramdas Pophale) SiO2 
 PCOD9249821
Probable space group: P 21/C
;
_chemical_formula_sum "Si O2"
_cell_formula_units_Z 30
_cell_length_a 15.481345
_cell_length_b 8.821709
_cell_length_c 10.127003
_cell_angle_alpha 90.000000
_cell_angle_beta 94.394861
_cell_angle_gamma 90.000000
_cell_volume 1378.997527
_symmetry_space_group_name_H-M "P 21/C"
_symmetry_group_IT_number 14
_symmetry_cell_setting 'monoclinic'
loop_
_space_group_symop_operation_xyz
x,y,z
-x,1/2+y,1/2-z
-x,-y,-z
x,1/2-y,1/2+z
loop_
_atom_site_type_symbol
_atom_site_label
_atom_site_fract_x
_atom_site_fract_y
_atom_site_fract_z
Si Si1 0.706671 0.093477 0.022346
Si Si2 0.259398 0.391505 0.125799
Si Si3 0.426283 0.970731 0.187431
Si Si4 0.135220 0.534322 0.290942
Si Si5 0.837433 0.356910 0.325124
Si Si6 0.000000 0.500000 0.500000
Si Si7 0.721280 0.607896 0.177506
Si Si8 0.604278 0.364770 0.753264
O O1 0.781683 0.003115 0.105958
O O2 0.658429 0.185209 0.130012
O O3 0.635289 0.989583 0.943786
O O4 0.758056 0.184614 0.915592
O O5 0.163920 0.451579 0.159111
O O6 0.276605 0.249565 0.223009
O O7 0.332233 0.520227 0.162693
O O8 0.263721 0.353486 0.972573
O O9 0.427664 0.788243 0.181776
O O10 0.371401 0.028337 0.306668
O O11 0.519829 0.042752 0.199131
O O12 0.135368 0.712997 0.257473
O O13 0.050771 0.488198 0.360354
O O14 0.914797 0.416170 0.425519
O O15 0.796357 0.491182 0.233177
#
# Coordination Sequence:
#
# PCOD9249821 Si02
#       8
#     4   4   4   4   4   2   4   4
#     4   9  19  39  68  91 131 175 233 276 343 404
#     4  11  26  44  70 100 138 186 237 290 347 414
#     4  11  24  41  65  99 136 185 233 298 348 413
#     4  10  23  43  75 100 136 182 230 282 342 425
#     4  10  23  43  75 100 136 182 230 282 342 425
#     4  10  24  44  68 114 142 176 218 290 350 418
#     4  11  26  44  70 100 138 186 237 290 347 414
#     4  11  24  41  65  99 136 185 233 298 348 413
#
# _framework density 21.754935
#
# number of rings (size 3 to 8) (size 9 to 14) (size 15 to 20)
#    0.000    1.600    0.000    4.400   18.667    1.600 
#    4.800    0.667    0.000    0.000    0.000    0.000 
#    0.000    0.000    0.000    0.000    0.000    0.000 
#
# Total GULP energy -167019.945254 kJ/mol
# GULP energy per Si atom -5567.331508 kJ/mol
# Density = 2.170542 g / cm^3
# Si number density = 21.754935 Si / 1000 Ang^3
#
#
#
# Elastic Constant Matrix: (Units=GPa)
#
#
# Indices 1 2 3 4 5 6 
#
# 1 101.1779 40.8944 28.6029 0.0000 -5.7747 0.0000
# 2 40.8944 113.7151 42.6071 0.0000 -0.0092 0.0000
# 3 28.6029 42.6071 135.8082 0.0000 -11.2164 0.0000
# 4 0.0000 0.0000 0.0000 14.7519 0.0000 -1.0012
# 5 -5.7747 -0.0092 -11.2164 0.0000 31.5781 0.0000
# 6 0.0000 0.0000 0.0000 -1.0012 0.0000 13.9036
#
#
#
# Elastic Compliance Matrix: (Units=1/GPa)
#
#
# Indices 1 2 3 4 5 6 
#
# 1 0.011858 -0.003834 -0.001149 0.000000 0.001759 0.000000
# 2 -0.003834 0.011245 -0.002862 0.000000 -0.001714 0.000000
# 3 -0.001149 -0.002862 0.008742 0.000000 0.002894 0.000000
# 4 0.000000 0.000000 0.000000 0.068121 0.000000 0.004905
# 5 0.001759 -0.001714 0.002894 0.000000 0.033017 0.000000
# 6 0.000000 0.000000 0.000000 0.004905 0.000000 0.072277
#
#
# Mechanical properties :
#
#
# Convention : Reuss Voigt Hill
#
# Bulk Modulus (GPa) = 61.89960 63.87889 62.88924
# Shear Modulus (GPa) = 22.09112 27.95318 25.02215
#
# Velocity S-wave (km/s) = 3.19007 3.58846 3.39511
# Velocity P-wave (km/s) = 6.48719 6.82613 6.65882
#
# Compressibility (1/GPa) = 0.01615519
#
# Stress axis : x y z
#
# Youngs Moduli (GPa) = 84.32786 88.93004 114.38576
#
# Poissons Ratio (x) = 0.34093 0.13149
# Poissons Ratio (y) = 0.32329 0.32737
# Poissons Ratio (z) = 0.09693 0.25452
#
# Static dielectric constant tensor:
#      x y z
#    x 1.770710 0.000000 0.000230 
#    y 0.000000 1.817370 0.000000 
#    z 0.000230 0.000000 1.884730 
# 
# From -- ./inp_files/31569.got.cif
#   From: 2010.05.17/outbox.cif.g08.bks.cpg/sg14_16_cif.got.tgz:31569.got - 2010.06.03 17:49:19.
