data_PCOD9249695
_publ_section_title
;
Structure prediction by ZEFSAII (Michael W. Deem and Ramdas Pophale) SiO2 
 PCOD9249695
Probable space group: P 21/C
;
_chemical_formula_sum "Si O2"
_cell_formula_units_Z 32
_cell_length_a 10.114378
_cell_length_b 11.793871
_cell_length_c 14.231276
_cell_angle_alpha 90.000000
_cell_angle_beta 55.407697
_cell_angle_gamma 90.000000
_cell_volume 1397.498747
_symmetry_space_group_name_H-M "P 21/C"
_symmetry_group_IT_number 14
_symmetry_cell_setting 'monoclinic'
loop_
_space_group_symop_operation_xyz
x,y,z
-x,1/2+y,1/2-z
-x,-y,-z
x,1/2-y,1/2+z
loop_
_atom_site_type_symbol
_atom_site_label
_atom_site_fract_x
_atom_site_fract_y
_atom_site_fract_z
Si Si1 0.508198 0.040238 0.103294
Si Si2 0.210298 0.717005 0.537165
Si Si3 0.982950 0.624504 0.781764
Si Si4 0.675363 0.744196 0.347634
Si Si5 0.967554 0.753638 0.466377
Si Si6 0.162104 0.560000 0.288791
Si Si7 0.678747 0.871440 0.161043
Si Si8 0.571479 0.377128 0.947685
O O1 0.349150 0.116365 0.176030
O O2 0.544129 0.934729 0.155458
O O3 0.655220 0.130066 0.056109
O O4 0.500000 0.000000 0.000000
O O5 0.072487 0.745348 0.518362
O O6 0.294405 0.832625 0.534468
O O7 0.140353 0.656343 0.658964
O O8 0.853119 0.718971 0.800978
O O9 0.911302 0.508391 0.769672
O O10 0.991134 0.636984 0.890506
O O11 0.617539 0.820415 0.283297
O O12 0.565825 0.782808 0.480105
O O13 0.040475 0.653250 0.373020
O O14 0.784667 0.722550 0.565367
O O15 0.194236 0.467739 0.356672
O O16 0.333484 0.612664 0.188698
O O17 0.500000 0.500000 0.000000
#
# Coordination Sequence:
#
# PCOD9249695 Si02
#       8
#     4   4   4   4   4   4   4   4
#     4  11  24  44  63  97 133 176 224 279 329 411
#     4  11  23  42  67  98 130 169 237 268 333 416
#     4  11  22  40  67 100 127 174 222 277 338 393
#     4  10  23  43  64  97 137 169 232 273 333 414
#     4  12  22  42  70  99 131 173 221 292 327 396
#     4  11  21  40  69  92 126 178 219 272 337 406
#     4  11  21  41  70  95 131 177 224 278 342 389
#     4  11  21  43  66  91 137 177 211 274 341 406
#
# _framework density 22.898053000000001
#
# number of rings (size 3 to 8) (size 9 to 14) (size 15 to 20)
#    0.000    1.000    7.500    1.875    0.000    0.000 
#   13.500    0.625    0.000    0.000    0.000    0.000 
#    0.000    0.000    0.000    0.000    0.000    0.000 
#
# Total GULP energy -178811.204599 kJ/mol
# GULP energy per Si atom -5587.850144 kJ/mol
# Density = 2.284594 g / cm^3
# Si number density = 22.898053 Si / 1000 Ang^3
#
#
#
# Elastic Constant Matrix: (Units=GPa)
#
#
# Indices 1 2 3 4 5 6 
#
# 1 59.8694 15.7843 2.6569 0.0000 16.8931 0.0000
# 2 15.7843 46.2441 -1.1482 0.0000 9.5696 0.0000
# 3 2.6569 -1.1482 78.5235 0.0000 -4.8949 0.0000
# 4 0.0000 0.0000 0.0000 31.6880 0.0000 12.8393
# 5 16.8931 9.5696 -4.8949 0.0000 35.9815 0.0000
# 6 0.0000 0.0000 0.0000 12.8393 0.0000 35.6185
#
#
#
# Elastic Compliance Matrix: (Units=1/GPa)
#
#
# Indices 1 2 3 4 5 6 
#
# 1 0.020530 -0.005300 -0.001296 0.000000 -0.008405 0.000000
# 2 -0.005300 0.024252 0.000289 0.000000 -0.003922 0.000000
# 3 -0.001296 0.000289 0.012926 0.000000 0.002290 0.000000
# 4 0.000000 0.000000 0.000000 0.036955 0.000000 -0.013321
# 5 -0.008405 -0.003922 0.002290 0.000000 0.033093 0.000000
# 6 0.000000 0.000000 0.000000 -0.013321 0.000000 0.032877
#
#
# Mechanical properties :
#
#
# Convention : Reuss Voigt Hill
#
# Bulk Modulus (GPa) = 22.17577 24.35812 23.26695
# Shear Modulus (GPa) = 26.55649 31.81387 29.18518
#
# Velocity S-wave (km/s) = 3.40924 3.73147 3.57399
# Velocity P-wave (km/s) = 5.02024 5.40610 5.21674
#
# Compressibility (1/GPa) = 0.04509425
#
# Stress axis : x y z
#
# Youngs Moduli (GPa) = 48.71026 41.23322 77.36420
#
# Poissons Ratio (x) = 0.21854 0.10027
# Poissons Ratio (y) = 0.25817 -0.02239
# Poissons Ratio (z) = 0.06313 -0.01194
#
# Static dielectric constant tensor:
#      x y z
#    x 1.865730 0.000000 -0.002500 
#    y 0.000000 1.886820 0.000000 
#    z -0.002500 0.000000 1.875750 
# 
# From -- ./inp_files/44618.got.cif
#   From: 2010.05.17/outbox.cif.g08.bks.cpg/sg14_23_cif.got.tgz:44618.got - 2010.06.03 17:49:19.
