data_PCOD9249646
_publ_section_title
;
Structure prediction by ZEFSAII (Michael W. Deem and Ramdas Pophale) SiO2 
 PCOD9249646
Probable space group: P 21/C
;
_chemical_formula_sum "Si O2"
_cell_formula_units_Z 28
_cell_length_a 5.570396
_cell_length_b 11.663821
_cell_length_c 20.491602
_cell_angle_alpha 90.000000
_cell_angle_beta 70.618340
_cell_angle_gamma 90.000000
_cell_volume 1255.931587
_symmetry_space_group_name_H-M "P 21/C"
_symmetry_group_IT_number 14
_symmetry_cell_setting 'monoclinic'
loop_
_space_group_symop_operation_xyz
x,y,z
-x,1/2+y,1/2-z
-x,-y,-z
x,1/2-y,1/2+z
loop_
_atom_site_type_symbol
_atom_site_label
_atom_site_fract_x
_atom_site_fract_y
_atom_site_fract_z
Si Si1 0.913983 0.945457 0.940539
Si Si2 0.073199 0.445455 0.062639
Si Si3 0.189874 0.815189 0.603000
Si Si4 0.897008 0.624860 0.677730
Si Si5 0.290111 0.745803 0.858736
Si Si6 0.540324 0.757016 0.963856
Si Si7 0.647701 0.314450 0.288462
O O1 0.100411 0.843708 0.900615
O O2 0.648053 0.880398 0.972825
O O3 0.942391 0.041332 0.883083
O O4 0.000000 0.000000 0.000000
O O5 0.172779 0.549138 0.098485
O O6 0.284461 0.348782 0.030841
O O7 0.840862 0.377107 0.116258
O O8 0.000000 0.500000 0.000000
O O9 0.926900 0.754067 0.646461
O O10 0.278750 0.766655 0.524965
O O11 0.368464 0.762420 0.644095
O O12 0.070460 0.628252 0.727409
O O13 0.596189 0.602548 0.699902
O O14 0.524188 0.752929 0.887209
O O15 0.347973 0.758634 0.777919
#
# Coordination Sequence:
#
# PCOD9249646 Si02
#       7
#     4   4   4   4   4   4   4
#     4  11  25  43  73 105 142 183 240 297 360 424
#     4  11  24  41  69 106 137 181 239 294 355 413
#     4  10  23  42  71 100 140 187 233 289 353 419
#     4  10  25  46  70 101 143 188 237 279 358 421
#     4  11  26  44  68 103 142 184 238 295 355 424
#     4  11  24  41  72 101 140 179 239 296 353 419
#     4  10  26  46  69 101 145 188 236 286 354 427
#
# _framework density 22.294208000000001
#
# number of rings (size 3 to 8) (size 9 to 14) (size 15 to 20)
#    0.857    0.571    1.429    2.143   10.000    2.286 
#    2.571    0.000    0.000    0.000    0.000    0.000 
#    0.000    0.000    0.000    0.000    0.000    0.000 
#
# Total GULP energy -156199.114470 kJ/mol
# GULP energy per Si atom -5578.539803 kJ/mol
# Density = 2.224347 g / cm^3
# Si number density = 22.294208 Si / 1000 Ang^3
#
#
#
# Elastic Constant Matrix: (Units=GPa)
#
#
# Indices 1 2 3 4 5 6 
#
# 1 89.3386 19.4589 8.4817 0.0000 21.8146 0.0000
# 2 19.4589 95.5920 18.7957 0.0000 7.0500 0.0000
# 3 8.4817 18.7957 78.0746 0.0000 30.7903 0.0000
# 4 0.0000 0.0000 0.0000 21.4678 0.0000 -0.5541
# 5 21.8146 7.0500 30.7903 0.0000 36.7249 0.0000
# 6 0.0000 0.0000 0.0000 -0.5541 0.0000 36.3791
#
#
#
# Elastic Compliance Matrix: (Units=1/GPa)
#
#
# Indices 1 2 3 4 5 6 
#
# 1 0.014064 -0.002732 0.003313 0.000000 -0.010607 0.000000
# 2 -0.002732 0.011512 -0.003351 0.000000 0.002222 0.000000
# 3 0.003313 -0.003351 0.020583 0.000000 -0.018582 0.000000
# 4 0.000000 0.000000 0.000000 0.046600 0.000000 0.000710
# 5 -0.010607 0.002222 -0.018582 0.000000 0.048682 0.000000
# 6 0.000000 0.000000 0.000000 0.000710 0.000000 0.027499
#
#
# Mechanical properties :
#
#
# Convention : Reuss Voigt Hill
#
# Bulk Modulus (GPa) = 24.61897 39.60865 32.11381
# Shear Modulus (GPa) = 26.59282 33.33227 29.96254
#
# Velocity S-wave (km/s) = 3.45746 3.87086 3.66998
# Velocity P-wave (km/s) = 5.19668 6.14679 5.69159
#
# Compressibility (1/GPa) = 0.04061908
#
# Stress axis : x y z
#
# Youngs Moduli (GPa) = 71.10377 86.86381 48.58340
#
# Poissons Ratio (x) = 0.23731 -0.16096
# Poissons Ratio (y) = 0.19426 0.16281
# Poissons Ratio (z) = -0.23557 0.29109
#
# Static dielectric constant tensor:
#      x y z
#    x 2.161350 0.000000 -0.011230 
#    y 0.000000 1.797090 0.000000 
#    z -0.011230 0.000000 1.797640 
# 
# From -- ./inp_files/63487.got.cif
#   From: 2010.05.17/outbox.cif.g08.bks.cpg/sg14_32_cif.got.tgz:63487.got - 2010.06.03 17:49:19.
