data_PCOD9249773
_publ_section_title
;
Structure prediction by ZEFSAII (Michael W. Deem and Ramdas Pophale) SiO2 
 PCOD9249773
Probable space group: P 21/C
;
_chemical_formula_sum "Si O2"
_cell_formula_units_Z 28
_cell_length_a 14.188996
_cell_length_b 8.223803
_cell_length_c 21.917160
_cell_angle_alpha 90.000000
_cell_angle_beta 149.797917
_cell_angle_gamma 90.000000
_cell_volume 1286.533136
_symmetry_space_group_name_H-M "P 21/C"
_symmetry_group_IT_number 14
_symmetry_cell_setting 'monoclinic'
loop_
_space_group_symop_operation_xyz
x,y,z
-x,1/2+y,1/2-z
-x,-y,-z
x,1/2-y,1/2+z
loop_
_atom_site_type_symbol
_atom_site_label
_atom_site_fract_x
_atom_site_fract_y
_atom_site_fract_z
Si Si1 0.316682 0.212739 0.138701
Si Si2 0.101142 0.840057 0.787335
Si Si3 0.552099 0.452110 0.195303
Si Si4 0.459891 0.637113 0.028656
Si Si5 0.085832 0.709354 0.649254
Si Si6 0.855074 0.551608 0.867299
Si Si7 0.852999 0.694140 0.744164
O O1 0.442151 0.292680 0.156193
O O2 0.298295 0.345359 0.182933
O O3 0.405153 0.057662 0.220744
O O4 0.105512 0.182410 0.995513
O O5 0.033636 0.739085 0.690213
O O6 0.956647 0.827431 0.761828
O O7 0.132714 0.024536 0.784261
O O8 0.287380 0.748628 0.913176
O O9 0.430920 0.547962 0.077243
O O10 0.752914 0.419961 0.275207
O O11 0.640755 0.751731 0.134694
O O12 0.500000 0.500000 0.000000
O O13 0.187976 0.879325 0.687479
O O14 0.936229 0.661708 0.858035
O O15 0.000000 0.500000 0.000000
#
# Coordination Sequence:
#
# PCOD9249773 Si02
#       7
#     4   4   4   4   4   4   4
#     4  11  24  44  68  97 135 179 232 278 345 406
#     4  11  25  42  70 104 136 185 228 281 352 415
#     4  12  25  45  69 102 136 179 230 285 348 406
#     4  12  25  45  71  99 145 182 234 291 340 416
#     4  10  23  43  69  96 137 175 225 285 337 407
#     4   9  20  41  68  94 132 174 227 281 336 401
#     4  11  24  45  69 104 141 183 234 283 353 415
#
# _framework density 21.763915000000001
#
# number of rings (size 3 to 8) (size 9 to 14) (size 15 to 20)
#    0.000    1.143    2.857    2.571    8.000    0.000 
#    2.571    0.000    0.000    0.000    0.000    0.000 
#    0.000    0.000    0.000    0.000    0.000    0.000 
#
# Total GULP energy -156485.580409 kJ/mol
# GULP energy per Si atom -5588.770729 kJ/mol
# Density = 2.171438 g / cm^3
# Si number density = 21.763915 Si / 1000 Ang^3
#
#
#
# Elastic Constant Matrix: (Units=GPa)
#
#
# Indices 1 2 3 4 5 6 
#
# 1 80.1212 -1.1019 17.7350 0.0000 -17.2230 0.0000
# 2 -1.1019 39.8101 7.1458 0.0000 -9.0139 0.0000
# 3 17.7350 7.1458 62.7618 0.0000 -16.3306 0.0000
# 4 0.0000 0.0000 0.0000 27.9780 0.0000 2.7361
# 5 -17.2230 -9.0139 -16.3306 0.0000 30.7505 0.0000
# 6 0.0000 0.0000 0.0000 2.7361 0.0000 50.5696
#
#
#
# Elastic Compliance Matrix: (Units=1/GPa)
#
#
# Indices 1 2 3 4 5 6 
#
# 1 0.014714 0.002590 -0.002449 0.000000 0.007700 0.000000
# 2 0.002590 0.027436 -0.001608 0.000000 0.008639 0.000000
# 3 -0.002449 -0.001608 0.018947 0.000000 0.008219 0.000000
# 4 0.000000 0.000000 0.000000 0.035932 0.000000 -0.001944
# 5 0.007700 0.008639 0.008219 0.000000 0.043730 0.000000
# 6 0.000000 0.000000 0.000000 -0.001944 0.000000 0.019880
#
#
# Mechanical properties :
#
#
# Convention : Reuss Voigt Hill
#
# Bulk Modulus (GPa) = 17.19303 25.58345 21.38824
# Shear Modulus (GPa) = 27.32842 32.45392 29.89117
#
# Velocity S-wave (km/s) = 3.54740 3.86577 3.71000
# Velocity P-wave (km/s) = 4.96947 5.63081 5.31045
#
# Compressibility (1/GPa) = 0.05816310
#
# Stress axis : x y z
#
# Youngs Moduli (GPa) = 67.96246 36.44900 52.77877
#
# Poissons Ratio (x) = -0.09441 0.12927
# Poissons Ratio (y) = -0.17604 0.08485
# Poissons Ratio (z) = 0.16646 0.05860
#
# Static dielectric constant tensor:
#      x y z
#    x 1.777470 0.000000 -0.012940 
#    y 0.000000 1.831430 0.000000 
#    z -0.012940 0.000000 1.754860 
# 
# From -- ./inp_files/43279.got.cif
#   From: 2010.05.17/outbox.cif.g08.bks.cpg/sg14_22_cif.got.tgz:43279.got - 2010.06.03 17:49:19.
