data_PCOD9249491
_publ_section_title
;
Structure prediction by ZEFSAII (Michael W. Deem and Ramdas Pophale) SiO2 
 PCOD9249491
Probable space group: P 21/C
;
_chemical_formula_sum "Si O2"
_cell_formula_units_Z 28
_cell_length_a 5.093020
_cell_length_b 29.720582
_cell_length_c 7.326869
_cell_angle_alpha 90.000000
_cell_angle_beta 72.716802
_cell_angle_gamma 90.000000
_cell_volume 1058.974114
_symmetry_space_group_name_H-M "P 21/C"
_symmetry_group_IT_number 14
_symmetry_cell_setting 'monoclinic'
loop_
_space_group_symop_operation_xyz
x,y,z
-x,1/2+y,1/2-z
-x,-y,-z
x,1/2-y,1/2+z
loop_
_atom_site_type_symbol
_atom_site_label
_atom_site_fract_x
_atom_site_fract_y
_atom_site_fract_z
Si Si1 0.540778 0.646950 0.971824
Si Si2 0.676675 0.443500 0.047498
Si Si3 0.533624 0.883019 0.892703
Si Si4 0.775480 0.236451 0.520671
Si Si5 0.203306 0.296579 0.635418
Si Si6 0.926753 0.322195 0.346035
Si Si7 0.278140 0.032787 0.300659
O O1 0.361018 0.609072 0.903614
O O2 0.422709 0.695858 0.013665
O O3 0.819800 0.653919 0.803567
O O4 0.544804 0.628613 0.175814
O O5 0.692191 0.478963 0.210062
O O6 0.422697 0.455986 0.966375
O O7 0.960739 0.452409 0.880894
O O8 0.771887 0.849813 0.912231
O O9 0.585549 0.935999 0.881518
O O10 0.270869 0.860846 0.039486
O O11 0.501326 0.273594 0.579274
O O12 0.045105 0.214090 0.349660
O O13 0.817264 0.285147 0.222041
O O14 0.001110 0.286187 0.500903
#
# Coordination Sequence:
#
# PCOD9249491 Si02
#       7
#     4   4   4   4   4   4   4
#     4  11  22  45  72  93 140 176 232 275 350 394
#     4   9  19  39  65 114 122 185 218 288 330 421
#     4  11  23  43  69  97 131 184 218 285 338 415
#     4  10  23  42  60  91 127 180 217 282 323 410
#     4  10  24  41  62  89 131 170 225 276 338 392
#     4  10  26  41  61  97 131 175 225 280 328 416
#     4   9  19  37  74  95 146 162 235 271 348 401
#
# _framework density 26.440685999999999
#
# number of rings (size 3 to 8) (size 9 to 14) (size 15 to 20)
#    0.857    1.143    1.429    0.857    6.000    1.143 
#    5.143    0.714    0.000    0.857    0.000    0.000 
#    0.000    0.000    0.000    0.000    0.000    0.286 
#
# Total GULP energy -156330.833638 kJ/mol
# GULP energy per Si atom -5583.244058 kJ/mol
# Density = 2.638051 g / cm^3
# Si number density = 26.440686 Si / 1000 Ang^3
#
#
#
# Elastic Constant Matrix: (Units=GPa)
#
#
# Indices 1 2 3 4 5 6 
#
# 1 125.2253 -11.0918 63.1506 0.0000 -6.1826 0.0000
# 2 -11.0918 26.7210 28.0557 0.0000 6.5607 0.0000
# 3 63.1506 28.0557 197.0597 0.0000 -25.9993 0.0000
# 4 0.0000 0.0000 0.0000 23.8491 0.0000 -19.0512
# 5 -6.1826 6.5607 -25.9993 0.0000 37.1102 0.0000
# 6 0.0000 0.0000 0.0000 -19.0512 0.0000 23.8970
#
#
#
# Elastic Compliance Matrix: (Units=1/GPa)
#
#
# Indices 1 2 3 4 5 6 
#
# 1 0.012061 0.012761 -0.006297 0.000000 -0.004658 0.000000
# 2 0.012761 0.064523 -0.015977 0.000000 -0.020474 0.000000
# 3 -0.006297 -0.015977 0.010579 0.000000 0.009187 0.000000
# 4 0.000000 0.000000 0.000000 0.115461 0.000000 0.092048
# 5 -0.004658 -0.020474 0.009187 0.000000 0.036227 0.000000
# 6 0.000000 0.000000 0.000000 0.092048 0.000000 0.115229
#
#
# Mechanical properties :
#
#
# Convention : Reuss Voigt Hill
#
# Bulk Modulus (GPa) = 14.67587 56.58168 35.62878
# Shear Modulus (GPa) = 12.63206 34.89736 23.76471
#
# Velocity S-wave (km/s) = 2.18812 3.63690 3.00124
# Velocity P-wave (km/s) = 3.45635 6.25156 5.05115
#
# Compressibility (1/GPa) = 0.06813904
#
# Stress axis : x y z
#
# Youngs Moduli (GPa) = 82.90937 15.49832 94.52407
#
# Poissons Ratio (x) = -0.19778 0.59519
# Poissons Ratio (y) = -1.05805 1.51023
# Poissons Ratio (z) = 0.52205 0.24762
#
# Static dielectric constant tensor:
#      x y z
#    x 2.325950 0.000000 0.130390 
#    y 0.000000 2.505510 0.000000 
#    z 0.130390 0.000000 2.168600 
# 
# From -- ./inp_files/6887.got.cif
#   From: 2010.05.17/outbox.cif.g08.bks.cpg/sg14_4_cif.got.tgz:6887.got - 2010.06.03 17:49:19.
