data_PCOD9249898
_publ_section_title
;
Structure prediction by ZEFSAII (Michael W. Deem and Ramdas Pophale) SiO2 
 PCOD9249898
Probable space group: P 21/C
;
_chemical_formula_sum "Si O2"
_cell_formula_units_Z 24
_cell_length_a 21.175365
_cell_length_b 5.865021
_cell_length_c 21.249817
_cell_angle_alpha 90.000000
_cell_angle_beta 21.568422
_cell_angle_gamma 90.000000
_cell_volume 970.164594
_symmetry_space_group_name_H-M "P 21/C"
_symmetry_group_IT_number 14
_symmetry_cell_setting 'monoclinic'
loop_
_space_group_symop_operation_xyz
x,y,z
-x,1/2+y,1/2-z
-x,-y,-z
x,1/2-y,1/2+z
loop_
_atom_site_type_symbol
_atom_site_label
_atom_site_fract_x
_atom_site_fract_y
_atom_site_fract_z
Si Si1 0.855563 0.800978 0.712791
Si Si2 0.550101 0.751918 0.922999
Si Si3 0.796302 0.132832 0.448231
Si Si4 0.003528 0.317073 0.143779
Si Si5 0.789329 0.084220 0.072031
Si Si6 0.575906 0.547680 0.058759
O O1 0.756671 0.756998 0.739776
O O2 0.040864 0.687883 0.552282
O O3 0.717504 0.700564 0.891485
O O4 0.893518 0.064705 0.691703
O O5 0.461874 0.701339 0.937954
O O6 0.500000 0.500000 0.000000
O O7 0.500000 0.000000 0.000000
O O8 0.767831 0.350598 0.518204
O O9 0.631060 0.992117 0.579785
O O10 0.884462 0.167051 0.298990
O O11 0.926711 0.999959 0.371705
O O12 0.166860 0.181231 0.968405
O O13 0.613610 0.158842 0.267378
#
# Coordination Sequence:
#
# PCOD9249898 Si02
#       6
#     4   4   4   4   4   4
#     4  10  23  44  69  89 137 175 225 286 349 411
#     4  10  23  46  74 103 133 186 236 287 355 417
#     4  11  21  37  62  90 132 175 218 275 341 415
#     4  11  20  40  64  91 131 179 221 274 352 408
#     4  11  25  40  63 102 131 177 230 278 347 416
#     4  11  24  43  67 100 133 177 230 286 344 417
#
# _framework density 24.73807
#
# number of rings (size 3 to 8) (size 9 to 14) (size 15 to 20)
#    0.000    1.333    3.333    2.000    4.667    0.667 
#   15.000    0.833    0.000    0.000    0.000    0.000 
#    0.000    0.000    0.000    0.000    0.000    0.000 
#
# Total GULP energy -133777.924847 kJ/mol
# GULP energy per Si atom -5574.080202 kJ/mol
# Density = 2.468177 g / cm^3
# Si number density = 24.738070 Si / 1000 Ang^3
#
#
#
# Elastic Constant Matrix: (Units=GPa)
#
#
# Indices 1 2 3 4 5 6 
#
# 1 65.6741 -10.2646 13.3584 0.0000 -14.1896 0.0000
# 2 -10.2646 58.7479 16.1703 0.0000 6.7267 0.0000
# 3 13.3584 16.1703 129.8337 0.0000 -19.5550 0.0000
# 4 0.0000 0.0000 0.0000 12.8361 0.0000 -13.3601
# 5 -14.1896 6.7267 -19.5550 0.0000 42.1704 0.0000
# 6 0.0000 0.0000 0.0000 -13.3601 0.0000 34.4566
#
#
#
# Elastic Compliance Matrix: (Units=1/GPa)
#
#
# Indices 1 2 3 4 5 6 
#
# 1 0.016947 0.002820 -0.001402 0.000000 0.004603 0.000000
# 2 0.002820 0.018786 -0.003159 0.000000 -0.003513 0.000000
# 3 -0.001402 -0.003159 0.008864 0.000000 0.004143 0.000000
# 4 0.000000 0.000000 0.000000 0.130619 0.000000 0.050646
# 5 0.004603 -0.003513 0.004143 0.000000 0.027743 0.000000
# 6 0.000000 0.000000 0.000000 0.050646 0.000000 0.048659
#
#
# Mechanical properties :
#
#
# Convention : Reuss Voigt Hill
#
# Bulk Modulus (GPa) = 24.32176 32.53155 28.42666
# Shear Modulus (GPa) = 18.60082 33.55873 26.07977
#
# Velocity S-wave (km/s) = 2.74507 3.68715 3.25042
# Velocity P-wave (km/s) = 4.46097 5.59515 5.05994
#
# Compressibility (1/GPa) = 0.04111545
#
# Stress axis : x y z
#
# Youngs Moduli (GPa) = 59.00765 53.23034 112.81928
#
# Poissons Ratio (x) = -0.15010 0.15813
# Poissons Ratio (y) = -0.16639 0.35639
# Poissons Ratio (z) = 0.08271 0.16815
#
# Static dielectric constant tensor:
#      x y z
#    x 1.969460 0.000000 0.003700 
#    y 0.000000 2.162000 0.000000 
#    z 0.003700 0.000000 2.099200 
# 
# From -- ./inp_files/74782.got.cif
#   From: 2010.05.17/outbox.cif.g08.bks.cpg/sg14_38_cif.got.tgz:74782.got - 2010.06.03 17:49:19.
