data_PCOD9249559
_publ_section_title
;
Structure prediction by ZEFSAII (Michael W. Deem and Ramdas Pophale) SiO2 
 PCOD9249559
Probable space group: P 21/C
;
_chemical_formula_sum "Si O2"
_cell_formula_units_Z 20
_cell_length_a 4.954431
_cell_length_b 5.261843
_cell_length_c 26.439917
_cell_angle_alpha 90.000000
_cell_angle_beta 85.763009
_cell_angle_gamma 90.000000
_cell_volume 687.389984
_symmetry_space_group_name_H-M "P 21/C"
_symmetry_group_IT_number 14
_symmetry_cell_setting 'monoclinic'
loop_
_space_group_symop_operation_xyz
x,y,z
-x,1/2+y,1/2-z
-x,-y,-z
x,1/2-y,1/2+z
loop_
_atom_site_type_symbol
_atom_site_label
_atom_site_fract_x
_atom_site_fract_y
_atom_site_fract_z
Si Si1 0.162066 0.939258 0.762778
Si Si2 0.408828 0.707238 0.562325
Si Si3 0.988729 0.230254 0.637807
Si Si4 0.760745 0.213802 0.537168
Si Si5 0.522286 0.079963 0.336821
O O1 0.162222 0.931953 0.823641
O O2 0.417399 0.877696 0.723126
O O3 0.971741 0.700029 0.752186
O O4 0.550774 0.442237 0.549507
O O5 0.175853 0.760477 0.523499
O O6 0.361228 0.724790 0.623075
O O7 0.610478 0.946295 0.548894
O O8 0.979031 0.265605 0.577827
O O9 0.787394 0.990727 0.650140
O O10 0.288180 0.161546 0.651225
#
# Coordination Sequence:
#
# PCOD9249559 Si02
#       5
#     4   4   4   4   4
#     4  10  24  44  66  94 128 166 210 260 314 372
#     4   9  19  37  61  90 124 162 205 254 308 367
#     4  10  23  42  66  94 126 166 210 258 313 372
#     4   9  19  37  61  90 124 162 205 254 308 367
#     4  10  23  42  66  94 126 166 210 258 313 372
#
# _framework density 29.095562000000001
#
# number of rings (size 3 to 8) (size 9 to 14) (size 15 to 20)
#    0.000    2.400    0.000    0.000    0.000   21.600 
#    0.000    0.000    0.000   22.800    0.000    0.000 
#    0.000    0.000    0.000    0.000    0.000    0.000 
#
# Total GULP energy -112021.767647 kJ/mol
# GULP energy per Si atom -5601.088382 kJ/mol
# Density = 2.902934 g / cm^3
# Si number density = 29.095562 Si / 1000 Ang^3
#
#
#
# Elastic Constant Matrix: (Units=GPa)
#
#
# Indices 1 2 3 4 5 6 
#
# 1 88.9456 46.1225 46.9701 0.0000 -0.3948 0.0000
# 2 46.1225 112.8371 60.0207 0.0000 -13.1654 0.0000
# 3 46.9701 60.0207 158.6452 0.0000 14.2505 0.0000
# 4 0.0000 0.0000 0.0000 54.2649 0.0000 -1.2697
# 5 -0.3948 -13.1654 14.2505 0.0000 44.2330 0.0000
# 6 0.0000 0.0000 0.0000 -1.2697 0.0000 19.7529
#
#
#
# Elastic Compliance Matrix: (Units=1/GPa)
#
#
# Indices 1 2 3 4 5 6 
#
# 1 0.015133 -0.004858 -0.002600 0.000000 -0.000473 0.000000
# 2 -0.004858 0.013738 -0.004246 0.000000 0.005413 0.000000
# 3 -0.002600 -0.004246 0.009057 0.000000 -0.004205 0.000000
# 4 0.000000 0.000000 0.000000 0.018456 0.000000 0.001186
# 5 -0.000473 0.005413 -0.004205 0.000000 0.025569 0.000000
# 6 0.000000 0.000000 0.000000 0.001186 0.000000 0.050702
#
#
# Mechanical properties :
#
#
# Convention : Reuss Voigt Hill
#
# Bulk Modulus (GPa) = 68.86520 74.07273 71.46897
# Shear Modulus (GPa) = 31.07493 37.47111 34.27302
#
# Velocity S-wave (km/s) = 3.27162 3.59257 3.43585
# Velocity P-wave (km/s) = 6.16371 6.53624 6.35271
#
# Compressibility (1/GPa) = 0.01452112
#
# Stress axis : x y z
#
# Youngs Moduli (GPa) = 66.08207 72.79161 110.41099
#
# Poissons Ratio (x) = 0.35360 0.28707
# Poissons Ratio (y) = 0.32101 0.46875
# Poissons Ratio (z) = 0.17181 0.30904
#
# Static dielectric constant tensor:
#      x y z
#    x 2.165520 0.000000 0.015250 
#    y 0.000000 2.248460 0.000000 
#    z 0.015250 0.000000 2.477220 
# 
# From -- ./inp_files/78466.got.cif
#   From: 2010.05.17/outbox.cif.g08.bks.cpg/sg14_40_cif.got.tgz:78466.got - 2010.06.03 17:49:19.
