data_PCOD9249947
_publ_section_title
;
Structure prediction by ZEFSAII (Michael W. Deem and Ramdas Pophale) SiO2 
 PCOD9249947
Probable space group: P 21/C
;
_chemical_formula_sum "Si O2"
_cell_formula_units_Z 16
_cell_length_a 5.133390
_cell_length_b 16.954111
_cell_length_c 7.755498
_cell_angle_alpha 90.000000
_cell_angle_beta 89.999717
_cell_angle_gamma 90.000000
_cell_volume 674.976997
_symmetry_space_group_name_H-M "P 21/C"
_symmetry_group_IT_number 14
_symmetry_cell_setting 'monoclinic'
loop_
_space_group_symop_operation_xyz
x,y,z
-x,1/2+y,1/2-z
-x,-y,-z
x,1/2-y,1/2+z
loop_
_atom_site_type_symbol
_atom_site_label
_atom_site_fract_x
_atom_site_fract_y
_atom_site_fract_z
Si Si1 0.427969 0.160670 0.306624
Si Si2 0.427969 0.339329 0.193379
Si Si3 0.247780 0.055948 0.000002
Si Si4 0.245358 0.556310 0.999999
O O1 0.469316 0.249999 0.250000
O O2 0.307990 0.161575 0.500002
O O3 0.269226 0.111810 0.167029
O O4 0.700448 0.113818 0.338129
O O5 0.269226 0.388188 0.332977
O O6 0.700446 0.386182 0.161873
O O7 0.500000 0.000000 0.000000
O O8 0.000000 0.000000 0.000000
O O9 0.500000 0.500000 0.000000
O O10 0.000000 0.500000 0.000000
#
# Coordination Sequence:
#
# PCOD9249947 Si02
#       4
#     4   4   4   4
#     4  10  23  48  81 113 164 204 266 324 405 469
#     4  10  23  48  81 113 164 204 266 324 405 469
#     4  12  27  48  77 120 151 204 265 322 393 472
#     4  10  23  44  75 110 151 202 259 320 393 460
#
# _framework density 23.704512000000001
#
# number of rings (size 3 to 8) (size 9 to 14) (size 15 to 20)
#    1.500    0.000    2.500    1.500    0.000    9.000 
#    0.000   15.000    0.000    0.000    0.000    0.000 
#    0.000    0.000    0.000    0.000    0.000    0.000 
#
# Total GULP energy -89469.926695 kJ/mol
# GULP energy per Si atom -5591.870418 kJ/mol
# Density = 2.365056 g / cm^3
# Si number density = 23.704512 Si / 1000 Ang^3
#
#
#
# Elastic Constant Matrix: (Units=GPa)
#
#
# Indices 1 2 3 4 5 6 
#
# 1 175.1285 116.7271 72.9583 0.0000 -5.8342 0.0000
# 2 116.7271 274.4269 113.5006 0.0000 -0.2818 0.0000
# 3 72.9583 113.5006 212.1013 0.0000 9.0846 0.0000
# 4 0.0000 0.0000 0.0000 46.0720 0.0000 0.6109
# 5 -5.8342 -0.2818 9.0846 0.0000 19.1805 0.0000
# 6 0.0000 0.0000 0.0000 0.6109 0.0000 39.1308
#
#
#
# Elastic Compliance Matrix: (Units=1/GPa)
#
#
# Indices 1 2 3 4 5 6 
#
# 1 0.008396 -0.002976 -0.001432 0.000000 0.003189 0.000000
# 2 -0.002976 0.005765 -0.002068 0.000000 0.000159 0.000000
# 3 -0.001432 -0.002068 0.006465 0.000000 -0.003528 0.000000
# 4 0.000000 0.000000 0.000000 0.021710 0.000000 -0.000339
# 5 0.003189 0.000159 -0.003528 0.000000 0.054780 0.000000
# 6 0.000000 0.000000 0.000000 -0.000339 0.000000 0.025561
#
#
# Mechanical properties :
#
#
# Convention : Reuss Voigt Hill
#
# Bulk Modulus (GPa) = 130.30755 140.89206 135.59980
# Shear Modulus (GPa) = 36.18258 44.77472 40.47865
#
# Velocity S-wave (km/s) = 3.91116 4.35083 4.13684
# Velocity P-wave (km/s) = 8.68833 9.20899 8.95245
#
# Compressibility (1/GPa) = 0.00767415
#
# Stress axis : x y z
#
# Youngs Moduli (GPa) = 119.09818 173.45131 154.66905
#
# Poissons Ratio (x) = 0.51614 0.22155
# Poissons Ratio (y) = 0.35440 0.31992
# Poissons Ratio (z) = 0.17060 0.35877
#
# Static dielectric constant tensor:
#      x y z
#    x 1.929480 0.000000 0.003710 
#    y 0.000000 1.823420 0.000000 
#    z 0.003710 0.000000 1.971690 
# 
# From -- ./inp_files/5192.got.cif
#   From: 2010.05.17/outbox.cif.g08.bks.cpg/sg14_3_cif.got.tgz:5192.got - 2010.06.03 17:49:19.
