data_PCOD9249461
_publ_section_title
;
Structure prediction by ZEFSAII (Michael W. Deem and Ramdas Pophale) SiO2 
 PCOD9249461
Probable space group: P 21/C
;
_chemical_formula_sum "Si O2"
_cell_formula_units_Z 32
_cell_length_a 9.141330
_cell_length_b 6.000749
_cell_length_c 28.002549
_cell_angle_alpha 90.000000
_cell_angle_beta 80.237958
_cell_angle_gamma 90.000000
_cell_volume 1513.833294
_symmetry_space_group_name_H-M "P 21/C"
_symmetry_group_IT_number 14
_symmetry_cell_setting 'monoclinic'
loop_
_space_group_symop_operation_xyz
x,y,z
-x,1/2+y,1/2-z
-x,-y,-z
x,1/2-y,1/2+z
loop_
_atom_site_type_symbol
_atom_site_label
_atom_site_fract_x
_atom_site_fract_y
_atom_site_fract_z
Si Si1 0.019720 0.197559 0.461244
Si Si2 0.470705 0.103122 0.275650
Si Si3 0.253428 0.013605 0.996503
Si Si4 0.479226 0.193006 0.540680
Si Si5 0.918245 0.821307 0.820567
Si Si6 0.135156 0.032354 0.281961
Si Si7 0.654722 0.479904 0.860181
Si Si8 0.070380 0.762450 0.132797
O O1 0.881336 0.365750 0.475997
O O2 0.004249 0.133991 0.406828
O O3 0.173657 0.320980 0.463753
O O4 0.000000 0.000000 0.500000
O O5 0.501868 0.854523 0.248825
O O6 0.294815 0.091295 0.293159
O O7 0.565607 0.092600 0.318682
O O8 0.339034 0.159492 0.031248
O O9 0.376887 0.851020 0.967485
O O10 0.447308 0.083893 0.593385
O O11 0.500000 0.000000 0.500000
O O12 0.785299 0.652784 0.839369
O O13 0.074017 0.709556 0.798305
O O14 0.864612 0.939357 0.774888
O O15 0.946574 0.973881 0.864718
O O16 0.013201 0.187002 0.314424
O O17 0.754213 0.281179 0.875795
#
# Coordination Sequence:
#
# PCOD9249461 Si02
#       8
#     4   4   4   4   4   4   4   4
#     4  11  23  43  68  98 139 173 230 291 353 423
#     4  12  28  47  69 103 144 186 236 297 362 427
#     4  10  23  41  68  97 134 178 226 293 355 417
#     4  11  23  44  68 100 137 183 237 288 360 436
#     4  11  22  43  67  95 131 173 233 286 349 423
#     4  11  24  40  68  95 131 176 230 284 346 422
#     4  11  25  43  68  98 137 183 233 290 360 430
#     4  11  24  41  70  97 129 182 228 283 355 422
#
# _framework density 21.138390000000001
#
# number of rings (size 3 to 8) (size 9 to 14) (size 15 to 20)
#    0.000    1.000    2.500    3.750    3.500    7.000 
#    0.000    0.000    0.000    0.000    0.000    0.000 
#    0.000    0.000    0.000    0.000    0.000    0.000 
#
# Total GULP energy -178611.470130 kJ/mol
# GULP energy per Si atom -5581.608442 kJ/mol
# Density = 2.109028 g / cm^3
# Si number density = 21.138390 Si / 1000 Ang^3
#
#
#
# Elastic Constant Matrix: (Units=GPa)
#
#
# Indices 1 2 3 4 5 6 
#
# 1 104.1442 19.2055 13.9283 0.0000 7.8063 0.0000
# 2 19.2055 76.6485 18.2133 0.0000 3.1181 0.0000
# 3 13.9283 18.2133 75.5584 0.0000 10.2851 0.0000
# 4 0.0000 0.0000 0.0000 23.8989 0.0000 5.0253
# 5 7.8063 3.1181 10.2851 0.0000 27.1539 0.0000
# 6 0.0000 0.0000 0.0000 5.0253 0.0000 29.5991
#
#
#
# Elastic Compliance Matrix: (Units=1/GPa)
#
#
# Indices 1 2 3 4 5 6 
#
# 1 0.010330 -0.002245 -0.001048 0.000000 -0.002315 0.000000
# 2 -0.002245 0.014330 -0.003062 0.000000 0.000160 0.000000
# 3 -0.001048 -0.003062 0.014842 0.000000 -0.004969 0.000000
# 4 0.000000 0.000000 0.000000 0.043392 0.000000 -0.007367
# 5 -0.002315 0.000160 -0.004969 0.000000 0.039356 0.000000
# 6 0.000000 0.000000 0.000000 -0.007367 0.000000 0.035036
#
#
# Mechanical properties :
#
#
# Convention : Reuss Voigt Hill
#
# Bulk Modulus (GPa) = 37.32435 39.89392 38.60914
# Shear Modulus (GPa) = 27.94425 29.79730 28.87078
#
# Velocity S-wave (km/s) = 3.63983 3.75858 3.69968
# Velocity P-wave (km/s) = 5.94642 6.14407 6.04605
#
# Compressibility (1/GPa) = 0.02679216
#
# Stress axis : x y z
#
# Youngs Moduli (GPa) = 96.80760 69.78246 67.37414
#
# Poissons Ratio (x) = 0.15667 0.07060
# Poissons Ratio (y) = 0.21734 0.20631
# Poissons Ratio (z) = 0.10144 0.21369
#
# Static dielectric constant tensor:
#      x y z
#    x 2.021220 0.000000 0.374830 
#    y 0.000000 1.908320 0.000000 
#    z 0.374830 0.000000 2.202660 
# 
# From -- ./inp_files/79222.got.cif
#   From: 2010.05.17/outbox.cif.g08.bks.cpg/sg14_40_cif.got.tgz:79222.got - 2010.06.03 17:49:19.
