data_PCOD9249708
_publ_section_title
;
Structure prediction by ZEFSAII (Michael W. Deem and Ramdas Pophale) SiO2 
 PCOD9249708
Probable space group: P 21/C
;
_chemical_formula_sum "Si O2"
_cell_formula_units_Z 12
_cell_length_a 8.105846
_cell_length_b 4.743513
_cell_length_c 19.704792
_cell_angle_alpha 90.000000
_cell_angle_beta 34.358835
_cell_angle_gamma 90.000000
_cell_volume 427.599639
_symmetry_space_group_name_H-M "P 21/C"
_symmetry_group_IT_number 14
_symmetry_cell_setting 'monoclinic'
loop_
_space_group_symop_operation_xyz
x,y,z
-x,1/2+y,1/2-z
-x,-y,-z
x,1/2-y,1/2+z
loop_
_atom_site_type_symbol
_atom_site_label
_atom_site_fract_x
_atom_site_fract_y
_atom_site_fract_z
Si Si1 0.732162 0.798870 0.028875
Si Si2 0.817872 0.955832 0.291306
Si Si3 0.884411 0.708672 0.126163
O O1 0.453885 0.643810 0.092878
O O2 0.704976 0.789785 0.120170
O O3 0.018718 0.612879 0.914107
O O4 0.812316 0.113273 0.981562
O O5 0.070812 0.196144 0.200965
O O6 0.753889 0.805423 0.241347
#
# Coordination Sequence:
#
# PCOD9249708 Si02
#       3
#     4   4   4
#     4  10  23  43  66  91 124 170 218 261 309 375
#     4  12  26  40  64 100 134 168 206 264 330 380
#     4  10  23  43  66  91 124 170 218 261 309 375
#
# _framework density 28.063634
#
# number of rings (size 3 to 8) (size 9 to 14) (size 15 to 20)
#    0.000    1.333    0.000    4.000    0.000   18.667 
#    0.000    0.000    0.000    0.000    0.000    0.000 
#    0.000    0.000    0.000    0.000    0.000    0.000 
#
# Total GULP energy -67323.724883 kJ/mol
# GULP energy per Si atom -5610.310407 kJ/mol
# Density = 2.799976 g / cm^3
# Si number density = 28.063634 Si / 1000 Ang^3
#
#
#
# Elastic Constant Matrix: (Units=GPa)
#
#
# Indices 1 2 3 4 5 6 
#
# 1 81.4936 39.6750 21.7387 0.0000 13.8153 0.0000
# 2 39.6750 142.8862 5.7110 0.0000 -14.3968 0.0000
# 3 21.7387 5.7110 60.9933 0.0000 -5.9136 0.0000
# 4 0.0000 0.0000 0.0000 49.8797 0.0000 -8.6447
# 5 13.8153 -14.3968 -5.9136 0.0000 45.3025 0.0000
# 6 0.0000 0.0000 0.0000 -8.6447 0.0000 61.2985
#
#
#
# Elastic Compliance Matrix: (Units=1/GPa)
#
#
# Indices 1 2 3 4 5 6 
#
# 1 0.018197 -0.005610 -0.006757 0.000000 -0.008214 0.000000
# 2 -0.005610 0.008973 0.001622 0.000000 0.004774 0.000000
# 3 -0.006757 0.001622 0.019144 0.000000 0.005075 0.000000
# 4 0.000000 0.000000 0.000000 0.020551 0.000000 0.002898
# 5 -0.008214 0.004774 0.005075 0.000000 0.026758 0.000000
# 6 0.000000 0.000000 0.000000 0.002898 0.000000 0.016722
#
#
# Mechanical properties :
#
#
# Convention : Reuss Voigt Hill
#
# Bulk Modulus (GPa) = 40.28402 46.62472 43.45437
# Shear Modulus (GPa) = 35.68648 45.84604 40.76626
#
# Velocity S-wave (km/s) = 3.56986 4.04622 3.81548
# Velocity P-wave (km/s) = 5.60156 6.20316 5.91002
#
# Compressibility (1/GPa) = 0.02482374
#
# Stress axis : x y z
#
# Youngs Moduli (GPa) = 54.95333 111.45055 52.23675
#
# Poissons Ratio (x) = 0.62528 0.35295
# Poissons Ratio (y) = 0.30831 -0.08475
# Poissons Ratio (z) = 0.37131 -0.18081
#
# Static dielectric constant tensor:
#      x y z
#    x 2.153920 0.000000 -0.015410 
#    y 0.000000 2.029560 0.000000 
#    z -0.015410 0.000000 2.240170 
# 
# From -- ./inp_files/22409.got.cif
#   From: 2010.05.17/outbox.cif.g08.bks.cpg/sg14_12_cif.got.tgz:22409.got - 2010.06.03 17:49:19.
