data_PCOD9249744
_publ_section_title
;
Structure prediction by ZEFSAII (Michael W. Deem and Ramdas Pophale) SiO2 
 PCOD9249744
Probable space group: P 21/C
;
_chemical_formula_sum "Si O2"
_cell_formula_units_Z 28
_cell_length_a 16.272081
_cell_length_b 7.483203
_cell_length_c 10.502564
_cell_angle_alpha 90.000000
_cell_angle_beta 108.468146
_cell_angle_gamma 90.000000
_cell_volume 1213.006862
_symmetry_space_group_name_H-M "P 21/C"
_symmetry_group_IT_number 14
_symmetry_cell_setting 'monoclinic'
loop_
_space_group_symop_operation_xyz
x,y,z
-x,1/2+y,1/2-z
-x,-y,-z
x,1/2-y,1/2+z
loop_
_atom_site_type_symbol
_atom_site_label
_atom_site_fract_x
_atom_site_fract_y
_atom_site_fract_z
Si Si1 0.089909 0.558758 0.376819
Si Si2 0.387128 0.765760 0.165686
Si Si3 0.353126 0.247331 0.317839
Si Si4 0.240836 0.600636 0.755253
Si Si5 0.944687 0.287780 0.382278
Si Si6 0.448148 0.126357 0.616582
Si Si7 0.284870 0.928267 0.930155
O O1 0.069806 0.621825 0.221587
O O2 0.064326 0.715039 0.467574
O O3 0.191825 0.509906 0.439015
O O4 0.031548 0.390677 0.387296
O O5 0.289370 0.779178 0.172152
O O6 0.451113 0.835108 0.306993
O O7 0.420997 0.578893 0.129385
O O8 0.375438 0.913069 0.050459
O O9 0.417032 0.192138 0.464308
O O10 0.400376 0.269741 0.207453
O O11 0.307489 0.433721 0.330178
O O12 0.283320 0.090929 0.276687
O O13 0.138757 0.590967 0.692495
O O14 0.264282 0.722456 0.886825
#
# Coordination Sequence:
#
# PCOD9249744 Si02
#       7
#     4   4   4   4   4   4   4
#     4  10  23  43  68 103 137 179 223 279 345 407
#     4  12  24  46  67 100 142 181 234 292 343 408
#     4  12  26  46  68 104 132 190 230 284 352 406
#     4  11  23  43  70  96 140 178 230 285 342 413
#     4  10  23  43  68 103 137 179 223 279 345 407
#     4  12  28  42  72 100 139 186 235 287 350 402
#     4  11  23  43  70  96 140 178 230 285 342 413
#
# _framework density 23.083134999999999
#
# number of rings (size 3 to 8) (size 9 to 14) (size 15 to 20)
#    0.000    0.857    4.286    2.571    4.000    2.857 
#    0.000    0.000    0.000    0.000    0.000    0.000 
#    0.000    0.000    0.000    0.000    0.000    0.000 
#
# Total GULP energy -156338.616702 kJ/mol
# GULP energy per Si atom -5583.522025 kJ/mol
# Density = 2.303060 g / cm^3
# Si number density = 23.083135 Si / 1000 Ang^3
#
#
#
# Elastic Constant Matrix: (Units=GPa)
#
#
# Indices 1 2 3 4 5 6 
#
# 1 81.0937 8.4757 16.9226 0.0000 15.2716 0.0000
# 2 8.4757 84.8192 28.5073 0.0000 10.0787 0.0000
# 3 16.9226 28.5073 76.4640 0.0000 -2.8830 0.0000
# 4 0.0000 0.0000 0.0000 32.7275 0.0000 -3.6085
# 5 15.2716 10.0787 -2.8830 0.0000 35.0611 0.0000
# 6 0.0000 0.0000 0.0000 -3.6085 0.0000 27.8993
#
#
#
# Elastic Compliance Matrix: (Units=1/GPa)
#
#
# Indices 1 2 3 4 5 6 
#
# 1 0.014288 0.000589 -0.003634 0.000000 -0.006692 0.000000
# 2 0.000589 0.014182 -0.005598 0.000000 -0.004794 0.000000
# 3 -0.003634 -0.005598 0.016140 0.000000 0.004519 0.000000
# 4 0.000000 0.000000 0.000000 0.030997 0.000000 0.004009
# 5 -0.006692 -0.004794 0.004519 0.000000 0.033186 0.000000
# 6 0.000000 0.000000 0.000000 0.004009 0.000000 0.036362
#
#
# Mechanical properties :
#
#
# Convention : Reuss Voigt Hill
#
# Bulk Modulus (GPa) = 36.59915 38.90978 37.75446
# Shear Modulus (GPa) = 29.14595 31.70235 30.42415
#
# Velocity S-wave (km/s) = 3.55724 3.70996 3.63440
# Velocity P-wave (km/s) = 5.72378 5.93672 5.83123
#
# Compressibility (1/GPa) = 0.02732304
#
# Stress axis : x y z
#
# Youngs Moduli (GPa) = 69.98683 70.51125 61.95831
#
# Poissons Ratio (x) = -0.04151 0.22516
# Poissons Ratio (y) = -0.04120 0.34687
# Poissons Ratio (z) = 0.25433 0.39475
#
# Static dielectric constant tensor:
#      x y z
#    x 1.861880 0.000000 -0.048500 
#    y 0.000000 1.850810 0.000000 
#    z -0.048500 0.000000 2.112460 
# 
# From -- ./inp_files/31619.got.cif
#   From: 2010.05.17/outbox.cif.g08.bks.cpg/sg14_16_cif.got.tgz:31619.got - 2010.06.03 17:49:19.
