data_PCOD9249187
_publ_section_title
;
Structure prediction by ZEFSAII (Michael W. Deem and Ramdas Pophale) SiO2 
 PCOD9249187
Probable space group: P 21/C
;
_chemical_formula_sum "Si O2"
_cell_formula_units_Z 26
_cell_length_a 25.901471
_cell_length_b 5.270380
_cell_length_c 22.419109
_cell_angle_alpha 90.000000
_cell_angle_beta 19.888080
_cell_angle_gamma 90.000000
_cell_volume 1041.114491
_symmetry_space_group_name_H-M "P 21/C"
_symmetry_group_IT_number 14
_symmetry_cell_setting 'monoclinic'
loop_
_space_group_symop_operation_xyz
x,y,z
-x,1/2+y,1/2-z
-x,-y,-z
x,1/2-y,1/2+z
loop_
_atom_site_type_symbol
_atom_site_label
_atom_site_fract_x
_atom_site_fract_y
_atom_site_fract_z
Si Si1 0.899853 0.391820 0.361964
Si Si2 0.675232 0.474110 0.929432
Si Si3 0.033436 0.747121 0.925220
Si Si4 0.500000 0.000000 0.500000
Si Si5 0.297568 0.169501 0.007989
Si Si6 0.774550 0.859880 0.116084
Si Si7 0.425188 0.382149 0.752531
O O1 0.789442 0.430237 0.424974
O O2 0.815204 0.460042 0.515805
O O3 0.978831 0.120522 0.277389
O O4 0.790146 0.254645 0.784273
O O5 0.596939 0.580540 0.955334
O O6 0.774541 0.668728 0.860803
O O7 0.541919 0.349243 0.113499
O O8 0.000000 0.500000 0.000000
O O9 0.923758 0.765383 0.987409
O O10 0.000000 0.000000 0.000000
O O11 0.342454 0.015503 0.710866
O O12 0.325963 0.335543 0.918477
O O13 0.461745 0.107848 0.857046
O O14 0.682479 0.622097 0.187514
#
# Coordination Sequence:
#
# PCOD9249187 Si02
#       7
#     4   4   4   2   4   4   4
#     4  11  27  48  77 112 152 194 250 314 380 441
#     4  11  24  43  73 103 148 195 243 308 366 448
#     4  12  28  49  73 104 146 195 253 299 366 443
#     4  10  22  48  70 110 152 198 254 296 384 442
#     4  11  23  42  73 106 147 191 249 301 377 445
#     4  10  24  48  73 111 151 199 247 316 368 456
#     4  10  23  42  70 107 141 191 242 305 371 441
#
# _framework density 24.973236
#
# number of rings (size 3 to 8) (size 9 to 14) (size 15 to 20)
#    0.000    1.231    3.077    0.923    6.462    2.462 
#    0.000    3.077    0.000    0.000    0.000    0.000 
#    0.000    0.000    0.000    0.000    0.000    0.000 
#
# Total GULP energy -145070.756868 kJ/mol
# GULP energy per Si atom -5579.644495 kJ/mol
# Density = 2.491640 g / cm^3
# Si number density = 24.973236 Si / 1000 Ang^3
#
#
#
# Elastic Constant Matrix: (Units=GPa)
#
#
# Indices 1 2 3 4 5 6 
#
# 1 152.7732 19.9428 32.5205 0.0000 -10.6064 0.0000
# 2 19.9428 88.3671 15.5027 0.0000 -1.9100 0.0000
# 3 32.5205 15.5027 99.7531 0.0000 3.5546 0.0000
# 4 0.0000 0.0000 0.0000 39.4914 0.0000 -3.1445
# 5 -10.6064 -1.9100 3.5546 0.0000 56.8206 0.0000
# 6 0.0000 0.0000 0.0000 -3.1445 0.0000 28.0525
#
#
#
# Elastic Compliance Matrix: (Units=1/GPa)
#
#
# Indices 1 2 3 4 5 6 
#
# 1 0.007282 -0.001220 -0.002236 0.000000 0.001458 0.000000
# 2 -0.001220 0.011852 -0.001454 0.000000 0.000262 0.000000
# 3 -0.002236 -0.001454 0.011021 0.000000 -0.001156 0.000000
# 4 0.000000 0.000000 0.000000 0.025550 0.000000 0.002864
# 5 0.001458 0.000262 -0.001156 0.000000 0.017953 0.000000
# 6 0.000000 0.000000 0.000000 0.002864 0.000000 0.035968
#
#
# Mechanical properties :
#
#
# Convention : Reuss Voigt Hill
#
# Bulk Modulus (GPa) = 49.17401 52.98061 51.07731
# Shear Modulus (GPa) = 39.61188 43.06805 41.33996
#
# Velocity S-wave (km/s) = 3.98700 4.15730 4.07304
# Velocity P-wave (km/s) = 6.39752 6.65621 6.52815
#
# Compressibility (1/GPa) = 0.02033595
#
# Stress axis : x y z
#
# Youngs Moduli (GPa) = 137.32174 84.37140 90.73607
#
# Poissons Ratio (x) = 0.10290 0.20293
# Poissons Ratio (y) = 0.16747 0.13190
# Poissons Ratio (z) = 0.30712 0.12265
#
# Static dielectric constant tensor:
#      x y z
#    x 1.933260 0.000000 0.003070 
#    y 0.000000 1.999950 0.000000 
#    z 0.003070 0.000000 2.014370 
# 
# From -- ./inp_files/75141.got.cif
#   From: 2010.05.17/outbox.cif.g08.bks.cpg/sg14_38_cif.got.tgz:75141.got - 2010.06.03 17:49:19.
