data_PCOD9249123
_publ_section_title
;
Structure prediction by ZEFSAII (Michael W. Deem and Ramdas Pophale) SiO2 
 PCOD9249123
Probable space group: P 21/C
;
_chemical_formula_sum "Si O2"
_cell_formula_units_Z 30
_cell_length_a 7.958093
_cell_length_b 9.014865
_cell_length_c 24.876986
_cell_angle_alpha 90.000000
_cell_angle_beta 44.672345
_cell_angle_gamma 90.000000
_cell_volume 1254.738322
_symmetry_space_group_name_H-M "P 21/C"
_symmetry_group_IT_number 14
_symmetry_cell_setting 'monoclinic'
loop_
_space_group_symop_operation_xyz
x,y,z
-x,1/2+y,1/2-z
-x,-y,-z
x,1/2-y,1/2+z
loop_
_atom_site_type_symbol
_atom_site_label
_atom_site_fract_x
_atom_site_fract_y
_atom_site_fract_z
Si Si1 0.000000 0.500000 0.000000
Si Si2 0.659435 0.697587 0.354841
Si Si3 0.994123 0.744415 0.922773
Si Si4 0.394223 0.321657 0.856693
Si Si5 0.722073 0.521923 0.909587
Si Si6 0.130718 0.565808 0.302536
Si Si7 0.273525 0.454489 0.450704
Si Si8 0.113136 0.285114 0.810972
O O1 0.743579 0.580210 0.068405
O O2 0.905090 0.341320 0.048838
O O3 0.654349 0.866263 0.377229
O O4 0.434625 0.597447 0.422082
O O5 0.719678 0.683633 0.278229
O O6 0.889223 0.628837 0.332372
O O7 0.914498 0.611288 0.902182
O O8 0.169460 0.851631 0.850687
O O9 0.766503 0.847216 0.989016
O O10 0.650636 0.384846 0.784161
O O11 0.388160 0.152835 0.879452
O O12 0.232550 0.332227 0.839902
O O13 0.860714 0.371516 0.862232
O O14 0.500000 0.500000 0.000000
O O15 0.094473 0.391956 0.317444
O O16 0.000000 0.500000 0.500000
#
# Coordination Sequence:
#
# PCOD9249123 Si02
#       8
#     2   4   4   4   4   4   4   4
#     4  10  22  46  72 112 144 208 250 324 388 476
#     4  11  29  49  78 109 158 201 268 324 411 474
#     4  10  24  45  71 105 153 187 261 311 399 457
#     4  11  27  45  80 109 162 198 268 327 403 484
#     4  11  27  47  76 109 152 202 259 322 397 483
#     4  11  28  46  76 112 152 210 250 339 395 481
#     4  11  27  46  78 111 150 203 266 331 398 483
#     4  12  27  47  75 114 153 208 265 326 401 480
#
# _framework density 23.909367
#
# number of rings (size 3 to 8) (size 9 to 14) (size 15 to 20)
#    0.000    1.067    1.333    1.600   16.800    5.333 
#    0.000    0.000    0.000    0.000    0.000    0.000 
#    0.000    0.000    0.000    0.000    0.000    0.000 
#
# Total GULP energy -167438.443104 kJ/mol
# GULP energy per Si atom -5581.281437 kJ/mol
# Density = 2.385495 g / cm^3
# Si number density = 23.909367 Si / 1000 Ang^3
#
#
#
# Elastic Constant Matrix: (Units=GPa)
#
#
# Indices 1 2 3 4 5 6 
#
# 1 64.2372 42.6177 22.0495 0.0000 -21.2638 0.0000
# 2 42.6177 178.9485 65.0836 0.0000 -26.1804 0.0000
# 3 22.0495 65.0836 119.4866 0.0000 -21.8682 0.0000
# 4 0.0000 0.0000 0.0000 46.7301 0.0000 -4.7900
# 5 -21.2638 -26.1804 -21.8682 0.0000 33.6787 0.0000
# 6 0.0000 0.0000 0.0000 -4.7900 0.0000 30.0736
#
#
#
# Elastic Compliance Matrix: (Units=1/GPa)
#
#
# Indices 1 2 3 4 5 6 
#
# 1 0.021496 -0.003512 -0.000079 0.000000 0.010791 0.000000
# 2 -0.003512 0.007892 -0.003330 0.000000 0.001756 0.000000
# 3 -0.000079 -0.003330 0.011025 0.000000 0.004520 0.000000
# 4 0.000000 0.000000 0.000000 0.021755 0.000000 0.003465
# 5 0.010791 0.001756 0.004520 0.000000 0.040806 0.000000
# 6 0.000000 0.000000 0.000000 0.003465 0.000000 0.033804
#
#
# Mechanical properties :
#
#
# Convention : Reuss Voigt Hill
#
# Bulk Modulus (GPa) = 37.63294 69.13043 53.38169
# Shear Modulus (GPa) = 31.35272 37.62459 34.48865
#
# Velocity S-wave (km/s) = 3.62514 3.97121 3.80211
# Velocity P-wave (km/s) = 5.77028 7.07132 6.45367
#
# Compressibility (1/GPa) = 0.02657246
#
# Stress axis : x y z
#
# Youngs Moduli (GPa) = 46.51929 126.70309 90.70640
#
# Poissons Ratio (x) = 0.44499 0.00716
# Poissons Ratio (y) = 0.16338 0.30201
# Poissons Ratio (z) = 0.00367 0.42186
#
# Static dielectric constant tensor:
#      x y z
#    x 1.997330 0.000000 0.067650 
#    y 0.000000 1.964950 0.000000 
#    z 0.067650 0.000000 1.902080 
# 
# From -- ./inp_files/76473.got.cif
#   From: 2010.05.17/outbox.cif.g08.bks.cpg/sg14_39_cif.got.tgz:76473.got - 2010.06.03 17:49:19.
