data_PCOD9249640
_publ_section_title
;
Structure prediction by ZEFSAII (Michael W. Deem and Ramdas Pophale) SiO2 
 PCOD9249640
Probable space group: P 21/C
;
_chemical_formula_sum "Si O2"
_cell_formula_units_Z 24
_cell_length_a 8.819693
_cell_length_b 12.224033
_cell_length_c 11.701709
_cell_angle_alpha 90.000000
_cell_angle_beta 63.837177
_cell_angle_gamma 90.000000
_cell_volume 1132.330855
_symmetry_space_group_name_H-M "P 21/C"
_symmetry_group_IT_number 14
_symmetry_cell_setting 'monoclinic'
loop_
_space_group_symop_operation_xyz
x,y,z
-x,1/2+y,1/2-z
-x,-y,-z
x,1/2-y,1/2+z
loop_
_atom_site_type_symbol
_atom_site_label
_atom_site_fract_x
_atom_site_fract_y
_atom_site_fract_z
Si Si1 0.360109 0.033598 0.140302
Si Si2 0.546289 0.550529 0.804398
Si Si3 0.969365 0.375032 0.986839
Si Si4 0.320717 0.639282 0.087321
Si Si5 0.139652 0.838180 0.230958
Si Si6 0.207775 0.255504 0.270505
O O1 0.432074 0.991557 0.238666
O O2 0.191154 0.960987 0.179117
O O3 0.309391 0.161691 0.166177
O O4 0.500000 0.000000 0.000000
O O5 0.637374 0.443890 0.825950
O O6 0.678471 0.643854 0.727661
O O7 0.444865 0.607648 0.942623
O O8 0.875518 0.326292 0.127397
O O9 0.861181 0.378044 0.908223
O O10 0.000000 0.500000 0.000000
O O11 0.136919 0.308426 0.904175
O O12 0.296875 0.762994 0.137490
O O13 0.956638 0.803991 0.241280
#
# Coordination Sequence:
#
# PCOD9249640 Si02
#       6
#     4   4   4   4   4   4
#     4  12  27  46  69 104 144 184 235 293 350 412
#     4  11  24  44  69 101 138 181 234 285 353 413
#     4  11  20  43  68  96 133 182 228 279 347 414
#     4  10  23  42  70  97 134 182 227 282 348 418
#     4  11  24  43  70  99 140 175 235 280 349 418
#     4  11  26  41  70 100 133 185 234 285 350 413
#
# _framework density 21.195219999999999
#
# number of rings (size 3 to 8) (size 9 to 14) (size 15 to 20)
#    0.000    1.000    3.333    2.000    7.000    4.000 
#    0.000    1.667    0.000    0.000    0.000    0.000 
#    0.000    0.000    0.000    0.000    0.000    0.000 
#
# Total GULP energy -133966.618577 kJ/mol
# GULP energy per Si atom -5581.942441 kJ/mol
# Density = 2.114698 g / cm^3
# Si number density = 21.195220 Si / 1000 Ang^3
#
#
#
# Elastic Constant Matrix: (Units=GPa)
#
#
# Indices 1 2 3 4 5 6 
#
# 1 76.3980 45.6643 10.9649 0.0000 -0.7330 0.0000
# 2 45.6643 78.6083 -2.5400 0.0000 8.6326 0.0000
# 3 10.9649 -2.5400 64.4598 0.0000 -0.5864 0.0000
# 4 0.0000 0.0000 0.0000 33.7785 0.0000 -12.6008
# 5 -0.7330 8.6326 -0.5864 0.0000 24.6522 0.0000
# 6 0.0000 0.0000 0.0000 -12.6008 0.0000 47.7560
#
#
#
# Elastic Compliance Matrix: (Units=1/GPa)
#
#
# Indices 1 2 3 4 5 6 
#
# 1 0.021691 -0.013307 -0.004167 0.000000 0.005206 0.000000
# 2 -0.013307 0.021408 0.003036 0.000000 -0.007820 0.000000
# 3 -0.004167 0.003036 0.016335 0.000000 -0.000798 0.000000
# 4 0.000000 0.000000 0.000000 0.032837 0.000000 0.008664
# 5 0.005206 -0.007820 -0.000798 0.000000 0.043438 0.000000
# 6 0.000000 0.000000 0.000000 0.008664 0.000000 0.023226
#
#
# Mechanical properties :
#
#
# Convention : Reuss Voigt Hill
#
# Bulk Modulus (GPa) = 32.72378 36.40495 34.56437
# Shear Modulus (GPa) = 25.25297 32.26246 28.75772
#
# Velocity S-wave (km/s) = 3.45548 3.90572 3.68748
# Velocity P-wave (km/s) = 5.60296 6.12803 5.87137
#
# Compressibility (1/GPa) = 0.03055882
#
# Stress axis : x y z
#
# Youngs Moduli (GPa) = 46.10203 46.71097 61.21947
#
# Poissons Ratio (x) = 0.62157 0.25508
# Poissons Ratio (y) = 0.61347 -0.18586
# Poissons Ratio (z) = 0.19209 -0.14181
#
# Static dielectric constant tensor:
#      x y z
#    x 1.785010 0.000000 -0.035260 
#    y 0.000000 1.728910 0.000000 
#    z -0.035260 0.000000 1.735140 
# 
# From -- ./inp_files/24090.got.cif
#   From: 2010.05.17/outbox.cif.g08.bks.cpg/sg14_13_cif.got.tgz:24090.got - 2010.06.03 17:49:19.
