data_PCOD9249864
_publ_section_title
;
Structure prediction by ZEFSAII (Michael W. Deem and Ramdas Pophale) SiO2 
 PCOD9249864
Probable space group: P 21/C
;
_chemical_formula_sum "Si O2"
_cell_formula_units_Z 28
_cell_length_a 13.354639
_cell_length_b 12.392681
_cell_length_c 8.864602
_cell_angle_alpha 90.000000
_cell_angle_beta 117.638312
_cell_angle_gamma 90.000000
_cell_volume 1299.685350
_symmetry_space_group_name_H-M "P 21/C"
_symmetry_group_IT_number 14
_symmetry_cell_setting 'monoclinic'
loop_
_space_group_symop_operation_xyz
x,y,z
-x,1/2+y,1/2-z
-x,-y,-z
x,1/2-y,1/2+z
loop_
_atom_site_type_symbol
_atom_site_label
_atom_site_fract_x
_atom_site_fract_y
_atom_site_fract_z
Si Si1 0.276257 0.183128 0.359416
Si Si2 0.564923 0.742586 0.786217
Si Si3 0.556429 0.383759 0.545367
Si Si4 0.890319 0.185781 0.690534
Si Si5 0.864793 0.998302 0.884562
Si Si6 0.817701 0.386950 0.814030
Si Si7 0.141462 0.097454 0.805261
O O1 0.344909 0.167492 0.562039
O O2 0.365116 0.186326 0.284484
O O3 0.180426 0.096000 0.256516
O O4 0.223208 0.302898 0.329750
O O5 0.506268 0.815800 0.869403
O O6 0.472409 0.675279 0.631058
O O7 0.500000 0.500000 0.500000
O O8 0.687612 0.389002 0.674570
O O9 0.882593 0.307552 0.743630
O O10 0.831226 0.160443 0.490857
O O11 0.019694 0.149072 0.755862
O O12 0.836701 0.110978 0.784855
O O13 0.819190 0.968277 0.018138
O O14 0.000000 0.000000 0.000000
O O15 0.863516 0.508830 0.829508
#
# Coordination Sequence:
#
# PCOD9249864 Si02
#       7
#     4   4   4   4   4   4   4
#     4  11  22  41  71  98 137 172 228 278 346 391
#     4  10  23  44  67 103 124 178 227 289 331 404
#     4  11  25  46  70  95 138 176 235 284 341 400
#     4  11  27  41  69 100 141 179 221 275 342 418
#     4  10  24  42  62  99 141 177 221 272 340 411
#     4  12  25  46  68  99 139 182 224 278 345 397
#     4  11  25  42  71  99 138 180 223 278 334 418
#
# _framework density 21.543673999999999
#
# number of rings (size 3 to 8) (size 9 to 14) (size 15 to 20)
#    0.000    1.143    1.429    3.857   12.000    0.000 
#    0.000    1.429    0.000    0.000    0.000    0.000 
#    0.000    0.000    0.000    0.000    0.000    0.000 
#
# Total GULP energy -156623.519654 kJ/mol
# GULP energy per Si atom -5593.697130 kJ/mol
# Density = 2.149464 g / cm^3
# Si number density = 21.543674 Si / 1000 Ang^3
#
#
#
# Elastic Constant Matrix: (Units=GPa)
#
#
# Indices 1 2 3 4 5 6 
#
# 1 65.2457 22.7472 27.8976 0.0000 13.2600 0.0000
# 2 22.7472 83.5051 9.5577 0.0000 1.7298 0.0000
# 3 27.8976 9.5577 103.8899 0.0000 8.1545 0.0000
# 4 0.0000 0.0000 0.0000 34.4608 0.0000 -1.2654
# 5 13.2600 1.7298 8.1545 0.0000 28.5251 0.0000
# 6 0.0000 0.0000 0.0000 -1.2654 0.0000 30.1954
#
#
#
# Elastic Compliance Matrix: (Units=1/GPa)
#
#
# Indices 1 2 3 4 5 6 
#
# 1 0.020569 -0.004929 -0.004443 0.000000 -0.007993 0.000000
# 2 -0.004929 0.013289 -0.000016 0.000000 0.001490 0.000000
# 3 -0.004443 -0.000016 0.010902 0.000000 -0.001051 0.000000
# 4 0.000000 0.000000 0.000000 0.029063 0.000000 0.001218
# 5 -0.007993 0.001490 -0.001051 0.000000 0.038982 0.000000
# 6 0.000000 0.000000 0.000000 0.001218 0.000000 0.033169
#
#
# Mechanical properties :
#
#
# Convention : Reuss Voigt Hill
#
# Bulk Modulus (GPa) = 38.48320 41.44951 39.96636
# Shear Modulus (GPa) = 28.83314 31.46547 30.14931
#
# Velocity S-wave (km/s) = 3.66233 3.82585 3.74498
# Velocity P-wave (km/s) = 5.98207 6.22878 6.10667
#
# Compressibility (1/GPa) = 0.02598536
#
# Stress axis : x y z
#
# Youngs Moduli (GPa) = 48.61671 75.25033 91.72226
#
# Poissons Ratio (x) = 0.37091 0.40749
# Poissons Ratio (y) = 0.23963 0.00146
# Poissons Ratio (z) = 0.21598 0.00120
#
# Static dielectric constant tensor:
#      x y z
#    x 1.765570 0.000000 -0.008140 
#    y 0.000000 1.772980 0.000000 
#    z -0.008140 0.000000 1.800710 
# 
# From -- ./inp_files/15892.got.cif
#   From: 2010.05.17/outbox.cif.g08.bks.cpg/sg14_8_cif.got.tgz:15892.got - 2010.06.03 17:49:19.
