data_PCOD9249771
_publ_section_title
;
Structure prediction by ZEFSAII (Michael W. Deem and Ramdas Pophale) SiO2 
 PCOD9249771
Probable space group: P 21/C
;
_chemical_formula_sum "Si O2"
_cell_formula_units_Z 32
_cell_length_a 5.087561
_cell_length_b 9.082826
_cell_length_c 29.760137
_cell_angle_alpha 90.000000
_cell_angle_beta 66.567716
_cell_angle_gamma 90.000000
_cell_volume 1261.787311
_symmetry_space_group_name_H-M "P 21/C"
_symmetry_group_IT_number 14
_symmetry_cell_setting 'monoclinic'
loop_
_space_group_symop_operation_xyz
x,y,z
-x,1/2+y,1/2-z
-x,-y,-z
x,1/2-y,1/2+z
loop_
_atom_site_type_symbol
_atom_site_label
_atom_site_fract_x
_atom_site_fract_y
_atom_site_fract_z
Si Si1 0.037139 0.193707 0.387942
Si Si2 0.834425 0.643155 0.027567
Si Si3 0.638775 0.368617 0.261495
Si Si4 0.467206 0.933019 0.695890
Si Si5 0.013412 0.561330 0.677224
Si Si6 0.085125 0.412064 0.538738
Si Si7 0.554898 0.876490 0.904056
Si Si8 0.339121 0.462463 0.109961
O O1 0.890728 0.303536 0.362578
O O2 0.016009 0.231599 0.441342
O O3 0.352340 0.181557 0.346729
O O4 0.953299 0.021431 0.390941
O O5 0.550825 0.577417 0.070021
O O6 0.000000 0.500000 0.000000
O O7 0.817351 0.753632 0.987468
O O8 0.656054 0.189923 0.261082
O O9 0.640492 0.447849 0.213187
O O10 0.890839 0.412925 0.278118
O O11 0.330320 0.431943 0.300286
O O12 0.311765 0.016558 0.665657
O O13 0.203685 0.426274 0.647473
O O14 0.775293 0.410218 0.585226
O O15 0.000000 0.500000 0.500000
O O16 0.334458 0.451695 0.556978
O O17 0.573690 0.701166 0.907383
#
# Coordination Sequence:
#
# PCOD9249771 Si02
#       8
#     4   4   4   4   4   4   4   4
#     4  10  23  43  69  94 137 182 223 279 342 408
#     4  11  23  42  67  98 136 180 231 281 334 402
#     4  11  25  45  73 102 136 178 230 279 343 420
#     4  10  25  44  68 106 136 178 227 284 346 409
#     4  11  25  46  68 100 136 185 222 275 351 405
#     4  12  27  45  68 103 136 181 234 285 337 404
#     4  12  27  44  68 102 140 179 230 282 344 399
#     4  11  24  42  68  97 140 179 228 283 343 409
#
# _framework density 25.360849000000002
#
# number of rings (size 3 to 8) (size 9 to 14) (size 15 to 20)
#    0.000    1.000    2.500    2.625    8.750    2.000 
#    0.000    0.000    0.000    0.000    0.000    0.000 
#    0.000    0.000    0.000    0.000    0.000    0.000 
#
# Total GULP energy -178559.285969 kJ/mol
# GULP energy per Si atom -5579.977687 kJ/mol
# Density = 2.530313 g / cm^3
# Si number density = 25.360849 Si / 1000 Ang^3
#
#
#
# Elastic Constant Matrix: (Units=GPa)
#
#
# Indices 1 2 3 4 5 6 
#
# 1 70.1530 -9.8915 12.2182 0.0000 2.4975 0.0000
# 2 -9.8915 47.6261 0.1599 0.0000 -4.2410 0.0000
# 3 12.2182 0.1599 97.3730 0.0000 8.6551 0.0000
# 4 0.0000 0.0000 0.0000 46.4711 0.0000 5.0096
# 5 2.4975 -4.2410 8.6551 0.0000 45.9893 0.0000
# 6 0.0000 0.0000 0.0000 5.0096 0.0000 25.2563
#
#
#
# Elastic Compliance Matrix: (Units=1/GPa)
#
#
# Indices 1 2 3 4 5 6 
#
# 1 0.015026 0.003111 -0.001875 0.000000 -0.000176 0.000000
# 2 0.003111 0.021819 -0.000600 0.000000 0.001956 0.000000
# 3 -0.001875 -0.000600 0.010681 0.000000 -0.001964 0.000000
# 4 0.000000 0.000000 0.000000 0.021989 0.000000 -0.004362
# 5 -0.000176 0.001956 -0.001964 0.000000 0.022304 0.000000
# 6 0.000000 0.000000 0.000000 -0.004362 0.000000 0.040459
#
#
# Mechanical properties :
#
#
# Convention : Reuss Voigt Hill
#
# Bulk Modulus (GPa) = 20.49235 24.45835 22.47535
# Shear Modulus (GPa) = 33.95098 37.72104 35.83601
#
# Velocity S-wave (km/s) = 3.66282 3.86083 3.76313
# Velocity P-wave (km/s) = 5.09766 5.43505 5.26906
#
# Compressibility (1/GPa) = 0.04879871
#
# Stress axis : x y z
#
# Youngs Moduli (GPa) = 66.55097 45.83098 93.62800
#
# Poissons Ratio (x) = -0.14260 0.17554
# Poissons Ratio (y) = -0.20706 0.05619
# Poissons Ratio (z) = 0.12478 0.02750
#
# Static dielectric constant tensor:
#      x y z
#    x 2.121210 0.000000 -0.100690 
#    y 0.000000 2.027320 0.000000 
#    z -0.100690 0.000000 2.129720 
# 
# From -- ./inp_files/78804.got.cif
#   From: 2010.05.17/outbox.cif.g08.bks.cpg/sg14_40_cif.got.tgz:78804.got - 2010.06.03 17:49:19.
