data_PCOD9249326
_publ_section_title
;
Structure prediction by ZEFSAII (Michael W. Deem and Ramdas Pophale) SiO2 
 PCOD9249326
Probable space group: P 21/C
;
_chemical_formula_sum "Si O2"
_cell_formula_units_Z 28
_cell_length_a 8.603007
_cell_length_b 22.214155
_cell_length_c 8.570467
_cell_angle_alpha 90.000000
_cell_angle_beta 48.405331
_cell_angle_gamma 90.000000
_cell_volume 1224.911708
_symmetry_space_group_name_H-M "P 21/C"
_symmetry_group_IT_number 14
_symmetry_cell_setting 'monoclinic'
loop_
_space_group_symop_operation_xyz
x,y,z
-x,1/2+y,1/2-z
-x,-y,-z
x,1/2-y,1/2+z
loop_
_atom_site_type_symbol
_atom_site_label
_atom_site_fract_x
_atom_site_fract_y
_atom_site_fract_z
Si Si1 0.961680 0.214556 0.800954
Si Si2 0.123917 0.320976 0.881011
Si Si3 0.929584 0.600143 0.571060
Si Si4 0.736326 0.469624 0.460411
Si Si5 0.021359 0.935441 0.660649
Si Si6 0.562475 0.346300 0.438864
Si Si7 0.493799 0.571559 0.801982
O O1 0.744316 0.199968 0.860764
O O2 0.982427 0.278502 0.867453
O O3 0.127326 0.205046 0.552334
O O4 0.005375 0.164274 0.903365
O O5 0.349708 0.324226 0.655179
O O6 0.026884 0.387797 0.943054
O O7 0.693524 0.583765 0.777819
O O8 0.094592 0.552618 0.527007
O O9 0.941639 0.595459 0.375669
O O10 0.627728 0.409937 0.472483
O O11 0.572790 0.515990 0.642698
O O12 0.876490 0.506045 0.242607
O O13 0.266998 0.944546 0.516085
O O14 0.532668 0.366740 0.280212
#
# Coordination Sequence:
#
# PCOD9249326 Si02
#       7
#     4   4   4   4   4   4   4
#     4  11  27  46  69  98 129 172 231 278 337 398
#     4  12  25  44  71  96 130 173 222 285 334 394
#     4  10  23  43  63 100 140 174 222 278 326 395
#     4  10  23  40  65 102 144 174 222 278 318 407
#     4  11  22  39  69  99 137 178 221 271 334 391
#     4  11  24  44  68 101 134 176 223 275 338 392
#     4  11  21  38  68  97 136 179 219 260 339 388
#
# _framework density 22.858789999999999
#
# number of rings (size 3 to 8) (size 9 to 14) (size 15 to 20)
#    0.000    1.143    4.286    3.000    0.000    9.714 
#    0.000    0.000    0.000    0.000    0.000    0.000 
#    0.000    0.000    0.000    0.000    0.000    0.000 
#
# Total GULP energy -156650.513015 kJ/mol
# GULP energy per Si atom -5594.661179 kJ/mol
# Density = 2.280676 g / cm^3
# Si number density = 22.858790 Si / 1000 Ang^3
#
#
#
# Elastic Constant Matrix: (Units=GPa)
#
#
# Indices 1 2 3 4 5 6 
#
# 1 79.8004 19.9120 10.0937 0.0000 -20.8089 0.0000
# 2 19.9120 91.1387 25.4599 0.0000 -9.3994 0.0000
# 3 10.0937 25.4599 81.6940 0.0000 -27.2812 0.0000
# 4 0.0000 0.0000 0.0000 29.3681 0.0000 -3.0778
# 5 -20.8089 -9.3994 -27.2812 0.0000 47.1351 0.0000
# 6 0.0000 0.0000 0.0000 -3.0778 0.0000 31.6871
#
#
#
# Elastic Compliance Matrix: (Units=1/GPa)
#
#
# Indices 1 2 3 4 5 6 
#
# 1 0.014850 -0.002920 0.001326 0.000000 0.006741 0.000000
# 2 -0.002920 0.012596 -0.003913 0.000000 -0.001042 0.000000
# 3 0.001326 -0.003913 0.016401 0.000000 0.009298 0.000000
# 4 0.000000 0.000000 0.000000 0.034401 0.000000 0.003341
# 5 0.006741 -0.001042 0.009298 0.000000 0.029366 0.000000
# 6 0.000000 0.000000 0.000000 0.003341 0.000000 0.031883
#
#
# Mechanical properties :
#
#
# Convention : Reuss Voigt Hill
#
# Bulk Modulus (GPa) = 30.45516 40.39602 35.42559
# Shear Modulus (GPa) = 30.96869 34.78257 32.87563
#
# Velocity S-wave (km/s) = 3.68473 3.90504 3.79648
# Velocity P-wave (km/s) = 5.60848 6.16788 5.89482
#
# Compressibility (1/GPa) = 0.03283516
#
# Stress axis : x y z
#
# Youngs Moduli (GPa) = 67.34055 79.39200 60.97057
#
# Poissons Ratio (x) = 0.23180 -0.08087
# Poissons Ratio (y) = 0.19661 0.23855
# Poissons Ratio (z) = -0.08932 0.31063
#
# Static dielectric constant tensor:
#      x y z
#    x 1.860350 0.000000 0.016560 
#    y 0.000000 1.842450 0.000000 
#    z 0.016560 0.000000 1.870410 
# 
# From -- ./inp_files/10391.got.cif
#   From: 2010.05.17/outbox.cif.g08.bks.cpg/sg14_6_cif.got.tgz:10391.got - 2010.06.03 17:49:19.
