data_PCOD9249850
_publ_section_title
;
Structure prediction by ZEFSAII (Michael W. Deem and Ramdas Pophale) SiO2 
 PCOD9249850
Probable space group: P 21/C
;
_chemical_formula_sum "Si O2"
_cell_formula_units_Z 20
_cell_length_a 17.565774
_cell_length_b 9.106589
_cell_length_c 17.520242
_cell_angle_alpha 90.000000
_cell_angle_beta 15.303646
_cell_angle_gamma 90.000000
_cell_volume 739.706054
_symmetry_space_group_name_H-M "P 21/C"
_symmetry_group_IT_number 14
_symmetry_cell_setting 'monoclinic'
loop_
_space_group_symop_operation_xyz
x,y,z
-x,1/2+y,1/2-z
-x,-y,-z
x,1/2-y,1/2+z
loop_
_atom_site_type_symbol
_atom_site_label
_atom_site_fract_x
_atom_site_fract_y
_atom_site_fract_z
Si Si1 0.350017 0.675922 0.844343
Si Si2 0.425658 0.332523 0.652478
Si Si3 0.241528 0.136151 0.164904
Si Si4 0.778031 0.055051 0.276001
Si Si5 0.098590 0.155630 0.096933
O O1 0.555356 0.750328 0.580145
O O2 0.620860 0.598112 0.626904
O O3 0.077845 0.617396 0.058352
O O4 0.147053 0.727928 0.111602
O O5 0.573656 0.488121 0.521416
O O6 0.682476 0.221136 0.384715
O O7 0.248605 0.271269 0.895004
O O8 0.232013 0.332121 0.763504
O O9 0.942999 0.028572 0.197700
O O10 0.500000 0.000000 0.500000
O O11 0.000000 0.000000 0.000000
#
# Coordination Sequence:
#
# PCOD9249850 Si02
#       5
#     4   4   4   4   4
#     4  10  23  44  65  99 148 177 238 294 355 435
#     4  11  25  45  79 101 147 189 239 301 361 418
#     4  10  26  43  74 110 139 183 248 301 355 432
#     4  12  24  42  72 101 136 185 241 279 351 424
#     4  11  22  45  72  95 148 191 231 295 362 420
#
# _framework density 27.037765
#
# number of rings (size 3 to 8) (size 9 to 14) (size 15 to 20)
#    0.000    1.200    4.000    0.000    5.600    1.600 
#    0.000   20.000    0.000    0.000    0.000    0.000 
#    0.000    0.000    0.000    0.000    0.000    0.000 
#
# Total GULP energy -111417.841986 kJ/mol
# GULP energy per Si atom -5570.892099 kJ/mol
# Density = 2.697623 g / cm^3
# Si number density = 27.037765 Si / 1000 Ang^3
#
#
#
# Elastic Constant Matrix: (Units=GPa)
#
#
# Indices 1 2 3 4 5 6 
#
# 1 225.9553 23.3454 82.9669 0.0000 -35.9038 0.0000
# 2 23.3454 55.4051 37.1479 0.0000 4.5849 0.0000
# 3 82.9669 37.1479 260.9774 0.0000 -29.1639 0.0000
# 4 0.0000 0.0000 0.0000 35.7686 0.0000 10.6582
# 5 -35.9038 4.5849 -29.1639 0.0000 55.0285 0.0000
# 6 0.0000 0.0000 0.0000 10.6582 0.0000 14.9980
#
#
#
# Elastic Compliance Matrix: (Units=1/GPa)
#
#
# Indices 1 2 3 4 5 6 
#
# 1 0.005537 -0.001825 -0.001148 0.000000 0.003156 0.000000
# 2 -0.001825 0.021159 -0.002936 0.000000 -0.004509 0.000000
# 3 -0.001148 -0.002936 0.004845 0.000000 0.002063 0.000000
# 4 0.000000 0.000000 0.000000 0.035468 0.000000 -0.025205
# 5 0.003156 -0.004509 0.002063 0.000000 0.021701 0.000000
# 6 0.000000 0.000000 0.000000 -0.025205 0.000000 0.084587
#
#
# Mechanical properties :
#
#
# Convention : Reuss Voigt Hill
#
# Bulk Modulus (GPa) = 50.69700 92.13980 71.41840
# Shear Modulus (GPa) = 26.08391 47.75085 36.91738
#
# Velocity S-wave (km/s) = 3.10937 4.20703 3.69914
# Velocity P-wave (km/s) = 5.62868 7.59941 6.68704
#
# Compressibility (1/GPa) = 0.01972503
#
# Stress axis : x y z
#
# Youngs Moduli (GPa) = 180.59616 47.26081 206.39338
#
# Poissons Ratio (x) = 0.08624 0.23691
# Poissons Ratio (y) = 0.32954 0.60590
# Poissons Ratio (z) = 0.20730 0.13874
#
# Static dielectric constant tensor:
#      x y z
#    x 2.235440 0.000000 0.104510 
#    y 0.000000 2.251940 0.000000 
#    z 0.104510 0.000000 2.044290 
# 
# From -- ./inp_files/74938.got.cif
#   From: 2010.05.17/outbox.cif.g08.bks.cpg/sg14_38_cif.got.tgz:74938.got - 2010.06.03 17:49:19.
