data_PCOD9249845
_publ_section_title
;
Structure prediction by ZEFSAII (Michael W. Deem and Ramdas Pophale) SiO2 
 PCOD9249845
Probable space group: P 21/C
;
_chemical_formula_sum "Si O2"
_cell_formula_units_Z 16
_cell_length_a 14.225295
_cell_length_b 4.858750
_cell_length_c 13.949983
_cell_angle_alpha 90.000000
_cell_angle_beta 39.162472
_cell_angle_gamma 90.000000
_cell_volume 608.902441
_symmetry_space_group_name_H-M "P 21/C"
_symmetry_group_IT_number 14
_symmetry_cell_setting 'monoclinic'
loop_
_space_group_symop_operation_xyz
x,y,z
-x,1/2+y,1/2-z
-x,-y,-z
x,1/2-y,1/2+z
loop_
_atom_site_type_symbol
_atom_site_label
_atom_site_fract_x
_atom_site_fract_y
_atom_site_fract_z
Si Si1 0.312553 0.314202 0.815766
Si Si2 0.778497 0.337978 0.728012
Si Si3 0.352313 0.623553 0.974186
Si Si4 0.081880 0.548293 0.720944
O O1 0.306277 0.584464 0.754115
O O2 0.290655 0.433119 0.938843
O O3 0.476665 0.182811 0.679950
O O4 0.202191 0.079397 0.863625
O O5 0.912954 0.186729 0.677755
O O6 0.681457 0.473948 0.891136
O O7 0.250816 0.898939 0.053175
O O8 0.020078 0.244344 0.764495
#
# Coordination Sequence:
#
# PCOD9249845 Si02
#       4
#     4   4   4   4
#     4  12  22  44  64 108 121 172 215 267 346 371
#     4  10  25  40  70  93 136 168 216 267 328 389
#     4  10  26  40  72  94 142 161 215 283 313 396
#     4  10  23  44  65  91 132 179 214 262 321 378
#
# _framework density 26.276786999999999
#
# number of rings (size 3 to 8) (size 9 to 14) (size 15 to 20)
#    1.500    0.000    0.000    4.500    0.000   10.000 
#    0.000    7.500    0.000    0.000    0.000    0.000 
#    0.000    0.000    0.000    0.000    0.000    0.000 
#
# Total GULP energy -89543.395261 kJ/mol
# GULP energy per Si atom -5596.462204 kJ/mol
# Density = 2.621698 g / cm^3
# Si number density = 26.276787 Si / 1000 Ang^3
#
#
#
# Elastic Constant Matrix: (Units=GPa)
#
#
# Indices 1 2 3 4 5 6 
#
# 1 126.7749 52.1675 21.2825 0.0000 33.7912 0.0000
# 2 52.1675 114.7388 -2.0243 0.0000 31.8444 0.0000
# 3 21.2825 -2.0243 46.8891 0.0000 4.6114 0.0000
# 4 0.0000 0.0000 0.0000 20.5802 0.0000 -1.2210
# 5 33.7912 31.8444 4.6114 0.0000 38.9571 0.0000
# 6 0.0000 0.0000 0.0000 -1.2210 0.0000 47.4683
#
#
#
# Elastic Compliance Matrix: (Units=1/GPa)
#
#
# Indices 1 2 3 4 5 6 
#
# 1 0.012061 -0.003661 -0.004955 0.000000 -0.006882 0.000000
# 2 -0.003661 0.012477 0.002925 0.000000 -0.007370 0.000000
# 3 -0.004955 0.002925 0.023792 0.000000 -0.000909 0.000000
# 4 0.000000 0.000000 0.000000 0.048665 0.000000 0.001252
# 5 -0.006882 -0.007370 -0.000909 0.000000 0.037771 0.000000
# 6 0.000000 0.000000 0.000000 0.001252 0.000000 0.021099
#
#
# Mechanical properties :
#
#
# Convention : Reuss Voigt Hill
#
# Bulk Modulus (GPa) = 27.06580 47.91711 37.49146
# Shear Modulus (GPa) = 27.84552 35.86627 31.85590
#
# Velocity S-wave (km/s) = 3.25884 3.69852 3.48562
# Velocity P-wave (km/s) = 4.94799 6.04267 5.52252
#
# Compressibility (1/GPa) = 0.03694700
#
# Stress axis : x y z
#
# Youngs Moduli (GPa) = 82.91309 80.14803 42.03123
#
# Poissons Ratio (x) = 0.29341 0.20828
# Poissons Ratio (y) = 0.30354 -0.12295
# Poissons Ratio (z) = 0.41087 -0.23444
#
# Static dielectric constant tensor:
#      x y z
#    x 2.098020 0.000000 0.039070 
#    y 0.000000 2.005740 0.000000 
#    z 0.039070 0.000000 2.074240 
# 
# From -- ./inp_files/30905.got.cif
#   From: 2010.05.17/outbox.cif.g08.bks.cpg/sg14_16_cif.got.tgz:30905.got - 2010.06.03 17:49:19.
