data_PCOD9249868
_publ_section_title
;
Structure prediction by ZEFSAII (Michael W. Deem and Ramdas Pophale) SiO2 
 PCOD9249868
Probable space group: P 21/C
;
_chemical_formula_sum "Si O2"
_cell_formula_units_Z 16
_cell_length_a 13.282398
_cell_length_b 5.255623
_cell_length_c 19.905489
_cell_angle_alpha 90.000000
_cell_angle_beta 27.339861
_cell_angle_gamma 90.000000
_cell_volume 638.174445
_symmetry_space_group_name_H-M "P 21/C"
_symmetry_group_IT_number 14
_symmetry_cell_setting 'monoclinic'
loop_
_space_group_symop_operation_xyz
x,y,z
-x,1/2+y,1/2-z
-x,-y,-z
x,1/2-y,1/2+z
loop_
_atom_site_type_symbol
_atom_site_label
_atom_site_fract_x
_atom_site_fract_y
_atom_site_fract_z
Si Si1 0.911373 0.183608 0.413633
Si Si2 0.379622 0.252291 0.097425
Si Si3 0.266286 0.382893 0.807059
Si Si4 0.346877 0.297701 0.408735
O O1 0.117558 0.220425 0.241593
O O2 0.021717 0.120144 0.421845
O O3 0.604174 0.348729 0.268684
O O4 0.781273 0.444746 0.496876
O O5 0.382682 0.260956 0.176255
O O6 0.500000 0.500000 0.000000
O O7 0.500000 0.000000 0.000000
O O8 0.314416 0.250117 0.848605
O O9 0.765567 0.936508 0.486786
#
# Coordination Sequence:
#
# PCOD9249868 Si02
#       4
#     4   4   4   4
#     4  10  25  40  71  98 136 174 222 278 336 405
#     4  10  23  44  67  95 134 182 224 271 334 393
#     4  10  26  40  73  98 143 169 221 290 328 406
#     4  12  22  44  65 109 128 172 224 276 357 381
#
# _framework density 25.071515999999999
#
# number of rings (size 3 to 8) (size 9 to 14) (size 15 to 20)
#    1.500    0.000    0.000    4.500    0.000   10.000 
#    0.000    5.000    0.000    0.000    0.000    0.000 
#    0.000    0.000    0.000    0.000    0.000    0.000 
#
# Total GULP energy -89474.738023 kJ/mol
# GULP energy per Si atom -5592.171126 kJ/mol
# Density = 2.501445 g / cm^3
# Si number density = 25.071516 Si / 1000 Ang^3
#
#
#
# Elastic Constant Matrix: (Units=GPa)
#
#
# Indices 1 2 3 4 5 6 
#
# 1 50.2687 7.4039 6.8700 0.0000 -17.0372 0.0000
# 2 7.4039 217.4718 91.2846 0.0000 -19.1074 0.0000
# 3 6.8700 91.2846 139.0769 0.0000 -5.6834 0.0000
# 4 0.0000 0.0000 0.0000 55.1054 0.0000 -5.7978
# 5 -17.0372 -19.1074 -5.6834 0.0000 47.1386 0.0000
# 6 0.0000 0.0000 0.0000 -5.7978 0.0000 34.5834
#
#
#
# Elastic Compliance Matrix: (Units=1/GPa)
#
#
# Indices 1 2 3 4 5 6 
#
# 1 0.022780 0.000388 -0.001042 0.000000 0.008265 0.000000
# 2 0.000388 0.006563 -0.004233 0.000000 0.002290 0.000000
# 3 -0.001042 -0.004233 0.009984 0.000000 -0.000889 0.000000
# 4 0.000000 0.000000 0.000000 0.018473 0.000000 0.003097
# 5 0.008265 0.002290 -0.000889 0.000000 0.025022 0.000000
# 6 0.000000 0.000000 0.000000 0.003097 0.000000 0.029435
#
#
# Mechanical properties :
#
#
# Convention : Reuss Voigt Hill
#
# Bulk Modulus (GPa) = 33.83898 68.65939 51.24919
# Shear Modulus (GPa) = 37.91245 47.44940 42.68092
#
# Velocity S-wave (km/s) = 3.89288 4.35508 4.13045
# Velocity P-wave (km/s) = 5.80796 7.26180 6.57519
#
# Compressibility (1/GPa) = 0.02955171
#
# Stress axis : x y z
#
# Youngs Moduli (GPa) = 43.89910 152.36156 100.15899
#
# Poissons Ratio (x) = -0.05913 0.10439
# Poissons Ratio (y) = -0.01704 0.42402
# Poissons Ratio (z) = 0.04575 0.64502
#
# Static dielectric constant tensor:
#      x y z
#    x 2.048170 0.000000 -0.042780 
#    y 0.000000 1.935580 0.000000 
#    z -0.042780 0.000000 2.015500 
# 
# From -- ./inp_files/67659.got.cif
#   From: 2010.05.17/outbox.cif.g08.bks.cpg/sg14_34_cif.got.tgz:67659.got - 2010.06.03 17:49:19.
