data_PCOD9249267
_publ_section_title
;
Structure prediction by ZEFSAII (Michael W. Deem and Ramdas Pophale) SiO2 
 PCOD9249267
Probable space group: P 21/C
;
_chemical_formula_sum "Si O2"
_cell_formula_units_Z 28
_cell_length_a 11.700556
_cell_length_b 8.823986
_cell_length_c 19.149329
_cell_angle_alpha 90.000000
_cell_angle_beta 38.893004
_cell_angle_gamma 90.000000
_cell_volume 1241.347113
_symmetry_space_group_name_H-M "P 21/C"
_symmetry_group_IT_number 14
_symmetry_cell_setting 'monoclinic'
loop_
_space_group_symop_operation_xyz
x,y,z
-x,1/2+y,1/2-z
-x,-y,-z
x,1/2-y,1/2+z
loop_
_atom_site_type_symbol
_atom_site_label
_atom_site_fract_x
_atom_site_fract_y
_atom_site_fract_z
Si Si1 0.801254 0.193152 0.279097
Si Si2 0.400779 0.631424 0.503127
Si Si3 0.489956 0.054286 0.584785
Si Si4 0.918662 0.506144 0.423126
Si Si5 0.002859 0.223211 0.985566
Si Si6 0.673354 0.590957 0.120372
Si Si7 0.357721 0.673973 0.774034
O O1 0.735590 0.267726 0.382286
O O2 0.756484 0.321464 0.243237
O O3 0.679018 0.049318 0.311121
O O4 0.997206 0.115294 0.177141
O O5 0.500000 0.500000 0.500000
O O6 0.523424 0.764161 0.410402
O O7 0.279156 0.544686 0.505416
O O8 0.500000 0.000000 0.500000
O O9 0.656363 0.997813 0.554578
O O10 0.929873 0.606901 0.486917
O O11 0.020146 0.352415 0.401177
O O12 0.130504 0.364450 0.943325
O O13 0.790495 0.256264 0.101474
O O14 0.588760 0.484838 0.219609
O O15 0.541873 0.733931 0.176614
#
# Coordination Sequence:
#
# PCOD9249267 Si02
#       7
#     4   4   4   4   4   4   4
#     4   9  22  44  58  92 131 167 207 269 323 383
#     4  11  24  41  67  96 124 175 222 267 321 398
#     4   9  21  41  64  90 128 164 214 262 322 383
#     4  10  23  42  64  93 132 166 215 271 336 388
#     4  10  23  42  66  93 133 170 215 279 331 392
#     4  11  23  39  69  94 128 174 213 270 330 395
#     4  10  23  39  63  96 128 163 220 263 325 392
#
# _framework density 22.556139000000002
#
# number of rings (size 3 to 8) (size 9 to 14) (size 15 to 20)
#    0.000    2.000    0.000    1.286   14.000    2.286 
#   10.286    0.000    0.000    0.000    0.000    0.000 
#    0.000    0.000    0.000    0.000    0.000    0.000 
#
# Total GULP energy -156026.446769 kJ/mol
# GULP energy per Si atom -5572.373099 kJ/mol
# Density = 2.250480 g / cm^3
# Si number density = 22.556139 Si / 1000 Ang^3
#
#
#
# Elastic Constant Matrix: (Units=GPa)
#
#
# Indices 1 2 3 4 5 6 
#
# 1 64.6815 25.6956 0.6486 0.0000 -13.1708 0.0000
# 2 25.6956 80.8022 -0.1401 0.0000 -9.1509 0.0000
# 3 0.6486 -0.1401 35.8629 0.0000 2.1051 0.0000
# 4 0.0000 0.0000 0.0000 34.9379 0.0000 2.3723
# 5 -13.1708 -9.1509 2.1051 0.0000 22.3135 0.0000
# 6 0.0000 0.0000 0.0000 2.3723 0.0000 39.2871
#
#
#
# Elastic Compliance Matrix: (Units=1/GPa)
#
#
# Indices 1 2 3 4 5 6 
#
# 1 0.019425 -0.005108 -0.000926 0.000000 0.009458 0.000000
# 2 -0.005108 0.014324 -0.000020 0.000000 0.002861 0.000000
# 3 -0.000926 -0.000020 0.028089 0.000000 -0.003205 0.000000
# 4 0.000000 0.000000 0.000000 0.028740 0.000000 -0.001735
# 5 0.009458 0.002861 -0.003205 0.000000 0.051875 0.000000
# 6 0.000000 0.000000 0.000000 -0.001735 0.000000 0.025558
#
#
# Mechanical properties :
#
#
# Convention : Reuss Voigt Hill
#
# Bulk Modulus (GPa) = 20.10849 25.97276 23.04063
# Shear Modulus (GPa) = 25.42006 29.65053 27.53530
#
# Velocity S-wave (km/s) = 3.36068 3.62957 3.49771
# Velocity P-wave (km/s) = 4.89827 5.39488 5.15256
#
# Compressibility (1/GPa) = 0.04973024
#
# Stress axis : x y z
#
# Youngs Moduli (GPa) = 51.48078 69.81203 35.60143
#
# Poissons Ratio (x) = 0.35657 0.03298
# Poissons Ratio (y) = 0.26294 0.00070
# Poissons Ratio (z) = 0.04769 0.00137
#
# Static dielectric constant tensor:
#      x y z
#    x 1.808120 0.000000 -0.011670 
#    y 0.000000 1.947350 0.000000 
#    z -0.011670 0.000000 1.887840 
# 
# From -- ./inp_files/66991.got.cif
#   From: 2010.05.17/outbox.cif.g08.bks.cpg/sg14_34_cif.got.tgz:66991.got - 2010.06.03 17:49:19.
