data_PCOD9249622
_publ_section_title
;
Structure prediction by ZEFSAII (Michael W. Deem and Ramdas Pophale) SiO2 
 PCOD9249622
Probable space group: P 21/C
;
_chemical_formula_sum "Si O2"
_cell_formula_units_Z 28
_cell_length_a 19.134095
_cell_length_b 14.193288
_cell_length_c 11.339961
_cell_angle_alpha 90.000000
_cell_angle_beta 20.662371
_cell_angle_gamma 90.000000
_cell_volume 1086.689429
_symmetry_space_group_name_H-M "P 21/C"
_symmetry_group_IT_number 14
_symmetry_cell_setting 'monoclinic'
loop_
_space_group_symop_operation_xyz
x,y,z
-x,1/2+y,1/2-z
-x,-y,-z
x,1/2-y,1/2+z
loop_
_atom_site_type_symbol
_atom_site_label
_atom_site_fract_x
_atom_site_fract_y
_atom_site_fract_z
Si Si1 0.220078 0.291156 0.639137
Si Si2 0.242244 0.926714 0.347749
Si Si3 0.208446 0.626065 0.640075
Si Si4 0.793041 0.949634 0.020844
Si Si5 0.456688 0.700968 0.698305
Si Si6 0.189156 0.090651 0.583560
Si Si7 0.259231 0.557916 0.182664
O O1 0.288809 0.369930 0.436176
O O2 0.259884 0.191658 0.513852
O O3 0.317457 0.291647 0.615375
O O4 0.988262 0.313138 0.023481
O O5 0.287303 0.912088 0.140340
O O6 0.367621 0.855509 0.228902
O O7 0.276467 0.034161 0.334606
O O8 0.004002 0.911681 0.740384
O O9 0.367225 0.694951 0.332357
O O10 0.846286 0.462836 0.352386
O O11 0.665702 0.993983 0.327713
O O12 0.370004 0.645091 0.949501
O O13 0.225340 0.016260 0.631186
O O14 0.953044 0.097024 0.939788
#
# Coordination Sequence:
#
# PCOD9249622 Si02
#       7
#     4   4   4   4   4   4   4
#     4  11  23  42  64 106 128 173 228 270 327 397
#     4   9  21  42  66  95 126 177 218 266 332 385
#     4  11  24  45  67  96 139 175 215 281 328 392
#     4  10  23  42  69  96 134 174 218 271 338 390
#     4  11  24  41  69  98 136 171 225 272 328 393
#     4   9  18  39  66  94 128 172 224 262 320 398
#     4   9  19  41  66  92 129 176 213 267 328 389
#
# _framework density 25.766331999999998
#
# number of rings (size 3 to 8) (size 9 to 14) (size 15 to 20)
#    0.000    2.000    1.429    2.571    2.000    4.000 
#    5.143    3.571    0.000    0.000    0.000    0.000 
#    0.000    0.000    0.000    0.000    0.000    0.000 
#
# Total GULP energy -156869.522156 kJ/mol
# GULP energy per Si atom -5602.482934 kJ/mol
# Density = 2.570769 g / cm^3
# Si number density = 25.766332 Si / 1000 Ang^3
#
#
#
# Elastic Constant Matrix: (Units=GPa)
#
#
# Indices 1 2 3 4 5 6 
#
# 1 120.1797 30.7103 33.4338 0.0000 -40.3340 0.0000
# 2 30.7103 140.4823 26.3144 0.0000 -17.8321 0.0000
# 3 33.4338 26.3144 64.9499 0.0000 -18.8406 0.0000
# 4 0.0000 0.0000 0.0000 22.4205 0.0000 0.3270
# 5 -40.3340 -17.8321 -18.8406 0.0000 35.6607 0.0000
# 6 0.0000 0.0000 0.0000 0.3270 0.0000 36.8438
#
#
#
# Elastic Compliance Matrix: (Units=1/GPa)
#
#
# Indices 1 2 3 4 5 6 
#
# 1 0.013982 -0.000754 -0.002851 0.000000 0.013931 0.000000
# 2 -0.000754 0.007954 -0.002277 0.000000 0.001921 0.000000
# 3 -0.002851 -0.002277 0.019511 0.000000 0.005945 0.000000
# 4 0.000000 0.000000 0.000000 0.044608 0.000000 -0.000396
# 5 0.013931 0.001921 0.005945 0.000000 0.047901 0.000000
# 6 0.000000 0.000000 0.000000 -0.000396 0.000000 0.027145
#
#
# Mechanical properties :
#
#
# Convention : Reuss Voigt Hill
#
# Bulk Modulus (GPa) = 33.68916 56.28098 44.98507
# Shear Modulus (GPa) = 27.35847 34.66189 31.01018
#
# Velocity S-wave (km/s) = 3.26205 3.67173 3.47294
# Velocity P-wave (km/s) = 5.22410 6.31393 5.79469
#
# Compressibility (1/GPa) = 0.02968313
#
# Stress axis : x y z
#
# Youngs Moduli (GPa) = 71.51936 125.72979 51.25311
#
# Poissons Ratio (x) = 0.09483 0.14611
# Poissons Ratio (y) = 0.05394 0.11669
# Poissons Ratio (z) = 0.20389 0.28627
#
# Static dielectric constant tensor:
#      x y z
#    x 2.051340 0.000000 0.006380 
#    y 0.000000 1.945670 0.000000 
#    z 0.006380 0.000000 2.088290 
# 
# From -- ./inp_files/50553.got.cif
#   From: 2010.05.17/outbox.cif.g08.bks.cpg/sg14_26_cif.got.tgz:50553.got - 2010.06.03 17:49:19.
