data_PCOD9249822
_publ_section_title
;
Structure prediction by ZEFSAII (Michael W. Deem and Ramdas Pophale) SiO2 
 PCOD9249822
Probable space group: P 21/C
;
_chemical_formula_sum "Si O2"
_cell_formula_units_Z 20
_cell_length_a 8.258248
_cell_length_b 13.926946
_cell_length_c 11.361835
_cell_angle_alpha 90.000000
_cell_angle_beta 37.196732
_cell_angle_gamma 90.000000
_cell_volume 790.000127
_symmetry_space_group_name_H-M "P 21/C"
_symmetry_group_IT_number 14
_symmetry_cell_setting 'monoclinic'
loop_
_space_group_symop_operation_xyz
x,y,z
-x,1/2+y,1/2-z
-x,-y,-z
x,1/2-y,1/2+z
loop_
_atom_site_type_symbol
_atom_site_label
_atom_site_fract_x
_atom_site_fract_y
_atom_site_fract_z
Si Si1 0.613597 0.176613 0.623013
Si Si2 0.995979 0.679362 0.505337
Si Si3 0.809792 0.630370 0.005577
Si Si4 0.321002 0.911252 0.644002
Si Si5 0.301767 0.982942 0.222177
O O1 0.761159 0.278252 0.557778
O O2 0.776057 0.134795 0.419592
O O3 0.623065 0.102942 0.728513
O O4 0.299806 0.174725 0.768444
O O5 0.087803 0.587876 0.376000
O O6 0.949811 0.768355 0.443113
O O7 0.023595 0.556167 0.828535
O O8 0.549456 0.648941 0.079727
O O9 0.737522 0.576272 0.171164
O O10 0.500000 0.000000 0.500000
O O11 0.500000 0.000000 0.000000
#
# Coordination Sequence:
#
# PCOD9249822 Si02
#       5
#     4   4   4   4   4
#     4  11  26  44  71 105 138 192 243 296 372 432
#     4  11  26  46  69 103 146 194 240 294 366 436
#     4  10  23  46  66 108 137 188 243 298 358 445
#     4  12  26  46  72 105 151 183 243 312 362 435
#     4  10  23  43  75 100 142 187 238 300 376 436
#
# _framework density 25.31645
#
# number of rings (size 3 to 8) (size 9 to 14) (size 15 to 20)
#    0.000    1.200    4.000    0.000    5.600    5.600 
#    0.000    0.000    0.000    0.000    0.000    0.000 
#    0.000    0.000    0.000    0.000    0.000    0.000 
#
# Total GULP energy -111617.003593 kJ/mol
# GULP energy per Si atom -5580.850180 kJ/mol
# Density = 2.525883 g / cm^3
# Si number density = 25.316450 Si / 1000 Ang^3
#
#
#
# Elastic Constant Matrix: (Units=GPa)
#
#
# Indices 1 2 3 4 5 6 
#
# 1 37.4926 -0.1088 23.6172 0.0000 2.8597 0.0000
# 2 -0.1088 67.6834 27.4606 0.0000 11.8962 0.0000
# 3 23.6172 27.4606 146.7438 0.0000 11.3370 0.0000
# 4 0.0000 0.0000 0.0000 36.1555 0.0000 -3.2796
# 5 2.8597 11.8962 11.3370 0.0000 35.4821 0.0000
# 6 0.0000 0.0000 0.0000 -3.2796 0.0000 31.7547
#
#
#
# Elastic Compliance Matrix: (Units=1/GPa)
#
#
# Indices 1 2 3 4 5 6 
#
# 1 0.030055 0.002424 -0.005168 0.000000 -0.001583 0.000000
# 2 0.002424 0.016922 -0.003182 0.000000 -0.004852 0.000000
# 3 -0.005168 -0.003182 0.008333 0.000000 -0.001179 0.000000
# 4 0.000000 0.000000 0.000000 0.027920 0.000000 0.002884
# 5 -0.001583 -0.004852 -0.001179 0.000000 0.030314 0.000000
# 6 0.000000 0.000000 0.000000 0.002884 0.000000 0.031789
#
#
# Mechanical properties :
#
#
# Convention : Reuss Voigt Hill
#
# Bulk Modulus (GPa) = 23.01110 39.31751 31.16431
# Shear Modulus (GPa) = 29.12506 34.07518 31.60012
#
# Velocity S-wave (km/s) = 3.39549 3.67273 3.53683
# Velocity P-wave (km/s) = 4.94789 5.79218 5.38660
#
# Compressibility (1/GPa) = 0.04345729
#
# Stress axis : x y z
#
# Youngs Moduli (GPa) = 33.27189 59.09331 120.00574
#
# Poissons Ratio (x) = -0.14321 0.62023
# Poissons Ratio (y) = -0.08064 0.38185
# Poissons Ratio (z) = 0.17196 0.18803
#
# Static dielectric constant tensor:
#      x y z
#    x 2.151920 0.000000 -0.041390 
#    y 0.000000 2.092640 0.000000 
#    z -0.041390 0.000000 1.995720 
# 
# From -- ./inp_files/25693.got.cif
#   From: 2010.05.17/outbox.cif.g08.bks.cpg/sg14_13_cif.got.tgz:25693.got - 2010.06.03 17:49:19.
