data_PCOD9249647
_publ_section_title
;
Structure prediction by ZEFSAII (Michael W. Deem and Ramdas Pophale) SiO2 
 PCOD9249647
Probable space group: P 21/C
;
_chemical_formula_sum "Si O2"
_cell_formula_units_Z 28
_cell_length_a 9.171800
_cell_length_b 14.064063
_cell_length_c 12.976703
_cell_angle_alpha 90.000000
_cell_angle_beta 142.647503
_cell_angle_gamma 90.000000
_cell_volume 1015.584126
_symmetry_space_group_name_H-M "P 21/C"
_symmetry_group_IT_number 14
_symmetry_cell_setting 'monoclinic'
loop_
_space_group_symop_operation_xyz
x,y,z
-x,1/2+y,1/2-z
-x,-y,-z
x,1/2-y,1/2+z
loop_
_atom_site_type_symbol
_atom_site_label
_atom_site_fract_x
_atom_site_fract_y
_atom_site_fract_z
Si Si1 0.117137 0.008508 0.827140
Si Si2 0.571911 0.817782 0.530444
Si Si3 0.923279 0.125603 0.017780
Si Si4 0.351374 0.290935 0.685613
Si Si5 0.370651 0.921858 0.789661
Si Si6 0.060938 0.712363 0.805080
Si Si7 0.602331 0.917910 0.350695
O O1 0.980932 0.099722 0.706529
O O2 0.172880 0.933156 0.767018
O O3 0.380072 0.042006 0.016932
O O4 0.996477 0.952834 0.853630
O O5 0.592204 0.821767 0.665419
O O6 0.796511 0.750734 0.624358
O O7 0.610489 0.907977 0.478162
O O8 0.298263 0.779790 0.367825
O O9 0.109632 0.148984 0.033140
O O10 0.887079 0.221732 0.065344
O O11 0.678153 0.088984 0.834339
O O12 0.559340 0.325047 0.727374
O O13 0.300314 0.179830 0.645642
O O14 0.303372 0.992964 0.658739
#
# Coordination Sequence:
#
# PCOD9249647 Si02
#       7
#     4   4   4   4   4   4   4
#     4  10  23  43  74 104 143 193 240 292 362 437
#     4  11  26  44  74 103 147 191 234 304 362 419
#     4  10  24  43  72 104 139 190 246 292 362 436
#     4  11  24  45  68 104 141 184 244 300 351 430
#     4  10  23  42  71 101 145 189 243 287 359 440
#     4  11  24  48  72 104 146 188 240 295 362 427
#     4  11  24  42  70 101 140 190 238 291 362 433
#
# _framework density 27.570340000000002
#
# number of rings (size 3 to 8) (size 9 to 14) (size 15 to 20)
#    0.000    1.429    1.429    2.571   12.000    1.714 
#    2.571    0.714    0.000    0.000    0.000    0.000 
#    0.000    0.000    0.000    0.000    0.000    0.000 
#
# Total GULP energy -156859.096916 kJ/mol
# GULP energy per Si atom -5602.110604 kJ/mol
# Density = 2.750759 g / cm^3
# Si number density = 27.570340 Si / 1000 Ang^3
#
#
#
# Elastic Constant Matrix: (Units=GPa)
#
#
# Indices 1 2 3 4 5 6 
#
# 1 141.7381 11.8592 32.5291 0.0000 21.3762 0.0000
# 2 11.8592 63.9473 13.1071 0.0000 13.4179 0.0000
# 3 32.5291 13.1071 102.7304 0.0000 4.8548 0.0000
# 4 0.0000 0.0000 0.0000 30.7362 0.0000 -6.5653
# 5 21.3762 13.4179 4.8548 0.0000 50.3251 0.0000
# 6 0.0000 0.0000 0.0000 -6.5653 0.0000 47.3458
#
#
#
# Elastic Compliance Matrix: (Units=1/GPa)
#
#
# Indices 1 2 3 4 5 6 
#
# 1 0.008100 -0.000362 -0.002371 0.000000 -0.003115 0.000000
# 2 -0.000362 0.016964 -0.001852 0.000000 -0.004190 0.000000
# 3 -0.002371 -0.001852 0.010699 0.000000 0.000469 0.000000
# 4 0.000000 0.000000 0.000000 0.033528 0.000000 0.004649
# 5 -0.003115 -0.004190 0.000469 0.000000 0.022266 0.000000
# 6 0.000000 0.000000 0.000000 0.004649 0.000000 0.021766
#
#
# Mechanical properties :
#
#
# Convention : Reuss Voigt Hill
#
# Bulk Modulus (GPa) = 37.60522 47.04518 42.32520
# Shear Modulus (GPa) = 38.06422 42.40945 40.23683
#
# Velocity S-wave (km/s) = 3.71970 3.92628 3.82439
# Velocity P-wave (km/s) = 5.66724 6.13636 5.90646
#
# Compressibility (1/GPa) = 0.02659205
#
# Stress axis : x y z
#
# Youngs Moduli (GPa) = 123.46313 58.94885 93.46546
#
# Poissons Ratio (x) = 0.02137 0.22163
# Poissons Ratio (y) = 0.04475 0.17306
# Poissons Ratio (z) = 0.29276 0.10915
#
# Static dielectric constant tensor:
#      x y z
#    x 2.075370 0.000000 -0.002480 
#    y 0.000000 2.155840 0.000000 
#    z -0.002480 0.000000 2.263030 
# 
# From -- ./inp_files/41436.got.cif
#   From: 2010.05.17/outbox.cif.g08.bks.cpg/sg14_21_cif.got.tgz:41436.got - 2010.06.03 17:49:19.
