data_PCOD9249940
_publ_section_title
;
Structure prediction by ZEFSAII (Michael W. Deem and Ramdas Pophale) SiO2 
 PCOD9249940
Probable space group: P 21/C
;
_chemical_formula_sum "Si O2"
_cell_formula_units_Z 16
_cell_length_a 7.427948
_cell_length_b 17.633004
_cell_length_c 7.558767
_cell_angle_alpha 90.000000
_cell_angle_beta 138.762910
_cell_angle_gamma 90.000000
_cell_volume 652.601044
_symmetry_space_group_name_H-M "P 21/C"
_symmetry_group_IT_number 14
_symmetry_cell_setting 'monoclinic'
loop_
_space_group_symop_operation_xyz
x,y,z
-x,1/2+y,1/2-z
-x,-y,-z
x,1/2-y,1/2+z
loop_
_atom_site_type_symbol
_atom_site_label
_atom_site_fract_x
_atom_site_fract_y
_atom_site_fract_z
Si Si1 0.524806 0.344838 0.955439
Si Si2 0.195916 0.466188 0.293190
Si Si3 0.545771 0.168602 0.061935
Si Si4 0.918056 0.090124 0.039906
O O1 0.511630 0.257524 0.005780
O O2 0.614140 0.347536 0.817077
O O3 0.225185 0.380628 0.750615
O O4 0.731468 0.388717 0.235149
O O5 0.500000 0.500000 0.500000
O O6 0.261069 0.377409 0.323209
O O7 0.098340 0.503484 0.403689
O O8 0.000000 0.500000 0.000000
O O9 0.771052 0.137369 0.092376
#
# Coordination Sequence:
#
# PCOD9249940 Si02
#       4
#     4   4   4   4
#     4  12  27  41  74 102 138 183 231 281 347 410
#     4  10  23  44  73  98 138 183 225 285 345 404
#     4  11  26  46  71 103 140 184 228 286 346 405
#     4  11  26  47  68 105 138 179 233 284 341 413
#
# _framework density 24.517278000000001
#
# number of rings (size 3 to 8) (size 9 to 14) (size 15 to 20)
#    0.000    1.000    2.500    3.000    3.500   10.000 
#    0.000    0.000    0.000    0.000    0.000    0.000 
#    0.000    0.000    0.000    0.000    0.000    0.000 
#
# Total GULP energy -89726.561613 kJ/mol
# GULP energy per Si atom -5607.910101 kJ/mol
# Density = 2.446148 g / cm^3
# Si number density = 24.517278 Si / 1000 Ang^3
#
#
#
# Elastic Constant Matrix: (Units=GPa)
#
#
# Indices 1 2 3 4 5 6 
#
# 1 159.7235 41.9886 91.1207 0.0000 -8.7861 0.0000
# 2 41.9886 161.2731 83.2368 0.0000 12.8520 0.0000
# 3 91.1207 83.2368 234.6807 0.0000 -3.9341 0.0000
# 4 0.0000 0.0000 0.0000 36.6726 0.0000 -2.7457
# 5 -8.7861 12.8520 -3.9341 0.0000 55.1020 0.0000
# 6 0.0000 0.0000 0.0000 -2.7457 0.0000 47.4367
#
#
#
# Elastic Compliance Matrix: (Units=1/GPa)
#
#
# Indices 1 2 3 4 5 6 
#
# 1 0.008174 -0.000737 -0.002891 0.000000 0.001269 0.000000
# 2 -0.000737 0.007875 -0.002543 0.000000 -0.002136 0.000000
# 3 -0.002891 -0.002543 0.006295 0.000000 0.000582 0.000000
# 4 0.000000 0.000000 0.000000 0.027387 0.000000 0.001585
# 5 0.001269 -0.002136 0.000582 0.000000 0.018890 0.000000
# 6 0.000000 0.000000 0.000000 0.001585 0.000000 0.021172
#
#
# Mechanical properties :
#
#
# Convention : Reuss Voigt Hill
#
# Bulk Modulus (GPa) = 99.97594 109.81884 104.89739
# Shear Modulus (GPa) = 47.40713 50.46434 48.93574
#
# Velocity S-wave (km/s) = 4.40207 4.54179 4.47247
# Velocity P-wave (km/s) = 8.16724 8.50844 8.33958
#
# Compressibility (1/GPa) = 0.01000241
#
# Stress axis : x y z
#
# Youngs Moduli (GPa) = 122.34480 126.98136 158.85114
#
# Poissons Ratio (x) = 0.09360 0.45922
# Poissons Ratio (y) = 0.09018 0.40392
# Poissons Ratio (z) = 0.35369 0.32289
#
# Static dielectric constant tensor:
#      x y z
#    x 1.972090 0.000000 -0.103800 
#    y 0.000000 2.045940 0.000000 
#    z -0.103800 0.000000 1.791310 
# 
# From -- ./inp_files/9593.got.cif
#   From: 2010.05.17/outbox.cif.g08.bks.cpg/sg14_5_cif.got.tgz:9593.got - 2010.06.03 17:49:19.
