data_PCOD9249709
_publ_section_title
;
Structure prediction by ZEFSAII (Michael W. Deem and Ramdas Pophale) SiO2 
 PCOD9249709
Probable space group: P 21/C
;
_chemical_formula_sum "Si O2"
_cell_formula_units_Z 32
_cell_length_a 14.919026
_cell_length_b 22.437342
_cell_length_c 9.284334
_cell_angle_alpha 90.000000
_cell_angle_beta 149.761447
_cell_angle_gamma 90.000000
_cell_volume 1565.126873
_symmetry_space_group_name_H-M "P 21/C"
_symmetry_group_IT_number 14
_symmetry_cell_setting 'monoclinic'
loop_
_space_group_symop_operation_xyz
x,y,z
-x,1/2+y,1/2-z
-x,-y,-z
x,1/2-y,1/2+z
loop_
_atom_site_type_symbol
_atom_site_label
_atom_site_fract_x
_atom_site_fract_y
_atom_site_fract_z
Si Si1 0.287118 0.167614 0.738919
Si Si2 0.413928 0.821067 0.375498
Si Si3 0.410038 0.258020 0.148983
Si Si4 0.812412 0.021143 0.176331
Si Si5 0.058962 0.619637 0.345814
Si Si6 0.484812 0.440871 0.385800
Si Si7 0.862140 0.555071 0.302656
Si Si8 0.388952 0.057334 0.288855
O O1 0.285487 0.208895 0.592144
O O2 0.097663 0.135796 0.480937
O O3 0.434873 0.117562 0.907990
O O4 0.324700 0.206474 0.931720
O O5 0.509813 0.802856 0.359011
O O6 0.448249 0.772590 0.546861
O O7 0.493185 0.883849 0.541591
O O8 0.208271 0.830984 0.059582
O O9 0.856861 0.057942 0.093923
O O10 0.677618 0.063632 0.077428
O O11 0.000000 0.000000 0.500000
O O12 0.691969 0.963535 0.974272
O O13 0.972104 0.607443 0.379864
O O14 0.500000 0.500000 0.500000
O O15 0.316651 0.451602 0.044300
O O16 0.780642 0.568130 0.344284
O O17 0.000000 0.500000 0.500000
O O18 0.500000 0.000000 0.500000
#
# Coordination Sequence:
#
# PCOD9249709 Si02
#       8
#     4   4   4   4   4   4   4   4
#     4  10  23  43  66  92 126 171 214 271 322 380
#     4  11  23  43  67  93 125 172 219 266 327 383
#     4  10  24  45  66  86 123 176 222 264 320 379
#     4  12  24  39  59  99 138 168 207 256 335 393
#     4  11  22  38  65  94 129 161 210 272 314 391
#     4  11  24  39  63  92 133 165 201 267 326 384
#     4  11  20  36  57  93 132 162 204 245 318 389
#     4  12  22  40  67  94 131 171 203 266 327 395
#
# _framework density 20.445627000000002
#
# number of rings (size 3 to 8) (size 9 to 14) (size 15 to 20)
#    0.000    1.000    3.750    3.750    3.500    1.000 
#    0.000    0.000    0.000    0.000    0.000    0.000 
#    0.000    0.000    0.000    0.000    0.000    0.000 
#
# Total GULP energy -178653.694156 kJ/mol
# GULP energy per Si atom -5582.927942 kJ/mol
# Density = 2.039909 g / cm^3
# Si number density = 20.445627 Si / 1000 Ang^3
#
#
#
# Elastic Constant Matrix: (Units=GPa)
#
#
# Indices 1 2 3 4 5 6 
#
# 1 69.6368 6.0287 10.9679 0.0000 1.2643 0.0000
# 2 6.0287 64.9716 14.0802 0.0000 -2.5460 0.0000
# 3 10.9679 14.0802 73.1700 0.0000 10.7980 0.0000
# 4 0.0000 0.0000 0.0000 42.0002 0.0000 -4.4784
# 5 1.2643 -2.5460 10.7980 0.0000 34.8810 0.0000
# 6 0.0000 0.0000 0.0000 -4.4784 0.0000 26.3818
#
#
#
# Elastic Compliance Matrix: (Units=1/GPa)
#
#
# Indices 1 2 3 4 5 6 
#
# 1 0.014761 -0.000927 -0.002038 0.000000 0.000028 0.000000
# 2 -0.000927 0.016287 -0.003328 0.000000 0.002253 0.000000
# 3 -0.002038 -0.003328 0.015338 0.000000 -0.004917 0.000000
# 4 0.000000 0.000000 0.000000 0.024248 0.000000 0.004116
# 5 0.000028 0.002253 -0.004917 0.000000 0.030355 0.000000
# 6 0.000000 0.000000 0.000000 0.004116 0.000000 0.038604
#
#
# Mechanical properties :
#
#
# Convention : Reuss Voigt Hill
#
# Bulk Modulus (GPa) = 29.58541 29.99244 29.78893
# Shear Modulus (GPa) = 30.59132 32.43270 31.51201
#
# Velocity S-wave (km/s) = 3.87231 3.98715 3.93015
# Velocity P-wave (km/s) = 5.87322 5.99147 5.93264
#
# Compressibility (1/GPa) = 0.03380044
#
# Stress axis : x y z
#
# Youngs Moduli (GPa) = 67.74609 61.39970 65.19609
#
# Poissons Ratio (x) = 0.05691 0.13290
# Poissons Ratio (y) = 0.06279 0.21694
# Poissons Ratio (z) = 0.13810 0.20431
#
# Static dielectric constant tensor:
#      x y z
#    x 1.775550 0.000000 -0.010580 
#    y 0.000000 1.762600 0.000000 
#    z -0.010580 0.000000 1.758140 
# 
# From -- ./inp_files/17040.got.cif
#   From: 2010.05.17/outbox.cif.g08.bks.cpg/sg14_9_cif.got.tgz:17040.got - 2010.06.03 17:49:19.
