data_PCOD9249157
_publ_section_title
;
Structure prediction by ZEFSAII (Michael W. Deem and Ramdas Pophale) SiO2 
 PCOD9249157
Probable space group: P 21/C
;
_chemical_formula_sum "Si O2"
_cell_formula_units_Z 24
_cell_length_a 11.818049
_cell_length_b 10.027723
_cell_length_c 8.400687
_cell_angle_alpha 90.000000
_cell_angle_beta 60.855076
_cell_angle_gamma 90.000000
_cell_volume 869.503728
_symmetry_space_group_name_H-M "P 21/C"
_symmetry_group_IT_number 14
_symmetry_cell_setting 'monoclinic'
loop_
_space_group_symop_operation_xyz
x,y,z
-x,1/2+y,1/2-z
-x,-y,-z
x,1/2-y,1/2+z
loop_
_atom_site_type_symbol
_atom_site_label
_atom_site_fract_x
_atom_site_fract_y
_atom_site_fract_z
Si Si1 0.640106 0.491527 0.222037
Si Si2 0.529473 0.773484 0.661682
Si Si3 0.145673 0.857814 0.253668
Si Si4 0.790211 0.867407 0.039031
Si Si5 0.307066 0.583655 0.152668
Si Si6 0.966767 0.717816 0.155577
O O1 0.562360 0.353745 0.255564
O O2 0.549946 0.621582 0.294325
O O3 0.742186 0.466328 0.292448
O O4 0.704784 0.500152 0.001774
O O5 0.669289 0.708657 0.544468
O O6 0.453440 0.865051 0.586861
O O7 0.221034 0.715994 0.196013
O O8 0.047340 0.840609 0.175378
O O9 0.060163 0.858581 0.471635
O O10 0.846938 0.772879 0.138587
O O11 0.740426 0.999000 0.163119
O O12 0.912064 0.870836 0.836193
#
# Coordination Sequence:
#
# PCOD9249157 Si02
#       6
#     4   4   4   4   4   4
#     4  11  23  45  76 103 145 184 237 296 352 423
#     4  11  24  43  70 109 138 184 233 293 355 417
#     4  10  22  47  68 106 134 192 235 288 347 420
#     4  11  24  45  70 104 139 190 230 297 352 419
#     4  11  23  45  76  95 146 188 235 286 366 423
#     4  10  23  44  69 100 146 181 243 285 347 420
#
# _framework density 27.601949999999999
#
# number of rings (size 3 to 8) (size 9 to 14) (size 15 to 20)
#    0.000    1.333    3.333    1.500    2.333    2.667 
#    9.000    6.667    0.000    0.000    0.000    0.000 
#    0.000    0.000    0.000    0.000    0.000    0.000 
#
# Total GULP energy -134557.360822 kJ/mol
# GULP energy per Si atom -5606.556701 kJ/mol
# Density = 2.753913 g / cm^3
# Si number density = 27.601950 Si / 1000 Ang^3
#
#
#
# Elastic Constant Matrix: (Units=GPa)
#
#
# Indices 1 2 3 4 5 6 
#
# 1 141.8165 18.4834 16.7099 0.0000 10.1128 0.0000
# 2 18.4834 139.1171 11.0894 0.0000 -7.8142 0.0000
# 3 16.7099 11.0894 90.2884 0.0000 -1.3690 0.0000
# 4 0.0000 0.0000 0.0000 34.6738 0.0000 -3.1594
# 5 10.1128 -7.8142 -1.3690 0.0000 23.6354 0.0000
# 6 0.0000 0.0000 0.0000 -3.1594 0.0000 51.3305
#
#
#
# Elastic Compliance Matrix: (Units=1/GPa)
#
#
# Indices 1 2 3 4 5 6 
#
# 1 0.007617 -0.001114 -0.001329 0.000000 -0.003705 0.000000
# 2 -0.001114 0.007555 -0.000677 0.000000 0.002935 0.000000
# 3 -0.001329 -0.000677 0.011420 0.000000 0.001006 0.000000
# 4 0.000000 0.000000 0.000000 0.029003 0.000000 0.001785
# 5 -0.003705 0.002935 0.001006 0.000000 0.044923 0.000000
# 6 0.000000 0.000000 0.000000 0.001785 0.000000 0.019591
#
#
# Mechanical properties :
#
#
# Convention : Reuss Voigt Hill
#
# Bulk Modulus (GPa) = 49.13650 51.53193 50.33422
# Shear Modulus (GPa) = 37.55591 43.59057 40.57324
#
# Velocity S-wave (km/s) = 3.69267 3.97830 3.83814
# Velocity P-wave (km/s) = 6.00179 6.30973 6.15769
#
# Compressibility (1/GPa) = 0.02035147
#
# Stress axis : x y z
#
# Youngs Moduli (GPa) = 131.27909 132.36121 87.56547
#
# Poissons Ratio (x) = 0.14748 0.11638
# Poissons Ratio (y) = 0.14627 0.05930
# Poissons Ratio (z) = 0.17448 0.08964
#
# Static dielectric constant tensor:
#      x y z
#    x 2.086390 0.000000 0.014600 
#    y 0.000000 2.206700 0.000000 
#    z 0.014600 0.000000 2.168910 
# 
# From -- ./inp_files/12370.got.cif
#   From: 2010.05.17/outbox.cif.g08.bks.cpg/sg14_7_cif.got.tgz:12370.got - 2010.06.03 17:49:19.
