data_PCOD9249200
_publ_section_title
;
Structure prediction by ZEFSAII (Michael W. Deem and Ramdas Pophale) SiO2 
 PCOD9249200
Probable space group: P 21/C
;
_chemical_formula_sum "Si O2"
_cell_formula_units_Z 28
_cell_length_a 25.330022
_cell_length_b 8.072917
_cell_length_c 10.836087
_cell_angle_alpha 90.000000
_cell_angle_beta 28.979547
_cell_angle_gamma 90.000000
_cell_volume 1073.569007
_symmetry_space_group_name_H-M "P 21/C"
_symmetry_group_IT_number 14
_symmetry_cell_setting 'monoclinic'
loop_
_space_group_symop_operation_xyz
x,y,z
-x,1/2+y,1/2-z
-x,-y,-z
x,1/2-y,1/2+z
loop_
_atom_site_type_symbol
_atom_site_label
_atom_site_fract_x
_atom_site_fract_y
_atom_site_fract_z
Si Si1 0.506463 0.799316 0.485094
Si Si2 0.019357 0.142966 0.230030
Si Si3 0.917061 0.598824 0.082069
Si Si4 0.630791 0.707086 0.982418
Si Si5 0.737702 0.177836 0.524074
Si Si6 0.224948 0.602998 0.319199
Si Si7 0.822759 0.828498 0.443084
O O1 0.579672 0.748758 0.218046
O O2 0.554686 0.753802 0.520767
O O3 0.392296 0.703877 0.701282
O O4 0.500000 0.000000 0.500000
O O5 0.024616 0.238256 0.091606
O O6 0.056379 0.284328 0.253502
O O7 0.913857 0.037099 0.479747
O O8 0.119080 0.013056 0.024916
O O9 0.813307 0.672918 0.365509
O O10 0.000000 0.500000 0.000000
O O11 0.669465 0.516340 0.897943
O O12 0.741705 0.804948 0.723544
O O13 0.765860 0.208836 0.323971
O O14 0.781072 0.299125 0.541134
O O15 0.788020 0.996967 0.450054
#
# Coordination Sequence:
#
# PCOD9249200 Si02
#       7
#     4   4   4   4   4   4   4
#     4  12  27  45  72 114 157 210 276 330 400 464
#     4  10  23  48  76 113 154 198 254 330 404 491
#     4  10  22  49  78 116 152 199 263 328 407 490
#     4  11  26  47  72 105 161 209 264 331 397 470
#     4  12  25  46  74 112 157 207 270 329 389 480
#     4  11  25  47  72 112 155 212 263 319 402 470
#     4  10  24  45  77 106 152 206 262 322 404 475
#
# _framework density 26.081230000000001
#
# number of rings (size 3 to 8) (size 9 to 14) (size 15 to 20)
#    0.000    1.143    2.857    1.714    6.000    2.286 
#   15.429    3.571    0.000    0.000    0.000    0.000 
#    0.000    0.000    0.000    0.000    0.000    0.000 
#
# Total GULP energy -156692.831080 kJ/mol
# GULP energy per Si atom -5596.172539 kJ/mol
# Density = 2.602187 g / cm^3
# Si number density = 26.081230 Si / 1000 Ang^3
#
#
#
# Elastic Constant Matrix: (Units=GPa)
#
#
# Indices 1 2 3 4 5 6 
#
# 1 160.7490 70.1241 74.1040 0.0000 23.2882 0.0000
# 2 70.1241 134.4419 92.3823 0.0000 3.7126 0.0000
# 3 74.1040 92.3823 109.7486 0.0000 1.1166 0.0000
# 4 0.0000 0.0000 0.0000 57.9175 0.0000 14.8220
# 5 23.2882 3.7126 1.1166 0.0000 43.1518 0.0000
# 6 0.0000 0.0000 0.0000 14.8220 0.0000 58.4039
#
#
#
# Elastic Compliance Matrix: (Units=1/GPa)
#
#
# Indices 1 2 3 4 5 6 
#
# 1 0.010179 -0.001135 -0.005865 0.000000 -0.005244 0.000000
# 2 -0.001135 0.017826 -0.014233 0.000000 -0.000553 0.000000
# 3 -0.005865 -0.014233 0.025015 0.000000 0.003742 0.000000
# 4 0.000000 0.000000 0.000000 0.018465 0.000000 -0.004686
# 5 -0.005244 -0.000553 0.003742 0.000000 0.025955 0.000000
# 6 0.000000 0.000000 0.000000 -0.004686 0.000000 0.018311
#
#
# Mechanical properties :
#
#
# Convention : Reuss Voigt Hill
#
# Bulk Modulus (GPa) = 94.74797 97.57336 96.16066
# Shear Modulus (GPa) = 30.91495 43.11658 37.01577
#
# Velocity S-wave (km/s) = 3.44660 4.07032 3.77138
# Velocity P-wave (km/s) = 7.22812 7.71898 7.47757
#
# Compressibility (1/GPa) = 0.01055432
#
# Stress axis : x y z
#
# Youngs Moduli (GPa) = 98.24023 56.09886 39.97671
#
# Poissons Ratio (x) = 0.06365 0.23445
# Poissons Ratio (y) = 0.11147 0.56900
# Poissons Ratio (z) = 0.57614 0.79847
#
# Static dielectric constant tensor:
#      x y z
#    x 2.245080 0.000000 0.086590 
#    y 0.000000 2.093870 0.000000 
#    z 0.086590 0.000000 2.122290 
# 
# From -- ./inp_files/36133.got.cif
#   From: 2010.05.17/outbox.cif.g08.bks.cpg/sg14_19_cif.got.tgz:36133.got - 2010.06.03 17:49:19.
