data_PCOD9249557
_publ_section_title
;
Structure prediction by ZEFSAII (Michael W. Deem and Ramdas Pophale) SiO2 
 PCOD9249557
Probable space group: P 21/C
;
_chemical_formula_sum "Si O2"
_cell_formula_units_Z 28
_cell_length_a 19.702648
_cell_length_b 15.831322
_cell_length_c 13.199544
_cell_angle_alpha 90.000000
_cell_angle_beta 161.166990
_cell_angle_gamma 90.000000
_cell_volume 1329.073763
_symmetry_space_group_name_H-M "P 21/C"
_symmetry_group_IT_number 14
_symmetry_cell_setting 'monoclinic'
loop_
_space_group_symop_operation_xyz
x,y,z
-x,1/2+y,1/2-z
-x,-y,-z
x,1/2-y,1/2+z
loop_
_atom_site_type_symbol
_atom_site_label
_atom_site_fract_x
_atom_site_fract_y
_atom_site_fract_z
Si Si1 0.522351 0.518278 0.911597
Si Si2 0.472787 0.821482 0.058714
Si Si3 0.711823 0.009433 0.234004
Si Si4 0.243749 0.853932 0.267075
Si Si5 0.732390 0.832382 0.219703
Si Si6 0.775451 0.663265 0.169132
Si Si7 0.094486 0.589586 0.333929
O O1 0.384383 0.567503 0.002523
O O2 0.293653 0.551880 0.556801
O O3 0.500000 0.500000 0.000000
O O4 0.681163 0.594153 0.112037
O O5 0.572672 0.816395 0.087380
O O6 0.660859 0.849175 0.399325
O O7 0.373189 0.732489 0.948008
O O8 0.297470 0.895218 0.816141
O O9 0.703386 0.930011 0.144774
O O10 0.917437 0.984182 0.589503
O O11 0.500000 0.000000 0.000000
O O12 0.172097 0.876709 0.051047
O O13 0.025154 0.845584 0.016896
O O14 0.715405 0.757463 0.118113
O O15 0.969009 0.836307 0.599607
#
# Coordination Sequence:
#
# PCOD9249557 Si02
#       7
#     4   4   4   4   4   4   4
#     4  10  23  42  66  93 132 174 221 274 331 396
#     4  11  23  41  67  99 135 171 223 278 329 398
#     4   8  17  38  65  91 122 167 217 264 324 386
#     4  11  23  42  63 100 133 172 223 277 334 394
#     4   9  20  41  65  94 130 173 223 267 336 394
#     4  12  24  42  66  94 137 178 221 279 329 397
#     4   9  19  42  68  91 133 166 225 270 332 390
#
# _framework density 21.067302999999999
#
# number of rings (size 3 to 8) (size 9 to 14) (size 15 to 20)
#    0.857    1.143    1.429    2.143    2.000    2.286 
#    5.143    4.286    0.000    0.000    0.000    0.000 
#    0.000    0.000    0.000    0.000    0.000    0.000 
#
# Total GULP energy -156118.415962 kJ/mol
# GULP energy per Si atom -5575.657713 kJ/mol
# Density = 2.101935 g / cm^3
# Si number density = 21.067303 Si / 1000 Ang^3
#
#
#
# Elastic Constant Matrix: (Units=GPa)
#
#
# Indices 1 2 3 4 5 6 
#
# 1 47.4390 15.1957 23.7242 0.0000 9.5151 0.0000
# 2 15.1957 144.6599 40.1799 0.0000 20.6089 0.0000
# 3 23.7242 40.1799 91.4088 0.0000 24.8795 0.0000
# 4 0.0000 0.0000 0.0000 41.9696 0.0000 9.8498
# 5 9.5151 20.6089 24.8795 0.0000 34.7278 0.0000
# 6 0.0000 0.0000 0.0000 9.8498 0.0000 15.9184
#
#
#
# Elastic Compliance Matrix: (Units=1/GPa)
#
#
# Indices 1 2 3 4 5 6 
#
# 1 0.024488 -0.000735 -0.005373 0.000000 -0.002424 0.000000
# 2 -0.000735 0.008109 -0.002632 0.000000 -0.002725 0.000000
# 3 -0.005373 -0.002632 0.015733 0.000000 -0.008238 0.000000
# 4 0.000000 0.000000 0.000000 0.027875 0.000000 -0.017248
# 5 -0.002424 -0.002725 -0.008238 0.000000 0.036978 0.000000
# 6 0.000000 0.000000 0.000000 -0.017248 0.000000 0.073493
#
#
# Mechanical properties :
#
#
# Convention : Reuss Voigt Hill
#
# Bulk Modulus (GPa) = 32.41308 49.07860 40.74584
# Shear Modulus (GPa) = 23.31659 32.15037 27.73348
#
# Velocity S-wave (km/s) = 3.33042 3.91074 3.63219
# Velocity P-wave (km/s) = 5.49616 6.61351 6.08056
#
# Compressibility (1/GPa) = 0.03085174
#
# Stress axis : x y z
#
# Youngs Moduli (GPa) = 40.83588 123.31555 63.55914
#
# Poissons Ratio (x) = 0.09059 0.34150
# Poissons Ratio (y) = 0.03000 0.16729
# Poissons Ratio (z) = 0.21941 0.32457
#
# Static dielectric constant tensor:
#      x y z
#    x 1.790630 0.000000 -0.028250 
#    y 0.000000 1.772290 0.000000 
#    z -0.028250 0.000000 1.783060 
# 
# From -- ./inp_files/50761.got.cif
#   From: 2010.05.17/outbox.cif.g08.bks.cpg/sg14_26_cif.got.tgz:50761.got - 2010.06.03 17:49:19.
