data_PCOD9249753
_publ_section_title
;
Structure prediction by ZEFSAII (Michael W. Deem and Ramdas Pophale) SiO2 
 PCOD9249753
Probable space group: P 21/C
;
_chemical_formula_sum "Si O2"
_cell_formula_units_Z 28
_cell_length_a 31.054847
_cell_length_b 8.605359
_cell_length_c 30.790840
_cell_angle_alpha 90.000000
_cell_angle_beta 170.925741
_cell_angle_gamma 90.000000
_cell_volume 1297.751035
_symmetry_space_group_name_H-M "P 21/C"
_symmetry_group_IT_number 14
_symmetry_cell_setting 'monoclinic'
loop_
_space_group_symop_operation_xyz
x,y,z
-x,1/2+y,1/2-z
-x,-y,-z
x,1/2-y,1/2+z
loop_
_atom_site_type_symbol
_atom_site_label
_atom_site_fract_x
_atom_site_fract_y
_atom_site_fract_z
Si Si1 0.875967 0.760901 0.061591
Si Si2 0.000764 0.527648 0.757709
Si Si3 0.197130 0.592248 0.246083
Si Si4 0.369620 0.643818 0.744227
Si Si5 0.705738 0.121572 0.253533
Si Si6 0.605733 0.197007 0.479408
Si Si7 0.130726 0.185429 0.315516
O O1 0.018735 0.616904 0.228928
O O2 0.798289 0.890896 0.020614
O O3 0.112505 0.818284 0.265636
O O4 0.613948 0.721636 0.771584
O O5 0.202554 0.445164 0.923478
O O6 0.019591 0.673281 0.808879
O O7 0.189998 0.665423 0.190805
O O8 0.402986 0.446959 0.447840
O O9 0.320173 0.706690 0.404124
O O10 0.905409 0.518592 0.967430
O O11 0.304605 0.741871 0.722190
O O12 0.484477 0.472683 0.868481
O O13 0.094769 0.631738 0.443089
O O14 0.599163 0.726378 0.942452
#
# Coordination Sequence:
#
# PCOD9249753 Si02
#       7
#     4   4   4   4   4   4   4
#     4  11  25  41  64  92 129 171 217 270 320 384
#     4  10  24  44  62  90 128 174 218 268 324 380
#     4  10  23  43  68  97 129 167 214 266 325 400
#     4  12  24  42  64  97 132 167 215 269 325 388
#     4  10  23  43  68  97 129 167 214 266 325 400
#     4  12  24  42  64  97 132 167 215 269 325 388
#     4  11  25  41  64  92 129 171 217 270 320 384
#
# _framework density 21.575786999999998
#
# number of rings (size 3 to 8) (size 9 to 14) (size 15 to 20)
#    0.000    1.143    2.857    1.714    6.000    7.429 
#    0.000    0.000    0.000    8.571    0.000    0.000 
#    0.000    0.000    0.000    0.000    0.000    0.000 
#
# Total GULP energy -156068.058474 kJ/mol
# GULP energy per Si atom -5573.859231 kJ/mol
# Density = 2.152668 g / cm^3
# Si number density = 21.575787 Si / 1000 Ang^3
#
#
#
# Elastic Constant Matrix: (Units=GPa)
#
#
# Indices 1 2 3 4 5 6 
#
# 1 141.9964 71.4607 40.2469 0.0000 -12.3930 0.0000
# 2 71.4607 79.7128 21.0507 0.0000 -13.6862 0.0000
# 3 40.2469 21.0507 131.6039 0.0000 -43.0572 0.0000
# 4 0.0000 0.0000 0.0000 18.5613 0.0000 -4.6222
# 5 -12.3930 -13.6862 -43.0572 0.0000 108.8603 0.0000
# 6 0.0000 0.0000 0.0000 -4.6222 0.0000 39.5886
#
#
#
# Elastic Compliance Matrix: (Units=1/GPa)
#
#
# Indices 1 2 3 4 5 6 
#
# 1 0.013541 -0.011617 -0.002592 0.000000 -0.000944 0.000000
# 2 -0.011617 0.023149 0.000424 0.000000 0.001756 0.000000
# 3 -0.002592 0.000424 0.009470 0.000000 0.003504 0.000000
# 4 0.000000 0.000000 0.000000 0.055489 0.000000 0.006479
# 5 -0.000944 0.001756 0.003504 0.000000 0.010685 0.000000
# 6 0.000000 0.000000 0.000000 0.006479 0.000000 0.026016
#
#
# Mechanical properties :
#
#
# Convention : Reuss Voigt Hill
#
# Bulk Modulus (GPa) = 53.79052 68.75887 61.27469
# Shear Modulus (GPa) = 29.05044 48.10570 38.57807
#
# Velocity S-wave (km/s) = 3.67336 4.72700 4.23309
# Velocity P-wave (km/s) = 6.55565 7.85687 7.23557
#
# Compressibility (1/GPa) = 0.01859064
#
# Stress axis : x y z
#
# Youngs Moduli (GPa) = 73.85072 43.19924 105.60055
#
# Poissons Ratio (x) = 0.50183 0.27369
# Poissons Ratio (y) = 0.85790 -0.04480
# Poissons Ratio (z) = 0.19140 -0.01833
#
# Static dielectric constant tensor:
#      x y z
#    x 1.805420 0.000000 0.001530 
#    y 0.000000 1.814950 0.000000 
#    z 0.001530 0.000000 1.777790 
# 
# From -- ./inp_files/80985.got.cif
#   From: 2010.05.17/outbox.cif.g08.bks.cpg/sg14_41_cif.got.tgz:80985.got - 2010.06.03 17:49:19.
