data_PCOD9249737
_publ_section_title
;
Structure prediction by ZEFSAII (Michael W. Deem and Ramdas Pophale) SiO2 
 PCOD9249737
Probable space group: P 21/C
;
_chemical_formula_sum "Si O2"
_cell_formula_units_Z 24
_cell_length_a 14.640456
_cell_length_b 5.270991
_cell_length_c 26.888469
_cell_angle_alpha 90.000000
_cell_angle_beta 153.031864
_cell_angle_gamma 90.000000
_cell_volume 940.990789
_symmetry_space_group_name_H-M "P 21/C"
_symmetry_group_IT_number 14
_symmetry_cell_setting 'monoclinic'
loop_
_space_group_symop_operation_xyz
x,y,z
-x,1/2+y,1/2-z
-x,-y,-z
x,1/2-y,1/2+z
loop_
_atom_site_type_symbol
_atom_site_label
_atom_site_fract_x
_atom_site_fract_y
_atom_site_fract_z
Si Si1 0.970418 0.066571 0.261418
Si Si2 0.490618 0.821995 0.850951
Si Si3 0.464329 0.750291 0.450456
Si Si4 0.043703 0.415637 0.138434
Si Si5 0.227458 0.459916 0.669199
Si Si6 0.153591 0.251843 0.036223
O O1 0.773475 0.236129 0.174554
O O2 0.092866 0.297059 0.294982
O O3 0.046091 0.975019 0.351557
O O4 0.552274 0.767544 0.937631
O O5 0.429251 0.574624 0.788669
O O6 0.275466 0.971161 0.748117
O O7 0.684005 0.922336 0.914709
O O8 0.500000 0.500000 0.500000
O O9 0.500000 0.000000 0.500000
O O10 0.094417 0.125380 0.151904
O O11 0.892179 0.515749 0.022881
O O12 0.242635 0.240131 0.635168
O O13 0.078773 0.659068 0.570865
#
# Coordination Sequence:
#
# PCOD9249737 Si02
#       6
#     4   4   4   4   4   4
#     4  11  26  43  72 101 138 186 232 290 352 412
#     4  10  25  41  66 100 135 177 228 282 352 408
#     4  11  26  45  68 102 143 181 238 289 345 423
#     4  10  24  42  68  96 139 171 234 281 346 419
#     4  10  23  44  68  97 138 171 230 285 345 423
#     4  10  23  43  68 100 131 179 223 284 350 419
#
# _framework density 25.505033999999998
#
# number of rings (size 3 to 8) (size 9 to 14) (size 15 to 20)
#    0.000    1.667    0.000    1.500   18.667    1.333 
#    0.000    0.000    0.000    0.000    0.000    0.000 
#    0.000    0.000    0.000    0.000    0.000    0.000 
#
# Total GULP energy -133717.245584 kJ/mol
# GULP energy per Si atom -5571.551899 kJ/mol
# Density = 2.544698 g / cm^3
# Si number density = 25.505034 Si / 1000 Ang^3
#
#
#
# Elastic Constant Matrix: (Units=GPa)
#
#
# Indices 1 2 3 4 5 6 
#
# 1 124.8651 38.5238 48.2149 0.0000 -34.4428 0.0000
# 2 38.5238 86.5220 16.8442 0.0000 -25.1788 0.0000
# 3 48.2149 16.8442 88.8151 0.0000 -18.4923 0.0000
# 4 0.0000 0.0000 0.0000 32.7104 0.0000 6.4097
# 5 -34.4428 -25.1788 -18.4923 0.0000 52.8859 0.0000
# 6 0.0000 0.0000 0.0000 6.4097 0.0000 27.9775
#
#
#
# Elastic Compliance Matrix: (Units=1/GPa)
#
#
# Indices 1 2 3 4 5 6 
#
# 1 0.012216 -0.003080 -0.005065 0.000000 0.004719 0.000000
# 2 -0.003080 0.014336 -0.000047 0.000000 0.004803 0.000000
# 3 -0.005065 -0.000047 0.014373 0.000000 0.001705 0.000000
# 4 0.000000 0.000000 0.000000 0.032008 0.000000 -0.007333
# 5 0.004719 0.004803 0.001705 0.000000 0.024864 0.000000
# 6 0.000000 0.000000 0.000000 -0.007333 0.000000 0.037423
#
#
# Mechanical properties :
#
#
# Convention : Reuss Voigt Hill
#
# Bulk Modulus (GPa) = 40.74810 56.37424 48.56117
# Shear Modulus (GPa) = 31.29193 35.82270 33.55732
#
# Velocity S-wave (km/s) = 3.50650 3.75178 3.63121
# Velocity P-wave (km/s) = 5.69256 6.39679 6.05492
#
# Compressibility (1/GPa) = 0.02454102
#
# Stress axis : x y z
#
# Youngs Moduli (GPa) = 81.85743 69.75458 69.57536
#
# Poissons Ratio (x) = 0.21485 0.35242
# Poissons Ratio (y) = 0.25213 0.00326
# Poissons Ratio (z) = 0.41463 0.00326
#
# Static dielectric constant tensor:
#      x y z
#    x 2.257820 0.000000 0.120080 
#    y 0.000000 2.364570 0.000000 
#    z 0.120080 0.000000 2.095400 
# 
# From -- ./inp_files/77444.got.cif
#   From: 2010.05.17/outbox.cif.g08.bks.cpg/sg14_39_cif.got.tgz:77444.got - 2010.06.03 17:49:19.
