data_PCOD9249489
_publ_section_title
;
Structure prediction by ZEFSAII (Michael W. Deem and Ramdas Pophale) SiO2 
 PCOD9249489
Probable space group: P 21/C
;
_chemical_formula_sum "Si O2"
_cell_formula_units_Z 24
_cell_length_a 25.732678
_cell_length_b 5.465896
_cell_length_c 12.786981
_cell_angle_alpha 90.000000
_cell_angle_beta 34.222546
_cell_angle_gamma 90.000000
_cell_volume 1011.501360
_symmetry_space_group_name_H-M "P 21/C"
_symmetry_group_IT_number 14
_symmetry_cell_setting 'monoclinic'
loop_
_space_group_symop_operation_xyz
x,y,z
-x,1/2+y,1/2-z
-x,-y,-z
x,1/2-y,1/2+z
loop_
_atom_site_type_symbol
_atom_site_label
_atom_site_fract_x
_atom_site_fract_y
_atom_site_fract_z
Si Si1 0.970690 0.674399 0.141468
Si Si2 0.372105 0.497860 0.904174
Si Si3 0.420221 0.515973 0.218820
Si Si4 0.894613 0.392223 0.449282
Si Si5 0.208074 0.493453 0.024359
Si Si6 0.703315 0.884656 0.251110
O O1 0.969191 0.522757 0.252032
O O2 0.869902 0.797355 0.307344
O O3 0.056049 0.851065 0.022479
O O4 0.000000 0.500000 0.000000
O O5 0.411918 0.243647 0.791600
O O6 0.426297 0.744185 0.781090
O O7 0.270590 0.544596 0.021793
O O8 0.361598 0.451115 0.044791
O O9 0.328275 0.533055 0.298927
O O10 0.500000 0.500000 0.000000
O O11 0.806323 0.558962 0.615634
O O12 0.850808 0.184059 0.446354
O O13 0.284944 0.387604 0.814014
#
# Coordination Sequence:
#
# PCOD9249489 Si02
#       6
#     4   4   4   4   4   4
#     4  11  25  37  61  89 126 180 223 279 332 381
#     4  11  25  43  72  97 132 180 214 265 342 396
#     4  11  25  46  69 104 136 164 218 275 327 409
#     4  11  22  41  57  88 129 164 225 274 323 380
#     4  10  23  42  58  92 131 167 227 275 320 388
#     4  10  25  41  67  93 128 176 216 274 331 398
#
# _framework density 23.727105000000002
#
# number of rings (size 3 to 8) (size 9 to 14) (size 15 to 20)
#    0.000    1.333    3.333    0.500    7.000    2.000 
#    0.000    0.000    0.000    0.000    0.000    0.000 
#    0.000    0.000    0.000    0.000    0.000    0.000 
#
# Total GULP energy -133949.258521 kJ/mol
# GULP energy per Si atom -5581.219105 kJ/mol
# Density = 2.367310 g / cm^3
# Si number density = 23.727105 Si / 1000 Ang^3
#
#
#
# Elastic Constant Matrix: (Units=GPa)
#
#
# Indices 1 2 3 4 5 6 
#
# 1 70.5999 -1.9345 3.3265 0.0000 -7.3749 0.0000
# 2 -1.9345 81.7223 19.3318 0.0000 13.7782 0.0000
# 3 3.3265 19.3318 64.7218 0.0000 12.7403 0.0000
# 4 0.0000 0.0000 0.0000 18.5280 0.0000 2.8435
# 5 -7.3749 13.7782 12.7403 0.0000 36.6900 0.0000
# 6 0.0000 0.0000 0.0000 2.8435 0.0000 8.6442
#
#
#
# Elastic Compliance Matrix: (Units=1/GPa)
#
#
# Indices 1 2 3 4 5 6 
#
# 1 0.014590 0.000117 -0.001453 0.000000 0.003393 0.000000
# 2 0.000117 0.013692 -0.003315 0.000000 -0.003967 0.000000
# 3 -0.001453 -0.003315 0.017526 0.000000 -0.005133 0.000000
# 4 0.000000 0.000000 0.000000 0.056842 0.000000 -0.018698
# 5 0.003393 -0.003967 -0.005133 0.000000 0.031210 0.000000
# 6 0.000000 0.000000 0.000000 -0.018698 0.000000 0.121835
#
#
# Mechanical properties :
#
#
# Convention : Reuss Voigt Hill
#
# Bulk Modulus (GPa) = 27.39175 28.72129 28.05652
# Shear Modulus (GPa) = 18.03971 25.86044 21.95008
#
# Velocity S-wave (km/s) = 2.76034 3.30496 3.04485
# Velocity P-wave (km/s) = 4.66143 5.16670 4.92055
#
# Compressibility (1/GPa) = 0.03650735
#
# Stress axis : x y z
#
# Youngs Moduli (GPa) = 68.53793 73.03343 57.05833
#
# Poissons Ratio (x) = -0.00854 0.08289
# Poissons Ratio (y) = -0.00801 0.18914
# Poissons Ratio (z) = 0.09957 0.24209
#
# Static dielectric constant tensor:
#      x y z
#    x 1.964550 0.000000 -0.065110 
#    y 0.000000 1.909140 0.000000 
#    z -0.065110 0.000000 1.926790 
# 
# From -- ./inp_files/45713.got.cif
#   From: 2010.05.17/outbox.cif.g08.bks.cpg/sg14_23_cif.got.tgz:45713.got - 2010.06.03 17:49:19.
