data_PCOD9249967
_publ_section_title
;
Structure prediction by ZEFSAII (Michael W. Deem and Ramdas Pophale) SiO2 
 PCOD9249967
Probable space group: P 21/C
;
_chemical_formula_sum "Si O2"
_cell_formula_units_Z 28
_cell_length_a 15.003717
_cell_length_b 12.016702
_cell_length_c 8.795422
_cell_angle_alpha 90.000000
_cell_angle_beta 52.716951
_cell_angle_gamma 90.000000
_cell_volume 1261.724084
_symmetry_space_group_name_H-M "P 21/C"
_symmetry_group_IT_number 14
_symmetry_cell_setting 'monoclinic'
loop_
_space_group_symop_operation_xyz
x,y,z
-x,1/2+y,1/2-z
-x,-y,-z
x,1/2-y,1/2+z
loop_
_atom_site_type_symbol
_atom_site_label
_atom_site_fract_x
_atom_site_fract_y
_atom_site_fract_z
Si Si1 0.621816 0.561136 0.351042
Si Si2 0.720915 0.695469 0.728354
Si Si3 0.883996 0.733480 0.818625
Si Si4 0.403673 0.037098 0.460954
Si Si5 0.980370 0.371566 0.049664
Si Si6 0.274359 0.636544 0.600828
Si Si7 0.613749 0.329181 0.825910
O O1 0.500000 0.500000 0.500000
O O2 0.645840 0.693986 0.342849
O O3 0.655197 0.541891 0.140484
O O4 0.699869 0.491093 0.382312
O O5 0.822193 0.676533 0.742126
O O6 0.780242 0.705654 0.507287
O O7 0.648914 0.587515 0.831211
O O8 0.940494 0.661343 0.890620
O O9 0.976614 0.809703 0.645304
O O10 0.507837 0.123185 0.335941
O O11 0.405630 0.908944 0.506898
O O12 0.853363 0.340884 0.220464
O O13 0.000000 0.500000 0.000000
O O14 0.357131 0.712333 0.621656
O O15 0.292576 0.657642 0.402552
#
# Coordination Sequence:
#
# PCOD9249967 Si02
#       7
#     4   4   4   4   4   4   4
#     4  12  24  43  70 103 139 183 230 283 354 429
#     4  11  23  41  71  96 139 179 229 283 345 413
#     4  10  23  45  65 104 130 184 236 286 346 423
#     4  11  25  42  64 102 138 178 229 272 345 429
#     4  11  25  45  72 100 140 179 241 300 360 417
#     4  12  24  45  70  96 140 181 225 291 355 405
#     4  11  26  42  66  99 139 180 224 277 347 430
#
# _framework density 22.191856999999999
#
# number of rings (size 3 to 8) (size 9 to 14) (size 15 to 20)
#    0.000    0.857    2.857    4.286    4.000    0.000 
#    0.000    1.429    0.000    0.000    0.000    0.000 
#    0.000    0.000    0.000    0.000    0.000    0.000 
#
# Total GULP energy -155932.335455 kJ/mol
# GULP energy per Si atom -5569.011981 kJ/mol
# Density = 2.214135 g / cm^3
# Si number density = 22.191857 Si / 1000 Ang^3
#
#
#
# Elastic Constant Matrix: (Units=GPa)
#
#
# Indices 1 2 3 4 5 6 
#
# 1 53.0724 22.0350 14.8535 0.0000 6.1460 0.0000
# 2 22.0350 83.6895 15.0036 0.0000 4.6226 0.0000
# 3 14.8535 15.0036 108.2445 0.0000 -9.6026 0.0000
# 4 0.0000 0.0000 0.0000 17.2418 0.0000 4.1163
# 5 6.1460 4.6226 -9.6026 0.0000 51.2685 0.0000
# 6 0.0000 0.0000 0.0000 4.1163 0.0000 27.1105
#
#
#
# Elastic Compliance Matrix: (Units=1/GPa)
#
#
# Indices 1 2 3 4 5 6 
#
# 1 0.022015 -0.005196 -0.002536 0.000000 -0.002646 0.000000
# 2 -0.005196 0.013586 -0.001244 0.000000 -0.000835 0.000000
# 3 -0.002536 -0.001244 0.009961 0.000000 0.002282 0.000000
# 4 0.000000 0.000000 0.000000 0.060180 0.000000 -0.009137
# 5 -0.002646 -0.000835 0.002282 0.000000 0.020325 0.000000
# 6 0.000000 0.000000 0.000000 -0.009137 0.000000 0.038273
#
#
# Mechanical properties :
#
#
# Convention : Reuss Voigt Hill
#
# Bulk Modulus (GPa) = 36.21677 38.75450 37.48564
# Shear Modulus (GPa) = 26.11019 31.99846 29.05433
#
# Velocity S-wave (km/s) = 3.43383 3.80136 3.62226
# Velocity P-wave (km/s) = 5.66365 6.06369 5.86708
#
# Compressibility (1/GPa) = 0.02761152
#
# Stress axis : x y z
#
# Youngs Moduli (GPa) = 45.42273 73.60433 100.38981
#
# Poissons Ratio (x) = 0.38244 0.25454
# Poissons Ratio (y) = 0.23601 0.12491
# Poissons Ratio (z) = 0.11517 0.09158
#
# Static dielectric constant tensor:
#      x y z
#    x 1.844480 0.000000 -0.061400 
#    y 0.000000 1.814220 0.000000 
#    z -0.061400 0.000000 1.776810 
# 
# From -- ./inp_files/15678.got.cif
#   From: 2010.05.17/outbox.cif.g08.bks.cpg/sg14_8_cif.got.tgz:15678.got - 2010.06.03 17:49:19.
