data_PCOD9249722
_publ_section_title
;
Structure prediction by ZEFSAII (Michael W. Deem and Ramdas Pophale) SiO2 
 PCOD9249722
Probable space group: P 21/C
;
_chemical_formula_sum "Si O2"
_cell_formula_units_Z 24
_cell_length_a 7.420294
_cell_length_b 19.718905
_cell_length_c 8.020058
_cell_angle_alpha 90.000000
_cell_angle_beta 124.054878
_cell_angle_gamma 90.000000
_cell_volume 972.242868
_symmetry_space_group_name_H-M "P 21/C"
_symmetry_group_IT_number 14
_symmetry_cell_setting 'monoclinic'
loop_
_space_group_symop_operation_xyz
x,y,z
-x,1/2+y,1/2-z
-x,-y,-z
x,1/2-y,1/2+z
loop_
_atom_site_type_symbol
_atom_site_label
_atom_site_fract_x
_atom_site_fract_y
_atom_site_fract_z
Si Si1 0.107738 0.906327 0.391580
Si Si2 0.200233 0.328910 0.803437
Si Si3 0.193729 0.474217 0.723333
Si Si4 0.642108 0.564876 0.538604
Si Si5 0.054256 0.776064 0.133723
Si Si6 0.417415 0.829080 0.761764
O O1 0.076813 0.835293 0.279722
O O2 0.233095 0.885356 0.620833
O O3 0.865337 0.937512 0.258600
O O4 0.251038 0.959966 0.359670
O O5 0.169708 0.408573 0.829007
O O6 0.425045 0.317421 0.817496
O O7 0.013842 0.312393 0.571218
O O8 0.138154 0.277032 0.917557
O O9 0.334848 0.442820 0.649369
O O10 0.000000 0.500000 0.500000
O O11 0.500000 0.500000 0.500000
O O12 0.540645 0.640095 0.487195
O O13 0.279522 0.737071 0.231529
#
# Coordination Sequence:
#
# PCOD9249722 Si02
#       6
#     4   4   4   4   4   4
#     4  11  23  44  67  99 133 179 233 277 347 416
#     4  11  25  45  67 101 137 180 232 282 349 417
#     4   9  19  42  67  88 136 175 215 281 340 396
#     4  10  23  43  67 100 135 175 229 282 344 419
#     4  12  24  44  68 101 140 178 232 290 344 418
#     4  11  26  44  70 100 138 180 231 285 348 416
#
# _framework density 24.685189999999999
#
# number of rings (size 3 to 8) (size 9 to 14) (size 15 to 20)
#    0.000    1.333    6.667    0.000    7.000    3.333 
#    6.000    0.000    0.000    0.000    0.000    0.000 
#    0.000    0.000    0.000    0.000    0.000    0.000 
#
# Total GULP energy -133979.129912 kJ/mol
# GULP energy per Si atom -5582.463746 kJ/mol
# Density = 2.462901 g / cm^3
# Si number density = 24.685190 Si / 1000 Ang^3
#
#
#
# Elastic Constant Matrix: (Units=GPa)
#
#
# Indices 1 2 3 4 5 6 
#
# 1 74.6107 35.2039 -4.4912 0.0000 22.3190 0.0000
# 2 35.2039 135.1104 -8.7707 0.0000 9.6479 0.0000
# 3 -4.4912 -8.7707 48.4194 0.0000 17.7896 0.0000
# 4 0.0000 0.0000 0.0000 41.0382 0.0000 2.9512
# 5 22.3190 9.6479 17.7896 0.0000 30.2248 0.0000
# 6 0.0000 0.0000 0.0000 2.9512 0.0000 46.8701
#
#
#
# Elastic Compliance Matrix: (Units=1/GPa)
#
#
# Indices 1 2 3 4 5 6 
#
# 1 0.021583 -0.003645 0.008638 0.000000 -0.019858 0.000000
# 2 -0.003645 0.008519 0.001551 0.000000 -0.000940 0.000000
# 3 0.008638 0.001551 0.030954 0.000000 -0.025092 0.000000
# 4 0.000000 0.000000 0.000000 0.024478 0.000000 -0.001541
# 5 -0.019858 -0.000940 -0.025092 0.000000 0.062818 0.000000
# 6 0.000000 0.000000 0.000000 -0.001541 0.000000 0.021433
#
#
# Mechanical properties :
#
#
# Convention : Reuss Voigt Hill
#
# Bulk Modulus (GPa) = 13.48756 33.55830 23.52293
# Shear Modulus (GPa) = 27.56156 39.37319 33.46738
#
# Velocity S-wave (km/s) = 3.34507 3.99809 3.68607
# Velocity P-wave (km/s) = 4.51608 5.91075 5.25985
#
# Compressibility (1/GPa) = 0.07414238
#
# Stress axis : x y z
#
# Youngs Moduli (GPa) = 46.33291 117.38678 32.30612
#
# Poissons Ratio (x) = 0.42786 -0.27905
# Poissons Ratio (y) = 0.16888 -0.05009
# Poissons Ratio (z) = -0.40021 -0.18201
#
# Static dielectric constant tensor:
#      x y z
#    x 2.127120 0.000000 -0.028450 
#    y 0.000000 2.296200 0.000000 
#    z -0.028450 0.000000 2.031970 
# 
# From -- ./inp_files/10291.got.cif
#   From: 2010.05.17/outbox.cif.g08.bks.cpg/sg14_6_cif.got.tgz:10291.got - 2010.06.03 17:49:19.
