data_PCOD9249113
_publ_section_title
;
Structure prediction by ZEFSAII (Michael W. Deem and Ramdas Pophale) SiO2 
 PCOD9249113
Probable space group: P 21/C
;
_chemical_formula_sum "Si O2"
_cell_formula_units_Z 32
_cell_length_a 6.101186
_cell_length_b 7.997938
_cell_length_c 29.087606
_cell_angle_alpha 90.000000
_cell_angle_beta 110.793375
_cell_angle_gamma 90.000000
_cell_volume 1326.936015
_symmetry_space_group_name_H-M "P 21/C"
_symmetry_group_IT_number 14
_symmetry_cell_setting 'monoclinic'
loop_
_space_group_symop_operation_xyz
x,y,z
-x,1/2+y,1/2-z
-x,-y,-z
x,1/2-y,1/2+z
loop_
_atom_site_type_symbol
_atom_site_label
_atom_site_fract_x
_atom_site_fract_y
_atom_site_fract_z
Si Si1 0.569709 0.407894 0.290241
Si Si2 0.641474 0.384279 0.043830
Si Si3 0.234806 0.847035 0.811455
Si Si4 0.993489 0.495011 0.383936
Si Si5 0.235910 0.380399 0.771473
Si Si6 0.042698 0.646100 0.073453
Si Si7 0.932437 0.167687 0.020490
Si Si8 0.481485 0.534491 0.865174
O O1 0.340443 0.512633 0.286451
O O2 0.714424 0.460158 0.256611
O O3 0.469873 0.224719 0.279074
O O4 0.746248 0.446704 0.344112
O O5 0.674313 0.206909 0.021701
O O6 0.531466 0.391443 0.084962
O O7 0.887973 0.480348 0.067268
O O8 0.500000 0.500000 0.000000
O O9 0.434625 0.705626 0.833198
O O10 0.992504 0.796335 0.767637
O O11 0.155402 0.925858 0.855412
O O12 0.948794 0.631715 0.420833
O O13 0.067201 0.313199 0.410690
O O14 0.263302 0.425466 0.827500
O O15 0.292230 0.587378 0.114042
O O16 0.046207 0.695782 0.019118
O O17 0.000000 0.000000 0.000000
#
# Coordination Sequence:
#
# PCOD9249113 Si02
#       8
#     4   4   4   4   4   4   4   4
#     4  11  24  44  71  94 142 181 239 293 364 425
#     4  12  26  44  70 105 140 181 239 289 354 434
#     4  11  25  42  71 101 140 182 243 297 353 436
#     4  10  23  45  65 104 136 184 233 291 358 430
#     4  11  25  45  66 104 137 187 237 297 362 429
#     4  11  25  43  71  99 142 188 228 291 357 430
#     4  10  22  46  70  98 142 178 230 289 352 424
#     4  12  25  44  70 104 142 186 234 296 364 425
#
# _framework density 24.115708000000001
#
# number of rings (size 3 to 8) (size 9 to 14) (size 15 to 20)
#    0.000    1.000    3.750    1.875    3.500    3.000 
#    0.000    1.250    0.000    0.000    0.000    0.000 
#    0.000    0.000    0.000    0.000    0.000    0.000 
#
# Total GULP energy -178145.157415 kJ/mol
# GULP energy per Si atom -5567.036169 kJ/mol
# Density = 2.406082 g / cm^3
# Si number density = 24.115708 Si / 1000 Ang^3
#
#
#
# Elastic Constant Matrix: (Units=GPa)
#
#
# Indices 1 2 3 4 5 6 
#
# 1 45.5308 20.7481 26.8457 0.0000 -0.4566 0.0000
# 2 20.7481 96.1242 24.3973 0.0000 -3.0045 0.0000
# 3 26.8457 24.3973 107.3018 0.0000 3.4772 0.0000
# 4 0.0000 0.0000 0.0000 34.3302 0.0000 -4.9866
# 5 -0.4566 -3.0045 3.4772 0.0000 19.2839 0.0000
# 6 0.0000 0.0000 0.0000 -4.9866 0.0000 46.5288
#
#
#
# Elastic Compliance Matrix: (Units=1/GPa)
#
#
# Indices 1 2 3 4 5 6 
#
# 1 0.027457 -0.004396 -0.005903 0.000000 0.001030 0.000000
# 2 -0.004396 0.011837 -0.001657 0.000000 0.002039 0.000000
# 3 -0.005903 -0.001657 0.011252 0.000000 -0.002427 0.000000
# 4 0.000000 0.000000 0.000000 0.029589 0.000000 0.003171
# 5 0.001030 0.002039 -0.002427 0.000000 0.052636 0.000000
# 6 0.000000 0.000000 0.000000 0.003171 0.000000 0.021832
#
#
# Mechanical properties :
#
#
# Convention : Reuss Voigt Hill
#
# Bulk Modulus (GPa) = 37.54874 43.65987 40.60430
# Shear Modulus (GPa) = 26.68160 31.82630 29.25395
#
# Velocity S-wave (km/s) = 3.32987 3.63675 3.48669
# Velocity P-wave (km/s) = 5.51254 5.98149 5.75180
#
# Compressibility (1/GPa) = 0.02663206
#
# Stress axis : x y z
#
# Youngs Moduli (GPa) = 36.41993 84.48439 88.87323
#
# Poissons Ratio (x) = 0.37140 0.52465
# Poissons Ratio (y) = 0.16011 0.14731
# Poissons Ratio (z) = 0.21500 0.14003
#
# Static dielectric constant tensor:
#      x y z
#    x 1.925510 0.000000 -0.032530 
#    y 0.000000 2.020070 0.000000 
#    z -0.032530 0.000000 1.965020 
# 
# From -- ./inp_files/78840.got.cif
#   From: 2010.05.17/outbox.cif.g08.bks.cpg/sg14_40_cif.got.tgz:78840.got - 2010.06.03 17:49:19.
