data_PCOD9249741
_publ_section_title
;
Structure prediction by ZEFSAII (Michael W. Deem and Ramdas Pophale) SiO2 
 PCOD9249741
Probable space group: P 21/C
;
_chemical_formula_sum "Si O2"
_cell_formula_units_Z 16
_cell_length_a 9.523526
_cell_length_b 4.910565
_cell_length_c 17.142178
_cell_angle_alpha 90.000000
_cell_angle_beta 49.164085
_cell_angle_gamma 90.000000
_cell_volume 606.531201
_symmetry_space_group_name_H-M "P 21/C"
_symmetry_group_IT_number 14
_symmetry_cell_setting 'monoclinic'
loop_
_space_group_symop_operation_xyz
x,y,z
-x,1/2+y,1/2-z
-x,-y,-z
x,1/2-y,1/2+z
loop_
_atom_site_type_symbol
_atom_site_label
_atom_site_fract_x
_atom_site_fract_y
_atom_site_fract_z
Si Si1 0.398165 0.564551 0.318043
Si Si2 0.667844 0.084577 0.992247
Si Si3 0.901590 0.299218 0.776024
Si Si4 0.984468 0.279111 0.077999
O O1 0.490186 0.269755 0.278272
O O2 0.416585 0.691647 0.397245
O O3 0.175240 0.563086 0.388308
O O4 0.764238 0.289487 0.898132
O O5 0.821279 0.856607 0.963344
O O6 0.500000 0.000000 0.000000
O O7 0.886372 0.145469 0.697709
O O8 0.933574 0.613230 0.748744
O O9 0.000000 0.500000 0.000000
#
# Coordination Sequence:
#
# PCOD9249741 Si02
#       4
#     4   4   4   4
#     4  12  27  47  73 107 145 192 249 309 375 455
#     4  11  25  45  71 105 145 191 244 306 376 449
#     4  10  23  43  68 101 139 183 236 297 364 433
#     4  11  24  47  76 107 147 198 251 312 383 459
#
# _framework density 26.379512999999999
#
# number of rings (size 3 to 8) (size 9 to 14) (size 15 to 20)
#    0.000    1.000    0.000    5.250    0.000   16.000 
#    0.000   11.250    0.000    0.000    0.000    0.000 
#    0.000    0.000    0.000    0.000    0.000    0.000 
#
# Total GULP energy -89106.592636 kJ/mol
# GULP energy per Si atom -5569.162040 kJ/mol
# Density = 2.631947 g / cm^3
# Si number density = 26.379513 Si / 1000 Ang^3
#
#
#
# Elastic Constant Matrix: (Units=GPa)
#
#
# Indices 1 2 3 4 5 6 
#
# 1 151.3358 36.8062 30.2549 0.0000 -4.6919 0.0000
# 2 36.8062 112.3743 23.1243 0.0000 -7.7477 0.0000
# 3 30.2549 23.1243 123.0563 0.0000 34.1624 0.0000
# 4 0.0000 0.0000 0.0000 30.3101 0.0000 10.8746
# 5 -4.6919 -7.7477 34.1624 0.0000 71.2980 0.0000
# 6 0.0000 0.0000 0.0000 10.8746 0.0000 31.6575
#
#
#
# Elastic Compliance Matrix: (Units=1/GPa)
#
#
# Indices 1 2 3 4 5 6 
#
# 1 0.007486 -0.002009 -0.001775 0.000000 0.001125 0.000000
# 2 -0.002009 0.010083 -0.001924 0.000000 0.001885 0.000000
# 3 -0.001775 -0.001924 0.010398 0.000000 -0.005308 0.000000
# 4 0.000000 0.000000 0.000000 0.037630 0.000000 -0.012926
# 5 0.001125 0.001885 -0.005308 0.000000 0.016848 0.000000
# 6 0.000000 0.000000 0.000000 -0.012926 0.000000 0.036028
#
#
# Mechanical properties :
#
#
# Convention : Reuss Voigt Hill
#
# Bulk Modulus (GPa) = 60.42347 63.01524 61.71936
# Shear Modulus (GPa) = 36.92560 46.42516 41.67538
#
# Velocity S-wave (km/s) = 3.74543 4.19966 3.97903
# Velocity P-wave (km/s) = 6.45442 6.88883 6.67516
#
# Compressibility (1/GPa) = 0.01654986
#
# Stress axis : x y z
#
# Youngs Moduli (GPa) = 133.57801 99.17854 96.17160
#
# Poissons Ratio (x) = 0.19926 0.17074
# Poissons Ratio (y) = 0.26837 0.18505
# Poissons Ratio (z) = 0.23715 0.19084
#
# Static dielectric constant tensor:
#      x y z
#    x 2.155940 0.000000 0.146420 
#    y 0.000000 2.114990 0.000000 
#    z 0.146420 0.000000 1.942060 
# 
# From -- ./inp_files/42363.got.cif
#   From: 2010.05.17/outbox.cif.g08.bks.cpg/sg14_22_cif.got.tgz:42363.got - 2010.06.03 17:49:19.
