data_PCOD9249432
_publ_section_title
;
Structure prediction by ZEFSAII (Michael W. Deem and Ramdas Pophale) SiO2 
 PCOD9249432
Probable space group: P 21/C
;
_chemical_formula_sum "Si O2"
_cell_formula_units_Z 28
_cell_length_a 11.400572
_cell_length_b 7.422268
_cell_length_c 16.123588
_cell_angle_alpha 90.000000
_cell_angle_beta 72.211463
_cell_angle_gamma 90.000000
_cell_volume 1299.118672
_symmetry_space_group_name_H-M "P 21/C"
_symmetry_group_IT_number 14
_symmetry_cell_setting 'monoclinic'
loop_
_space_group_symop_operation_xyz
x,y,z
-x,1/2+y,1/2-z
-x,-y,-z
x,1/2-y,1/2+z
loop_
_atom_site_type_symbol
_atom_site_label
_atom_site_fract_x
_atom_site_fract_y
_atom_site_fract_z
Si Si1 0.316488 0.089955 0.248060
Si Si2 0.552576 0.944442 0.245372
Si Si3 0.361134 0.519696 0.560785
Si Si4 0.615032 0.440373 0.918319
Si Si5 0.760064 0.435226 0.581914
Si Si6 0.841612 0.428962 0.980793
Si Si7 0.094929 0.283545 0.896641
O O1 0.391083 0.247637 0.277384
O O2 0.179869 0.116936 0.310178
O O3 0.408255 0.932104 0.255945
O O4 0.326934 0.099066 0.147083
O O5 0.634042 0.057087 0.162213
O O6 0.585550 0.997000 0.332083
O O7 0.500000 0.500000 0.500000
O O8 0.359807 0.727085 0.588612
O O9 0.273085 0.489725 0.502000
O O10 0.737743 0.499521 0.940443
O O11 0.500000 0.500000 0.000000
O O12 0.796700 0.227669 0.555314
O O13 0.859124 0.575863 0.600966
O O14 0.952087 0.323925 0.909956
O O15 0.883047 0.602941 0.023827
#
# Coordination Sequence:
#
# PCOD9249432 Si02
#       7
#     4   4   4   4   4   4   4
#     4  11  23  38  62  93 129 159 215 259 328 381
#     4  11  23  37  62  95 123 167 205 272 322 381
#     4  11  22  38  60  95 126 163 206 264 331 375
#     4  11  24  38  63  93 127 162 207 270 320 382
#     4  10  23  41  66  91 127 165 218 265 319 387
#     4  10  23  43  65  91 125 167 216 256 330 378
#     4  10  23  42  66  90 124 172 209 264 316 394
#
# _framework density 21.553072
#
# number of rings (size 3 to 8) (size 9 to 14) (size 15 to 20)
#    0.000    1.429    1.429    3.000   12.000    0.000 
#    0.000    7.143    0.000    0.000    0.000    0.000 
#    0.000    0.000    0.000    0.000    0.000    0.000 
#
# Total GULP energy -156192.192744 kJ/mol
# GULP energy per Si atom -5578.292598 kJ/mol
# Density = 2.150402 g / cm^3
# Si number density = 21.553072 Si / 1000 Ang^3
#
#
#
# Elastic Constant Matrix: (Units=GPa)
#
#
# Indices 1 2 3 4 5 6 
#
# 1 92.6146 -6.8527 39.6975 0.0000 -1.0866 0.0000
# 2 -6.8527 43.2964 2.9758 0.0000 0.1788 0.0000
# 3 39.6975 2.9758 98.4418 0.0000 -9.6564 0.0000
# 4 0.0000 0.0000 0.0000 31.8110 0.0000 1.5203
# 5 -1.0866 0.1788 -9.6564 0.0000 34.8999 0.0000
# 6 0.0000 0.0000 0.0000 1.5203 0.0000 22.1315
#
#
#
# Elastic Compliance Matrix: (Units=1/GPa)
#
#
# Indices 1 2 3 4 5 6 
#
# 1 0.013359 0.002502 -0.005574 0.000000 -0.001139 0.000000
# 2 0.002502 0.023617 -0.001775 0.000000 -0.000534 0.000000
# 3 -0.005574 -0.001775 0.012791 0.000000 0.003375 0.000000
# 4 0.000000 0.000000 0.000000 0.031539 0.000000 -0.002167
# 5 -0.001139 -0.000534 0.003375 0.000000 0.029554 0.000000
# 6 0.000000 0.000000 0.000000 -0.002167 0.000000 0.045333
#
#
# Mechanical properties :
#
#
# Convention : Reuss Voigt Hill
#
# Bulk Modulus (GPa) = 24.95557 33.99935 29.47746
# Shear Modulus (GPa) = 27.89472 31.00395 29.44933
#
# Velocity S-wave (km/s) = 3.60145 3.79686 3.70045
# Velocity P-wave (km/s) = 5.37566 5.91866 5.65368
#
# Compressibility (1/GPa) = 0.04007122
#
# Stress axis : x y z
#
# Youngs Moduli (GPa) = 74.85849 42.34260 78.18069
#
# Poissons Ratio (x) = -0.10595 0.43581
# Poissons Ratio (y) = -0.18731 0.13880
# Poissons Ratio (z) = 0.41729 0.07517
#
# Static dielectric constant tensor:
#      x y z
#    x 1.848030 0.000000 -0.042940 
#    y 0.000000 1.883060 0.000000 
#    z -0.042940 0.000000 1.784570 
# 
# From -- ./inp_files/43083.got.cif
#   From: 2010.05.17/outbox.cif.g08.bks.cpg/sg14_22_cif.got.tgz:43083.got - 2010.06.03 17:49:19.
