data_PCOD9249062
_publ_section_title
;
Structure prediction by ZEFSAII (Michael W. Deem and Ramdas Pophale) SiO2 
 PCOD9249062
Probable space group: P 21/C
;
_chemical_formula_sum "Si O2"
_cell_formula_units_Z 12
_cell_length_a 7.597989
_cell_length_b 5.222072
_cell_length_c 10.426513
_cell_angle_alpha 90.000000
_cell_angle_beta 78.186032
_cell_angle_gamma 90.000000
_cell_volume 404.932219
_symmetry_space_group_name_H-M "P 21/C"
_symmetry_group_IT_number 14
_symmetry_cell_setting 'monoclinic'
loop_
_space_group_symop_operation_xyz
x,y,z
-x,1/2+y,1/2-z
-x,-y,-z
x,1/2-y,1/2+z
loop_
_atom_site_type_symbol
_atom_site_label
_atom_site_fract_x
_atom_site_fract_y
_atom_site_fract_z
Si Si1 0.637227 0.780393 0.517038
Si Si2 0.012956 0.715225 0.387056
Si Si3 0.723433 0.537444 0.256969
O O1 0.635207 0.555111 0.409584
O O2 0.843341 0.888057 0.461301
O O3 0.500000 0.000000 0.500000
O O4 0.631487 0.767842 0.672164
O O5 0.219885 0.781588 0.325197
O O6 0.000000 0.500000 0.500000
O O7 0.927140 0.619172 0.265055
#
# Coordination Sequence:
#
# PCOD9249062 Si02
#       3
#     4   4   4
#     4  10  24  49  72 115 158 198 258 327 395 464
#     4  10  22  45  79 113 149 203 267 315 385 470
#     4  10  23  45  78 113 151 208 258 320 391 472
#
# _framework density 29.634592999999999
#
# number of rings (size 3 to 8) (size 9 to 14) (size 15 to 20)
#    2.000    0.000    0.000    3.000    0.000    0.000 
#   12.000    3.333    0.000    0.000    0.000    0.000 
#    0.000    0.000    0.000    0.000    0.000    0.000 
#
# Total GULP energy -66880.862255 kJ/mol
# GULP energy per Si atom -5573.405188 kJ/mol
# Density = 2.956714 g / cm^3
# Si number density = 29.634593 Si / 1000 Ang^3
#
#
#
# Elastic Constant Matrix: (Units=GPa)
#
#
# Indices 1 2 3 4 5 6 
#
# 1 119.7038 35.6739 57.7617 0.0000 -5.0184 0.0000
# 2 35.6739 77.0878 35.1459 0.0000 -3.4495 0.0000
# 3 57.7617 35.1459 230.4516 0.0000 -2.4746 0.0000
# 4 0.0000 0.0000 0.0000 46.1797 0.0000 -9.9054
# 5 -5.0184 -3.4495 -2.4746 0.0000 84.7217 0.0000
# 6 0.0000 0.0000 0.0000 -9.9054 0.0000 42.8125
#
#
#
# Elastic Compliance Matrix: (Units=1/GPa)
#
#
# Indices 1 2 3 4 5 6 
#
# 1 0.010522 -0.003924 -0.002035 0.000000 0.000404 0.000000
# 2 -0.003924 0.015426 -0.001365 0.000000 0.000356 0.000000
# 3 -0.002035 -0.001365 0.005057 0.000000 -0.000028 0.000000
# 4 0.000000 0.000000 0.000000 0.022785 0.000000 0.005272
# 5 0.000404 0.000356 -0.000028 0.000000 0.011841 0.000000
# 6 0.000000 0.000000 0.000000 0.005272 0.000000 0.024577
#
#
# Mechanical properties :
#
#
# Convention : Reuss Voigt Hill
#
# Bulk Modulus (GPa) = 61.13053 76.04512 68.58782
# Shear Modulus (GPa) = 45.32722 54.65356 49.99039
#
# Velocity S-wave (km/s) = 3.91517 4.29913 4.11164
# Velocity P-wave (km/s) = 6.41178 7.09648 6.76280
#
# Compressibility (1/GPa) = 0.01635844
#
# Stress axis : x y z
#
# Youngs Moduli (GPa) = 95.03946 64.82404 197.73818
#
# Poissons Ratio (x) = 0.25434 0.40231
# Poissons Ratio (y) = 0.37289 0.26999
# Poissons Ratio (z) = 0.19336 0.08851
#
# Static dielectric constant tensor:
#      x y z
#    x 2.464470 0.000000 -0.097770 
#    y 0.000000 4.338670 0.000000 
#    z -0.097770 0.000000 2.487040 
# 
# From -- ./inp_files/22406.got.cif
#   From: 2010.05.17/outbox.cif.g08.bks.cpg/sg14_12_cif.got.tgz:22406.got - 2010.06.03 17:49:19.
