data_PCOD9249701
_publ_section_title
;
Structure prediction by ZEFSAII (Michael W. Deem and Ramdas Pophale) SiO2 
 PCOD9249701
Probable space group: P 21/C
;
_chemical_formula_sum "Si O2"
_cell_formula_units_Z 24
_cell_length_a 31.611402
_cell_length_b 5.026810
_cell_length_c 17.448118
_cell_angle_alpha 90.000000
_cell_angle_beta 155.287854
_cell_angle_gamma 90.000000
_cell_volume 1159.105796
_symmetry_space_group_name_H-M "P 21/C"
_symmetry_group_IT_number 14
_symmetry_cell_setting 'monoclinic'
loop_
_space_group_symop_operation_xyz
x,y,z
-x,1/2+y,1/2-z
-x,-y,-z
x,1/2-y,1/2+z
loop_
_atom_site_type_symbol
_atom_site_label
_atom_site_fract_x
_atom_site_fract_y
_atom_site_fract_z
Si Si1 0.754838 0.890695 0.986926
Si Si2 0.944508 0.107798 0.625549
Si Si3 0.456268 0.634258 0.578714
Si Si4 0.588652 0.369880 0.317707
Si Si5 0.979169 0.746898 0.911910
Si Si6 0.728430 0.094153 0.340531
O O1 0.864350 0.788444 0.193769
O O2 0.692534 0.024126 0.953399
O O3 0.708551 0.630448 0.871274
O O4 0.752136 0.123553 0.919160
O O5 0.830934 0.031040 0.462303
O O6 0.987987 0.342643 0.751685
O O7 0.954102 0.222935 0.555430
O O8 0.410386 0.614339 0.588813
O O9 0.504429 0.923645 0.649864
O O10 0.368452 0.598761 0.373160
O O11 0.546487 0.417862 0.724491
O O12 0.000000 0.500000 0.000000
O O13 0.000000 0.000000 0.000000
#
# Coordination Sequence:
#
# PCOD9249701 Si02
#       6
#     4   4   4   4   4   4
#     4  12  25  43  66  98 132 167 219 273 323 385
#     4  12  23  46  67  93 138 174 212 274 329 394
#     4  10  23  43  65  94 127 172 216 263 335 391
#     4  10  23  44  64  93 134 166 213 277 324 391
#     4  12  26  44  66  99 133 174 221 271 331 390
#     4  12  24  42  68  98 127 174 219 262 330 392
#
# _framework density 20.705617
#
# number of rings (size 3 to 8) (size 9 to 14) (size 15 to 20)
#    0.000    0.667    3.333    4.000    2.333    4.000 
#    6.000    0.000    0.000    0.000    0.000    0.000 
#    0.000    0.000    0.000    0.000    0.000    0.000 
#
# Total GULP energy -134185.363327 kJ/mol
# GULP energy per Si atom -5591.056805 kJ/mol
# Density = 2.065849 g / cm^3
# Si number density = 20.705617 Si / 1000 Ang^3
#
#
#
# Elastic Constant Matrix: (Units=GPa)
#
#
# Indices 1 2 3 4 5 6 
#
# 1 98.2622 16.2607 11.3749 0.0000 4.4225 0.0000
# 2 16.2607 86.6460 10.1624 0.0000 -16.9159 0.0000
# 3 11.3749 10.1624 73.2413 0.0000 -21.7910 0.0000
# 4 0.0000 0.0000 0.0000 30.7053 0.0000 -5.6734
# 5 4.4225 -16.9159 -21.7910 0.0000 24.1566 0.0000
# 6 0.0000 0.0000 0.0000 -5.6734 0.0000 30.5906
#
#
#
# Elastic Compliance Matrix: (Units=1/GPa)
#
#
# Indices 1 2 3 4 5 6 
#
# 1 0.011466 -0.003212 -0.003593 0.000000 -0.007590 0.000000
# 2 -0.003212 0.014356 0.002287 0.000000 0.012704 0.000000
# 3 -0.003593 0.002287 0.019910 0.000000 0.020219 0.000000
# 4 0.000000 0.000000 0.000000 0.033723 0.000000 0.006254
# 5 -0.007590 0.012704 0.020219 0.000000 0.069921 0.000000
# 6 0.000000 0.000000 0.000000 0.006254 0.000000 0.033850
#
#
# Mechanical properties :
#
#
# Convention : Reuss Voigt Hill
#
# Bulk Modulus (GPa) = 27.25207 37.08282 32.16744
# Shear Modulus (GPa) = 24.45045 31.78060 28.11552
#
# Velocity S-wave (km/s) = 3.44009 3.92200 3.68893
# Velocity P-wave (km/s) = 5.38231 6.20144 5.80634
#
# Compressibility (1/GPa) = 0.03669446
#
# Stress axis : x y z
#
# Youngs Moduli (GPa) = 87.21478 69.65739 50.22602
#
# Poissons Ratio (x) = 0.22375 0.18047
# Poissons Ratio (y) = 0.28014 -0.11485
# Poissons Ratio (z) = 0.31338 -0.15928
#
# Static dielectric constant tensor:
#      x y z
#    x 1.741090 0.000000 -0.005650 
#    y 0.000000 1.706690 0.000000 
#    z -0.005650 0.000000 1.690190 
# 
# From -- ./inp_files/52128.got.cif
#   From: 2010.05.17/outbox.cif.g08.bks.cpg/sg14_27_cif.got.tgz:52128.got - 2010.06.03 17:49:19.
