data_PCOD9249788
_publ_section_title
;
Structure prediction by ZEFSAII (Michael W. Deem and Ramdas Pophale) SiO2 
 PCOD9249788
Probable space group: P 21/C
;
_chemical_formula_sum "Si O2"
_cell_formula_units_Z 20
_cell_length_a 16.404034
_cell_length_b 7.884724
_cell_length_c 12.234627
_cell_angle_alpha 90.000000
_cell_angle_beta 150.816440
_cell_angle_gamma 90.000000
_cell_volume 771.613387
_symmetry_space_group_name_H-M "P 21/C"
_symmetry_group_IT_number 14
_symmetry_cell_setting 'monoclinic'
loop_
_space_group_symop_operation_xyz
x,y,z
-x,1/2+y,1/2-z
-x,-y,-z
x,1/2-y,1/2+z
loop_
_atom_site_type_symbol
_atom_site_label
_atom_site_fract_x
_atom_site_fract_y
_atom_site_fract_z
Si Si1 0.069702 0.775326 0.613365
Si Si2 0.252514 0.403945 0.151017
Si Si3 0.304439 0.973853 0.032297
Si Si4 0.500300 0.713732 0.398469
Si Si5 0.992330 0.935961 0.820801
O O1 0.055893 0.714425 0.472880
O O2 0.908588 0.889345 0.457830
O O3 0.049137 0.600615 0.657309
O O4 0.241433 0.850944 0.860206
O O5 0.355080 0.578625 0.258847
O O6 0.382473 0.272292 0.357280
O O7 0.168642 0.377868 0.935602
O O8 0.428979 0.882636 0.262229
O O9 0.391619 0.125490 0.070926
O O10 0.136107 0.992223 0.905423
#
# Coordination Sequence:
#
# PCOD9249788 Si02
#       5
#     4   4   4   4   4
#     4  10  23  43  70  98 129 184 224 275 329 407
#     4  10  24  43  68  92 138 174 228 270 330 400
#     4  11  26  43  70  98 142 173 226 275 338 402
#     4  11  26  44  65 105 133 178 219 284 339 396
#     4  10  23  44  66 100 134 176 227 273 330 405
#
# _framework density 25.919716000000001
#
# number of rings (size 3 to 8) (size 9 to 14) (size 15 to 20)
#    0.000    1.600    2.000    0.000   11.200    4.800 
#    0.000    2.000    0.000    0.000    0.000    0.000 
#    0.000    0.000    0.000    0.000    0.000    0.000 
#
# Total GULP energy -112096.004248 kJ/mol
# GULP energy per Si atom -5604.800212 kJ/mol
# Density = 2.586072 g / cm^3
# Si number density = 25.919716 Si / 1000 Ang^3
#
#
#
# Elastic Constant Matrix: (Units=GPa)
#
#
# Indices 1 2 3 4 5 6 
#
# 1 116.3308 41.1808 43.2458 0.0000 -6.1257 0.0000
# 2 41.1808 56.7221 31.5040 0.0000 3.1913 0.0000
# 3 43.2458 31.5040 186.5701 0.0000 -22.3314 0.0000
# 4 0.0000 0.0000 0.0000 30.0942 0.0000 7.2595
# 5 -6.1257 3.1913 -22.3314 0.0000 36.9676 0.0000
# 6 0.0000 0.0000 0.0000 7.2595 0.0000 37.7171
#
#
#
# Elastic Compliance Matrix: (Units=1/GPa)
#
#
# Indices 1 2 3 4 5 6 
#
# 1 0.012040 -0.008206 -0.001166 0.000000 0.001999 0.000000
# 2 -0.008206 0.025597 -0.003069 0.000000 -0.005424 0.000000
# 3 -0.001166 -0.003069 0.006637 0.000000 0.004081 0.000000
# 4 0.000000 0.000000 0.000000 0.034847 0.000000 -0.006707
# 5 0.001999 -0.005424 0.004081 0.000000 0.030315 0.000000
# 6 0.000000 0.000000 0.000000 -0.006707 0.000000 0.027804
#
#
# Mechanical properties :
#
#
# Convention : Reuss Voigt Hill
#
# Bulk Modulus (GPa) = 51.56861 65.72046 58.64453
# Shear Modulus (GPa) = 29.65835 37.20195 33.43015
#
# Velocity S-wave (km/s) = 3.38633 3.79261 3.59522
# Velocity P-wave (km/s) = 5.93535 6.67750 6.31733
#
# Compressibility (1/GPa) = 0.01939164
#
# Stress axis : x y z
#
# Youngs Moduli (GPa) = 83.05850 39.06658 150.67235
#
# Poissons Ratio (x) = 0.32058 0.17565
# Poissons Ratio (y) = 0.68157 0.46248
# Poissons Ratio (z) = 0.09683 0.11991
#
# Static dielectric constant tensor:
#      x y z
#    x 2.048800 0.000000 -0.018380 
#    y 0.000000 2.080220 0.000000 
#    z -0.018380 0.000000 1.991690 
# 
# From -- ./inp_files/27954.got.cif
#   From: 2010.05.17/outbox.cif.g08.bks.cpg/sg14_14_cif.got.tgz:27954.got - 2010.06.03 17:49:19.
