data_PCOD9249996
_publ_section_title
;
Structure prediction by ZEFSAII (Michael W. Deem and Ramdas Pophale) SiO2 
 PCOD9249996
Probable space group: P 21/C
;
_chemical_formula_sum "Si O2"
_cell_formula_units_Z 18
_cell_length_a 9.432542
_cell_length_b 7.596382
_cell_length_c 22.820283
_cell_angle_alpha 90.000000
_cell_angle_beta 26.057741
_cell_angle_gamma 90.000000
_cell_volume 718.281598
_symmetry_space_group_name_H-M "P 21/C"
_symmetry_group_IT_number 14
_symmetry_cell_setting 'monoclinic'
loop_
_space_group_symop_operation_xyz
x,y,z
-x,1/2+y,1/2-z
-x,-y,-z
x,1/2-y,1/2+z
loop_
_atom_site_type_symbol
_atom_site_label
_atom_site_fract_x
_atom_site_fract_y
_atom_site_fract_z
Si Si1 0.605445 0.718904 0.798349
Si Si2 0.893039 0.810688 0.064699
Si Si3 0.500000 0.500000 0.500000
Si Si4 0.640998 0.129555 0.820069
Si Si5 0.336775 0.149935 0.597823
O O1 0.759830 0.669761 0.679502
O O2 0.733197 0.612249 0.807712
O O3 0.678051 0.928667 0.781506
O O4 0.217196 0.696688 0.940770
O O5 0.593686 0.760141 0.134307
O O6 0.000000 0.000000 0.000000
O O7 0.491447 0.612749 0.565196
O O8 0.559323 0.319771 0.515190
O O9 0.999033 0.204937 0.694290
O O10 0.500000 0.000000 0.500000
#
# Coordination Sequence:
#
# PCOD9249996 Si02
#       5
#     4   4   2   4   4
#     4  10  23  46  71 103 156 189 254 318 369 451
#     4  10  23  45  69 101 149 198 240 312 382 436
#     4  10  26  44  68 106 146 178 246 302 360 438
#     4  10  24  43  72 104 143 194 247 302 380 444
#     4  11  25  45  77 108 146 195 248 309 383 439
#
# _framework density 25.059808
#
# number of rings (size 3 to 8) (size 9 to 14) (size 15 to 20)
#    0.000    1.778    0.000    1.333   18.667    0.000 
#    8.000    5.556    0.000    0.000    0.000    0.000 
#    0.000    0.000    0.000    0.000    0.000    0.000 
#
# Total GULP energy -100309.798448 kJ/mol
# GULP energy per Si atom -5572.766580 kJ/mol
# Density = 2.500277 g / cm^3
# Si number density = 25.059808 Si / 1000 Ang^3
#
#
#
# Elastic Constant Matrix: (Units=GPa)
#
#
# Indices 1 2 3 4 5 6 
#
# 1 155.5756 -0.4528 98.7980 0.0000 6.3011 0.0000
# 2 -0.4528 60.6526 24.7096 0.0000 16.0830 0.0000
# 3 98.7980 24.7096 170.9258 0.0000 24.5969 0.0000
# 4 0.0000 0.0000 0.0000 22.1012 0.0000 12.9798
# 5 6.3011 16.0830 24.5969 0.0000 68.0694 0.0000
# 6 0.0000 0.0000 0.0000 12.9798 0.0000 32.0845
#
#
#
# Elastic Compliance Matrix: (Units=1/GPa)
#
#
# Indices 1 2 3 4 5 6 
#
# 1 0.010603 0.002561 -0.006615 0.000000 0.000804 0.000000
# 2 0.002561 0.018917 -0.003732 0.000000 -0.003358 0.000000
# 3 -0.006615 -0.003732 0.010547 0.000000 -0.002317 0.000000
# 4 0.000000 0.000000 0.000000 0.059346 0.000000 -0.024009
# 5 0.000804 -0.003358 -0.002317 0.000000 0.016247 0.000000
# 6 0.000000 0.000000 0.000000 -0.024009 0.000000 0.040880
#
#
# Mechanical properties :
#
#
# Convention : Reuss Voigt Hill
#
# Bulk Modulus (GPa) = 40.82259 70.36262 55.59260
# Shear Modulus (GPa) = 27.73494 42.05764 34.89629
#
# Velocity S-wave (km/s) = 3.33039 4.10114 3.73570
# Velocity P-wave (km/s) = 5.57800 7.11088 6.39057
#
# Compressibility (1/GPa) = 0.02449624
#
# Stress axis : x y z
#
# Youngs Moduli (GPa) = 94.30980 52.86188 94.81501
#
# Poissons Ratio (x) = -0.13537 0.62718
# Poissons Ratio (y) = -0.24152 0.35382
# Poissons Ratio (z) = 0.62384 0.19727
#
# Static dielectric constant tensor:
#      x y z
#    x 2.008830 0.000000 -0.063730 
#    y 0.000000 2.037290 0.000000 
#    z -0.063730 0.000000 2.072670 
# 
# From -- ./inp_files/22796.got.cif
#   From: 2010.05.17/outbox.cif.g08.bks.cpg/sg14_12_cif.got.tgz:22796.got - 2010.06.03 17:49:19.
