data_PCOD9249149
_publ_section_title
;
Structure prediction by ZEFSAII (Michael W. Deem and Ramdas Pophale) SiO2 
 PCOD9249149
Probable space group: P 21/C
;
_chemical_formula_sum "Si O2"
_cell_formula_units_Z 22
_cell_length_a 11.774467
_cell_length_b 8.357120
_cell_length_c 8.588479
_cell_angle_alpha 90.000000
_cell_angle_beta 111.631047
_cell_angle_gamma 90.000000
_cell_volume 785.596362
_symmetry_space_group_name_H-M "P 21/C"
_symmetry_group_IT_number 14
_symmetry_cell_setting 'monoclinic'
loop_
_space_group_symop_operation_xyz
x,y,z
-x,1/2+y,1/2-z
-x,-y,-z
x,1/2-y,1/2+z
loop_
_atom_site_type_symbol
_atom_site_label
_atom_site_fract_x
_atom_site_fract_y
_atom_site_fract_z
Si Si1 0.000000 0.000000 0.500000
Si Si2 0.102378 0.772680 0.258632
Si Si3 0.737526 0.840844 0.430448
Si Si4 0.495022 0.860508 0.124122
Si Si5 0.356037 0.579485 0.870050
Si Si6 0.098365 0.460017 0.415638
O O1 0.997335 0.896378 0.272672
O O2 0.799581 0.670031 0.499946
O O3 0.219028 0.864995 0.263556
O O4 0.027023 0.678369 0.092266
O O5 0.147352 0.630617 0.390271
O O6 0.632590 0.824666 0.249416
O O7 0.844551 0.963050 0.435669
O O8 0.669165 0.921924 0.541874
O O9 0.426570 0.924080 0.243805
O O10 0.423130 0.790363 0.514797
O O11 0.500000 0.000000 0.000000
O O12 0.000000 0.500000 0.500000
#
# Coordination Sequence:
#
# PCOD9249149 Si02
#       6
#     2   4   4   4   4   4
#     4  10  22  46  78 116 166 228 282 364 430 516
#     4  11  25  48  77 119 172 223 294 360 440 528
#     4  11  27  53  89 129 180 233 306 367 453 540
#     4  12  28  55  87 127 179 238 303 377 455 544
#     4  12  28  53  87 129 179 239 303 373 453 546
#     4  11  28  49  83 124 175 231 293 369 447 534
#
# _framework density 28.004201999999999
#
# number of rings (size 3 to 8) (size 9 to 14) (size 15 to 20)
#    0.000    0.727    0.000    6.000   12.727    4.364 
#    6.545    0.000    0.000    0.000    0.000    0.000 
#    0.000    0.000    0.000    0.000    0.000    0.000 
#
# Total GULP energy -123317.465739 kJ/mol
# GULP energy per Si atom -5605.339352 kJ/mol
# Density = 2.794046 g / cm^3
# Si number density = 28.004202 Si / 1000 Ang^3
#
#
#
# Elastic Constant Matrix: (Units=GPa)
#
#
# Indices 1 2 3 4 5 6 
#
# 1 205.1627 82.8798 96.1280 0.0000 2.2597 0.0000
# 2 82.8798 192.7464 75.6368 0.0000 -5.2563 0.0000
# 3 96.1280 75.6368 177.7279 0.0000 11.1149 0.0000
# 4 0.0000 0.0000 0.0000 59.3066 0.0000 9.2700
# 5 2.2597 -5.2563 11.1149 0.0000 80.1844 0.0000
# 6 0.0000 0.0000 0.0000 9.2700 0.0000 70.2331
#
#
#
# Elastic Compliance Matrix: (Units=1/GPa)
#
#
# Indices 1 2 3 4 5 6 
#
# 1 0.007033 -0.001832 -0.003031 0.000000 0.000102 0.000000
# 2 -0.001832 0.006755 -0.001931 0.000000 0.000762 0.000000
# 3 -0.003031 -0.001931 0.008161 0.000000 -0.001172 0.000000
# 4 0.000000 0.000000 0.000000 0.017217 0.000000 -0.002272
# 5 0.000102 0.000762 -0.001172 0.000000 0.012681 0.000000
# 6 0.000000 0.000000 0.000000 -0.002272 0.000000 0.014538
#
#
# Mechanical properties :
#
#
# Convention : Reuss Voigt Hill
#
# Bulk Modulus (GPa) = 119.60953 120.54734 120.07843
# Shear Modulus (GPa) = 60.41568 63.34432 61.88000
#
# Velocity S-wave (km/s) = 4.64980 4.76116 4.70581
# Velocity P-wave (km/s) = 8.46354 8.56531 8.51458
#
# Compressibility (1/GPa) = 0.00836054
#
# Stress axis : x y z
#
# Youngs Moduli (GPa) = 142.18226 148.04623 122.53323
#
# Poissons Ratio (x) = 0.27125 0.37136
# Poissons Ratio (y) = 0.26050 0.23665
# Poissons Ratio (z) = 0.43091 0.28592
#
# Static dielectric constant tensor:
#      x y z
#    x 2.096510 0.000000 0.126070 
#    y 0.000000 2.139540 0.000000 
#    z 0.126070 0.000000 1.926690 
# 
# From -- ./inp_files/12232.got.cif
#   From: 2010.05.17/outbox.cif.g08.bks.cpg/sg14_7_cif.got.tgz:12232.got - 2010.06.03 17:49:19.
