data_PCOD9249811
_publ_section_title
;
Structure prediction by ZEFSAII (Michael W. Deem and Ramdas Pophale) SiO2 
 PCOD9249811
Probable space group: P 21/C
;
_chemical_formula_sum "Si O2"
_cell_formula_units_Z 20
_cell_length_a 5.434220
_cell_length_b 16.775325
_cell_length_c 12.730262
_cell_angle_alpha 90.000000
_cell_angle_beta 131.480645
_cell_angle_gamma 90.000000
_cell_volume 869.423543
_symmetry_space_group_name_H-M "P 21/C"
_symmetry_group_IT_number 14
_symmetry_cell_setting 'monoclinic'
loop_
_space_group_symop_operation_xyz
x,y,z
-x,1/2+y,1/2-z
-x,-y,-z
x,1/2-y,1/2+z
loop_
_atom_site_type_symbol
_atom_site_label
_atom_site_fract_x
_atom_site_fract_y
_atom_site_fract_z
Si Si1 0.803936 0.843555 0.783594
Si Si2 0.515426 0.402621 0.014221
Si Si3 0.238119 0.164594 0.657849
Si Si4 0.492014 0.395475 0.436973
Si Si5 0.323116 0.446529 0.582078
O O1 0.706864 0.855781 0.635669
O O2 0.796561 0.759771 0.841940
O O3 0.572452 0.903451 0.783733
O O4 0.165742 0.876357 0.910083
O O5 0.500000 0.500000 0.000000
O O6 0.392427 0.371779 0.094645
O O7 0.887597 0.375035 0.090582
O O8 0.467957 0.150780 0.823787
O O9 0.252151 0.384780 0.467823
O O10 0.420979 0.486265 0.380094
O O11 0.000000 0.500000 0.500000
#
# Coordination Sequence:
#
# PCOD9249811 Si02
#       5
#     4   4   4   4   4
#     4  11  26  44  73 104 146 189 244 306 367 435
#     4  12  30  51  74 111 156 195 242 310 384 436
#     4  12  29  46  74 107 149 194 245 305 373 438
#     4  10  23  43  73 101 139 193 249 290 357 449
#     4   9  21  40  71 101 134 183 248 292 350 435
#
# _framework density 23.003748000000002
#
# number of rings (size 3 to 8) (size 9 to 14) (size 15 to 20)
#    0.000    1.200    0.000    3.000   22.400    0.000 
#    0.000    0.000    0.000    0.000    0.000    0.000 
#    0.000    0.000    0.000    0.000    0.000    0.000 
#
# Total GULP energy -111370.950279 kJ/mol
# GULP energy per Si atom -5568.547514 kJ/mol
# Density = 2.295139 g / cm^3
# Si number density = 23.003748 Si / 1000 Ang^3
#
#
#
# Elastic Constant Matrix: (Units=GPa)
#
#
# Indices 1 2 3 4 5 6 
#
# 1 117.3373 21.0789 50.8472 0.0000 -24.1303 0.0000
# 2 21.0789 92.2169 -4.8522 0.0000 -6.1348 0.0000
# 3 50.8472 -4.8522 113.9934 0.0000 -13.4987 0.0000
# 4 0.0000 0.0000 0.0000 32.9953 0.0000 -6.4160
# 5 -24.1303 -6.1348 -13.4987 0.0000 42.7364 0.0000
# 6 0.0000 0.0000 0.0000 -6.4160 0.0000 26.9058
#
#
#
# Elastic Compliance Matrix: (Units=1/GPa)
#
#
# Indices 1 2 3 4 5 6 
#
# 1 0.012172 -0.002716 -0.004963 0.000000 0.004915 0.000000
# 2 -0.002716 0.011605 0.001788 0.000000 0.000697 0.000000
# 3 -0.004963 0.001788 0.011179 0.000000 0.000985 0.000000
# 4 0.000000 0.000000 0.000000 0.031781 0.000000 0.007579
# 5 0.004915 0.000697 0.000985 0.000000 0.026586 0.000000
# 6 0.000000 0.000000 0.000000 0.007579 0.000000 0.038974
#
#
# Mechanical properties :
#
#
# Convention : Reuss Voigt Hill
#
# Bulk Modulus (GPa) = 43.15186 50.85504 47.00345
# Shear Modulus (GPa) = 32.93730 37.62577 35.28153
#
# Velocity S-wave (km/s) = 3.78805 4.04869 3.92053
# Velocity P-wave (km/s) = 6.15888 6.63409 6.40089
#
# Compressibility (1/GPa) = 0.02317397
#
# Stress axis : x y z
#
# Youngs Moduli (GPa) = 82.15690 86.16704 89.45373
#
# Poissons Ratio (x) = 0.23406 0.44395
# Poissons Ratio (y) = 0.22317 -0.15996
# Poissons Ratio (z) = 0.40774 -0.15408
#
# Static dielectric constant tensor:
#      x y z
#    x 2.103840 0.000000 -0.036690 
#    y 0.000000 2.239910 0.000000 
#    z -0.036690 0.000000 1.938080 
# 
# From -- ./inp_files/21349.got.cif
#   From: 2010.05.17/outbox.cif.g08.bks.cpg/sg14_11_cif.got.tgz:21349.got - 2010.06.03 17:49:19.
