data_PCOD9249338
_publ_section_title
;
Structure prediction by ZEFSAII (Michael W. Deem and Ramdas Pophale) SiO2 
 PCOD9249338
Probable space group: P 21/C
;
_chemical_formula_sum "Si O2"
_cell_formula_units_Z 30
_cell_length_a 8.674148
_cell_length_b 7.238216
_cell_length_c 17.757408
_cell_angle_alpha 90.000000
_cell_angle_beta 89.580236
_cell_angle_gamma 90.000000
_cell_volume 1114.875277
_symmetry_space_group_name_H-M "P 21/C"
_symmetry_group_IT_number 14
_symmetry_cell_setting 'monoclinic'
loop_
_space_group_symop_operation_xyz
x,y,z
-x,1/2+y,1/2-z
-x,-y,-z
x,1/2-y,1/2+z
loop_
_atom_site_type_symbol
_atom_site_label
_atom_site_fract_x
_atom_site_fract_y
_atom_site_fract_z
Si Si1 0.401938 0.904414 0.314667
Si Si2 0.500000 0.500000 0.500000
Si Si3 0.906170 0.130822 0.830256
Si Si4 0.734436 0.195299 0.467124
Si Si5 0.859105 0.750532 0.783602
Si Si6 0.311475 0.303040 0.076966
Si Si7 0.806278 0.393203 0.609451
Si Si8 0.394501 0.164998 0.824448
O O1 0.546727 0.840067 0.366063
O O2 0.262823 0.768238 0.337134
O O3 0.460800 0.877015 0.228486
O O4 0.382041 0.117965 0.337693
O O5 0.570652 0.294156 0.478023
O O6 0.652586 0.603702 0.456305
O O7 0.808839 0.254073 0.886936
O O8 0.986458 0.248715 0.764846
O O9 0.815572 0.965143 0.789982
O O10 0.047016 0.019912 0.871830
O O11 0.835550 0.287879 0.531924
O O12 0.710905 0.977438 0.476785
O O13 0.841556 0.690149 0.869282
O O14 0.744868 0.628628 0.733835
O O15 0.648821 0.527414 0.606409
#
# Coordination Sequence:
#
# PCOD9249338 Si02
#       8
#     4   2   4   4   4   4   4   4
#     4  11  22  40  66 101 134 175 231 290 359 415
#     4  12  24  44  68 102 140 178 222 286 360 412
#     4  11  24  46  70  96 143 187 237 293 342 424
#     4  12  26  45  69 101 141 184 234 287 351 426
#     4  10  23  44  69 100 129 184 239 282 346 403
#     4  11  25  44  71 105 137 179 235 290 348 422
#     4  11  25  43  64 101 140 186 229 282 360 423
#     4  10  23  40  66  97 136 174 226 294 351 413
#
# _framework density 26.908840000000001
#
# number of rings (size 3 to 8) (size 9 to 14) (size 15 to 20)
#    0.000    1.067    4.000    1.600    3.733    1.067 
#    0.000    0.667    0.000    0.000    0.000    0.000 
#    0.000    0.000    0.000    0.000    0.000    0.000 
#
# Total GULP energy -167561.872807 kJ/mol
# GULP energy per Si atom -5585.395760 kJ/mol
# Density = 2.684759 g / cm^3
# Si number density = 26.908840 Si / 1000 Ang^3
#
#
#
# Elastic Constant Matrix: (Units=GPa)
#
#
# Indices 1 2 3 4 5 6 
#
# 1 61.3791 -16.1581 17.9013 0.0000 4.4514 0.0000
# 2 -16.1581 149.2889 40.5417 0.0000 -8.3785 0.0000
# 3 17.9013 40.5417 134.1461 0.0000 -32.5703 0.0000
# 4 0.0000 0.0000 0.0000 50.4295 0.0000 -11.8690
# 5 4.4514 -8.3785 -32.5703 0.0000 32.1189 0.0000
# 6 0.0000 0.0000 0.0000 -11.8690 0.0000 42.7539
#
#
#
# Elastic Compliance Matrix: (Units=1/GPa)
#
#
# Indices 1 2 3 4 5 6 
#
# 1 0.019147 0.003090 -0.005224 0.000000 -0.007145 0.000000
# 2 0.003090 0.007801 -0.003157 0.000000 -0.001595 0.000000
# 3 -0.005224 -0.003157 0.012048 0.000000 0.012118 0.000000
# 4 0.000000 0.000000 0.000000 0.021216 0.000000 0.005890
# 5 -0.007145 -0.001595 0.012118 0.000000 0.043996 0.000000
# 6 0.000000 0.000000 0.000000 0.005890 0.000000 0.025025
#
#
# Mechanical properties :
#
#
# Convention : Reuss Voigt Hill
#
# Bulk Modulus (GPa) = 35.19361 47.70932 41.45146
# Shear Modulus (GPa) = 33.49274 45.22907 39.36090
#
# Velocity S-wave (km/s) = 3.53182 4.10423 3.82874
# Velocity P-wave (km/s) = 5.45334 6.34257 5.91469
#
# Compressibility (1/GPa) = 0.02841425
#
# Stress axis : x y z
#
# Youngs Moduli (GPa) = 52.22674 128.19339 83.00187
#
# Poissons Ratio (x) = -0.39612 0.43358
# Poissons Ratio (y) = -0.16138 0.26205
# Poissons Ratio (z) = 0.27282 0.40472
#
# Static dielectric constant tensor:
#      x y z
#    x 2.088560 0.000000 0.021020 
#    y 0.000000 2.008670 0.000000 
#    z 0.021020 0.000000 2.148950 
# 
# From -- ./inp_files/66488.got.cif
#   From: 2010.05.17/outbox.cif.g08.bks.cpg/sg14_34_cif.got.tgz:66488.got - 2010.06.03 17:49:19.
