data_PCOD9249533
_publ_section_title
;
Structure prediction by ZEFSAII (Michael W. Deem and Ramdas Pophale) SiO2 
 PCOD9249533
Probable space group: P 21/C
;
_chemical_formula_sum "Si O2"
_cell_formula_units_Z 16
_cell_length_a 7.570320
_cell_length_b 7.294819
_cell_length_c 13.166620
_cell_angle_alpha 90.000000
_cell_angle_beta 56.200821
_cell_angle_gamma 90.000000
_cell_volume 604.227007
_symmetry_space_group_name_H-M "P 21/C"
_symmetry_group_IT_number 14
_symmetry_cell_setting 'monoclinic'
loop_
_space_group_symop_operation_xyz
x,y,z
-x,1/2+y,1/2-z
-x,-y,-z
x,1/2-y,1/2+z
loop_
_atom_site_type_symbol
_atom_site_label
_atom_site_fract_x
_atom_site_fract_y
_atom_site_fract_z
Si Si1 0.207240 0.253865 0.735627
Si Si2 0.850152 0.256478 0.985580
Si Si3 0.464977 0.926548 0.758021
Si Si4 0.739047 0.819446 0.510027
O O1 0.298269 0.432130 0.766611
O O2 0.254069 0.265012 0.602756
O O3 0.964334 0.209680 0.842583
O O4 0.344606 0.088203 0.739363
O O5 0.760381 0.460056 0.997070
O O6 0.678338 0.139338 0.101700
O O7 0.052563 0.254538 0.996677
O O8 0.525159 0.790524 0.643836
#
# Coordination Sequence:
#
# PCOD9249533 Si02
#       4
#     4   4   4   4
#     4  11  24  41  68  93 130 172 207 266 317 375
#     4  10  23  42  64  97 129 164 219 259 312 387
#     4  11  22  42  64  96 126 168 213 259 316 381
#     4  10  23  43  65  93 132 169 205 269 322 366
#
# _framework density 26.480115000000001
#
# number of rings (size 3 to 8) (size 9 to 14) (size 15 to 20)
#    0.000    1.500    2.500    1.500    3.500    0.000 
#    0.000    5.000    0.000    0.000    0.000    0.000 
#    0.000    0.000    0.000    0.000    0.000    0.000 
#
# Total GULP energy -89398.172099 kJ/mol
# GULP energy per Si atom -5587.385756 kJ/mol
# Density = 2.641985 g / cm^3
# Si number density = 26.480115 Si / 1000 Ang^3
#
#
#
# Elastic Constant Matrix: (Units=GPa)
#
#
# Indices 1 2 3 4 5 6 
#
# 1 52.1761 9.6354 27.3246 0.0000 -9.9840 0.0000
# 2 9.6354 25.1169 -1.2027 0.0000 -4.3712 0.0000
# 3 27.3246 -1.2027 200.6762 0.0000 -14.5776 0.0000
# 4 0.0000 0.0000 0.0000 36.8496 0.0000 -7.9093
# 5 -9.9840 -4.3712 -14.5776 0.0000 50.0573 0.0000
# 6 0.0000 0.0000 0.0000 -7.9093 0.0000 28.4432
#
#
#
# Elastic Compliance Matrix: (Units=1/GPa)
#
#
# Indices 1 2 3 4 5 6 
#
# 1 0.022821 -0.008380 -0.002942 0.000000 0.002963 0.000000
# 2 -0.008380 0.043556 0.001591 0.000000 0.002595 0.000000
# 3 -0.002942 0.001591 0.005477 0.000000 0.001147 0.000000
# 4 0.000000 0.000000 0.000000 0.028860 0.000000 0.008025
# 5 0.002963 0.002595 0.001147 0.000000 0.021129 0.000000
# 6 0.000000 0.000000 0.000000 0.008025 0.000000 0.037389
#
#
# Mechanical properties :
#
#
# Convention : Reuss Voigt Hill
#
# Bulk Modulus (GPa) = 19.08727 38.83152 28.95939
# Shear Modulus (GPa) = 25.48948 39.21748 32.35348
#
# Velocity S-wave (km/s) = 3.10593 3.85257 3.49922
# Velocity P-wave (km/s) = 4.48176 5.87248 5.22361
#
# Compressibility (1/GPa) = 0.05239095
#
# Stress axis : x y z
#
# Youngs Moduli (GPa) = 43.81873 22.95872 182.59359
#
# Poissons Ratio (x) = 0.19239 0.53726
# Poissons Ratio (y) = 0.36720 -0.29043
# Poissons Ratio (z) = 0.12893 -0.03652
#
# Static dielectric constant tensor:
#      x y z
#    x 2.023810 0.000000 -0.019030 
#    y 0.000000 2.296740 0.000000 
#    z -0.019030 0.000000 2.165010 
# 
# From -- ./inp_files/8044.got.cif
#   From: 2010.05.17/outbox.cif.g08.bks.cpg/sg14_5_cif.got.tgz:8044.got - 2010.06.03 17:49:19.
