data_PCOD9249411
_publ_section_title
;
Structure prediction by ZEFSAII (Michael W. Deem and Ramdas Pophale) SiO2 
 PCOD9249411
Probable space group: P 21/C
;
_chemical_formula_sum "Si O2"
_cell_formula_units_Z 32
_cell_length_a 8.842388
_cell_length_b 14.133705
_cell_length_c 24.740683
_cell_angle_alpha 90.000000
_cell_angle_beta 31.109953
_cell_angle_gamma 90.000000
_cell_volume 1597.572815
_symmetry_space_group_name_H-M "P 21/C"
_symmetry_group_IT_number 14
_symmetry_cell_setting 'monoclinic'
loop_
_space_group_symop_operation_xyz
x,y,z
-x,1/2+y,1/2-z
-x,-y,-z
x,1/2-y,1/2+z
loop_
_atom_site_type_symbol
_atom_site_label
_atom_site_fract_x
_atom_site_fract_y
_atom_site_fract_z
Si Si1 0.750031 0.139505 0.823137
Si Si2 0.750848 0.681671 0.646560
Si Si3 0.714277 0.651640 0.773580
Si Si4 0.547863 0.996648 0.793291
Si Si5 0.274748 0.684994 0.243107
Si Si6 0.370005 0.676375 0.424148
Si Si7 0.289869 0.017348 0.376557
Si Si8 0.376501 0.107132 0.038624
O O1 0.703276 0.063603 0.790020
O O2 0.793905 0.243978 0.785067
O O3 0.031379 0.106110 0.769790
O O4 0.490206 0.146011 0.946197
O O5 0.843997 0.695624 0.679468
O O6 0.702367 0.569605 0.650544
O O7 0.454674 0.741793 0.727437
O O8 0.029890 0.706846 0.525366
O O9 0.562088 0.733713 0.852408
O O10 0.478138 0.576467 0.827586
O O11 0.728835 0.970423 0.683421
O O12 0.432157 0.906075 0.861251
O O13 0.517132 0.604237 0.160082
O O14 0.971200 0.632961 0.352507
O O15 0.471249 0.645126 0.453111
O O16 0.000000 0.000000 0.500000
O O17 0.500000 0.000000 0.000000
#
# Coordination Sequence:
#
# PCOD9249411 Si02
#       8
#     4   4   4   4   4   4   4   4
#     4  11  23  43  67 102 137 174 223 284 352 404
#     4  10  23  41  64  98 136 174 218 285 348 404
#     4  11  23  40  65  94 135 175 222 277 344 409
#     4  10  24  40  69  98 132 167 234 282 342 404
#     4  11  25  43  66  99 136 181 234 284 342 415
#     4  12  22  40  70 102 133 177 228 286 343 408
#     4  11  25  46  64  92 134 182 223 278 342 416
#     4  12  24  42  73 102 141 181 234 292 347 402
#
# _framework density 20.030387000000001
#
# number of rings (size 3 to 8) (size 9 to 14) (size 15 to 20)
#    0.000    1.000    3.750    2.625    1.750    7.000 
#    0.000    0.625    0.000    0.000    0.000    0.000 
#    0.000    0.000    0.000    0.000    0.000    0.000 
#
# Total GULP energy -178384.349681 kJ/mol
# GULP energy per Si atom -5574.510928 kJ/mol
# Density = 1.998480 g / cm^3
# Si number density = 20.030387 Si / 1000 Ang^3
#
#
#
# Elastic Constant Matrix: (Units=GPa)
#
#
# Indices 1 2 3 4 5 6 
#
# 1 95.2572 12.4431 53.7178 0.0000 8.3888 0.0000
# 2 12.4431 71.8653 31.4156 0.0000 1.8777 0.0000
# 3 53.7178 31.4156 147.4220 0.0000 -4.6286 0.0000
# 4 0.0000 0.0000 0.0000 33.3952 0.0000 2.4330
# 5 8.3888 1.8777 -4.6286 0.0000 23.3979 0.0000
# 6 0.0000 0.0000 0.0000 2.4330 0.0000 20.6831
#
#
#
# Elastic Compliance Matrix: (Units=1/GPa)
#
#
# Indices 1 2 3 4 5 6 
#
# 1 0.014022 0.000053 -0.005312 0.000000 -0.006082 0.000000
# 2 0.000053 0.015428 -0.003367 0.000000 -0.001923 0.000000
# 3 -0.005312 -0.003367 0.009564 0.000000 0.004067 0.000000
# 4 0.000000 0.000000 0.000000 0.030203 0.000000 -0.003553
# 5 -0.006082 -0.001923 0.004067 0.000000 0.045878 0.000000
# 6 0.000000 0.000000 0.000000 -0.003553 0.000000 0.048767
#
#
# Mechanical properties :
#
#
# Convention : Reuss Voigt Hill
#
# Bulk Modulus (GPa) = 45.95170 56.63306 51.29238
# Shear Modulus (GPa) = 26.54376 29.95977 28.25177
#
# Velocity S-wave (km/s) = 3.64424 3.87164 3.75966
# Velocity P-wave (km/s) = 6.37951 6.95134 6.67155
#
# Compressibility (1/GPa) = 0.02176198
#
# Stress axis : x y z
#
# Youngs Moduli (GPa) = 71.31680 64.81702 104.55899
#
# Poissons Ratio (x) = -0.00344 0.55538
# Poissons Ratio (y) = -0.00378 0.35210
# Poissons Ratio (z) = 0.37881 0.21827
#
# Static dielectric constant tensor:
#      x y z
#    x 1.751650 0.000000 0.033470 
#    y 0.000000 1.716740 0.000000 
#    z 0.033470 0.000000 1.779440 
# 
# From -- ./inp_files/72470.got.cif
#   From: 2010.05.17/outbox.cif.g08.bks.cpg/sg14_37_cif.got.tgz:72470.got - 2010.06.03 17:49:19.
