data_PCOD9249523
_publ_section_title
;
Structure prediction by ZEFSAII (Michael W. Deem and Ramdas Pophale) SiO2 
 PCOD9249523
Probable space group: P 21/C
;
_chemical_formula_sum "Si O2"
_cell_formula_units_Z 24
_cell_length_a 13.890208
_cell_length_b 9.308988
_cell_length_c 13.685636
_cell_angle_alpha 90.000000
_cell_angle_beta 38.564301
_cell_angle_gamma 90.000000
_cell_volume 1103.158215
_symmetry_space_group_name_H-M "P 21/C"
_symmetry_group_IT_number 14
_symmetry_cell_setting 'monoclinic'
loop_
_space_group_symop_operation_xyz
x,y,z
-x,1/2+y,1/2-z
-x,-y,-z
x,1/2-y,1/2+z
loop_
_atom_site_type_symbol
_atom_site_label
_atom_site_fract_x
_atom_site_fract_y
_atom_site_fract_z
Si Si1 0.039606 0.730071 0.397815
Si Si2 0.111527 0.913319 0.164868
Si Si3 0.295005 0.117954 0.899528
Si Si4 0.930759 0.685541 0.185193
Si Si5 0.680328 0.452065 0.810938
Si Si6 0.386176 0.199696 0.504430
O O1 0.875099 0.681330 0.486790
O O2 0.999619 0.825102 0.523341
O O3 0.135091 0.810038 0.238107
O O4 0.146327 0.598153 0.344405
O O5 0.004440 0.826643 0.175580
O O6 0.029120 0.050734 0.279180
O O7 0.261060 0.975903 0.991730
O O8 0.378617 0.236614 0.900705
O O9 0.360862 0.063527 0.744342
O O10 0.744288 0.705146 0.336201
O O11 0.563717 0.317511 0.895925
O O12 0.668115 0.538348 0.922183
#
# Coordination Sequence:
#
# PCOD9249523 Si02
#       6
#     4   4   4   4   4   4
#     4  12  22  39  70  96 126 167 221 273 323 392
#     4  11  22  38  64  97 129 162 225 262 327 379
#     4  11  22  41  67  95 130 175 218 274 321 394
#     4  11  22  41  64  97 129 173 212 275 322 395
#     4  11  23  44  66  95 129 177 216 266 337 391
#     4  10  23  42  64  92 130 172 216 266 330 385
#
# _framework density 21.755718000000002
#
# number of rings (size 3 to 8) (size 9 to 14) (size 15 to 20)
#    0.000    1.000    6.667    2.000    0.000    0.000 
#    9.000    3.333    0.000    0.000    0.000    0.000 
#    0.000    0.000    0.000    0.000    0.000    0.000 
#
# Total GULP energy -133792.244659 kJ/mol
# GULP energy per Si atom -5574.676861 kJ/mol
# Density = 2.170620 g / cm^3
# Si number density = 21.755718 Si / 1000 Ang^3
#
#
#
# Elastic Constant Matrix: (Units=GPa)
#
#
# Indices 1 2 3 4 5 6 
#
# 1 77.9784 42.4956 26.7392 0.0000 1.6090 0.0000
# 2 42.4956 68.7715 20.4847 0.0000 3.9286 0.0000
# 3 26.7392 20.4847 46.1037 0.0000 10.0031 0.0000
# 4 0.0000 0.0000 0.0000 33.7289 0.0000 13.4703
# 5 1.6090 3.9286 10.0031 0.0000 37.6296 0.0000
# 6 0.0000 0.0000 0.0000 13.4703 0.0000 46.2136
#
#
#
# Elastic Compliance Matrix: (Units=1/GPa)
#
#
# Indices 1 2 3 4 5 6 
#
# 1 0.021586 -0.011054 -0.008126 0.000000 0.002391 0.000000
# 2 -0.011054 0.022422 -0.003338 0.000000 -0.000981 0.000000
# 3 -0.008126 -0.003338 0.029433 0.000000 -0.007128 0.000000
# 4 0.000000 0.000000 0.000000 0.033554 0.000000 -0.009780
# 5 0.002391 -0.000981 -0.007128 0.000000 0.028470 0.000000
# 6 0.000000 0.000000 0.000000 -0.009780 0.000000 0.024489
#
#
# Mechanical properties :
#
#
# Convention : Reuss Voigt Hill
#
# Bulk Modulus (GPa) = 35.20804 41.36586 38.28695
# Shear Modulus (GPa) = 23.31434 30.39001 26.85218
#
# Velocity S-wave (km/s) = 3.27715 3.74153 3.51701
# Velocity P-wave (km/s) = 5.52613 6.14170 5.84203
#
# Compressibility (1/GPa) = 0.02840260
#
# Stress axis : x y z
#
# Youngs Moduli (GPa) = 46.32735 44.59889 33.97511
#
# Poissons Ratio (x) = 0.49301 0.27610
# Poissons Ratio (y) = 0.51211 0.11343
# Poissons Ratio (z) = 0.37647 0.14889
#
# Static dielectric constant tensor:
#      x y z
#    x 1.833040 0.000000 0.036540 
#    y 0.000000 1.832720 0.000000 
#    z 0.036540 0.000000 1.827010 
# 
# From -- ./inp_files/46372.got.cif
#   From: 2010.05.17/outbox.cif.g08.bks.cpg/sg14_24_cif.got.tgz:46372.got - 2010.06.03 17:49:19.
