data_PCOD9249439
_publ_section_title
;
Structure prediction by ZEFSAII (Michael W. Deem and Ramdas Pophale) SiO2 
 PCOD9249439
Probable space group: P 21/C
;
_chemical_formula_sum "Si O2"
_cell_formula_units_Z 30
_cell_length_a 11.330216
_cell_length_b 15.889156
_cell_length_c 8.780225
_cell_angle_alpha 90.000000
_cell_angle_beta 110.106212
_cell_angle_gamma 90.000000
_cell_volume 1484.351009
_symmetry_space_group_name_H-M "P 21/C"
_symmetry_group_IT_number 14
_symmetry_cell_setting 'monoclinic'
loop_
_space_group_symop_operation_xyz
x,y,z
-x,1/2+y,1/2-z
-x,-y,-z
x,1/2-y,1/2+z
loop_
_atom_site_type_symbol
_atom_site_label
_atom_site_fract_x
_atom_site_fract_y
_atom_site_fract_z
Si Si1 0.718937 0.362426 0.764414
Si Si2 0.480796 0.472655 0.665731
Si Si3 0.521212 0.644332 0.844368
Si Si4 0.989993 0.440115 0.848967
Si Si5 0.226990 0.134484 0.080829
Si Si6 0.788914 0.687882 0.078313
Si Si7 0.000000 0.000000 0.000000
Si Si8 0.614538 0.254762 0.958041
O O1 0.608029 0.424617 0.765230
O O2 0.670557 0.315696 0.592425
O O3 0.848076 0.406476 0.786258
O O4 0.722990 0.294313 0.901461
O O5 0.500000 0.500000 0.500000
O O6 0.470120 0.554780 0.766113
O O7 0.359553 0.413244 0.619045
O O8 0.485963 0.712002 0.698550
O O9 0.451336 0.676888 0.964119
O O10 0.668940 0.646065 0.941658
O O11 0.085654 0.361964 0.912194
O O12 0.016230 0.481786 0.695672
O O13 0.000000 0.500000 0.000000
O O14 0.226259 0.173810 0.248968
O O15 0.114698 0.067431 0.016608
O O16 0.211253 0.213447 0.961118
#
# Coordination Sequence:
#
# PCOD9249439 Si02
#       8
#     4   4   4   4   4   4   2   4
#     4  11  23  44  65 100 136 177 233 275 354 419
#     4  12  24  38  69 100 136 182 223 291 357 411
#     4  11  22  42  66  99 138 173 231 288 349 421
#     4  11  26  48  71 104 140 186 235 293 355 418
#     4  11  26  46  71 104 140 187 240 289 360 422
#     4  11  25  43  72 102 136 188 238 288 348 433
#     4  10  26  48  70  98 148 182 236 298 344 430
#     4  10  23  41  66  96 135 175 220 293 339 415
#
# _framework density 20.210853
#
# number of rings (size 3 to 8) (size 9 to 14) (size 15 to 20)
#    0.000    1.067    1.333    4.800    3.733    6.400 
#    4.800    0.000    0.000    0.000    0.000    0.000 
#    0.000    0.000    0.000    0.000    0.000    0.000 
#
# Total GULP energy -167235.989905 kJ/mol
# GULP energy per Si atom -5574.532997 kJ/mol
# Density = 2.016485 g / cm^3
# Si number density = 20.210853 Si / 1000 Ang^3
#
#
#
# Elastic Constant Matrix: (Units=GPa)
#
#
# Indices 1 2 3 4 5 6 
#
# 1 102.4978 54.3187 44.5923 0.0000 7.7587 0.0000
# 2 54.3187 88.5446 43.8591 0.0000 4.2416 0.0000
# 3 44.5923 43.8591 105.3599 0.0000 -8.6864 0.0000
# 4 0.0000 0.0000 0.0000 19.6956 0.0000 1.9625
# 5 7.7587 4.2416 -8.6864 0.0000 25.4362 0.0000
# 6 0.0000 0.0000 0.0000 1.9625 0.0000 26.4658
#
#
#
# Elastic Compliance Matrix: (Units=1/GPa)
#
#
# Indices 1 2 3 4 5 6 
#
# 1 0.015844 -0.007508 -0.003988 0.000000 -0.004943 0.000000
# 2 -0.007508 0.018309 -0.004638 0.000000 -0.002347 0.000000
# 3 -0.003988 -0.004638 0.013658 0.000000 0.006654 0.000000
# 4 0.000000 0.000000 0.000000 0.051151 0.000000 -0.003793
# 5 -0.004943 -0.002347 0.006654 0.000000 0.043485 0.000000
# 6 0.000000 0.000000 0.000000 -0.003793 0.000000 0.038066
#
#
# Mechanical properties :
#
#
# Convention : Reuss Voigt Hill
#
# Bulk Modulus (GPa) = 64.33009 64.66028 64.49519
# Shear Modulus (GPa) = 22.93983 24.56169 23.75076
#
# Velocity S-wave (km/s) = 3.37267 3.48986 3.43176
# Velocity P-wave (km/s) = 6.86040 6.94990 6.90530
#
# Compressibility (1/GPa) = 0.01554483
#
# Stress axis : x y z
#
# Youngs Moduli (GPa) = 63.11476 54.61822 73.21529
#
# Poissons Ratio (x) = 0.41005 0.29199
# Poissons Ratio (y) = 0.47384 0.33954
# Poissons Ratio (z) = 0.25171 0.25330
#
# Static dielectric constant tensor:
#      x y z
#    x 1.712420 0.000000 0.019500 
#    y 0.000000 1.753270 0.000000 
#    z 0.019500 0.000000 1.773760 
# 
# From -- ./inp_files/13165.got.cif
#   From: 2010.05.17/outbox.cif.g08.bks.cpg/sg14_7_cif.got.tgz:13165.got - 2010.06.03 17:49:19.
