data_PCOD9249349
_publ_section_title
;
Structure prediction by ZEFSAII (Michael W. Deem and Ramdas Pophale) SiO2 
 PCOD9249349
Probable space group: P 21/C
;
_chemical_formula_sum "Si O2"
_cell_formula_units_Z 28
_cell_length_a 7.330103
_cell_length_b 27.848801
_cell_length_c 8.069182
_cell_angle_alpha 90.000000
_cell_angle_beta 41.349420
_cell_angle_gamma 90.000000
_cell_volume 1088.221113
_symmetry_space_group_name_H-M "P 21/C"
_symmetry_group_IT_number 14
_symmetry_cell_setting 'monoclinic'
loop_
_space_group_symop_operation_xyz
x,y,z
-x,1/2+y,1/2-z
-x,-y,-z
x,1/2-y,1/2+z
loop_
_atom_site_type_symbol
_atom_site_label
_atom_site_fract_x
_atom_site_fract_y
_atom_site_fract_z
Si Si1 0.920295 0.854134 0.395662
Si Si2 0.124098 0.969981 0.658371
Si Si3 0.419206 0.611655 0.795040
Si Si4 0.944671 0.062496 0.916078
Si Si5 0.829944 0.754984 0.851536
Si Si6 0.567845 0.207896 0.617288
Si Si7 0.363040 0.422020 0.679248
O O1 0.892138 0.797827 0.384878
O O2 0.671903 0.880935 0.658234
O O3 0.163426 0.867747 0.359451
O O4 0.984220 0.883309 0.183974
O O5 0.882023 0.959057 0.690031
O O6 0.371422 0.939685 0.410538
O O7 0.149404 0.026176 0.679418
O O8 0.064665 0.948699 0.883501
O O9 0.433869 0.651925 0.926741
O O10 0.632145 0.604717 0.501805
O O11 0.647089 0.052428 0.034194
O O12 0.567170 0.744648 0.916257
O O13 0.115583 0.774372 0.579334
O O14 0.680627 0.791002 0.078593
#
# Coordination Sequence:
#
# PCOD9249349 Si02
#       7
#     4   4   4   4   4   4   4
#     4  10  24  43  67  97 140 181 239 295 362 430
#     4  10  23  41  66  99 137 182 239 294 357 429
#     4  10  24  43  67  97 140 181 239 295 362 430
#     4  10  23  41  66  99 137 182 239 294 357 429
#     4  12  28  47  75 107 145 190 242 303 371 441
#     4  12  28  47  75 107 145 190 242 303 371 441
#     4  10  23  40  68  92 140 182 234 292 359 426
#
# _framework density 25.730067999999999
#
# number of rings (size 3 to 8) (size 9 to 14) (size 15 to 20)
#    0.000    1.429    0.000    3.000   14.000    6.286 
#    0.000    2.857    0.000    0.000    0.000    0.000 
#    0.000    0.000    0.000    0.000    0.000    0.000 
#
# Total GULP energy -156346.337961 kJ/mol
# GULP energy per Si atom -5583.797784 kJ/mol
# Density = 2.567151 g / cm^3
# Si number density = 25.730068 Si / 1000 Ang^3
#
#
#
# Elastic Constant Matrix: (Units=GPa)
#
#
# Indices 1 2 3 4 5 6 
#
# 1 -9.2410 32.5675 -2.7098 0.0000 0.6352 0.0000
# 2 32.5675 85.4142 49.9973 0.0000 -16.1586 0.0000
# 3 -2.7098 49.9973 85.1457 0.0000 3.5731 0.0000
# 4 0.0000 0.0000 0.0000 46.6764 0.0000 -4.5942
# 5 0.6352 -16.1586 3.5731 0.0000 34.6704 0.0000
# 6 0.0000 0.0000 0.0000 -4.5942 0.0000 41.8823
#
#
#
# Elastic Compliance Matrix: (Units=1/GPa)
#
#
# Indices 1 2 3 4 5 6 
#
# 1 -0.028509 0.021231 -0.013871 0.000000 0.011847 0.000000
# 2 0.021231 0.005741 -0.002803 0.000000 0.002575 0.000000
# 3 -0.013871 -0.002803 0.013050 0.000000 -0.002397 0.000000
# 4 0.000000 0.000000 0.000000 0.021658 0.000000 0.002376
# 5 0.011847 0.002575 -0.002397 0.000000 0.030073 0.000000
# 6 0.000000 0.000000 0.000000 0.002376 0.000000 0.024137
#
#
# Mechanical properties :
#
#
# Convention : Reuss Voigt Hill
#
# Bulk Modulus (GPa) = -1650.83337 35.66989 -807.58174
# Shear Modulus (GPa) = 87.97357 30.07675 59.02516
#
# Velocity S-wave (km/s) = 5.85365 3.42268 4.79478
# Velocity P-wave (km/s) = 24.43978 5.43257 16.84919
#
# Compressibility (1/GPa) = -0.00060575
#
# Stress axis : x y z
#
# Youngs Moduli (GPa) = -35.07659 174.19420 76.62933
#
# Poissons Ratio (x) = -3.69829 1.06294
# Poissons Ratio (y) = 0.74471 0.21482
# Poissons Ratio (z) = -0.48655 0.48832
#
# Static dielectric constant tensor:
#      x y z
#    x 2.102800 0.000000 -0.049310 
#    y 0.000000 1.987740 0.000000 
#    z -0.049310 0.000000 2.145810 
# 
# From -- ./inp_files/11013.got.cif
#   From: 2010.05.17/outbox.cif.g08.bks.cpg/sg14_6_cif.got.tgz:11013.got - 2010.06.03 17:49:19.
