data_PCOD9249675
_publ_section_title
;
Structure prediction by ZEFSAII (Michael W. Deem and Ramdas Pophale) SiO2 
 PCOD9249675
Probable space group: P 21/C
;
_chemical_formula_sum "Si O2"
_cell_formula_units_Z 30
_cell_length_a 22.826933
_cell_length_b 5.557902
_cell_length_c 19.219661
_cell_angle_alpha 90.000000
_cell_angle_beta 31.865557
_cell_angle_gamma 90.000000
_cell_volume 1287.297051
_symmetry_space_group_name_H-M "P 21/C"
_symmetry_group_IT_number 14
_symmetry_cell_setting 'monoclinic'
loop_
_space_group_symop_operation_xyz
x,y,z
-x,1/2+y,1/2-z
-x,-y,-z
x,1/2-y,1/2+z
loop_
_atom_site_type_symbol
_atom_site_label
_atom_site_fract_x
_atom_site_fract_y
_atom_site_fract_z
Si Si1 0.557275 0.218756 0.712431
Si Si2 0.911709 0.150062 0.278082
Si Si3 0.500000 0.000000 0.000000
Si Si4 0.708711 0.798103 0.742316
Si Si5 0.255103 0.020436 0.036530
Si Si6 0.147556 0.169883 0.532904
Si Si7 0.276076 0.093041 0.625809
Si Si8 0.518104 0.448505 0.892412
O O1 0.481562 0.448941 0.764732
O O2 0.673134 0.294562 0.561591
O O3 0.555126 0.254938 0.796755
O O4 0.865246 0.420925 0.323018
O O5 0.040911 0.157979 0.129973
O O6 0.893219 0.041039 0.373992
O O7 0.830255 0.014585 0.306388
O O8 0.491520 0.278460 0.984053
O O9 0.635273 0.008102 0.849578
O O10 0.798783 0.885387 0.595676
O O11 0.751709 0.648584 0.765815
O O12 0.616616 0.639710 0.793346
O O13 0.239670 0.195587 0.986923
O O14 0.302496 0.163924 0.054471
O O15 0.393801 0.948525 0.501644
#
# Coordination Sequence:
#
# PCOD9249675 Si02
#       8
#     4   4   2   4   4   4   4   4
#     4  12  26  41  69 109 146 190 251 308 375 452
#     4  11  24  45  71  94 138 175 242 312 359 433
#     4  10  24  40  62  96 144 186 224 290 350 450
#     4  11  25  43  69 103 142 187 237 288 367 454
#     4  11  23  41  67  97 140 182 234 304 361 428
#     4  11  24  44  71 102 126 184 245 298 370 427
#     4  10  23  43  62 101 138 184 224 292 367 434
#     4  11  23  42  67 100 146 187 233 290 364 447
#
# _framework density 23.304644
#
# number of rings (size 3 to 8) (size 9 to 14) (size 15 to 20)
#    0.000    1.067    4.000    2.400    5.600    4.800 
#    0.000    0.667    0.000    0.000    0.000    0.000 
#    0.000    0.000    0.000    0.000    0.000    0.000 
#
# Total GULP energy -167032.356282 kJ/mol
# GULP energy per Si atom -5567.745209 kJ/mol
# Density = 2.325160 g / cm^3
# Si number density = 23.304644 Si / 1000 Ang^3
#
#
#
# Elastic Constant Matrix: (Units=GPa)
#
#
# Indices 1 2 3 4 5 6 
#
# 1 91.6266 20.1464 53.2878 0.0000 -8.9555 0.0000
# 2 20.1464 45.4865 9.0648 0.0000 -7.1482 0.0000
# 3 53.2878 9.0648 140.5825 0.0000 3.5098 0.0000
# 4 0.0000 0.0000 0.0000 36.8277 0.0000 -7.5501
# 5 -8.9555 -7.1482 3.5098 0.0000 33.1127 0.0000
# 6 0.0000 0.0000 0.0000 -7.5501 0.0000 34.9787
#
#
#
# Elastic Compliance Matrix: (Units=1/GPa)
#
#
# Indices 1 2 3 4 5 6 
#
# 1 0.015768 -0.005254 -0.005731 0.000000 0.003738 0.000000
# 2 -0.005254 0.024869 0.000290 0.000000 0.003917 0.000000
# 3 -0.005731 0.000290 0.009329 0.000000 -0.002476 0.000000
# 4 0.000000 0.000000 0.000000 0.028411 0.000000 0.006132
# 5 0.003738 0.003917 -0.002476 0.000000 0.032319 0.000000
# 6 0.000000 0.000000 0.000000 0.006132 0.000000 0.029912
#
#
# Mechanical properties :
#
#
# Convention : Reuss Voigt Hill
#
# Bulk Modulus (GPa) = 34.99504 49.18817 42.09160
# Shear Modulus (GPa) = 29.15061 33.99694 31.57377
#
# Velocity S-wave (km/s) = 3.54057 3.82357 3.68479
# Velocity P-wave (km/s) = 5.63588 6.37537 6.01700
#
# Compressibility (1/GPa) = 0.02857548
#
# Stress axis : x y z
#
# Youngs Moduli (GPa) = 63.42132 40.21014 107.19499
#
# Poissons Ratio (x) = 0.21127 0.61436
# Poissons Ratio (y) = 0.33322 -0.03111
# Poissons Ratio (z) = 0.36348 -0.01167
#
# Static dielectric constant tensor:
#      x y z
#    x 1.547200 0.000000 -0.294700 
#    y 0.000000 2.036150 0.000000 
#    z -0.294700 0.000000 1.701550 
# 
# From -- ./inp_files/70091.got.cif
#   From: 2010.05.17/outbox.cif.g08.bks.cpg/sg14_36_cif.got.tgz:70091.got - 2010.06.03 17:49:19.
