data_PCOD9249344
_publ_section_title
;
Structure prediction by ZEFSAII (Michael W. Deem and Ramdas Pophale) SiO2 
 PCOD9249344
Probable space group: P 21/C
;
_chemical_formula_sum "Si O2"
_cell_formula_units_Z 22
_cell_length_a 16.667789
_cell_length_b 5.116301
_cell_length_c 9.449909
_cell_angle_alpha 90.000000
_cell_angle_beta 75.542925
_cell_angle_gamma 90.000000
_cell_volume 780.346189
_symmetry_space_group_name_H-M "P 21/C"
_symmetry_group_IT_number 14
_symmetry_cell_setting 'monoclinic'
loop_
_space_group_symop_operation_xyz
x,y,z
-x,1/2+y,1/2-z
-x,-y,-z
x,1/2-y,1/2+z
loop_
_atom_site_type_symbol
_atom_site_label
_atom_site_fract_x
_atom_site_fract_y
_atom_site_fract_z
Si Si1 0.624946 0.735031 0.030780
Si Si2 0.090572 0.197424 0.306809
Si Si3 0.772782 0.984236 0.086410
Si Si4 0.390060 0.715987 0.276959
Si Si5 0.500000 0.000000 0.000000
Si Si6 0.092481 0.802872 0.618787
O O1 0.556564 0.217392 0.880207
O O2 0.569752 0.759586 0.918270
O O3 0.717718 0.846865 0.988283
O O4 0.623109 0.476811 0.122821
O O5 0.166035 0.278950 0.370920
O O6 0.095325 0.906727 0.245119
O O7 0.998221 0.236400 0.409896
O O8 0.095549 0.407025 0.177473
O O9 0.700801 0.098274 0.219292
O O10 0.830062 0.216486 0.007041
O O11 0.424231 0.497769 0.376282
#
# Coordination Sequence:
#
# PCOD9249344 Si02
#       6
#     4   4   4   4   2   4
#     4  10  26  42  66  98 128 167 227 263 336 387
#     4  10  23  40  67  96 137 172 226 264 338 389
#     4  10  25  42  67  96 135 170 221 277 324 393
#     4  10  26  44  63 102 121 172 219 273 323 406
#     4  12  24  48  72  88 138 174 216 282 338 384
#     4  10  23  41  65 100 130 181 215 275 325 402
#
# _framework density 28.192613999999999
#
# number of rings (size 3 to 8) (size 9 to 14) (size 15 to 20)
#    1.091    0.727    0.000    1.636    7.636    2.909 
#    0.000    5.455    0.000    0.000    0.000    0.000 
#    0.000    0.000    0.000    0.000    0.000    0.000 
#
# Total GULP energy -122987.625036 kJ/mol
# GULP energy per Si atom -5590.346593 kJ/mol
# Density = 2.812845 g / cm^3
# Si number density = 28.192614 Si / 1000 Ang^3
#
#
#
# Elastic Constant Matrix: (Units=GPa)
#
#
# Indices 1 2 3 4 5 6 
#
# 1 238.0107 20.7114 54.4318 0.0000 -15.5373 0.0000
# 2 20.7114 135.9781 52.8915 0.0000 9.9011 0.0000
# 3 54.4318 52.8915 94.0449 0.0000 -19.0695 0.0000
# 4 0.0000 0.0000 0.0000 56.7674 0.0000 -1.6159
# 5 -15.5373 9.9011 -19.0695 0.0000 44.2735 0.0000
# 6 0.0000 0.0000 0.0000 -1.6159 0.0000 6.3581
#
#
#
# Elastic Compliance Matrix: (Units=1/GPa)
#
#
# Indices 1 2 3 4 5 6 
#
# 1 0.004869 0.000387 -0.002965 0.000000 0.000345 0.000000
# 2 0.000387 0.010480 -0.007194 0.000000 -0.005306 0.000000
# 3 -0.002965 -0.007194 0.018091 0.000000 0.008360 0.000000
# 4 0.000000 0.000000 0.000000 0.017744 0.000000 0.004510
# 5 0.000345 -0.005306 0.008360 0.000000 0.027495 0.000000
# 6 0.000000 0.000000 0.000000 0.004510 0.000000 0.158426
#
#
# Mechanical properties :
#
#
# Convention : Reuss Voigt Hill
#
# Bulk Modulus (GPa) = 71.97321 80.45588 76.21455
# Shear Modulus (GPa) = 19.13655 44.14641 31.64148
#
# Velocity S-wave (km/s) = 2.60816 3.96142 3.35376
# Velocity P-wave (km/s) = 5.88681 7.03731 6.48761
#
# Compressibility (1/GPa) = 0.01389406
#
# Stress axis : x y z
#
# Youngs Moduli (GPa) = 205.40095 95.42206 55.27727
#
# Poissons Ratio (x) = -0.03691 0.16392
# Poissons Ratio (y) = -0.07946 0.39765
# Poissons Ratio (z) = 0.60911 0.68644
#
# Static dielectric constant tensor:
#      x y z
#    x 2.285360 0.000000 0.121860 
#    y 0.000000 2.268010 0.000000 
#    z 0.121860 0.000000 2.328520 
# 
# From -- ./inp_files/31094.got.cif
#   From: 2010.05.17/outbox.cif.g08.bks.cpg/sg14_16_cif.got.tgz:31094.got - 2010.06.03 17:49:19.
