data_PCOD9249986
_publ_section_title
;
Structure prediction by ZEFSAII (Michael W. Deem and Ramdas Pophale) SiO2 
 PCOD9249986
Probable space group: P 21/C
;
_chemical_formula_sum "Si O2"
_cell_formula_units_Z 28
_cell_length_a 18.260612
_cell_length_b 8.954963
_cell_length_c 13.865172
_cell_angle_alpha 90.000000
_cell_angle_beta 35.419624
_cell_angle_gamma 90.000000
_cell_volume 1314.023195
_symmetry_space_group_name_H-M "P 21/C"
_symmetry_group_IT_number 14
_symmetry_cell_setting 'monoclinic'
loop_
_space_group_symop_operation_xyz
x,y,z
-x,1/2+y,1/2-z
-x,-y,-z
x,1/2-y,1/2+z
loop_
_atom_site_type_symbol
_atom_site_label
_atom_site_fract_x
_atom_site_fract_y
_atom_site_fract_z
Si Si1 0.300518 0.580310 0.039879
Si Si2 0.884947 0.390944 0.598562
Si Si3 0.932805 0.849852 0.601062
Si Si4 0.557289 0.403633 0.299280
Si Si5 0.504226 0.272388 0.554630
Si Si6 0.235796 0.164004 0.859541
Si Si7 0.288419 0.225789 0.025790
O O1 0.329471 0.618830 0.897586
O O2 0.420903 0.646517 0.967849
O O3 0.184977 0.646634 0.225762
O O4 0.283437 0.401315 0.058438
O O5 0.793642 0.491272 0.631065
O O6 0.000000 0.500000 0.500000
O O7 0.954541 0.251749 0.477014
O O8 0.871601 0.765934 0.574248
O O9 0.815511 0.860627 0.799304
O O10 0.000000 0.000000 0.500000
O O11 0.578837 0.329799 0.380515
O O12 0.527525 0.579323 0.348708
O O13 0.429001 0.333788 0.394155
O O14 0.369306 0.207427 0.668507
O O15 0.252113 0.199782 0.953884
#
# Coordination Sequence:
#
# PCOD9249986 Si02
#       7
#     4   4   4   4   4   4   4
#     4  12  22  44  72 100 140 185 229 287 354 416
#     4  10  23  45  68  93 134 178 231 276 335 418
#     4  11  26  49  70  94 138 185 229 292 347 407
#     4  11  23  42  65 105 143 177 229 287 352 414
#     4  11  24  40  69 107 142 179 229 289 355 415
#     4  11  22  45  69 102 137 177 229 288 345 408
#     4  12  24  44  71 102 142 178 231 290 346 422
#
# _framework density 21.308603999999999
#
# number of rings (size 3 to 8) (size 9 to 14) (size 15 to 20)
#    0.000    0.857    7.143    0.000    2.000    3.429 
#    2.571    0.000    0.000    0.000    0.000    0.000 
#    0.000    0.000    0.000    0.000    0.000    0.000 
#
# Total GULP energy -156434.485775 kJ/mol
# GULP energy per Si atom -5586.945921 kJ/mol
# Density = 2.126010 g / cm^3
# Si number density = 21.308604 Si / 1000 Ang^3
#
#
#
# Elastic Constant Matrix: (Units=GPa)
#
#
# Indices 1 2 3 4 5 6 
#
# 1 57.6691 2.9517 5.1181 0.0000 21.8727 0.0000
# 2 2.9517 52.1728 -7.5049 0.0000 -6.2862 0.0000
# 3 5.1181 -7.5049 98.1994 0.0000 9.7607 0.0000
# 4 0.0000 0.0000 0.0000 32.1483 0.0000 -7.8018
# 5 21.8727 -6.2862 9.7607 0.0000 33.4259 0.0000
# 6 0.0000 0.0000 0.0000 -7.8018 0.0000 27.4274
#
#
#
# Elastic Compliance Matrix: (Units=1/GPa)
#
#
# Indices 1 2 3 4 5 6 
#
# 1 0.023599 -0.003256 0.000120 0.000000 -0.016090 0.000000
# 2 -0.003256 0.020191 0.001157 0.000000 0.005590 0.000000
# 3 0.000120 0.001157 0.010558 0.000000 -0.002944 0.000000
# 4 0.000000 0.000000 0.000000 0.033412 0.000000 0.009504
# 5 -0.016090 0.005590 -0.002944 0.000000 0.042357 0.000000
# 6 0.000000 0.000000 0.000000 0.009504 0.000000 0.039163
#
#
# Mechanical properties :
#
#
# Convention : Reuss Voigt Hill
#
# Bulk Modulus (GPa) = 19.84491 23.24126 21.54308
# Shear Modulus (GPa) = 26.31089 32.43206 29.37148
#
# Velocity S-wave (km/s) = 3.51772 3.90554 3.71669
# Velocity P-wave (km/s) = 5.08256 5.59180 5.34325
#
# Compressibility (1/GPa) = 0.05039075
#
# Stress axis : x y z
#
# Youngs Moduli (GPa) = 42.37495 49.52626 94.71331
#
# Poissons Ratio (x) = 0.16128 -0.01141
# Poissons Ratio (y) = 0.13799 -0.10960
# Poissons Ratio (z) = -0.00510 -0.05731
#
# Static dielectric constant tensor:
#      x y z
#    x 2.018310 0.000000 -0.147870 
#    y 0.000000 1.986790 0.000000 
#    z -0.147870 0.000000 1.901070 
# 
# From -- ./inp_files/50185.got.cif
#   From: 2010.05.17/outbox.cif.g08.bks.cpg/sg14_26_cif.got.tgz:50185.got - 2010.06.03 17:49:19.
