data_PCOD9249185
_publ_section_title
;
Structure prediction by ZEFSAII (Michael W. Deem and Ramdas Pophale) SiO2 
 PCOD9249185
Probable space group: P 21/C
;
_chemical_formula_sum "Si O2"
_cell_formula_units_Z 24
_cell_length_a 5.018733
_cell_length_b 10.303070
_cell_length_c 17.688360
_cell_angle_alpha 90.000000
_cell_angle_beta 77.537247
_cell_angle_gamma 90.000000
_cell_volume 893.084019
_symmetry_space_group_name_H-M "P 21/C"
_symmetry_group_IT_number 14
_symmetry_cell_setting 'monoclinic'
loop_
_space_group_symop_operation_xyz
x,y,z
-x,1/2+y,1/2-z
-x,-y,-z
x,1/2-y,1/2+z
loop_
_atom_site_type_symbol
_atom_site_label
_atom_site_fract_x
_atom_site_fract_y
_atom_site_fract_z
Si Si1 0.924953 0.691467 0.456880
Si Si2 0.630979 0.689954 0.833589
Si Si3 0.256212 0.936215 0.815211
Si Si4 0.986798 0.297801 0.804089
Si Si5 0.279194 0.571649 0.960808
Si Si6 0.418446 0.192601 0.877388
O O1 0.762899 0.779472 0.406845
O O2 0.717970 0.655379 0.535335
O O3 0.037540 0.576933 0.396939
O O4 0.176467 0.777532 0.472874
O O5 0.455566 0.812463 0.813453
O O6 0.418246 0.577010 0.868310
O O7 0.892472 0.693468 0.763140
O O8 0.105473 0.914644 0.744573
O O9 0.416657 0.067388 0.822594
O O10 0.719544 0.246611 0.861698
O O11 0.221531 0.301446 0.852282
O O12 0.500000 0.500000 0.000000
O O13 0.000000 0.500000 0.000000
#
# Coordination Sequence:
#
# PCOD9249185 Si02
#       6
#     4   4   4   4   4   4
#     4  10  24  44  73 106 143 175 245 299 341 431
#     4  10  22  48  68  99 144 190 228 288 362 433
#     4  10  24  49  74  97 143 192 225 290 374 411
#     4  11  26  47  65 102 147 179 238 282 354 436
#     4  11  22  41  67  98 136 185 233 278 349 405
#     4  12  27  45  73 108 137 183 243 299 348 418
#
# _framework density 26.873172
#
# number of rings (size 3 to 8) (size 9 to 14) (size 15 to 20)
#    0.000    1.333    3.333    0.500    9.333    0.667 
#    9.000    0.000    0.000    0.000    0.000    0.000 
#    0.000    0.000    0.000    0.000    0.000    0.000 
#
# Total GULP energy -134210.108359 kJ/mol
# GULP energy per Si atom -5592.087848 kJ/mol
# Density = 2.681201 g / cm^3
# Si number density = 26.873172 Si / 1000 Ang^3
#
#
#
# Elastic Constant Matrix: (Units=GPa)
#
#
# Indices 1 2 3 4 5 6 
#
# 1 156.7803 13.4857 19.8587 0.0000 -23.0868 0.0000
# 2 13.4857 73.1920 -23.4490 0.0000 2.2839 0.0000
# 3 19.8587 -23.4490 85.4975 0.0000 -30.3813 0.0000
# 4 0.0000 0.0000 0.0000 26.2005 0.0000 2.4657
# 5 -23.0868 2.2839 -30.3813 0.0000 53.3935 0.0000
# 6 0.0000 0.0000 0.0000 2.4657 0.0000 27.7375
#
#
#
# Elastic Compliance Matrix: (Units=1/GPa)
#
#
# Indices 1 2 3 4 5 6 
#
# 1 0.007046 -0.001781 -0.001273 0.000000 0.002399 0.000000
# 2 -0.001781 0.015624 0.005249 0.000000 0.001548 0.000000
# 3 -0.001273 0.005249 0.016490 0.000000 0.008608 0.000000
# 4 0.000000 0.000000 0.000000 0.038489 0.000000 -0.003422
# 5 0.002399 0.001548 0.008608 0.000000 0.024598 0.000000
# 6 0.000000 0.000000 0.000000 -0.003422 0.000000 0.036356
#
#
# Mechanical properties :
#
#
# Convention : Reuss Voigt Hill
#
# Bulk Modulus (GPa) = 22.96122 37.25118 30.10620
# Shear Modulus (GPa) = 33.61791 41.83793 37.72792
#
# Velocity S-wave (km/s) = 3.54076 3.94999 3.75096
# Velocity P-wave (km/s) = 5.02781 5.89026 5.47604
#
# Compressibility (1/GPa) = 0.04355168
#
# Stress axis : x y z
#
# Youngs Moduli (GPa) = 141.92569 64.00346 60.64125
#
# Poissons Ratio (x) = 0.11398 0.07717
# Poissons Ratio (y) = 0.25274 -0.31831
# Poissons Ratio (z) = 0.18062 -0.33596
#
# Static dielectric constant tensor:
#      x y z
#    x 2.103460 0.000000 -0.003440 
#    y 0.000000 2.174320 0.000000 
#    z -0.003440 0.000000 2.164040 
# 
# From -- ./inp_files/52948.got.cif
#   From: 2010.05.17/outbox.cif.g08.bks.cpg/sg14_27_cif.got.tgz:52948.got - 2010.06.03 17:49:19.
