data_PCOD9249352
_publ_section_title
;
Structure prediction by ZEFSAII (Michael W. Deem and Ramdas Pophale) SiO2 
 PCOD9249352
Probable space group: P 21/C
;
_chemical_formula_sum "Si O2"
_cell_formula_units_Z 24
_cell_length_a 12.101938
_cell_length_b 5.263559
_cell_length_c 16.990552
_cell_angle_alpha 90.000000
_cell_angle_beta 60.771906
_cell_angle_gamma 90.000000
_cell_volume 944.492043
_symmetry_space_group_name_H-M "P 21/C"
_symmetry_group_IT_number 14
_symmetry_cell_setting 'monoclinic'
loop_
_space_group_symop_operation_xyz
x,y,z
-x,1/2+y,1/2-z
-x,-y,-z
x,1/2-y,1/2+z
loop_
_atom_site_type_symbol
_atom_site_label
_atom_site_fract_x
_atom_site_fract_y
_atom_site_fract_z
Si Si1 0.576194 0.869742 0.726886
Si Si2 0.035318 0.173313 0.412727
Si Si3 0.227180 0.146641 0.951732
Si Si4 0.633834 0.372242 0.470017
Si Si5 0.223831 0.157444 0.217594
Si Si6 0.818416 0.494922 0.895996
O O1 0.470700 0.656517 0.746738
O O2 0.679430 0.847621 0.622193
O O3 0.649841 0.773293 0.778663
O O4 0.120356 0.399556 0.422278
O O5 0.128485 0.046270 0.315578
O O6 0.909608 0.214703 0.404410
O O7 0.000000 0.000000 0.500000
O O8 0.319928 0.941582 0.957972
O O9 0.164179 0.277691 0.048594
O O10 0.500000 0.500000 0.500000
O O11 0.727307 0.476778 0.368628
O O12 0.668910 0.076569 0.450297
O O13 0.156749 0.397437 0.198979
#
# Coordination Sequence:
#
# PCOD9249352 Si02
#       6
#     4   4   4   4   4   4
#     4  11  25  42  69  98 141 187 240 299 358 436
#     4   9  20  45  67  97 136 178 240 302 360 439
#     4   9  22  42  63  96 133 182 237 289 362 426
#     4  11  24  39  65  99 138 184 232 293 362 440
#     4  10  24  41  64 104 133 183 239 295 367 431
#     4  10  23  40  68  95 136 181 230 301 364 433
#
# _framework density 25.410484
#
# number of rings (size 3 to 8) (size 9 to 14) (size 15 to 20)
#    0.000    2.000    0.000    1.000   11.667    2.000 
#    0.000    0.000    0.000    0.000    0.000    0.000 
#    0.000    0.000    0.000    0.000    0.000    0.000 
#
# Total GULP energy -133767.224792 kJ/mol
# GULP energy per Si atom -5573.634366 kJ/mol
# Density = 2.535265 g / cm^3
# Si number density = 25.410484 Si / 1000 Ang^3
#
#
#
# Elastic Constant Matrix: (Units=GPa)
#
#
# Indices 1 2 3 4 5 6 
#
# 1 130.6832 25.3470 45.9095 0.0000 13.6420 0.0000
# 2 25.3470 53.6554 15.8102 0.0000 7.5188 0.0000
# 3 45.9095 15.8102 122.6563 0.0000 16.5104 0.0000
# 4 0.0000 0.0000 0.0000 34.0164 0.0000 -3.4351
# 5 13.6420 7.5188 16.5104 0.0000 42.4053 0.0000
# 6 0.0000 0.0000 0.0000 -3.4351 0.0000 25.4024
#
#
#
# Elastic Compliance Matrix: (Units=1/GPa)
#
#
# Indices 1 2 3 4 5 6 
#
# 1 0.009484 -0.003434 -0.002932 0.000000 -0.001301 0.000000
# 2 -0.003434 0.020892 -0.001116 0.000000 -0.002165 0.000000
# 3 -0.002932 -0.001116 0.009752 0.000000 -0.002656 0.000000
# 4 0.000000 0.000000 0.000000 0.029805 0.000000 0.004030
# 5 -0.001301 -0.002165 -0.002656 0.000000 0.025418 0.000000
# 6 0.000000 0.000000 0.000000 0.004030 0.000000 0.039911
#
#
# Mechanical properties :
#
#
# Convention : Reuss Voigt Hill
#
# Bulk Modulus (GPa) = 39.74090 53.45871 46.59980
# Shear Modulus (GPa) = 31.52304 35.02668 33.27486
#
# Velocity S-wave (km/s) = 3.52597 3.71675 3.62262
# Velocity P-wave (km/s) = 5.67892 6.28512 5.98969
#
# Compressibility (1/GPa) = 0.02516299
#
# Stress axis : x y z
#
# Youngs Moduli (GPa) = 105.44101 47.86529 102.54664
#
# Poissons Ratio (x) = 0.16437 0.30068
# Poissons Ratio (y) = 0.36209 0.11446
# Poissons Ratio (z) = 0.30916 0.05343
#
# Static dielectric constant tensor:
#      x y z
#    x 2.098610 0.000000 -0.039120 
#    y 0.000000 2.166270 0.000000 
#    z -0.039120 0.000000 1.994130 
# 
# From -- ./inp_files/56535.got.cif
#   From: 2010.05.17/outbox.cif.g08.bks.cpg/sg14_29_cif.got.tgz:56535.got - 2010.06.03 17:49:19.
