data_PCOD9249819
_publ_section_title
;
Structure prediction by ZEFSAII (Michael W. Deem and Ramdas Pophale) SiO2 
 PCOD9249819
Probable space group: P 21/C
;
_chemical_formula_sum "Si O2"
_cell_formula_units_Z 22
_cell_length_a 11.739316
_cell_length_b 7.829575
_cell_length_c 15.771200
_cell_angle_alpha 90.000000
_cell_angle_beta 146.400525
_cell_angle_gamma 90.000000
_cell_volume 802.180784
_symmetry_space_group_name_H-M "P 21/C"
_symmetry_group_IT_number 14
_symmetry_cell_setting 'monoclinic'
loop_
_space_group_symop_operation_xyz
x,y,z
-x,1/2+y,1/2-z
-x,-y,-z
x,1/2-y,1/2+z
loop_
_atom_site_type_symbol
_atom_site_label
_atom_site_fract_x
_atom_site_fract_y
_atom_site_fract_z
Si Si1 0.223794 0.880618 0.568070
Si Si2 0.000000 0.000000 0.000000
Si Si3 0.151173 0.298097 0.284263
Si Si4 0.363493 0.607777 0.336633
Si Si5 0.351084 0.267568 0.627532
Si Si6 0.823793 0.422980 0.213596
O O1 0.032224 0.790840 0.402921
O O2 0.198901 0.888668 0.654711
O O3 0.433532 0.771258 0.685254
O O4 0.270587 0.074145 0.569085
O O5 0.816125 0.885674 0.932805
O O6 0.152239 0.955161 0.172424
O O7 0.023887 0.373428 0.283770
O O8 0.318312 0.427608 0.351235
O O9 0.234687 0.110107 0.354278
O O10 0.566530 0.648356 0.408761
O O11 0.313457 0.754938 0.372831
#
# Coordination Sequence:
#
# PCOD9249819 Si02
#       6
#     4   2   4   4   4   4
#     4  10  23  43  74 112 144 196 249 310 375 453
#     4  12  24  46  76  98 140 212 242 308 372 444
#     4  12  24  44  75 111 151 195 251 313 383 450
#     4  10  23  45  69 110 142 194 252 301 377 458
#     4  10  24  43  76 108 145 194 256 310 371 457
#     4  12  25  44  76 106 150 201 247 308 379 445
#
# _framework density 27.425239999999999
#
# number of rings (size 3 to 8) (size 9 to 14) (size 15 to 20)
#    1.091    0.000    1.818    4.909    2.545    0.000 
#    0.000    4.545    4.000    0.000    0.000    0.000 
#    0.000    0.000    0.000    0.000    0.000    0.000 
#
# Total GULP energy -122806.593326 kJ/mol
# GULP energy per Si atom -5582.117878 kJ/mol
# Density = 2.736282 g / cm^3
# Si number density = 27.425240 Si / 1000 Ang^3
#
#
#
# Elastic Constant Matrix: (Units=GPa)
#
#
# Indices 1 2 3 4 5 6 
#
# 1 128.5540 85.8728 20.6352 0.0000 1.8275 0.0000
# 2 85.8728 220.7273 41.8851 0.0000 22.3727 0.0000
# 3 20.6352 41.8851 93.9718 0.0000 23.3449 0.0000
# 4 0.0000 0.0000 0.0000 5.4543 0.0000 21.3358
# 5 1.8275 22.3727 23.3449 0.0000 57.2983 0.0000
# 6 0.0000 0.0000 0.0000 21.3358 0.0000 33.2015
#
#
#
# Elastic Compliance Matrix: (Units=1/GPa)
#
#
# Indices 1 2 3 4 5 6 
#
# 1 0.010670 -0.004147 -0.000904 0.000000 0.001647 0.000000
# 2 -0.004147 0.006630 -0.001596 0.000000 -0.001806 0.000000
# 3 -0.000904 -0.001596 0.012672 0.000000 -0.004511 0.000000
# 4 0.000000 0.000000 0.000000 -0.121118 0.000000 0.077832
# 5 0.001647 -0.001806 -0.004511 0.000000 0.019943 0.000000
# 6 0.000000 0.000000 0.000000 0.077832 0.000000 -0.019897
#
#
# Mechanical properties :
#
#
# Convention : Reuss Voigt Hill
#
# Bulk Modulus (GPa) = 59.95514 82.22659 71.09086
# Shear Modulus (GPa) = -69.20665 38.84817 -15.17924
#
# Velocity S-wave (km/s) = -5.02886 3.76774 -2.35516
# Velocity P-wave (km/s) = 3.43664 6.99821 4.31071
#
# Compressibility (1/GPa) = 0.01667914
#
# Stress axis : x y z
#
# Youngs Moduli (GPa) = 93.71651 150.83881 78.91501
#
# Poissons Ratio (x) = 0.62548 0.07134
# Poissons Ratio (y) = 0.38861 0.12592
# Poissons Ratio (z) = 0.08472 0.24069
#
# Static dielectric constant tensor:
#      x y z
#    x 2.009870 0.000000 -0.113940 
#    y 0.000000 2.103680 0.000000 
#    z -0.113940 0.000000 2.442380 
# 
# From -- ./inp_files/57170.got.cif
#   From: 2010.05.17/outbox.cif.g08.bks.cpg/sg14_29_cif.got.tgz:57170.got - 2010.06.03 17:49:19.
