data_PCOD9249724
_publ_section_title
;
Structure prediction by ZEFSAII (Michael W. Deem and Ramdas Pophale) SiO2 
 PCOD9249724
Probable space group: P 21/C
;
_chemical_formula_sum "Si O2"
_cell_formula_units_Z 24
_cell_length_a 7.200578
_cell_length_b 19.292047
_cell_length_c 9.126935
_cell_angle_alpha 90.000000
_cell_angle_beta 60.626706
_cell_angle_gamma 90.000000
_cell_volume 1104.865416
_symmetry_space_group_name_H-M "P 21/C"
_symmetry_group_IT_number 14
_symmetry_cell_setting 'monoclinic'
loop_
_space_group_symop_operation_xyz
x,y,z
-x,1/2+y,1/2-z
-x,-y,-z
x,1/2-y,1/2+z
loop_
_atom_site_type_symbol
_atom_site_label
_atom_site_fract_x
_atom_site_fract_y
_atom_site_fract_z
Si Si1 0.621996 0.954781 0.073360
Si Si2 0.084455 0.076713 0.505298
Si Si3 0.998270 0.110373 0.226319
Si Si4 0.557363 0.069639 0.334311
Si Si5 0.751072 0.302645 0.610116
Si Si6 0.714152 0.164282 0.790845
O O1 0.497875 0.882290 0.127965
O O2 0.599160 0.999426 0.228819
O O3 0.861148 0.942517 0.923777
O O4 0.500000 0.000000 0.000000
O O5 0.106581 0.117636 0.341491
O O6 0.318814 0.071851 0.484598
O O7 0.910008 0.115484 0.668458
O O8 0.000000 0.000000 0.500000
O O9 0.761016 0.082399 0.357738
O O10 0.952891 0.174273 0.133894
O O11 0.587858 0.135474 0.213816
O O12 0.686497 0.227472 0.689836
O O13 0.770671 0.305787 0.428943
#
# Coordination Sequence:
#
# PCOD9249724 Si02
#       6
#     4   4   4   4   4   4
#     4  12  19  42  75 102 135 183 229 296 342 408
#     4  12  23  41  68 102 142 173 229 294 342 408
#     4  10  23  43  67 100 137 178 233 278 351 413
#     4  10  23  43  68 104 135 182 235 283 348 412
#     4  10  25  45  66 101 137 186 234 280 352 435
#     4  12  24  44  71 101 143 183 234 289 359 410
#
# _framework density 21.722104000000002
#
# number of rings (size 3 to 8) (size 9 to 14) (size 15 to 20)
#    1.000    0.000    5.000    1.500    0.000    2.000 
#    3.000    3.333    0.000    0.000    0.000    0.000 
#    0.000    0.000    0.000    0.000    0.000    0.000 
#
# Total GULP energy -133964.921613 kJ/mol
# GULP energy per Si atom -5581.871734 kJ/mol
# Density = 2.167266 g / cm^3
# Si number density = 21.722104 Si / 1000 Ang^3
#
#
#
# Elastic Constant Matrix: (Units=GPa)
#
#
# Indices 1 2 3 4 5 6 
#
# 1 92.1779 22.2904 27.0496 0.0000 -16.4717 0.0000
# 2 22.2904 115.9436 46.9451 0.0000 9.8934 0.0000
# 3 27.0496 46.9451 80.0920 0.0000 0.9565 0.0000
# 4 0.0000 0.0000 0.0000 29.5746 0.0000 6.6599
# 5 -16.4717 9.8934 0.9565 0.0000 35.4681 0.0000
# 6 0.0000 0.0000 0.0000 6.6599 0.0000 25.5847
#
#
#
# Elastic Compliance Matrix: (Units=1/GPa)
#
#
# Indices 1 2 3 4 5 6 
#
# 1 0.013566 -0.001713 -0.003660 0.000000 0.006876 0.000000
# 2 -0.001713 0.011848 -0.006319 0.000000 -0.003930 0.000000
# 3 -0.003660 -0.006319 0.017430 0.000000 -0.000407 0.000000
# 4 0.000000 0.000000 0.000000 0.035918 0.000000 -0.009350
# 5 0.006876 -0.003930 -0.000407 0.000000 0.032495 0.000000
# 6 0.000000 0.000000 0.000000 -0.009350 0.000000 0.041520
#
#
# Mechanical properties :
#
#
# Convention : Reuss Voigt Hill
#
# Bulk Modulus (GPa) = 51.38614 53.42042 52.40328
# Shear Modulus (GPa) = 27.37512 30.92071 29.14791
#
# Velocity S-wave (km/s) = 3.55384 3.77698 3.66711
# Velocity P-wave (km/s) = 6.36767 6.60809 6.48899
#
# Compressibility (1/GPa) = 0.01946050
#
# Stress axis : x y z
#
# Youngs Moduli (GPa) = 73.71628 84.40109 57.37107
#
# Poissons Ratio (x) = 0.14458 0.20995
# Poissons Ratio (y) = 0.12628 0.36254
# Poissons Ratio (z) = 0.26977 0.53335
#
# Static dielectric constant tensor:
#      x y z
#    x 1.817710 0.000000 -0.002390 
#    y 0.000000 1.772120 0.000000 
#    z -0.002390 0.000000 1.783880 
# 
# From -- ./inp_files/10138.got.cif
#   From: 2010.05.17/outbox.cif.g08.bks.cpg/sg14_6_cif.got.tgz:10138.got - 2010.06.03 17:49:19.
