data_PCOD9249383
_publ_section_title
;
Structure prediction by ZEFSAII (Michael W. Deem and Ramdas Pophale) SiO2 
 PCOD9249383
Probable space group: P 21/C
;
_chemical_formula_sum "Si O2"
_cell_formula_units_Z 28
_cell_length_a 6.214092
_cell_length_b 24.203465
_cell_length_c 8.650842
_cell_angle_alpha 90.000000
_cell_angle_beta 90.063818
_cell_angle_gamma 90.000000
_cell_volume 1301.107961
_symmetry_space_group_name_H-M "P 21/C"
_symmetry_group_IT_number 14
_symmetry_cell_setting 'monoclinic'
loop_
_space_group_symop_operation_xyz
x,y,z
-x,1/2+y,1/2-z
-x,-y,-z
x,1/2-y,1/2+z
loop_
_atom_site_type_symbol
_atom_site_label
_atom_site_fract_x
_atom_site_fract_y
_atom_site_fract_z
Si Si1 0.207435 0.281990 0.153700
Si Si2 0.584485 0.304443 0.666254
Si Si3 0.716337 0.089132 0.323265
Si Si4 0.457693 0.392842 0.106490
Si Si5 0.116695 0.738470 0.593598
Si Si6 0.474119 0.988659 0.180583
Si Si7 0.127869 0.458498 0.886895
O O1 0.354913 0.226597 0.164474
O O2 0.372880 0.331443 0.127234
O O3 0.060265 0.292791 0.303340
O O4 0.033204 0.275001 0.018225
O O5 0.586096 0.367677 0.719057
O O6 0.734941 0.274607 0.793942
O O7 0.716779 0.296846 0.507855
O O8 0.670523 0.104023 0.501756
O O9 0.636810 0.028621 0.273850
O O10 0.971234 0.086167 0.307803
O O11 0.483909 0.426191 0.264916
O O12 0.293803 0.426130 0.995733
O O13 0.247197 0.007202 0.253779
O O14 0.500000 0.000000 0.000000
O O15 0.000000 0.500000 0.000000
#
# Coordination Sequence:
#
# PCOD9249383 Si02
#       7
#     4   4   4   4   4   4   4
#     4  11  23  41  65  90 133 167 206 274 315 368
#     4  11  23  41  64  93 125 170 213 258 324 378
#     4  11  22  41  66  88 122 167 212 256 310 385
#     4  11  22  40  65  91 122 167 213 252 316 383
#     4  10  23  41  60  95 126 162 221 254 316 394
#     4  11  25  40  59  97 128 157 209 262 321 377
#     4  11  20  43  67  87 120 166 214 256 306 377
#
# _framework density 21.520119000000001
#
# number of rings (size 3 to 8) (size 9 to 14) (size 15 to 20)
#    0.000    1.143    2.857    4.286    0.000    8.571 
#    2.571    0.000    0.000    0.000    0.000    0.000 
#    0.000    0.000    0.000    0.000    0.000    0.000 
#
# Total GULP energy -156465.407805 kJ/mol
# GULP energy per Si atom -5588.050279 kJ/mol
# Density = 2.147114 g / cm^3
# Si number density = 21.520119 Si / 1000 Ang^3
#
#
#
# Elastic Constant Matrix: (Units=GPa)
#
#
# Indices 1 2 3 4 5 6 
#
# 1 69.2186 -11.9182 7.6911 0.0000 -7.7636 0.0000
# 2 -11.9182 37.2178 -9.7501 0.0000 -0.3830 0.0000
# 3 7.6911 -9.7501 95.3321 0.0000 -23.3859 0.0000
# 4 0.0000 0.0000 0.0000 23.2054 0.0000 -2.5078
# 5 -7.7636 -0.3830 -23.3859 0.0000 31.9965 0.0000
# 6 0.0000 0.0000 0.0000 -2.5078 0.0000 27.1487
#
#
#
# Elastic Compliance Matrix: (Units=1/GPa)
#
#
# Indices 1 2 3 4 5 6 
#
# 1 0.015763 0.005156 0.000255 0.000000 0.004073 0.000000
# 2 0.005156 0.029521 0.003652 0.000000 0.004273 0.000000
# 3 0.000255 0.003652 0.013243 0.000000 0.009785 0.000000
# 4 0.000000 0.000000 0.000000 0.043528 0.000000 0.004021
# 5 0.004073 0.004273 0.009785 0.000000 0.039444 0.000000
# 6 0.000000 0.000000 0.000000 0.004021 0.000000 0.037206
#
#
# Mechanical properties :
#
#
# Convention : Reuss Voigt Hill
#
# Bulk Modulus (GPa) = 13.04592 19.31268 16.17930
# Shear Modulus (GPa) = 26.86299 30.85317 28.85808
#
# Velocity S-wave (km/s) = 3.53692 3.79052 3.66591
# Velocity P-wave (km/s) = 4.77023 5.30576 5.04511
#
# Compressibility (1/GPa) = 0.07665230
#
# Stress axis : x y z
#
# Youngs Moduli (GPa) = 63.43838 33.87452 75.51277
#
# Poissons Ratio (x) = -0.17467 -0.01923
# Poissons Ratio (y) = -0.32712 -0.27574
# Poissons Ratio (z) = -0.01616 -0.12369
#
# Static dielectric constant tensor:
#      x y z
#    x 1.797960 0.000000 -0.013110 
#    y 0.000000 1.784850 0.000000 
#    z -0.013110 0.000000 1.797830 
# 
# From -- ./inp_files/6543.got.cif
#   From: 2010.05.17/outbox.cif.g08.bks.cpg/sg14_4_cif.got.tgz:6543.got - 2010.06.03 17:49:19.
