data_PCOD9249405
_publ_section_title
;
Structure prediction by ZEFSAII (Michael W. Deem and Ramdas Pophale) SiO2 
 PCOD9249405
Probable space group: P 21/C
;
_chemical_formula_sum "Si O2"
_cell_formula_units_Z 24
_cell_length_a 26.948863
_cell_length_b 5.135797
_cell_length_c 15.160723
_cell_angle_alpha 90.000000
_cell_angle_beta 27.212544
_cell_angle_gamma 90.000000
_cell_volume 959.538534
_symmetry_space_group_name_H-M "P 21/C"
_symmetry_group_IT_number 14
_symmetry_cell_setting 'monoclinic'
loop_
_space_group_symop_operation_xyz
x,y,z
-x,1/2+y,1/2-z
-x,-y,-z
x,1/2-y,1/2+z
loop_
_atom_site_type_symbol
_atom_site_label
_atom_site_fract_x
_atom_site_fract_y
_atom_site_fract_z
Si Si1 0.573142 0.489903 0.234402
Si Si2 0.922822 0.716533 0.552147
Si Si3 0.573094 0.011209 0.534988
Si Si4 0.098633 0.695663 0.021614
Si Si5 0.283642 0.700741 0.354262
Si Si6 0.886860 0.579215 0.290171
O O1 0.524508 0.778521 0.318509
O O2 0.619095 0.458423 0.061911
O O3 0.651157 0.402267 0.189653
O O4 0.474413 0.279458 0.397168
O O5 0.894291 0.459745 0.544926
O O6 0.894444 0.716337 0.699345
O O7 0.862612 0.958451 0.600983
O O8 0.047041 0.825025 0.349857
O O9 0.651144 0.085230 0.331336
O O10 0.172275 0.688178 0.990094
O O11 0.968567 0.659880 0.240221
O O12 0.235135 0.474929 0.492255
#
# Coordination Sequence:
#
# PCOD9249405 Si02
#       6
#     4   4   4   4   4   4
#     4  10  24  49  72 100 139 183 226 299 367 418
#     4   9  21  44  63  87 144 187 227 275 339 391
#     4  10  24  49  72 100 140 176 234 300 356 423
#     4  10  23  41  63  97 142 180 227 282 331 405
#     4  12  25  42  76 107 137 184 244 281 354 422
#     4   9  23  41  66  96 140 182 234 280 332 405
#
# _framework density 25.012021000000001
#
# number of rings (size 3 to 8) (size 9 to 14) (size 15 to 20)
#    1.000    1.000    0.000    1.500    4.667    2.667 
#   12.000    0.000    0.000    0.000    0.000    0.000 
#    0.000    0.000    0.000    0.000    0.000    0.000 
#
# Total GULP energy -134265.760652 kJ/mol
# GULP energy per Si atom -5594.406694 kJ/mol
# Density = 2.495509 g / cm^3
# Si number density = 25.012021 Si / 1000 Ang^3
#
#
#
# Elastic Constant Matrix: (Units=GPa)
#
#
# Indices 1 2 3 4 5 6 
#
# 1 73.0791 -1.9209 18.1410 0.0000 9.5134 0.0000
# 2 -1.9209 93.2319 -5.5707 0.0000 -0.6411 0.0000
# 3 18.1410 -5.5707 113.4507 0.0000 23.2357 0.0000
# 4 0.0000 0.0000 0.0000 8.2178 0.0000 -1.2239
# 5 9.5134 -0.6411 23.2357 0.0000 24.8512 0.0000
# 6 0.0000 0.0000 0.0000 -1.2239 0.0000 18.8518
#
#
#
# Elastic Compliance Matrix: (Units=1/GPa)
#
#
# Indices 1 2 3 4 5 6 
#
# 1 0.014601 0.000184 -0.001462 0.000000 -0.004218 0.000000
# 2 0.000184 0.010761 0.000565 0.000000 -0.000321 0.000000
# 3 -0.001462 0.000565 0.011080 0.000000 -0.009786 0.000000
# 4 0.000000 0.000000 0.000000 0.122875 0.000000 0.007977
# 5 -0.004218 -0.000321 -0.009786 0.000000 0.050995 0.000000
# 6 0.000000 0.000000 0.000000 0.007977 0.000000 0.053563
#
#
# Mechanical properties :
#
#
# Convention : Reuss Voigt Hill
#
# Bulk Modulus (GPa) = 28.55784 33.45115 31.00449
# Shear Modulus (GPa) = 18.05230 28.32497 23.18863
#
# Velocity S-wave (km/s) = 2.68945 3.36885 3.04813
# Velocity P-wave (km/s) = 4.59201 5.34184 4.98106
#
# Compressibility (1/GPa) = 0.03501666
#
# Stress axis : x y z
#
# Youngs Moduli (GPa) = 68.49036 92.92576 90.25225
#
# Poissons Ratio (x) = -0.01714 0.13193
# Poissons Ratio (y) = -0.01264 -0.05096
# Poissons Ratio (z) = 0.10012 -0.05247
#
# Static dielectric constant tensor:
#      x y z
#    x 2.017960 0.000000 0.017930 
#    y 0.000000 2.028330 0.000000 
#    z 0.017930 0.000000 2.000300 
# 
# From -- ./inp_files/52109.got.cif
#   From: 2010.05.17/outbox.cif.g08.bks.cpg/sg14_27_cif.got.tgz:52109.got - 2010.06.03 17:49:19.
