data_PCOD9249121
_publ_section_title
;
Structure prediction by ZEFSAII (Michael W. Deem and Ramdas Pophale) SiO2 
 PCOD9249121
Probable space group: P 21/C
;
_chemical_formula_sum "Si O2"
_cell_formula_units_Z 20
_cell_length_a 7.202096
_cell_length_b 18.019360
_cell_length_c 9.459393
_cell_angle_alpha 90.000000
_cell_angle_beta 131.224816
_cell_angle_gamma 90.000000
_cell_volume 923.324132
_symmetry_space_group_name_H-M "P 21/C"
_symmetry_group_IT_number 14
_symmetry_cell_setting 'monoclinic'
loop_
_space_group_symop_operation_xyz
x,y,z
-x,1/2+y,1/2-z
-x,-y,-z
x,1/2-y,1/2+z
loop_
_atom_site_type_symbol
_atom_site_label
_atom_site_fract_x
_atom_site_fract_y
_atom_site_fract_z
Si Si1 0.473178 0.182061 0.515144
Si Si2 0.417973 0.173876 0.166619
Si Si3 0.220917 0.029407 0.351977
Si Si4 0.121407 0.900651 0.093771
Si Si5 0.715063 0.441384 0.636314
O O1 0.515194 0.196997 0.370213
O O2 0.385343 0.254937 0.551393
O O3 0.271494 0.116260 0.406433
O O4 0.708077 0.150881 0.719604
O O5 0.614213 0.118022 0.195871
O O6 0.156011 0.131182 0.044347
O O7 0.967565 0.018056 0.311986
O O8 0.500000 0.000000 0.500000
O O9 0.147999 0.982118 0.176733
O O10 0.221516 0.903528 0.983441
O O11 0.500000 0.500000 0.500000
#
# Coordination Sequence:
#
# PCOD9249121 Si02
#       5
#     4   4   4   4   4
#     4  11  26  46  71 101 147 193 239 303 360 434
#     4  12  26  46  71 106 146 193 245 299 371 437
#     4  10  22  46  72 105 145 187 239 299 357 427
#     4  11  24  48  73 105 149 187 247 306 358 437
#     4  12  23  44  78 108 142 193 238 297 371 430
#
# _framework density 21.660867
#
# number of rings (size 3 to 8) (size 9 to 14) (size 15 to 20)
#    0.000    0.800    4.000    3.000    2.800    1.600 
#    7.200    6.000    0.000    0.000    0.000    0.000 
#    0.000    0.000    0.000    0.000    0.000    0.000 
#
# Total GULP energy -111453.174732 kJ/mol
# GULP energy per Si atom -5572.658737 kJ/mol
# Density = 2.161157 g / cm^3
# Si number density = 21.660867 Si / 1000 Ang^3
#
#
#
# Elastic Constant Matrix: (Units=GPa)
#
#
# Indices 1 2 3 4 5 6 
#
# 1 160.9754 57.8436 83.2951 0.0000 6.8193 0.0000
# 2 57.8436 99.3155 37.8342 0.0000 0.1455 0.0000
# 3 83.2951 37.8342 151.9204 0.0000 3.0356 0.0000
# 4 0.0000 0.0000 0.0000 26.9102 0.0000 -4.6643
# 5 6.8193 0.1455 3.0356 0.0000 51.9182 0.0000
# 6 0.0000 0.0000 0.0000 -4.6643 0.0000 44.4503
#
#
#
# Elastic Compliance Matrix: (Units=1/GPa)
#
#
# Indices 1 2 3 4 5 6 
#
# 1 0.010057 -0.004158 -0.004458 0.000000 -0.001049 0.000000
# 2 -0.004158 0.012844 -0.000930 0.000000 0.000565 0.000000
# 3 -0.004458 -0.000930 0.009257 0.000000 0.000047 0.000000
# 4 0.000000 0.000000 0.000000 0.037849 0.000000 0.003972
# 5 -0.001049 0.000565 0.000047 0.000000 0.019394 0.000000
# 6 0.000000 0.000000 0.000000 0.003972 0.000000 0.022914
#
#
# Mechanical properties :
#
#
# Convention : Reuss Voigt Hill
#
# Bulk Modulus (GPa) = 76.53004 85.57301 81.05153
# Shear Modulus (GPa) = 36.82881 40.20496 38.51688
#
# Velocity S-wave (km/s) = 4.12788 4.31293 4.22142
# Velocity P-wave (km/s) = 7.62410 8.02455 7.82689
#
# Compressibility (1/GPa) = 0.01306676
#
# Stress axis : x y z
#
# Youngs Moduli (GPa) = 99.43094 77.85667 108.02334
#
# Poissons Ratio (x) = 0.32372 0.48154
# Poissons Ratio (y) = 0.41342 0.10050
# Poissons Ratio (z) = 0.44324 0.07243
#
# Static dielectric constant tensor:
#      x y z
#    x 1.740530 0.000000 0.017390 
#    y 0.000000 1.800910 0.000000 
#    z 0.017390 0.000000 1.861690 
# 
# From -- ./inp_files/6064.got.cif
#   From: 2010.05.17/outbox.cif.g08.bks.cpg/sg14_4_cif.got.tgz:6064.got - 2010.06.03 17:49:19.
