data_PCOD9249861
_publ_section_title
;
Structure prediction by ZEFSAII (Michael W. Deem and Ramdas Pophale) SiO2 
 PCOD9249861
Probable space group: P 21/C
;
_chemical_formula_sum "Si O2"
_cell_formula_units_Z 20
_cell_length_a 12.933824
_cell_length_b 10.671865
_cell_length_c 7.349176
_cell_angle_alpha 90.000000
_cell_angle_beta 125.043148
_cell_angle_gamma 90.000000
_cell_volume 830.503078
_symmetry_space_group_name_H-M "P 21/C"
_symmetry_group_IT_number 14
_symmetry_cell_setting 'monoclinic'
loop_
_space_group_symop_operation_xyz
x,y,z
-x,1/2+y,1/2-z
-x,-y,-z
x,1/2-y,1/2+z
loop_
_atom_site_type_symbol
_atom_site_label
_atom_site_fract_x
_atom_site_fract_y
_atom_site_fract_z
Si Si1 0.853163 0.601741 0.499096
Si Si2 0.140050 0.569469 0.832370
Si Si3 0.506625 0.089234 0.794992
Si Si4 0.765614 0.867282 0.302975
Si Si5 0.397053 0.839017 0.732695
O O1 0.840785 0.484734 0.351159
O O2 0.807179 0.723751 0.346843
O O3 0.776412 0.588114 0.606992
O O4 0.999961 0.623335 0.697738
O O5 0.147199 0.453608 0.981026
O O6 0.257451 0.655978 0.007893
O O7 0.370525 0.127326 0.740039
O O8 0.547539 0.199867 0.703331
O O9 0.483828 0.944485 0.717331
O O10 0.600592 0.107191 0.060467
#
# Coordination Sequence:
#
# PCOD9249861 Si02
#       5
#     4   4   4   4   4
#     4  11  22  40  68  94 126 177 221 271 339 406
#     4  10  24  43  62  99 131 170 226 278 338 394
#     4  10  23  44  67 101 133 182 227 274 344 402
#     4  11  21  42  67  92 132 175 221 275 339 414
#     4  10  23  45  66  97 139 171 229 279 336 408
#
# _framework density 24.081789000000001
#
# number of rings (size 3 to 8) (size 9 to 14) (size 15 to 20)
#    0.000    1.600    2.000    1.800    2.800    2.400 
#   10.800    0.000    0.000    0.000    0.000    0.000 
#    0.000    0.000    0.000    0.000    0.000    0.000 
#
# Total GULP energy -111904.946184 kJ/mol
# GULP energy per Si atom -5595.247309 kJ/mol
# Density = 2.402698 g / cm^3
# Si number density = 24.081789 Si / 1000 Ang^3
#
#
#
# Elastic Constant Matrix: (Units=GPa)
#
#
# Indices 1 2 3 4 5 6 
#
# 1 72.9491 20.0101 31.2014 0.0000 2.7261 0.0000
# 2 20.0101 75.1123 0.8497 0.0000 -3.0164 0.0000
# 3 31.2014 0.8497 79.1576 0.0000 15.4704 0.0000
# 4 0.0000 0.0000 0.0000 20.8944 0.0000 2.2230
# 5 2.7261 -3.0164 15.4704 0.0000 39.8062 0.0000
# 6 0.0000 0.0000 0.0000 2.2230 0.0000 28.1994
#
#
#
# Elastic Compliance Matrix: (Units=1/GPa)
#
#
# Indices 1 2 3 4 5 6 
#
# 1 0.018077 -0.004683 -0.007320 0.000000 0.001252 0.000000
# 2 -0.004683 0.014577 0.001527 0.000000 0.000832 0.000000
# 3 -0.007320 0.001527 0.016646 0.000000 -0.005852 0.000000
# 4 0.000000 0.000000 0.000000 0.048265 0.000000 -0.003805
# 5 0.001252 0.000832 -0.005852 0.000000 0.027373 0.000000
# 6 0.000000 0.000000 0.000000 -0.003805 0.000000 0.035762
#
#
# Mechanical properties :
#
#
# Convention : Reuss Voigt Hill
#
# Bulk Modulus (GPa) = 35.27583 36.81572 36.04578
# Shear Modulus (GPa) = 26.16442 29.45718 27.81080
#
# Velocity S-wave (km/s) = 3.29976 3.50124 3.40199
# Velocity P-wave (km/s) = 5.40352 5.62725 5.51652
#
# Compressibility (1/GPa) = 0.02834802
#
# Stress axis : x y z
#
# Youngs Moduli (GPa) = 55.32034 68.60128 60.07617
#
# Poissons Ratio (x) = 0.32123 0.43973
# Poissons Ratio (y) = 0.25904 -0.09171
# Poissons Ratio (z) = 0.40492 -0.10473
#
# Static dielectric constant tensor:
#      x y z
#    x 1.922230 0.000000 -0.004810 
#    y 0.000000 1.983400 0.000000 
#    z -0.004810 0.000000 1.947280 
# 
# From -- ./inp_files/12265.got.cif
#   From: 2010.05.17/outbox.cif.g08.bks.cpg/sg14_7_cif.got.tgz:12265.got - 2010.06.03 17:49:19.
