data_PCOD9249595
_publ_section_title
;
Structure prediction by ZEFSAII (Michael W. Deem and Ramdas Pophale) SiO2 
 PCOD9249595
Probable space group: P 21/C
;
_chemical_formula_sum "Si O2"
_cell_formula_units_Z 22
_cell_length_a 18.556435
_cell_length_b 8.335020
_cell_length_c 8.841774
_cell_angle_alpha 90.000000
_cell_angle_beta 134.553570
_cell_angle_gamma 90.000000
_cell_volume 974.503164
_symmetry_space_group_name_H-M "P 21/C"
_symmetry_group_IT_number 14
_symmetry_cell_setting 'monoclinic'
loop_
_space_group_symop_operation_xyz
x,y,z
-x,1/2+y,1/2-z
-x,-y,-z
x,1/2-y,1/2+z
loop_
_atom_site_type_symbol
_atom_site_label
_atom_site_fract_x
_atom_site_fract_y
_atom_site_fract_z
Si Si1 0.794775 0.203404 0.906572
Si Si2 0.306728 0.550161 0.014976
Si Si3 0.500000 0.500000 0.500000
Si Si4 0.438333 0.153319 0.355290
Si Si5 0.287826 0.212307 0.889722
Si Si6 0.116800 0.542340 0.179395
O O1 0.711570 0.121711 0.677545
O O2 0.747759 0.335482 0.946932
O O3 0.866514 0.298760 0.896773
O O4 0.849247 0.078585 0.098095
O O5 0.419352 0.533969 0.242269
O O6 0.258822 0.372137 0.938562
O O7 0.508059 0.310790 0.452877
O O8 0.350324 0.217644 0.340306
O O9 0.500000 0.000000 0.500000
O O10 0.375849 0.117557 0.110233
O O11 0.193443 0.095226 0.730899
O O12 0.000000 0.500000 0.000000
#
# Coordination Sequence:
#
# PCOD9249595 Si02
#       6
#     4   4   2   4   4   4
#     4  10  24  43  69 105 139 189 235 308 378 443
#     4  10  23  42  68 100 144 190 238 303 365 444
#     4  10  24  40  66  98 140 190 252 286 360 448
#     4  11  27  43  68 103 143 197 243 303 372 449
#     4  11  25  46  65 103 142 189 242 308 361 447
#     4  11  25  47  75 105 144 191 248 315 386 453
#
# _framework density 22.575606000000001
#
# number of rings (size 3 to 8) (size 9 to 14) (size 15 to 20)
#    0.000    1.455    0.000    3.273   12.727    5.818 
#    0.000    3.636    0.000    0.000    0.000    0.000 
#    0.000    0.000    0.000    0.000    0.000    0.000 
#
# Total GULP energy -122518.043769 kJ/mol
# GULP energy per Si atom -5569.001989 kJ/mol
# Density = 2.252422 g / cm^3
# Si number density = 22.575606 Si / 1000 Ang^3
#
#
#
# Elastic Constant Matrix: (Units=GPa)
#
#
# Indices 1 2 3 4 5 6 
#
# 1 78.5536 36.4642 61.7005 0.0000 9.0890 0.0000
# 2 36.4642 106.8447 58.4394 0.0000 15.0130 0.0000
# 3 61.7005 58.4394 134.0050 0.0000 1.0510 0.0000
# 4 0.0000 0.0000 0.0000 40.5068 0.0000 3.5855
# 5 9.0890 15.0130 1.0510 0.0000 31.5847 0.0000
# 6 0.0000 0.0000 0.0000 3.5855 0.0000 30.4611
#
#
#
# Elastic Compliance Matrix: (Units=1/GPa)
#
#
# Indices 1 2 3 4 5 6 
#
# 1 0.021106 -0.001581 -0.008989 0.000000 -0.005023 0.000000
# 2 -0.001581 0.013514 -0.005120 0.000000 -0.005798 0.000000
# 3 -0.008989 -0.005120 0.013798 0.000000 0.004561 0.000000
# 4 0.000000 0.000000 0.000000 0.024947 0.000000 -0.002936
# 5 -0.005023 -0.005798 0.004561 0.000000 0.035711 0.000000
# 6 0.000000 0.000000 0.000000 -0.002936 0.000000 0.033174
#
#
# Mechanical properties :
#
#
# Convention : Reuss Voigt Hill
#
# Bulk Modulus (GPa) = 58.69106 70.29016 64.49061
# Shear Modulus (GPa) = 27.88477 31.36381 29.62429
#
# Velocity S-wave (km/s) = 3.51832 3.73135 3.62640
# Velocity P-wave (km/s) = 6.52370 7.05457 6.79432
#
# Compressibility (1/GPa) = 0.01703837
#
# Stress axis : x y z
#
# Youngs Moduli (GPa) = 47.38101 73.99691 72.47199
#
# Poissons Ratio (x) = 0.11695 0.65145
# Poissons Ratio (y) = 0.07489 0.37108
# Poissons Ratio (z) = 0.42591 0.37888
#
# Static dielectric constant tensor:
#      x y z
#    x 2.005030 0.000000 -0.041300 
#    y 0.000000 1.862040 0.000000 
#    z -0.041300 0.000000 1.831150 
# 
# From -- ./inp_files/17495.got.cif
#   From: 2010.05.17/outbox.cif.g08.bks.cpg/sg14_9_cif.got.tgz:17495.got - 2010.06.03 17:49:19.
