data_PCOD9249155
_publ_section_title
;
Structure prediction by ZEFSAII (Michael W. Deem and Ramdas Pophale) SiO2 
 PCOD9249155
Probable space group: P 21/C
;
_chemical_formula_sum "Si O2"
_cell_formula_units_Z 32
_cell_length_a 5.285449
_cell_length_b 17.339045
_cell_length_c 15.086661
_cell_angle_alpha 90.000000
_cell_angle_beta 72.840839
_cell_angle_gamma 90.000000
_cell_volume 1321.070014
_symmetry_space_group_name_H-M "P 21/C"
_symmetry_group_IT_number 14
_symmetry_cell_setting 'monoclinic'
loop_
_space_group_symop_operation_xyz
x,y,z
-x,1/2+y,1/2-z
-x,-y,-z
x,1/2-y,1/2+z
loop_
_atom_site_type_symbol
_atom_site_label
_atom_site_fract_x
_atom_site_fract_y
_atom_site_fract_z
Si Si1 0.457707 0.697308 0.496008
Si Si2 0.631770 0.072233 0.289073
Si Si3 0.010346 0.064559 0.774709
Si Si4 0.387955 0.437591 0.637126
Si Si5 0.263172 0.451778 0.975368
Si Si6 0.868843 0.687811 0.887171
Si Si7 0.997068 0.193625 0.242919
Si Si8 0.144311 0.303711 0.383928
O O1 0.516222 0.608894 0.458674
O O2 0.591628 0.761616 0.416527
O O3 0.622459 0.706683 0.570271
O O4 0.145136 0.707711 0.541634
O O5 0.620148 0.067944 0.184574
O O6 0.356720 0.059306 0.365098
O O7 0.738284 0.154270 0.309404
O O8 0.814493 0.999974 0.291430
O O9 0.006045 0.129484 0.699179
O O10 0.145640 0.110481 0.841753
O O11 0.750483 0.021218 0.839810
O O12 0.168654 0.379331 0.698054
O O13 0.500000 0.500000 0.000000
O O14 0.187903 0.369689 0.026369
O O15 0.000000 0.500000 0.000000
O O16 0.057845 0.759938 0.842374
O O17 0.143974 0.245269 0.300545
#
# Coordination Sequence:
#
# PCOD9249155 Si02
#       8
#     4   4   4   4   4   4   4   4
#     4  11  27  46  70  99 143 180 237 288 344 411
#     4  11  23  43  73 102 141 186 231 290 355 422
#     4  10  23  46  69 101 138 180 233 283 351 421
#     4  10  24  43  68 101 137 187 229 293 349 412
#     4  12  26  44  70 107 141 179 228 289 350 415
#     4  10  22  47  67 103 137 183 227 286 346 413
#     4   9  23  44  68  98 141 181 234 283 349 415
#     4  11  26  46  69 104 134 189 231 288 345 412
#
# _framework density 24.222788999999999
#
# number of rings (size 3 to 8) (size 9 to 14) (size 15 to 20)
#    0.000    1.500    1.250    1.500   12.250    2.000 
#    4.500    0.000    0.000    0.000    0.000    0.000 
#    0.000    0.000    0.000    0.000    0.000    0.000 
#
# Total GULP energy -178379.064392 kJ/mol
# GULP energy per Si atom -5574.345762 kJ/mol
# Density = 2.416766 g / cm^3
# Si number density = 24.222789 Si / 1000 Ang^3
#
#
#
# Elastic Constant Matrix: (Units=GPa)
#
#
# Indices 1 2 3 4 5 6 
#
# 1 61.6133 14.3655 7.0216 0.0000 7.5129 0.0000
# 2 14.3655 108.3175 23.3666 0.0000 -3.2578 0.0000
# 3 7.0216 23.3666 74.1778 0.0000 -3.9889 0.0000
# 4 0.0000 0.0000 0.0000 44.4048 0.0000 2.4303
# 5 7.5129 -3.2578 -3.9889 0.0000 41.4175 0.0000
# 6 0.0000 0.0000 0.0000 2.4303 0.0000 12.2822
#
#
#
# Elastic Compliance Matrix: (Units=1/GPa)
#
#
# Indices 1 2 3 4 5 6 
#
# 1 0.017277 -0.002148 -0.001142 0.000000 -0.003413 0.000000
# 2 -0.002148 0.010182 -0.002955 0.000000 0.000906 0.000000
# 3 -0.001142 -0.002955 0.014594 0.000000 0.001380 0.000000
# 4 0.000000 0.000000 0.000000 0.022767 0.000000 -0.004505
# 5 -0.003413 0.000906 0.001380 0.000000 0.024968 0.000000
# 6 0.000000 0.000000 0.000000 -0.004505 0.000000 0.082310
#
#
# Mechanical properties :
#
#
# Convention : Reuss Voigt Hill
#
# Bulk Modulus (GPa) = 33.82638 37.06845 35.44742
# Shear Modulus (GPa) = 25.71449 32.91123 29.31286
#
# Velocity S-wave (km/s) = 3.26173 3.69004 3.48247
# Velocity P-wave (km/s) = 5.30850 5.78719 5.55300
#
# Compressibility (1/GPa) = 0.02956272
#
# Stress axis : x y z
#
# Youngs Moduli (GPa) = 57.87926 98.21532 68.51925
#
# Poissons Ratio (x) = 0.21093 0.07828
# Poissons Ratio (y) = 0.12430 0.20250
# Poissons Ratio (z) = 0.06613 0.29026
#
# Static dielectric constant tensor:
#      x y z
#    x 2.015650 0.000000 -0.005150 
#    y 0.000000 2.229370 0.000000 
#    z -0.005150 0.000000 2.014100 
# 
# From -- ./inp_files/37841.got.cif
#   From: 2010.05.17/outbox.cif.g08.bks.cpg/sg14_19_cif.got.tgz:37841.got - 2010.06.03 17:49:19.
