data_PCOD9249573
_publ_section_title
;
Structure prediction by ZEFSAII (Michael W. Deem and Ramdas Pophale) SiO2 
 PCOD9249573
Probable space group: P 21/C
;
_chemical_formula_sum "Si O2"
_cell_formula_units_Z 20
_cell_length_a 14.566093
_cell_length_b 8.935071
_cell_length_c 23.134036
_cell_angle_alpha 90.000000
_cell_angle_beta 162.956234
_cell_angle_gamma 90.000000
_cell_volume 882.493323
_symmetry_space_group_name_H-M "P 21/C"
_symmetry_group_IT_number 14
_symmetry_cell_setting 'monoclinic'
loop_
_space_group_symop_operation_xyz
x,y,z
-x,1/2+y,1/2-z
-x,-y,-z
x,1/2-y,1/2+z
loop_
_atom_site_type_symbol
_atom_site_label
_atom_site_fract_x
_atom_site_fract_y
_atom_site_fract_z
Si Si1 0.929709 0.918037 0.088695
Si Si2 0.529309 0.382515 0.415636
Si Si3 0.952928 0.919289 0.611345
Si Si4 0.543903 0.057561 0.461588
Si Si5 0.652200 0.956567 0.311653
O O1 0.060098 0.752659 0.175382
O O2 0.199118 0.025310 0.226956
O O3 0.797834 0.993150 0.068212
O O4 0.618213 0.919977 0.861430
O O5 0.613987 0.233138 0.499624
O O6 0.456139 0.340173 0.303798
O O7 0.233157 0.466881 0.264967
O O8 0.697983 0.925143 0.406063
O O9 0.790350 0.965887 0.572478
O O10 0.500000 0.000000 0.500000
O O11 0.000000 0.000000 0.500000
#
# Coordination Sequence:
#
# PCOD9249573 Si02
#       5
#     4   4   4   4   4
#     4  10  23  42  67 100 130 176 228 277 345 397
#     4   9  22  44  66  96 137 173 223 277 335 402
#     4  11  22  42  70 101 136 176 226 282 341 413
#     4  12  27  43  64  98 136 187 233 273 334 398
#     4   8  20  39  70  96 136 168 223 273 357 394
#
# _framework density 22.663062
#
# number of rings (size 3 to 8) (size 9 to 14) (size 15 to 20)
#    1.200    0.800    0.000    2.400    2.800    5.600 
#    0.000    3.000    0.000    0.000    0.000    0.000 
#    0.000    0.000    0.000    0.000    0.000    0.000 
#
# Total GULP energy -111506.362335 kJ/mol
# GULP energy per Si atom -5575.318117 kJ/mol
# Density = 2.261148 g / cm^3
# Si number density = 22.663062 Si / 1000 Ang^3
#
#
#
# Elastic Constant Matrix: (Units=GPa)
#
#
# Indices 1 2 3 4 5 6 
#
# 1 114.3603 13.4568 -6.3368 0.0000 -13.4410 0.0000
# 2 13.4568 97.3573 -21.3836 0.0000 -10.3401 0.0000
# 3 -6.3368 -21.3836 37.9674 0.0000 -4.0243 0.0000
# 4 0.0000 0.0000 0.0000 21.1535 0.0000 5.1353
# 5 -13.4410 -10.3401 -4.0243 0.0000 40.2151 0.0000
# 6 0.0000 0.0000 0.0000 5.1353 0.0000 31.4836
#
#
#
# Elastic Compliance Matrix: (Units=1/GPa)
#
#
# Indices 1 2 3 4 5 6 
#
# 1 0.009265 -0.000617 0.001526 0.000000 0.003091 0.000000
# 2 -0.000617 0.012338 0.007237 0.000000 0.003690 0.000000
# 3 0.001526 0.007237 0.031252 0.000000 0.005498 0.000000
# 4 0.000000 0.000000 0.000000 0.049223 0.000000 -0.008029
# 5 0.003091 0.003690 0.005498 0.000000 0.027398 0.000000
# 6 0.000000 0.000000 0.000000 -0.008029 0.000000 0.033072
#
#
# Mechanical properties :
#
#
# Convention : Reuss Voigt Hill
#
# Bulk Modulus (GPa) = 14.46176 24.57309 19.51743
# Shear Modulus (GPa) = 29.53258 36.16701 32.84979
#
# Velocity S-wave (km/s) = 3.61378 3.99915 3.81134
# Velocity P-wave (km/s) = 4.87931 5.67368 5.29142
#
# Compressibility (1/GPa) = 0.06914787
#
# Stress axis : x y z
#
# Youngs Moduli (GPa) = 107.93628 81.04868 31.99795
#
# Poissons Ratio (x) = 0.05001 -0.04884
# Poissons Ratio (y) = 0.06661 -0.23158
# Poissons Ratio (z) = -0.16475 -0.58656
#
# Static dielectric constant tensor:
#      x y z
#    x 1.846230 0.000000 -0.085530 
#    y 0.000000 1.777260 0.000000 
#    z -0.085530 0.000000 1.974300 
# 
# From -- ./inp_files/11906.got.cif
#   From: 2010.05.17/outbox.cif.g08.bks.cpg/sg14_6_cif.got.tgz:11906.got - 2010.06.03 17:49:19.
