data_PCOD9249275
_publ_section_title
;
Structure prediction by ZEFSAII (Michael W. Deem and Ramdas Pophale) SiO2 
 PCOD9249275
Probable space group: P 21/C
;
_chemical_formula_sum "Si O2"
_cell_formula_units_Z 32
_cell_length_a 8.455920
_cell_length_b 10.491141
_cell_length_c 22.280646
_cell_angle_alpha 90.000000
_cell_angle_beta 44.387941
_cell_angle_gamma 90.000000
_cell_volume 1382.633666
_symmetry_space_group_name_H-M "P 21/C"
_symmetry_group_IT_number 14
_symmetry_cell_setting 'monoclinic'
loop_
_space_group_symop_operation_xyz
x,y,z
-x,1/2+y,1/2-z
-x,-y,-z
x,1/2-y,1/2+z
loop_
_atom_site_type_symbol
_atom_site_label
_atom_site_fract_x
_atom_site_fract_y
_atom_site_fract_z
Si Si1 0.589039 0.890989 0.390204
Si Si2 0.171754 0.594762 0.088337
Si Si3 0.788076 0.791454 0.988445
Si Si4 0.749181 0.346287 0.368101
Si Si5 0.630096 0.432373 0.769988
Si Si6 0.008100 0.456756 0.405638
Si Si7 0.826090 0.817933 0.601117
Si Si8 0.994264 0.759963 0.302808
O O1 0.367051 0.865097 0.488250
O O2 0.751766 0.770616 0.335689
O O3 0.734311 0.982914 0.395371
O O4 0.542090 0.964186 0.341471
O O5 0.134963 0.714776 0.141407
O O6 0.956702 0.575877 0.104121
O O7 0.911905 0.743463 0.894659
O O8 0.518910 0.819878 0.056699
O O9 0.820736 0.684902 0.030522
O O10 0.899330 0.928843 0.972960
O O11 0.851256 0.366259 0.273740
O O12 0.840389 0.445141 0.392784
O O13 0.744039 0.498403 0.682560
O O14 0.434532 0.331758 0.809407
O O15 0.838439 0.359436 0.744382
O O16 0.048954 0.315371 0.418635
#
# Coordination Sequence:
#
# PCOD9249275 Si02
#       8
#     4   4   4   4   4   4   4   4
#     4  11  21  42  65  92 125 166 219 274 317 377
#     4  10  23  39  65  93 125 166 216 268 326 379
#     4  11  22  42  68  93 129 175 210 264 328 387
#     4  11  19  42  66  96 128 163 219 276 311 383
#     4  11  23  42  66  94 133 168 215 267 327 384
#     4  10  24  41  66  95 129 172 217 261 324 391
#     4  11  24  44  61  93 138 171 210 269 325 399
#     4  11  22  38  67  97 124 168 217 268 318 381
#
# _framework density 23.144234999999998
#
# number of rings (size 3 to 8) (size 9 to 14) (size 15 to 20)
#    0.000    1.250    5.000    0.750    1.750    1.500 
#    4.500    0.000    2.750    0.000    0.000    0.000 
#    0.000    0.000    0.000    0.000    0.000    0.000 
#
# Total GULP energy -178402.799862 kJ/mol
# GULP energy per Si atom -5575.087496 kJ/mol
# Density = 2.309156 g / cm^3
# Si number density = 23.144235 Si / 1000 Ang^3
#
#
#
# Elastic Constant Matrix: (Units=GPa)
#
#
# Indices 1 2 3 4 5 6 
#
# 1 74.3108 12.3649 34.8924 0.0000 -10.5625 0.0000
# 2 12.3649 30.0093 -10.6553 0.0000 -11.7450 0.0000
# 3 34.8924 -10.6553 123.5908 0.0000 -5.7127 0.0000
# 4 0.0000 0.0000 0.0000 33.3200 0.0000 -9.5332
# 5 -10.5625 -11.7450 -5.7127 0.0000 10.8224 0.0000
# 6 0.0000 0.0000 0.0000 -9.5332 0.0000 16.5688
#
#
#
# Elastic Compliance Matrix: (Units=1/GPa)
#
#
# Indices 1 2 3 4 5 6 
#
# 1 0.018117 -0.006077 -0.005254 0.000000 0.008313 0.000000
# 2 -0.006077 0.069121 0.011140 0.000000 0.074963 0.000000
# 3 -0.005254 0.011140 0.011128 0.000000 0.012835 0.000000
# 4 0.000000 0.000000 0.000000 0.035926 0.000000 0.020671
# 5 0.008313 0.074963 0.012835 0.000000 0.188643 0.000000
# 6 0.000000 0.000000 0.000000 0.020671 0.000000 0.072248
#
#
# Mechanical properties :
#
#
# Convention : Reuss Voigt Hill
#
# Bulk Modulus (GPa) = 10.20583 33.45723 21.83153
# Shear Modulus (GPa) = 11.67604 24.89616 18.28610
#
# Velocity S-wave (km/s) = 2.24852 3.28334 2.81391
# Velocity P-wave (km/s) = 3.34071 5.37225 4.47334
#
# Compressibility (1/GPa) = 0.09798324
#
# Stress axis : x y z
#
# Youngs Moduli (GPa) = 55.19668 14.46740 89.86040
#
# Poissons Ratio (x) = 0.08792 0.47217
# Poissons Ratio (y) = 0.33542 -1.00103
# Poissons Ratio (z) = 0.29003 -0.16116
#
# Static dielectric constant tensor:
#      x y z
#    x 1.924320 0.000000 0.048190 
#    y 0.000000 1.935360 0.000000 
#    z 0.048190 0.000000 1.865570 
# 
# From -- ./inp_files/48992.got.cif
#   From: 2010.05.17/outbox.cif.g08.bks.cpg/sg14_25_cif.got.tgz:48992.got - 2010.06.03 17:49:19.
