data_PCOD9249633
_publ_section_title
;
Structure prediction by ZEFSAII (Michael W. Deem and Ramdas Pophale) SiO2 
 PCOD9249633
Probable space group: P 21/C
;
_chemical_formula_sum "Si O2"
_cell_formula_units_Z 32
_cell_length_a 11.648149
_cell_length_b 5.718776
_cell_length_c 22.501311
_cell_angle_alpha 90.000000
_cell_angle_beta 72.136115
_cell_angle_gamma 90.000000
_cell_volume 1426.619078
_symmetry_space_group_name_H-M "P 21/C"
_symmetry_group_IT_number 14
_symmetry_cell_setting 'monoclinic'
loop_
_space_group_symop_operation_xyz
x,y,z
-x,1/2+y,1/2-z
-x,-y,-z
x,1/2-y,1/2+z
loop_
_atom_site_type_symbol
_atom_site_label
_atom_site_fract_x
_atom_site_fract_y
_atom_site_fract_z
Si Si1 0.103921 0.922762 0.610407
Si Si2 0.121075 0.891680 0.005365
Si Si3 0.283736 0.674675 0.669939
Si Si4 0.283259 0.195432 0.503546
Si Si5 0.544105 0.852413 0.936952
Si Si6 0.317904 0.850372 0.401195
Si Si7 0.430410 0.747143 0.258861
Si Si8 0.947637 0.506521 0.235935
O O1 0.077121 0.696655 0.576459
O O2 0.204044 0.854374 0.643750
O O3 0.986442 0.017217 0.661349
O O4 0.164200 0.078245 0.550135
O O5 0.237991 0.044264 0.003551
O O6 0.186112 0.733822 0.944595
O O7 0.000000 0.000000 0.000000
O O8 0.364256 0.509309 0.615745
O O9 0.364518 0.797409 0.706680
O O10 0.189088 0.516739 0.721797
O O11 0.381516 0.153711 0.539352
O O12 0.322333 0.104066 0.432818
O O13 0.433527 0.770826 0.914603
O O14 0.500000 0.000000 0.000000
O O15 0.341720 0.809542 0.328115
O O16 0.496747 0.496242 0.260932
O O17 0.009583 0.270931 0.253968
#
# Coordination Sequence:
#
# PCOD9249633 Si02
#       8
#     4   4   4   4   4   4   4   4
#     4  10  23  44  70 106 135 185 240 302 365 429
#     4  11  25  46  70 104 144 184 239 305 369 442
#     4  11  24  46  71 105 145 192 246 301 361 440
#     4  11  23  41  76 103 143 181 241 306 363 439
#     4  12  21  41  73 104 143 180 240 306 362 425
#     4  11  26  45  68 108 140 195 238 294 382 432
#     4  12  30  49  72 105 154 198 244 299 364 453
#     4  10  23  42  70 104 142 185 240 297 357 426
#
# _framework density 22.430655999999999
#
# number of rings (size 3 to 8) (size 9 to 14) (size 15 to 20)
#    0.000    1.000    3.750    1.875    7.000    6.000 
#    4.500    0.000    0.000    0.000    0.000    0.000 
#    0.000    0.000    0.000    0.000    0.000    0.000 
#
# Total GULP energy -178278.876020 kJ/mol
# GULP energy per Si atom -5571.214876 kJ/mol
# Density = 2.237960 g / cm^3
# Si number density = 22.430656 Si / 1000 Ang^3
#
#
#
# Elastic Constant Matrix: (Units=GPa)
#
#
# Indices 1 2 3 4 5 6 
#
# 1 66.4051 -0.4248 15.6867 0.0000 -0.9575 0.0000
# 2 -0.4248 31.9470 12.7916 0.0000 -4.3359 0.0000
# 3 15.6867 12.7916 109.5244 0.0000 -16.4573 0.0000
# 4 0.0000 0.0000 0.0000 23.3888 0.0000 -15.5192
# 5 -0.9575 -4.3359 -16.4573 0.0000 51.1437 0.0000
# 6 0.0000 0.0000 0.0000 -15.5192 0.0000 -6.5564
#
#
#
# Elastic Compliance Matrix: (Units=1/GPa)
#
#
# Indices 1 2 3 4 5 6 
#
# 1 0.015635 0.001128 -0.002430 0.000000 -0.000394 0.000000
# 2 0.001128 0.033048 -0.003780 0.000000 0.001607 0.000000
# 3 -0.002430 -0.003780 0.010366 0.000000 0.002970 0.000000
# 4 0.000000 0.000000 0.000000 0.016632 0.000000 -0.039370
# 5 -0.000394 0.001607 0.002970 0.000000 0.020637 0.000000
# 6 0.000000 0.000000 0.000000 -0.039370 0.000000 -0.059333
#
#
# Mechanical properties :
#
#
# Convention : Reuss Voigt Hill
#
# Bulk Modulus (GPa) = 20.45651 29.33149 24.89400
# Shear Modulus (GPa) = 78.80830 25.58343 52.19587
#
# Velocity S-wave (km/s) = 5.93384 3.38088 4.82912
# Velocity P-wave (km/s) = 7.48912 5.32403 6.49740
#
# Compressibility (1/GPa) = 0.04888421
#
# Stress axis : x y z
#
# Youngs Moduli (GPa) = 63.96039 30.25868 96.46792
#
# Poissons Ratio (x) = -0.03412 0.23443
# Poissons Ratio (y) = -0.07212 0.36464
# Poissons Ratio (z) = 0.15543 0.11437
#
# Static dielectric constant tensor:
#      x y z
#    x 1.912920 0.000000 -0.018030 
#    y 0.000000 2.119190 0.000000 
#    z -0.018030 0.000000 1.780900 
# 
# From -- ./inp_files/72744.got.cif
#   From: 2010.05.17/outbox.cif.g08.bks.cpg/sg14_37_cif.got.tgz:72744.got - 2010.06.03 17:49:19.
