data_PCOD9249552
_publ_section_title
;
Structure prediction by ZEFSAII (Michael W. Deem and Ramdas Pophale) SiO2 
 PCOD9249552
Probable space group: P 21/C
;
_chemical_formula_sum "Si O2"
_cell_formula_units_Z 24
_cell_length_a 16.189709
_cell_length_b 10.954877
_cell_length_c 14.449543
_cell_angle_alpha 90.000000
_cell_angle_beta 154.468078
_cell_angle_gamma 90.000000
_cell_volume 1104.566675
_symmetry_space_group_name_H-M "P 21/C"
_symmetry_group_IT_number 14
_symmetry_cell_setting 'monoclinic'
loop_
_space_group_symop_operation_xyz
x,y,z
-x,1/2+y,1/2-z
-x,-y,-z
x,1/2-y,1/2+z
loop_
_atom_site_type_symbol
_atom_site_label
_atom_site_fract_x
_atom_site_fract_y
_atom_site_fract_z
Si Si1 0.045611 0.958284 0.942990
Si Si2 0.764426 0.772802 0.590497
Si Si3 0.798537 0.041162 0.339743
Si Si4 0.250724 0.969216 0.498202
Si Si5 0.456844 0.199035 0.950772
Si Si6 0.358771 0.387671 0.689126
O O1 0.911294 0.043329 0.742940
O O2 0.261176 0.989929 0.131405
O O3 0.961458 0.823909 0.835695
O O4 0.000000 0.000000 0.000000
O O5 0.616869 0.745602 0.523818
O O6 0.773834 0.664141 0.527444
O O7 0.698925 0.886799 0.460829
O O8 0.815405 0.061145 0.466399
O O9 0.663045 0.923375 0.190106
O O10 0.679489 0.155800 0.177217
O O11 0.000000 0.000000 0.500000
O O12 0.439831 0.902023 0.657898
O O13 0.397105 0.298149 0.814092
#
# Coordination Sequence:
#
# PCOD9249552 Si02
#       6
#     4   4   4   4   4   4
#     4  10  23  42  66 102 140 172 233 282 334 423
#     4  10  23  44  65 101 136 178 226 279 347 403
#     4  11  25  44  66 101 134 175 240 279 335 422
#     4  10  24  44  65 102 131 180 230 280 339 413
#     4  11  23  43  70  96 137 180 219 288 348 400
#     4  12  22  46  71  94 145 180 227 285 348 406
#
# _framework density 21.727976000000002
#
# number of rings (size 3 to 8) (size 9 to 14) (size 15 to 20)
#    1.000    0.333    5.000    0.000    2.333    4.000 
#    6.000    0.000    0.000    0.000    0.000    0.000 
#    0.000    0.000    0.000    0.000    0.000    0.000 
#
# Total GULP energy -133855.274200 kJ/mol
# GULP energy per Si atom -5577.303092 kJ/mol
# Density = 2.167852 g / cm^3
# Si number density = 21.727976 Si / 1000 Ang^3
#
#
#
# Elastic Constant Matrix: (Units=GPa)
#
#
# Indices 1 2 3 4 5 6 
#
# 1 160.4768 16.1736 62.4421 0.0000 13.8701 0.0000
# 2 16.1736 23.5469 18.5095 0.0000 18.0391 0.0000
# 3 62.4421 18.5095 109.2423 0.0000 9.6166 0.0000
# 4 0.0000 0.0000 0.0000 34.1457 0.0000 7.9256
# 5 13.8701 18.0391 9.6166 0.0000 24.7465 0.0000
# 6 0.0000 0.0000 0.0000 7.9256 0.0000 24.4611
#
#
#
# Elastic Compliance Matrix: (Units=1/GPa)
#
#
# Indices 1 2 3 4 5 6 
#
# 1 0.008207 0.000139 -0.004453 0.000000 -0.002971 0.000000
# 2 0.000139 0.109365 -0.011995 0.000000 -0.075139 0.000000
# 3 -0.004453 -0.011995 0.013194 0.000000 0.006113 0.000000
# 4 0.000000 0.000000 0.000000 0.031668 0.000000 -0.010261
# 5 -0.002971 -0.075139 0.006113 0.000000 0.094472 0.000000
# 6 0.000000 0.000000 0.000000 -0.010261 0.000000 0.044206
#
#
# Mechanical properties :
#
#
# Convention : Reuss Voigt Hill
#
# Bulk Modulus (GPa) = 10.18876 54.16849 32.17862
# Shear Modulus (GPa) = 13.64460 29.74674 21.69567
#
# Velocity S-wave (km/s) = 2.50866 3.70409 3.16335
# Velocity P-wave (km/s) = 3.61809 6.57861 5.30889
#
# Compressibility (1/GPa) = 0.09814741
#
# Stress axis : x y z
#
# Youngs Moduli (GPa) = 121.84918 9.14369 75.79416
#
# Poissons Ratio (x) = -0.00128 0.33752
# Poissons Ratio (y) = -0.01699 0.90919
# Poissons Ratio (z) = 0.54260 0.10968
#
# Static dielectric constant tensor:
#      x y z
#    x 1.764680 0.000000 -0.021620 
#    y 0.000000 1.829900 0.000000 
#    z -0.021620 0.000000 1.850570 
# 
# From -- ./inp_files/47022.got.cif
#   From: 2010.05.17/outbox.cif.g08.bks.cpg/sg14_24_cif.got.tgz:47022.got - 2010.06.03 17:49:19.
