data_PCOD9249307
_publ_section_title
;
Structure prediction by ZEFSAII (Michael W. Deem and Ramdas Pophale) SiO2 
 PCOD9249307
Probable space group: P 21/C
;
_chemical_formula_sum "Si O2"
_cell_formula_units_Z 24
_cell_length_a 10.076892
_cell_length_b 13.696684
_cell_length_c 13.535339
_cell_angle_alpha 90.000000
_cell_angle_beta 147.004529
_cell_angle_gamma 90.000000
_cell_volume 1017.342236
_symmetry_space_group_name_H-M "P 21/C"
_symmetry_group_IT_number 14
_symmetry_cell_setting 'monoclinic'
loop_
_space_group_symop_operation_xyz
x,y,z
-x,1/2+y,1/2-z
-x,-y,-z
x,1/2-y,1/2+z
loop_
_atom_site_type_symbol
_atom_site_label
_atom_site_fract_x
_atom_site_fract_y
_atom_site_fract_z
Si Si1 0.652960 0.193314 0.571193
Si Si2 0.729399 0.966657 0.730932
Si Si3 0.192535 0.829993 0.530275
Si Si4 0.056456 0.654044 0.578760
Si Si5 0.553149 0.376271 0.624029
Si Si6 0.912810 0.504180 0.731083
O O1 0.503024 0.094085 0.453010
O O2 0.699653 0.234060 0.491568
O O3 0.917335 0.181957 0.789632
O O4 0.511424 0.269036 0.551622
O O5 0.715912 0.075462 0.771852
O O6 0.917406 0.971721 0.754881
O O7 0.850935 0.905660 0.895363
O O8 0.064370 0.753507 0.522544
O O9 0.396971 0.873213 0.729021
O O10 0.043982 0.917562 0.386014
O O11 0.799037 0.417011 0.725222
O O12 0.327366 0.444439 0.461364
#
# Coordination Sequence:
#
# PCOD9249307 Si02
#       6
#     4   4   4   4   4   4
#     4  11  23  43  64  98 132 170 221 278 330 393
#     4  11  23  40  71  95 127 172 224 273 332 394
#     4  11  23  41  66  94 134 169 219 270 328 399
#     4  10  23  40  62  97 127 167 221 268 329 393
#     4  10  25  42  64  95 132 176 216 268 338 392
#     4  11  23  44  66  95 135 171 217 274 331 397
#
# _framework density 23.590881
#
# number of rings (size 3 to 8) (size 9 to 14) (size 15 to 20)
#    0.000    1.333    1.667    3.000    4.667    0.000 
#    0.000    1.667    0.000    0.000    0.000    0.000 
#    0.000    0.000    0.000    0.000    0.000    0.000 
#
# Total GULP energy -133802.771085 kJ/mol
# GULP energy per Si atom -5575.115462 kJ/mol
# Density = 2.353719 g / cm^3
# Si number density = 23.590881 Si / 1000 Ang^3
#
#
#
# Elastic Constant Matrix: (Units=GPa)
#
#
# Indices 1 2 3 4 5 6 
#
# 1 107.5396 27.5081 52.9874 0.0000 -13.6653 0.0000
# 2 27.5081 98.3728 37.5849 0.0000 -4.1684 0.0000
# 3 52.9874 37.5849 132.8829 0.0000 -38.6593 0.0000
# 4 0.0000 0.0000 0.0000 37.5017 0.0000 -11.9209
# 5 -13.6653 -4.1684 -38.6593 0.0000 41.9165 0.0000
# 6 0.0000 0.0000 0.0000 -11.9209 0.0000 11.6097
#
#
#
# Elastic Compliance Matrix: (Units=1/GPa)
#
#
# Indices 1 2 3 4 5 6 
#
# 1 0.011820 -0.001663 -0.004332 0.000000 -0.000308 0.000000
# 2 -0.001663 0.011828 -0.003414 0.000000 -0.002515 0.000000
# 3 -0.004332 -0.003414 0.013269 0.000000 0.010486 0.000000
# 4 0.000000 0.000000 0.000000 0.039586 0.000000 0.040648
# 5 -0.000308 -0.002515 0.010486 0.000000 0.033178 0.000000
# 6 0.000000 0.000000 0.000000 0.040648 0.000000 0.127872
#
#
# Mechanical properties :
#
#
# Convention : Reuss Voigt Hill
#
# Bulk Modulus (GPa) = 55.25219 63.88403 59.56811
# Shear Modulus (GPa) = 19.05447 32.91989 25.98718
#
# Velocity S-wave (km/s) = 2.84510 3.73962 3.32260
# Velocity P-wave (km/s) = 5.85360 6.76647 6.32652
#
# Compressibility (1/GPa) = 0.01809883
#
# Stress axis : x y z
#
# Youngs Moduli (GPa) = 84.60348 84.54333 75.36175
#
# Poissons Ratio (x) = 0.14060 0.32649
# Poissons Ratio (y) = 0.14070 0.25728
# Poissons Ratio (z) = 0.36653 0.28863
#
# Static dielectric constant tensor:
#      x y z
#    x 1.966940 0.000000 -0.014100 
#    y 0.000000 1.973260 0.000000 
#    z -0.014100 0.000000 1.902200 
# 
# From -- ./inp_files/45143.got.cif
#   From: 2010.05.17/outbox.cif.g08.bks.cpg/sg14_23_cif.got.tgz:45143.got - 2010.06.03 17:49:19.
