data_PCOD9249702
_publ_section_title
;
Structure prediction by ZEFSAII (Michael W. Deem and Ramdas Pophale) SiO2 
 PCOD9249702
Probable space group: P 21/C
;
_chemical_formula_sum "Si O2"
_cell_formula_units_Z 32
_cell_length_a 6.515373
_cell_length_b 8.564209
_cell_length_c 27.366729
_cell_angle_alpha 90.000000
_cell_angle_beta 110.035601
_cell_angle_gamma 90.000000
_cell_volume 1434.620183
_symmetry_space_group_name_H-M "P 21/C"
_symmetry_group_IT_number 14
_symmetry_cell_setting 'monoclinic'
loop_
_space_group_symop_operation_xyz
x,y,z
-x,1/2+y,1/2-z
-x,-y,-z
x,1/2-y,1/2+z
loop_
_atom_site_type_symbol
_atom_site_label
_atom_site_fract_x
_atom_site_fract_y
_atom_site_fract_z
Si Si1 0.811352 0.816796 0.430992
Si Si2 0.737369 0.556386 0.721725
Si Si3 0.296065 0.229378 0.976880
Si Si4 0.747178 0.373242 0.525194
Si Si5 0.458318 0.852703 0.710534
Si Si6 0.612702 0.138040 0.127495
Si Si7 0.816115 0.065157 0.692707
Si Si8 0.042079 0.888329 0.621214
O O1 0.714277 0.844409 0.477307
O O2 0.632658 0.706742 0.389907
O O3 0.034665 0.724739 0.458604
O O4 0.867648 0.970067 0.404949
O O5 0.625110 0.712948 0.731599
O O6 0.643193 0.418292 0.747980
O O7 0.660072 0.519188 0.660876
O O8 0.996007 0.570071 0.750850
O O9 0.124730 0.285294 0.923187
O O10 0.234077 0.053198 0.988877
O O11 0.547167 0.210341 0.980849
O O12 0.674163 0.378415 0.576036
O O13 0.255036 0.803379 0.660065
O O14 0.597180 0.989175 0.695932
O O15 0.766499 0.267621 0.165258
O O16 0.912836 0.960981 0.656613
#
# Coordination Sequence:
#
# PCOD9249702 Si02
#       8
#     4   4   4   4   4   4   4   4
#     4  11  22  42  67  92 130 177 206 270 320 372
#     4  11  26  42  69  95 128 174 210 267 321 381
#     4  10  24  42  64  98 128 166 223 262 320 386
#     4  10  23  43  65  94 132 168 216 265 320 386
#     4  11  25  44  65  97 130 164 217 265 317 386
#     4  11  23  42  67  94 129 171 214 261 325 377
#     4  11  23  44  64  94 133 168 217 264 317 383
#     4  11  24  41  66  98 129 170 217 262 321 380
#
# _framework density 22.305555999999999
#
# number of rings (size 3 to 8) (size 9 to 14) (size 15 to 20)
#    0.000    1.250    2.500    2.250    5.250    3.500 
#    0.000    0.000    0.000    0.000    0.000    0.000 
#    0.000    0.000    0.000    0.000    0.000    0.000 
#
# Total GULP energy -179050.407710 kJ/mol
# GULP energy per Si atom -5595.325241 kJ/mol
# Density = 2.225479 g / cm^3
# Si number density = 22.305556 Si / 1000 Ang^3
#
#
#
# Elastic Constant Matrix: (Units=GPa)
#
#
# Indices 1 2 3 4 5 6 
#
# 1 80.2991 7.8349 27.6735 0.0000 19.9331 0.0000
# 2 7.8349 29.7661 11.2786 0.0000 6.9939 0.0000
# 3 27.6735 11.2786 73.3700 0.0000 15.5484 0.0000
# 4 0.0000 0.0000 0.0000 35.8478 0.0000 11.7160
# 5 19.9331 6.9939 15.5484 0.0000 35.3261 0.0000
# 6 0.0000 0.0000 0.0000 11.7160 0.0000 22.2128
#
#
#
# Elastic Compliance Matrix: (Units=1/GPa)
#
#
# Indices 1 2 3 4 5 6 
#
# 1 0.015725 -0.000896 -0.004357 0.000000 -0.006778 0.000000
# 2 -0.000896 0.036587 -0.004255 0.000000 -0.004865 0.000000
# 3 -0.004357 -0.004255 0.016794 0.000000 -0.004091 0.000000
# 4 0.000000 0.000000 0.000000 0.033706 0.000000 -0.017778
# 5 -0.006778 -0.004865 -0.004091 0.000000 0.034896 0.000000
# 6 0.000000 0.000000 0.000000 -0.017778 0.000000 0.054396
#
#
# Mechanical properties :
#
#
# Convention : Reuss Voigt Hill
#
# Bulk Modulus (GPa) = 19.96431 30.77880 25.37156
# Shear Modulus (GPa) = 21.94756 27.78720 24.86738
#
# Velocity S-wave (km/s) = 3.14020 3.53335 3.34256
# Velocity P-wave (km/s) = 4.70294 5.52039 5.12798
#
# Compressibility (1/GPa) = 0.05008937
#
# Stress axis : x y z
#
# Youngs Moduli (GPa) = 63.59334 27.33247 59.54518
#
# Poissons Ratio (x) = 0.02448 0.25944
# Poissons Ratio (y) = 0.05695 0.25339
# Poissons Ratio (z) = 0.27708 0.11631
#
# Static dielectric constant tensor:
#      x y z
#    x 1.802150 0.000000 -0.005800 
#    y 0.000000 1.802850 0.000000 
#    z -0.005800 0.000000 1.823030 
# 
# From -- ./inp_files/78846.got.cif
#   From: 2010.05.17/outbox.cif.g08.bks.cpg/sg14_40_cif.got.tgz:78846.got - 2010.06.03 17:49:19.
