data_PCOD9249879
_publ_section_title
;
Structure prediction by ZEFSAII (Michael W. Deem and Ramdas Pophale) SiO2 
 PCOD9249879
Probable space group: P 21/C
;
_chemical_formula_sum "Si O2"
_cell_formula_units_Z 30
_cell_length_a 12.174563
_cell_length_b 14.090666
_cell_length_c 8.277528
_cell_angle_alpha 90.000000
_cell_angle_beta 57.344426
_cell_angle_gamma 90.000000
_cell_volume 1195.532114
_symmetry_space_group_name_H-M "P 21/C"
_symmetry_group_IT_number 14
_symmetry_cell_setting 'monoclinic'
loop_
_space_group_symop_operation_xyz
x,y,z
-x,1/2+y,1/2-z
-x,-y,-z
x,1/2-y,1/2+z
loop_
_atom_site_type_symbol
_atom_site_label
_atom_site_fract_x
_atom_site_fract_y
_atom_site_fract_z
Si Si1 0.292691 0.985230 0.736203
Si Si2 0.064786 0.516293 0.175727
Si Si3 0.338132 0.195174 0.647621
Si Si4 0.833001 0.382030 0.422627
Si Si5 0.844870 0.304014 0.060565
Si Si6 0.571222 0.364772 0.140218
Si Si7 0.728025 0.622070 0.152144
Si Si8 0.500000 0.000000 0.000000
O O1 0.389949 0.945505 0.523119
O O2 0.151052 0.971041 0.767770
O O3 0.301255 0.095982 0.762762
O O4 0.298938 0.923406 0.893848
O O5 0.927194 0.470387 0.319891
O O6 0.062593 0.616590 0.089036
O O7 0.149256 0.441489 0.001244
O O8 0.480990 0.208393 0.611955
O O9 0.331273 0.166363 0.466432
O O10 0.249382 0.285246 0.756325
O O11 0.819644 0.330284 0.264193
O O12 0.891446 0.302191 0.494191
O O13 0.705567 0.315230 0.083677
O O14 0.512721 0.414724 0.345237
O O15 0.626187 0.553465 0.319648
#
# Coordination Sequence:
#
# PCOD9249879 Si02
#       8
#     4   4   4   4   4   4   4   2
#     4  10  23  44  68 101 137 174 227 279 343 418
#     4  10  23  49  67  99 138 179 232 286 336 415
#     4  11  24  43  66 105 137 182 224 281 344 411
#     4  12  26  42  76  97 138 187 224 290 349 391
#     4  11  25  45  64 105 137 177 238 278 342 418
#     4  11  24  44  68  96 143 175 231 282 346 410
#     4  11  25  42  69 100 142 177 235 277 346 414
#     4  12  22  42  70  94 134 190 208 292 342 404
#
# _framework density 25.093429
#
# number of rings (size 3 to 8) (size 9 to 14) (size 15 to 20)
#    0.000    1.067    4.000    3.600    1.867    8.533 
#    0.000    0.000    0.000    0.000    0.000    0.000 
#    0.000    0.000    0.000    0.000    0.000    0.000 
#
# Total GULP energy -167546.045489 kJ/mol
# GULP energy per Si atom -5584.868183 kJ/mol
# Density = 2.503632 g / cm^3
# Si number density = 25.093429 Si / 1000 Ang^3
#
#
#
# Elastic Constant Matrix: (Units=GPa)
#
#
# Indices 1 2 3 4 5 6 
#
# 1 41.4261 -10.5844 -0.9573 0.0000 2.1009 0.0000
# 2 -10.5844 105.2028 31.3529 0.0000 0.0322 0.0000
# 3 -0.9573 31.3529 121.3586 0.0000 -1.5400 0.0000
# 4 0.0000 0.0000 0.0000 49.2625 0.0000 6.8907
# 5 2.1009 0.0322 -1.5400 0.0000 16.8857 0.0000
# 6 0.0000 0.0000 0.0000 6.8907 0.0000 21.0580
#
#
#
# Elastic Compliance Matrix: (Units=1/GPa)
#
#
# Indices 1 2 3 4 5 6 
#
# 1 0.024970 0.002672 -0.000533 0.000000 -0.003161 0.000000
# 2 0.002672 0.010585 -0.002721 0.000000 -0.000601 0.000000
# 3 -0.000533 -0.002721 0.008950 0.000000 0.000888 0.000000
# 4 0.000000 0.000000 0.000000 0.021273 0.000000 -0.006961
# 5 -0.003161 -0.000601 0.000888 0.000000 0.059697 0.000000
# 6 0.000000 0.000000 0.000000 -0.006961 0.000000 0.049766
#
#
# Mechanical properties :
#
#
# Convention : Reuss Voigt Hill
#
# Bulk Modulus (GPa) = 23.07310 34.17887 28.62599
# Shear Modulus (GPa) = 26.19809 33.98633 30.09221
#
# Velocity S-wave (km/s) = 3.23464 3.68420 3.46671
# Velocity P-wave (km/s) = 4.81304 5.63453 5.23991
#
# Compressibility (1/GPa) = 0.04334050
#
# Stress axis : x y z
#
# Youngs Moduli (GPa) = 40.04793 94.46891 111.73000
#
# Poissons Ratio (x) = -0.25244 0.05961
# Poissons Ratio (y) = -0.10702 0.30405
# Poissons Ratio (z) = 0.02137 0.25708
#
# Static dielectric constant tensor:
#      x y z
#    x 2.043630 0.000000 0.021310 
#    y 0.000000 1.966640 0.000000 
#    z 0.021310 0.000000 1.970890 
# 
# From -- ./inp_files/16216.got.cif
#   From: 2010.05.17/outbox.cif.g08.bks.cpg/sg14_9_cif.got.tgz:16216.got - 2010.06.03 17:49:19.
