data_PCOD9249210
_publ_section_title
;
Structure prediction by ZEFSAII (Michael W. Deem and Ramdas Pophale) SiO2 
 PCOD9249210
Probable space group: P 21/C
;
_chemical_formula_sum "Si O2"
_cell_formula_units_Z 32
_cell_length_a 21.395063
_cell_length_b 5.133013
_cell_length_c 17.013348
_cell_angle_alpha 90.000000
_cell_angle_beta 125.380984
_cell_angle_gamma 90.000000
_cell_volume 1523.364463
_symmetry_space_group_name_H-M "P 21/C"
_symmetry_group_IT_number 14
_symmetry_cell_setting 'monoclinic'
loop_
_space_group_symop_operation_xyz
x,y,z
-x,1/2+y,1/2-z
-x,-y,-z
x,1/2-y,1/2+z
loop_
_atom_site_type_symbol
_atom_site_label
_atom_site_fract_x
_atom_site_fract_y
_atom_site_fract_z
Si Si1 0.449316 0.203913 0.914151
Si Si2 0.179092 0.623365 0.117460
Si Si3 0.600412 0.389884 0.987431
Si Si4 0.262109 0.666505 0.018055
Si Si5 0.075813 0.116569 0.012658
Si Si6 0.955473 0.948163 0.195004
Si Si7 0.209208 0.187472 0.896738
Si Si8 0.698518 0.004702 0.169688
O O1 0.420200 0.396028 0.961780
O O2 0.369420 0.096503 0.823441
O O3 0.513597 0.306458 0.901383
O O4 0.500000 0.000000 0.000000
O O5 0.138440 0.897530 0.075929
O O6 0.230628 0.622957 0.232599
O O7 0.114774 0.392477 0.066484
O O8 0.239970 0.605751 0.090652
O O9 0.654140 0.427354 0.950921
O O10 0.652402 0.190293 0.076299
O O11 0.205318 0.473942 0.929631
O O12 0.245668 0.967000 0.981614
O O13 0.059207 0.120638 0.907121
O O14 0.000000 0.000000 0.000000
O O15 0.875463 0.913033 0.181712
O O16 0.014118 0.739346 0.273225
O O17 0.261837 0.204744 0.858361
#
# Coordination Sequence:
#
# PCOD9249210 Si02
#       8
#     4   4   4   4   4   4   4   4
#     4   9  17  36  60  95 124 162 208 262 305 361
#     4  12  25  44  66  92 133 168 205 263 320 385
#     4   9  19  35  65  90 127 163 212 257 307 364
#     4  11  20  41  63  89 122 168 202 256 312 368
#     4  12  28  47  63  92 131 170 205 260 334 378
#     4  12  25  42  67  91 121 160 215 265 306 377
#     4  11  22  40  62  91 122 156 215 256 306 363
#     4  10  23  35  65  95 124 164 216 257 310 376
#
# _framework density 21.006133999999999
#
# number of rings (size 3 to 8) (size 9 to 14) (size 15 to 20)
#    0.000    1.250    3.750    1.875    5.250    0.000 
#    0.000    0.000    8.250    0.000    0.000    0.000 
#    0.000    0.000    0.000    0.000    0.000    0.000 
#
# Total GULP energy -178307.539177 kJ/mol
# GULP energy per Si atom -5572.110599 kJ/mol
# Density = 2.095832 g / cm^3
# Si number density = 21.006134 Si / 1000 Ang^3
#
#
#
# Elastic Constant Matrix: (Units=GPa)
#
#
# Indices 1 2 3 4 5 6 
#
# 1 121.1317 -13.4029 5.0433 0.0000 25.9920 0.0000
# 2 -13.4029 45.3276 -9.3399 0.0000 4.9206 0.0000
# 3 5.0433 -9.3399 50.0104 0.0000 8.2668 0.0000
# 4 0.0000 0.0000 0.0000 15.7874 0.0000 8.8259
# 5 25.9920 4.9206 8.2668 0.0000 19.5870 0.0000
# 6 0.0000 0.0000 0.0000 8.8259 0.0000 33.2754
#
#
#
# Elastic Compliance Matrix: (Units=1/GPa)
#
#
# Indices 1 2 3 4 5 6 
#
# 1 0.013368 0.006924 0.003402 0.000000 -0.020914 0.000000
# 2 0.006924 0.027806 0.007706 0.000000 -0.019426 0.000000
# 3 0.003402 0.007706 0.023820 0.000000 -0.016504 0.000000
# 4 0.000000 0.000000 0.000000 0.074369 0.000000 -0.019725
# 5 -0.020914 -0.019426 -0.016504 0.000000 0.090653 0.000000
# 6 0.000000 0.000000 0.000000 -0.019725 0.000000 0.035284
#
#
# Mechanical properties :
#
#
# Convention : Reuss Voigt Hill
#
# Bulk Modulus (GPa) = 9.89533 20.11897 15.00715
# Shear Modulus (GPa) = 19.01711 29.34126 24.17918
#
# Velocity S-wave (km/s) = 3.01211 3.74143 3.39640
# Velocity P-wave (km/s) = 4.10097 5.31628 4.74767
#
# Compressibility (1/GPa) = 0.10105773
#
# Stress axis : x y z
#
# Youngs Moduli (GPa) = 74.80733 35.96392 41.98153
#
# Poissons Ratio (x) = -0.24902 -0.14283
# Poissons Ratio (y) = -0.51798 -0.32350
# Poissons Ratio (z) = -0.25451 -0.27713
#
# Static dielectric constant tensor:
#      x y z
#    x 1.887880 0.000000 0.034990 
#    y 0.000000 1.910500 0.000000 
#    z 0.034990 0.000000 1.774340 
# 
# From -- ./inp_files/60949.got.cif
#   From: 2010.05.17/outbox.cif.g08.bks.cpg/sg14_31_cif.got.tgz:60949.got - 2010.06.03 17:49:19.
