data_PCOD9249842
_publ_section_title
;
Structure prediction by ZEFSAII (Michael W. Deem and Ramdas Pophale) SiO2 
 PCOD9249842
Probable space group: P 21/C
;
_chemical_formula_sum "Si O2"
_cell_formula_units_Z 20
_cell_length_a 13.768565
_cell_length_b 7.808349
_cell_length_c 19.145355
_cell_angle_alpha 90.000000
_cell_angle_beta 159.745893
_cell_angle_gamma 90.000000
_cell_volume 712.555497
_symmetry_space_group_name_H-M "P 21/C"
_symmetry_group_IT_number 14
_symmetry_cell_setting 'monoclinic'
loop_
_space_group_symop_operation_xyz
x,y,z
-x,1/2+y,1/2-z
-x,-y,-z
x,1/2-y,1/2+z
loop_
_atom_site_type_symbol
_atom_site_label
_atom_site_fract_x
_atom_site_fract_y
_atom_site_fract_z
Si Si1 0.893236 0.358485 0.527738
Si Si2 0.037132 0.165746 0.269346
Si Si3 0.410242 0.696622 0.918679
Si Si4 0.621585 0.502751 0.880448
Si Si5 0.047848 0.304397 0.005005
O O1 0.704356 0.485434 0.355704
O O2 0.125284 0.296828 0.628519
O O3 0.922691 0.435625 0.624535
O O4 0.749441 0.177745 0.447418
O O5 0.282261 0.280085 0.393853
O O6 0.240912 0.053201 0.454374
O O7 0.780966 0.227311 0.146491
O O8 0.216440 0.727074 0.718057
O O9 0.500000 0.500000 0.000000
O O10 0.728536 0.653974 0.902552
O O11 0.000000 0.500000 0.000000
#
# Coordination Sequence:
#
# PCOD9249842 Si02
#       5
#     4   4   4   4   4
#     4  11  23  42  72  98 142 193 250 310 392 453
#     4  11  25  44  72 111 153 200 256 328 392 474
#     4  11  24  48  75 111 162 210 267 332 404 490
#     4  10  23  44  65 103 139 190 249 314 378 471
#     4   9  21  44  69 102 148 196 263 322 392 474
#
# _framework density 28.067989000000001
#
# number of rings (size 3 to 8) (size 9 to 14) (size 15 to 20)
#    0.000    1.600    2.000    1.200    2.800    4.800 
#    0.000    8.000    0.000    0.000    0.000    0.000 
#    0.000    0.000    0.000    0.000    0.000    0.000 
#
# Total GULP energy -111532.214174 kJ/mol
# GULP energy per Si atom -5576.610709 kJ/mol
# Density = 2.800410 g / cm^3
# Si number density = 28.067989 Si / 1000 Ang^3
#
#
#
# Elastic Constant Matrix: (Units=GPa)
#
#
# Indices 1 2 3 4 5 6 
#
# 1 247.3828 56.2753 70.8668 0.0000 -34.9847 0.0000
# 2 56.2753 106.9878 31.9144 0.0000 -14.2447 0.0000
# 3 70.8668 31.9144 122.3743 0.0000 -5.3308 0.0000
# 4 0.0000 0.0000 0.0000 41.2166 0.0000 0.8328
# 5 -34.9847 -14.2447 -5.3308 0.0000 55.3267 0.0000
# 6 0.0000 0.0000 0.0000 0.8328 0.0000 58.3447
#
#
#
# Elastic Compliance Matrix: (Units=1/GPa)
#
#
# Indices 1 2 3 4 5 6 
#
# 1 0.005610 -0.001780 -0.002661 0.000000 0.002833 0.000000
# 2 -0.001780 0.011018 -0.001776 0.000000 0.001540 0.000000
# 3 -0.002661 -0.001776 0.010125 0.000000 -0.001164 0.000000
# 4 0.000000 0.000000 0.000000 0.024269 0.000000 -0.000346
# 5 0.002833 0.001540 -0.001164 0.000000 0.020150 0.000000
# 6 0.000000 0.000000 0.000000 -0.000346 0.000000 0.017144
#
#
# Mechanical properties :
#
#
# Convention : Reuss Voigt Hill
#
# Bulk Modulus (GPa) = 69.83403 88.31754 79.07578
# Shear Modulus (GPa) = 47.38288 52.15682 49.76985
#
# Velocity S-wave (km/s) = 4.11316 4.31540 4.21549
# Velocity P-wave (km/s) = 6.89143 7.50760 7.20611
#
# Compressibility (1/GPa) = 0.01431967
#
# Stress axis : x y z
#
# Youngs Moduli (GPa) = 178.24692 90.76227 98.76440
#
# Poissons Ratio (x) = 0.16155 0.26284
# Poissons Ratio (y) = 0.31727 0.17536
# Poissons Ratio (z) = 0.47436 0.16115
#
# Static dielectric constant tensor:
#      x y z
#    x 2.813490 0.000000 0.282180 
#    y 0.000000 2.363150 0.000000 
#    z 0.282180 0.000000 2.557190 
# 
# From -- ./inp_files/68283.got.cif
#   From: 2010.05.17/outbox.cif.g08.bks.cpg/sg14_35_cif.got.tgz:68283.got - 2010.06.03 17:49:19.
