data_PCOD9249965
_publ_section_title
;
Structure prediction by ZEFSAII (Michael W. Deem and Ramdas Pophale) SiO2 
 PCOD9249965
Probable space group: P 21/C
;
_chemical_formula_sum "Si O2"
_cell_formula_units_Z 20
_cell_length_a 21.418206
_cell_length_b 6.819672
_cell_length_c 9.507066
_cell_angle_alpha 90.000000
_cell_angle_beta 147.305027
_cell_angle_gamma 90.000000
_cell_volume 750.102690
_symmetry_space_group_name_H-M "P 21/C"
_symmetry_group_IT_number 14
_symmetry_cell_setting 'monoclinic'
loop_
_space_group_symop_operation_xyz
x,y,z
-x,1/2+y,1/2-z
-x,-y,-z
x,1/2-y,1/2+z
loop_
_atom_site_type_symbol
_atom_site_label
_atom_site_fract_x
_atom_site_fract_y
_atom_site_fract_z
Si Si1 0.893726 0.207705 0.648377
Si Si2 0.402798 0.456149 0.166416
Si Si3 0.283246 0.267171 0.208309
Si Si4 0.044151 0.257451 0.673620
Si Si5 0.342350 0.669069 0.398160
O O1 0.758522 0.255943 0.392782
O O2 0.935802 0.235272 0.569957
O O3 0.911132 0.983872 0.736072
O O4 0.995336 0.307964 0.931595
O O5 0.325709 0.349757 0.138298
O O6 0.535716 0.392847 0.440753
O O7 0.372387 0.374069 0.953372
O O8 0.373066 0.684507 0.082837
O O9 0.284453 0.456013 0.316750
O O10 0.159487 0.162978 0.955843
#
# Coordination Sequence:
#
# PCOD9249965 Si02
#       5
#     4   4   4   4   4
#     4  10  24  41  71  96 138 174 230 279 346 409
#     4  12  26  47  74 102 146 185 237 293 350 417
#     4  11  26  47  73 106 141 187 237 290 354 419
#     4  10  23  45  65 101 134 177 224 287 341 412
#     4  11  26  44  72 105 141 187 232 292 349 418
#
# _framework density 26.663015000000001
#
# number of rings (size 3 to 8) (size 9 to 14) (size 15 to 20)
#    0.000    1.200    2.000    1.800   11.200    3.200 
#    3.600    0.000    0.000    0.000    0.000    0.000 
#    0.000    0.000    0.000    0.000    0.000    0.000 
#
# Total GULP energy -111714.156133 kJ/mol
# GULP energy per Si atom -5585.707807 kJ/mol
# Density = 2.660233 g / cm^3
# Si number density = 26.663015 Si / 1000 Ang^3
#
#
#
# Elastic Constant Matrix: (Units=GPa)
#
#
# Indices 1 2 3 4 5 6 
#
# 1 122.6969 9.6608 50.8108 0.0000 15.7961 0.0000
# 2 9.6608 84.2076 39.0587 0.0000 4.7795 0.0000
# 3 50.8108 39.0587 181.1045 0.0000 44.0270 0.0000
# 4 0.0000 0.0000 0.0000 44.0430 0.0000 2.5279
# 5 15.7961 4.7795 44.0270 0.0000 48.2427 0.0000
# 6 0.0000 0.0000 0.0000 2.5279 0.0000 26.3951
#
#
#
# Elastic Compliance Matrix: (Units=1/GPa)
#
#
# Indices 1 2 3 4 5 6 
#
# 1 0.009249 0.000106 -0.002415 0.000000 -0.000835 0.000000
# 2 0.000106 0.013301 -0.003302 0.000000 0.001661 0.000000
# 3 -0.002415 -0.003302 0.008533 0.000000 -0.006669 0.000000
# 4 0.000000 0.000000 0.000000 0.022831 0.000000 -0.002187
# 5 -0.000835 0.001661 -0.006669 0.000000 0.026924 0.000000
# 6 0.000000 0.000000 0.000000 -0.002187 0.000000 0.038095
#
#
# Mechanical properties :
#
#
# Convention : Reuss Voigt Hill
#
# Bulk Modulus (GPa) = 50.34938 65.22994 57.78966
# Shear Modulus (GPa) = 36.55660 42.96806 39.76233
#
# Velocity S-wave (km/s) = 3.70680 4.01873 3.86591
# Velocity P-wave (km/s) = 6.10288 6.78611 6.45354
#
# Compressibility (1/GPa) = 0.01986122
#
# Stress axis : x y z
#
# Youngs Moduli (GPa) = 108.11554 75.18449 117.19639
#
# Poissons Ratio (x) = -0.00800 0.28302
# Poissons Ratio (y) = -0.01150 0.38701
# Poissons Ratio (z) = 0.26109 0.24827
#
# Static dielectric constant tensor:
#      x y z
#    x 1.952050 0.000000 0.005430 
#    y 0.000000 2.258080 0.000000 
#    z 0.005430 0.000000 2.132480 
# 
# From -- ./inp_files/18659.got.cif
#   From: 2010.05.17/outbox.cif.g08.bks.cpg/sg14_10_cif.got.tgz:18659.got - 2010.06.03 17:49:19.
