data_PCOD9249098
_publ_section_title
;
Structure prediction by ZEFSAII (Michael W. Deem and Ramdas Pophale) SiO2 
 PCOD9249098
Probable space group: P 21/C
;
_chemical_formula_sum "Si O2"
_cell_formula_units_Z 16
_cell_length_a 7.621100
_cell_length_b 9.697011
_cell_length_c 9.523459
_cell_angle_alpha 90.000000
_cell_angle_beta 112.091630
_cell_angle_gamma 90.000000
_cell_volume 652.131030
_symmetry_space_group_name_H-M "P 21/C"
_symmetry_group_IT_number 14
_symmetry_cell_setting 'monoclinic'
loop_
_space_group_symop_operation_xyz
x,y,z
-x,1/2+y,1/2-z
-x,-y,-z
x,1/2-y,1/2+z
loop_
_atom_site_type_symbol
_atom_site_label
_atom_site_fract_x
_atom_site_fract_y
_atom_site_fract_z
Si Si1 0.396993 0.026304 0.819581
Si Si2 0.230731 0.233222 0.395371
Si Si3 0.017478 0.146708 0.082276
Si Si4 0.624774 0.229672 0.386354
O O1 0.219411 0.118214 0.811934
O O2 0.543627 0.130868 0.788993
O O3 0.354592 0.893456 0.716943
O O4 0.500000 0.000000 0.000000
O O5 0.449928 0.193845 0.437888
O O6 0.163139 0.263892 0.530518
O O7 0.099637 0.135349 0.263261
O O8 0.818165 0.226364 0.018062
O O9 0.000000 0.000000 0.000000
#
# Coordination Sequence:
#
# PCOD9249098 Si02
#       4
#     4   4   4   4
#     4  10  22  46  68  97 143 180 225 296 345 407
#     4  10  26  42  71 103 137 181 243 274 356 415
#     4  12  26  46  72 103 142 189 230 291 352 415
#     4  10  24  42  73  95 144 181 231 288 350 402
#
# _framework density 24.534946000000001
#
# number of rings (size 3 to 8) (size 9 to 14) (size 15 to 20)
#    1.500    0.000    0.000    4.500    7.000    1.000 
#    0.000    5.000    0.000    0.000    0.000    0.000 
#    0.000    0.000    0.000    0.000    0.000    0.000 
#
# Total GULP energy -89387.577714 kJ/mol
# GULP energy per Si atom -5586.723607 kJ/mol
# Density = 2.447910 g / cm^3
# Si number density = 24.534946 Si / 1000 Ang^3
#
#
#
# Elastic Constant Matrix: (Units=GPa)
#
#
# Indices 1 2 3 4 5 6 
#
# 1 131.1666 -2.9079 21.5162 0.0000 8.6669 0.0000
# 2 -2.9079 48.4008 9.2905 0.0000 0.2576 0.0000
# 3 21.5162 9.2905 74.7128 0.0000 -6.0624 0.0000
# 4 0.0000 0.0000 0.0000 37.1171 0.0000 -1.0996
# 5 8.6669 0.2576 -6.0624 0.0000 35.4769 0.0000
# 6 0.0000 0.0000 0.0000 -1.0996 0.0000 31.3454
#
#
#
# Elastic Compliance Matrix: (Units=1/GPa)
#
#
# Indices 1 2 3 4 5 6 
#
# 1 0.008255 0.001029 -0.002707 0.000000 -0.002487 0.000000
# 2 0.001029 0.021307 -0.003021 0.000000 -0.000922 0.000000
# 3 -0.002707 -0.003021 0.014800 0.000000 0.003212 0.000000
# 4 0.000000 0.000000 0.000000 0.026970 0.000000 0.000946
# 5 -0.002487 -0.000922 0.003212 0.000000 0.029350 0.000000
# 6 0.000000 0.000000 0.000000 0.000946 0.000000 0.031936
#
#
# Mechanical properties :
#
#
# Convention : Reuss Voigt Hill
#
# Bulk Modulus (GPa) = 28.59999 34.45309 31.52654
# Shear Modulus (GPa) = 32.53689 35.87998 34.20843
#
# Velocity S-wave (km/s) = 3.64558 3.82829 3.73805
# Velocity P-wave (km/s) = 5.42240 5.79776 5.61322
#
# Compressibility (1/GPa) = 0.03496505
#
# Stress axis : x y z
#
# Youngs Moduli (GPa) = 121.13761 46.93220 67.56543
#
# Poissons Ratio (x) = -0.04828 0.18290
# Poissons Ratio (y) = -0.12463 0.20409
# Poissons Ratio (z) = 0.32793 0.14177
#
# Static dielectric constant tensor:
#      x y z
#    x 1.963800 0.000000 -0.011450 
#    y 0.000000 2.034300 0.000000 
#    z -0.011450 0.000000 1.958710 
# 
# From -- ./inp_files/7570.got.cif
#   From: 2010.05.17/outbox.cif.g08.bks.cpg/sg14_4_cif.got.tgz:7570.got - 2010.06.03 17:49:19.
