data_PCOD9249120
_publ_section_title
;
Structure prediction by ZEFSAII (Michael W. Deem and Ramdas Pophale) SiO2 
 PCOD9249120
Probable space group: P 21/C
;
_chemical_formula_sum "Si O2"
_cell_formula_units_Z 30
_cell_length_a 20.009108
_cell_length_b 11.037111
_cell_length_c 11.920944
_cell_angle_alpha 90.000000
_cell_angle_beta 29.165562
_cell_angle_gamma 90.000000
_cell_volume 1282.984166
_symmetry_space_group_name_H-M "P 21/C"
_symmetry_group_IT_number 14
_symmetry_cell_setting 'monoclinic'
loop_
_space_group_symop_operation_xyz
x,y,z
-x,1/2+y,1/2-z
-x,-y,-z
x,1/2-y,1/2+z
loop_
_atom_site_type_symbol
_atom_site_label
_atom_site_fract_x
_atom_site_fract_y
_atom_site_fract_z
Si Si1 0.998128 0.364840 0.449145
Si Si2 0.303066 0.471989 0.653268
Si Si3 0.506873 0.297275 0.281344
Si Si4 0.706477 0.630360 0.014718
Si Si5 0.989086 0.883319 0.432474
Si Si6 0.294699 0.587995 0.423549
Si Si7 0.704353 0.434815 0.825661
Si Si8 0.500000 0.500000 0.500000
O O1 0.010151 0.249096 0.512883
O O2 0.000000 0.500000 0.500000
O O3 0.847382 0.360979 0.617057
O O4 0.137426 0.351799 0.173590
O O5 0.443444 0.390114 0.468152
O O6 0.307016 0.506697 0.517470
O O7 0.359926 0.577463 0.647120
O O8 0.162797 0.409493 0.891549
O O9 0.372807 0.245860 0.416780
O O10 0.604539 0.199772 0.196782
O O11 0.593158 0.361183 0.058738
O O12 0.611778 0.565691 0.243476
O O13 0.720770 0.552134 0.879457
O O14 0.000000 0.000000 0.500000
O O15 0.131446 0.885655 0.156842
O O16 0.333500 0.534844 0.246188
#
# Coordination Sequence:
#
# PCOD9249120 Si02
#       8
#     4   4   4   4   4   4   4   2
#     4  10  22  46  72 101 146 188 248 301 368 447
#     4  11  25  44  68 100 143 189 243 302 373 447
#     4  12  22  42  68  98 134 184 242 304 368 440
#     4  11  25  44  68 100 143 189 243 302 373 447
#     4  10  22  46  72 101 146 188 248 301 368 447
#     4  11  25  45  68 102 143 188 239 305 371 445
#     4  11  25  45  68 102 143 188 239 305 371 445
#     4  12  24  44  66 100 142 184 246 304 364 432
#
# _framework density 23.382985000000001
#
# number of rings (size 3 to 8) (size 9 to 14) (size 15 to 20)
#    0.000    1.067    5.333    0.000    3.733    2.133 
#    0.000    5.333    0.000    0.000    0.000    0.000 
#    0.000    0.000    0.000    0.000    0.000    0.000 
#
# Total GULP energy -167044.684792 kJ/mol
# GULP energy per Si atom -5568.156160 kJ/mol
# Density = 2.332976 g / cm^3
# Si number density = 23.382985 Si / 1000 Ang^3
#
#
#
# Elastic Constant Matrix: (Units=GPa)
#
#
# Indices 1 2 3 4 5 6 
#
# 1 136.9157 25.7512 86.2885 0.0000 5.4506 0.0000
# 2 25.7512 69.5970 50.2432 0.0000 -8.3007 0.0000
# 3 86.2885 50.2432 153.2584 0.0000 -22.8728 0.0000
# 4 0.0000 0.0000 0.0000 25.6367 0.0000 -14.2453
# 5 5.4506 -8.3007 -22.8728 0.0000 64.5004 0.0000
# 6 0.0000 0.0000 0.0000 -14.2453 0.0000 31.2602
#
#
#
# Elastic Compliance Matrix: (Units=1/GPa)
#
#
# Indices 1 2 3 4 5 6 
#
# 1 0.012087 0.000523 -0.007517 0.000000 -0.003620 0.000000
# 2 0.000523 0.018850 -0.006460 0.000000 0.000091 0.000000
# 3 -0.007517 -0.006460 0.013563 0.000000 0.004614 0.000000
# 4 0.000000 0.000000 0.000000 0.052233 0.000000 0.023802
# 5 -0.003620 0.000091 0.004614 0.000000 0.017457 0.000000
# 6 0.000000 0.000000 0.000000 0.023802 0.000000 0.042836
#
#
# Mechanical properties :
#
#
# Convention : Reuss Voigt Hill
#
# Bulk Modulus (GPa) = 56.84667 76.03744 66.44206
# Shear Modulus (GPa) = 26.34370 37.44535 31.89452
#
# Velocity S-wave (km/s) = 3.36015 4.00608 3.69725
# Velocity P-wave (km/s) = 6.27838 7.34759 6.83393
#
# Compressibility (1/GPa) = 0.01759118
#
# Stress axis : x y z
#
# Youngs Moduli (GPa) = 82.73446 53.05142 73.72741
#
# Poissons Ratio (x) = -0.02772 0.55419
# Poissons Ratio (y) = -0.04323 0.47629
# Poissons Ratio (z) = 0.62189 0.34272
#
# Static dielectric constant tensor:
#      x y z
#    x 2.040080 0.000000 -0.003510 
#    y 0.000000 1.898460 0.000000 
#    z -0.003510 0.000000 1.911240 
# 
# From -- ./inp_files/35170.got.cif
#   From: 2010.05.17/outbox.cif.g08.bks.cpg/sg14_18_cif.got.tgz:35170.got - 2010.06.03 17:49:19.
