data_PCOD9249363
_publ_section_title
;
Structure prediction by ZEFSAII (Michael W. Deem and Ramdas Pophale) SiO2 
 PCOD9249363
Probable space group: P 21/C
;
_chemical_formula_sum "Si O2"
_cell_formula_units_Z 28
_cell_length_a 8.561349
_cell_length_b 13.885904
_cell_length_c 10.699663
_cell_angle_alpha 90.000000
_cell_angle_beta 60.102448
_cell_angle_gamma 90.000000
_cell_volume 1102.718098
_symmetry_space_group_name_H-M "P 21/C"
_symmetry_group_IT_number 14
_symmetry_cell_setting 'monoclinic'
loop_
_space_group_symop_operation_xyz
x,y,z
-x,1/2+y,1/2-z
-x,-y,-z
x,1/2-y,1/2+z
loop_
_atom_site_type_symbol
_atom_site_label
_atom_site_fract_x
_atom_site_fract_y
_atom_site_fract_z
Si Si1 0.893439 0.930797 0.353612
Si Si2 0.541653 0.978191 0.195161
Si Si3 0.698419 0.795276 0.239253
Si Si4 0.039621 0.755818 0.433947
Si Si5 0.739157 0.023897 0.871051
Si Si6 0.260709 0.610120 0.181659
Si Si7 0.378594 0.774049 0.981835
O O1 0.792434 0.847714 0.318172
O O2 0.000002 0.867159 0.412382
O O3 0.048729 0.977095 0.205343
O O4 0.774527 0.027353 0.410365
O O5 0.555815 0.873564 0.247445
O O6 0.342614 0.005457 0.229360
O O7 0.648048 0.052330 0.240632
O O8 0.652631 0.970046 0.021545
O O9 0.567491 0.710807 0.336517
O O10 0.856424 0.775085 0.077967
O O11 0.099152 0.680424 0.299122
O O12 0.210209 0.748711 0.458652
O O13 0.679270 0.133618 0.917428
O O14 0.398883 0.685733 0.068303
#
# Coordination Sequence:
#
# PCOD9249363 Si02
#       7
#     4   4   4   4   4   4   4
#     4  11  24  44  73 106 145 185 249 293 365 428
#     4  10  23  40  71 100 139 182 244 290 357 432
#     4  11  25  43  68 105 142 193 236 294 362 437
#     4  12  23  47  73 103 146 198 240 301 360 435
#     4  11  21  45  69 109 136 193 239 298 355 438
#     4  11  24  47  73 104 145 192 240 307 364 426
#     4  12  26  45  73 104 149 188 239 301 369 429
#
# _framework density 25.391804
#
# number of rings (size 3 to 8) (size 9 to 14) (size 15 to 20)
#    0.000    0.857    4.286    1.714    2.000    5.143 
#    7.714    0.000    0.000    0.000    0.000    0.000 
#    0.000    0.000    0.000    0.000    0.000    0.000 
#
# Total GULP energy -156536.589503 kJ/mol
# GULP energy per Si atom -5590.592482 kJ/mol
# Density = 2.533401 g / cm^3
# Si number density = 25.391804 Si / 1000 Ang^3
#
#
#
# Elastic Constant Matrix: (Units=GPa)
#
#
# Indices 1 2 3 4 5 6 
#
# 1 81.3923 17.5842 16.5367 0.0000 5.0980 0.0000
# 2 17.5842 71.4868 4.7445 0.0000 -7.7144 0.0000
# 3 16.5367 4.7445 67.5610 0.0000 -21.6502 0.0000
# 4 0.0000 0.0000 0.0000 36.4900 0.0000 3.8354
# 5 5.0980 -7.7144 -21.6502 0.0000 31.7775 0.0000
# 6 0.0000 0.0000 0.0000 3.8354 0.0000 27.0508
#
#
#
# Elastic Compliance Matrix: (Units=1/GPa)
#
#
# Indices 1 2 3 4 5 6 
#
# 1 0.014750 -0.004029 -0.005628 0.000000 -0.007179 0.000000
# 2 -0.004029 0.015467 0.001676 0.000000 0.005543 0.000000
# 3 -0.005628 0.001676 0.021084 0.000000 0.015675 0.000000
# 4 0.000000 0.000000 0.000000 0.027819 0.000000 -0.003944
# 5 -0.007179 0.005543 0.015675 0.000000 0.044645 0.000000
# 6 0.000000 0.000000 0.000000 -0.003944 0.000000 0.037527
#
#
# Mechanical properties :
#
#
# Convention : Reuss Voigt Hill
#
# Bulk Modulus (GPa) = 28.29692 33.13010 30.71351
# Shear Modulus (GPa) = 26.45040 31.16863 28.80951
#
# Velocity S-wave (km/s) = 3.23102 3.50738 3.37204
# Velocity P-wave (km/s) = 5.00876 5.42938 5.22331
#
# Compressibility (1/GPa) = 0.03533954
#
# Stress axis : x y z
#
# Youngs Moduli (GPa) = 67.79795 64.65524 47.42887
#
# Poissons Ratio (x) = 0.26051 0.26692
# Poissons Ratio (y) = 0.27318 -0.07951
# Poissons Ratio (z) = 0.38155 -0.10839
#
# Static dielectric constant tensor:
#      x y z
#    x 2.050590 0.000000 0.032270 
#    y 0.000000 1.981160 0.000000 
#    z 0.032270 0.000000 2.002620 
# 
# From -- ./inp_files/25420.got.cif
#   From: 2010.05.17/outbox.cif.g08.bks.cpg/sg14_13_cif.got.tgz:25420.got - 2010.06.03 17:49:19.
