data_PCOD9249524
_publ_section_title
;
Structure prediction by ZEFSAII (Michael W. Deem and Ramdas Pophale) SiO2 
 PCOD9249524
Probable space group: P 21/C
;
_chemical_formula_sum "Si O2"
_cell_formula_units_Z 32
_cell_length_a 11.747571
_cell_length_b 11.611958
_cell_length_c 9.396338
_cell_angle_alpha 90.000000
_cell_angle_beta 87.572119
_cell_angle_gamma 90.000000
_cell_volume 1280.625482
_symmetry_space_group_name_H-M "P 21/C"
_symmetry_group_IT_number 14
_symmetry_cell_setting 'monoclinic'
loop_
_space_group_symop_operation_xyz
x,y,z
-x,1/2+y,1/2-z
-x,-y,-z
x,1/2-y,1/2+z
loop_
_atom_site_type_symbol
_atom_site_label
_atom_site_fract_x
_atom_site_fract_y
_atom_site_fract_z
Si Si1 0.076945 0.625934 0.804090
Si Si2 0.129336 0.402638 0.337029
Si Si3 0.705533 0.099438 0.045878
Si Si4 0.137861 0.694621 0.083041
Si Si5 0.700043 0.989875 0.763972
Si Si6 0.415761 0.368867 0.992004
Si Si7 0.630789 0.088025 0.342241
Si Si8 0.206392 0.229905 0.090101
O O1 0.078500 0.748863 0.722785
O O2 0.204953 0.578846 0.793071
O O3 0.992922 0.551262 0.709704
O O4 0.055087 0.637882 0.972176
O O5 0.215421 0.497673 0.391961
O O6 0.167502 0.333659 0.193435
O O7 0.124865 0.312520 0.467949
O O8 0.621297 0.127469 0.179652
O O9 0.791819 0.200982 0.996941
O O10 0.647481 0.049480 0.906633
O O11 0.238469 0.609174 0.122873
O O12 0.622123 0.946500 0.641309
O O13 0.767992 0.877974 0.811925
O O14 0.545761 0.339926 0.948408
O O15 0.400946 0.455204 0.125730
O O16 0.326813 0.266948 0.013327
#
# Coordination Sequence:
#
# PCOD9249524 Si02
#       8
#     4   4   4   4   4   4   4   4
#     4  11  23  40  66  95 131 174 217 268 324 379
#     4  11  23  40  66  95 131 174 217 268 324 379
#     4  10  23  42  64  93 134 164 210 267 313 392
#     4  11  22  42  63  95 132 167 216 268 316 385
#     4  10  23  42  64  93 134 164 210 267 313 392
#     4  11  23  42  67  94 127 166 212 270 325 372
#     4  11  23  42  67  94 127 166 212 270 325 372
#     4  11  22  42  63  95 132 167 216 268 316 385
#
# _framework density 24.987787000000001
#
# number of rings (size 3 to 8) (size 9 to 14) (size 15 to 20)
#    0.000    1.250    5.000    0.750    0.000    7.000 
#    0.000    5.000    0.000    0.000    0.000    0.000 
#    0.000    0.000    0.000    0.000    0.000    0.000 
#
# Total GULP energy -178981.171231 kJ/mol
# GULP energy per Si atom -5593.161601 kJ/mol
# Density = 2.493091 g / cm^3
# Si number density = 24.987787 Si / 1000 Ang^3
#
#
#
# Elastic Constant Matrix: (Units=GPa)
#
#
# Indices 1 2 3 4 5 6 
#
# 1 40.5421 -9.4674 -4.0290 0.0000 8.9588 0.0000
# 2 -9.4674 53.5153 6.9951 0.0000 0.0926 0.0000
# 3 -4.0290 6.9951 84.4671 0.0000 6.6482 0.0000
# 4 0.0000 0.0000 0.0000 27.4205 0.0000 -1.2978
# 5 8.9588 0.0926 6.6482 0.0000 32.9261 0.0000
# 6 0.0000 0.0000 0.0000 -1.2978 0.0000 23.8724
#
#
#
# Elastic Compliance Matrix: (Units=1/GPa)
#
#
# Indices 1 2 3 4 5 6 
#
# 1 0.027652 0.004703 0.001547 0.000000 -0.007850 0.000000
# 2 0.004703 0.019693 -0.001322 0.000000 -0.001068 0.000000
# 3 0.001547 -0.001322 0.012250 0.000000 -0.002891 0.000000
# 4 0.000000 0.000000 0.000000 0.036563 0.000000 0.001988
# 5 -0.007850 -0.001068 -0.002891 0.000000 0.033093 0.000000
# 6 0.000000 0.000000 0.000000 0.001988 0.000000 0.041998
#
#
# Mechanical properties :
#
#
# Convention : Reuss Voigt Hill
#
# Bulk Modulus (GPa) = 14.39856 18.39133 16.39495
# Shear Modulus (GPa) = 27.09388 29.17883 28.13636
#
# Velocity S-wave (km/s) = 3.29642 3.42090 3.35924
# Velocity P-wave (km/s) = 4.50147 4.79370 4.64988
#
# Compressibility (1/GPa) = 0.06945140
#
# Stress axis : x y z
#
# Youngs Moduli (GPa) = 36.16331 50.77942 81.63417
#
# Poissons Ratio (x) = -0.23883 -0.12631
# Poissons Ratio (y) = -0.17009 0.10796
# Poissons Ratio (z) = -0.05596 0.06715
#
# Static dielectric constant tensor:
#      x y z
#    x 2.035500 0.000000 -0.035810 
#    y 0.000000 1.970960 0.000000 
#    z -0.035810 0.000000 1.995550 
# 
# From -- ./inp_files/13341.got.cif
#   From: 2010.05.17/outbox.cif.g08.bks.cpg/sg14_7_cif.got.tgz:13341.got - 2010.06.03 17:49:19.
