data_PCOD9249077
_publ_section_title
;
Structure prediction by ZEFSAII (Michael W. Deem and Ramdas Pophale) SiO2 
 PCOD9249077
Probable space group: P 21/C
;
_chemical_formula_sum "Si O2"
_cell_formula_units_Z 30
_cell_length_a 13.192067
_cell_length_b 6.753772
_cell_length_c 17.960751
_cell_angle_alpha 90.000000
_cell_angle_beta 113.158859
_cell_angle_gamma 90.000000
_cell_volume 1471.284717
_symmetry_space_group_name_H-M "P 21/C"
_symmetry_group_IT_number 14
_symmetry_cell_setting 'monoclinic'
loop_
_space_group_symop_operation_xyz
x,y,z
-x,1/2+y,1/2-z
-x,-y,-z
x,1/2-y,1/2+z
loop_
_atom_site_type_symbol
_atom_site_label
_atom_site_fract_x
_atom_site_fract_y
_atom_site_fract_z
Si Si1 0.647293 0.247395 0.762637
Si Si2 0.586519 0.910513 0.860476
Si Si3 0.147660 0.473417 0.939285
Si Si4 0.052555 0.244669 0.672707
Si Si5 0.500000 0.500000 0.500000
Si Si6 0.881672 0.577834 0.649225
Si Si7 0.698202 0.237776 0.611576
Si Si8 0.231124 0.404666 0.118689
O O1 0.526979 0.337823 0.710310
O O2 0.691891 0.172096 0.695871
O O3 0.722628 0.425044 0.814442
O O4 0.636517 0.079219 0.821473
O O5 0.669458 0.725084 0.885770
O O6 0.561604 0.993956 0.935135
O O7 0.142561 0.242224 0.919081
O O8 0.249798 0.568561 0.924278
O O9 0.038167 0.581767 0.878267
O O10 0.165095 0.501366 0.031559
O O11 0.096180 0.187831 0.766737
O O12 0.151071 0.235214 0.642943
O O13 0.988759 0.451078 0.658827
O O14 0.580721 0.316670 0.550706
O O15 0.781027 0.425557 0.630051
#
# Coordination Sequence:
#
# PCOD9249077 Si02
#       8
#     4   4   4   4   2   4   4   4
#     4  11  23  42  68  97 135 173 230 270 331 409
#     4  11  24  43  66  99 131 179 220 280 334 403
#     4  11  25  43  66 103 134 175 227 275 342 397
#     4  11  24  41  68  96 133 179 226 279 332 402
#     4  10  22  46  66  94 138 170 216 278 342 396
#     4  11  22  42  68  98 133 179 229 272 329 405
#     4  10  23  42  69 100 134 179 219 282 331 406
#     4  12  25  43  68 101 135 176 221 286 339 399
#
# _framework density 20.390342
#
# number of rings (size 3 to 8) (size 9 to 14) (size 15 to 20)
#    0.000    1.067    4.000    2.000    1.867    2.667 
#    2.400    4.000    0.000    0.000    0.000    0.000 
#    0.000    0.000    0.000    0.000    0.000    0.000 
#
# Total GULP energy -167282.930534 kJ/mol
# GULP energy per Si atom -5576.097684 kJ/mol
# Density = 2.034393 g / cm^3
# Si number density = 20.390342 Si / 1000 Ang^3
#
#
#
# Elastic Constant Matrix: (Units=GPa)
#
#
# Indices 1 2 3 4 5 6 
#
# 1 50.5483 2.9196 2.8180 0.0000 -16.4135 0.0000
# 2 2.9196 52.8739 -4.9132 0.0000 -4.7300 0.0000
# 3 2.8180 -4.9132 59.5893 0.0000 -15.7464 0.0000
# 4 0.0000 0.0000 0.0000 12.3750 0.0000 1.5531
# 5 -16.4135 -4.7300 -15.7464 0.0000 19.8224 0.0000
# 6 0.0000 0.0000 0.0000 1.5531 0.0000 15.7537
#
#
#
# Elastic Compliance Matrix: (Units=1/GPa)
#
#
# Indices 1 2 3 4 5 6 
#
# 1 0.028924 0.001661 0.006585 0.000000 0.029577 0.000000
# 2 0.001661 0.020036 0.004050 0.000000 0.009374 0.000000
# 3 0.006585 0.004050 0.023416 0.000000 0.025020 0.000000
# 4 0.000000 0.000000 0.000000 0.081821 0.000000 -0.008066
# 5 0.029577 0.009374 0.025020 0.000000 0.097050 0.000000
# 6 0.000000 0.000000 0.000000 -0.008066 0.000000 0.064272
#
#
# Mechanical properties :
#
#
# Convention : Reuss Voigt Hill
#
# Bulk Modulus (GPa) = 10.31279 18.29558 14.30418
# Shear Modulus (GPa) = 15.46795 20.40269 17.93532
#
# Velocity S-wave (km/s) = 2.75724 3.16667 2.96902
# Velocity P-wave (km/s) = 3.89938 4.72890 4.33403
#
# Compressibility (1/GPa) = 0.09696699
#
# Stress axis : x y z
#
# Youngs Moduli (GPa) = 34.57353 49.90983 42.70674
#
# Poissons Ratio (x) = -0.08288 -0.28121
# Poissons Ratio (y) = -0.05741 -0.17298
# Poissons Ratio (z) = -0.22766 -0.20216
#
# Static dielectric constant tensor:
#      x y z
#    x 1.726870 0.000000 0.012690 
#    y 0.000000 1.692560 0.000000 
#    z 0.012690 0.000000 1.686900 
# 
# From -- ./inp_files/58495.got.cif
#   From: 2010.05.17/outbox.cif.g08.bks.cpg/sg14_30_cif.got.tgz:58495.got - 2010.06.03 17:49:19.
