data_PCOD9249775
_publ_section_title
;
Structure prediction by ZEFSAII (Michael W. Deem and Ramdas Pophale) SiO2 
 PCOD9249775
Probable space group: P 21/C
;
_chemical_formula_sum "Si O2"
_cell_formula_units_Z 16
_cell_length_a 5.077990
_cell_length_b 8.142442
_cell_length_c 15.839644
_cell_angle_alpha 90.000000
_cell_angle_beta 64.650926
_cell_angle_gamma 90.000000
_cell_volume 591.866817
_symmetry_space_group_name_H-M "P 21/C"
_symmetry_group_IT_number 14
_symmetry_cell_setting 'monoclinic'
loop_
_space_group_symop_operation_xyz
x,y,z
-x,1/2+y,1/2-z
-x,-y,-z
x,1/2-y,1/2+z
loop_
_atom_site_type_symbol
_atom_site_label
_atom_site_fract_x
_atom_site_fract_y
_atom_site_fract_z
Si Si1 0.213262 0.113845 0.139271
Si Si2 0.584506 0.839787 0.613421
Si Si3 0.255086 0.610533 0.788206
Si Si4 0.797182 0.196476 0.978462
O O1 0.013587 0.271276 0.157198
O O2 0.156274 0.033088 0.237719
O O3 0.143847 0.974050 0.079505
O O4 0.555084 0.152542 0.081000
O O5 0.482525 0.718023 0.702729
O O6 0.362931 0.814594 0.567368
O O7 0.900250 0.778788 0.540185
O O8 0.611766 0.018802 0.649780
#
# Coordination Sequence:
#
# PCOD9249775 Si02
#       4
#     4   4   4   4
#     4  10  23  43  69  97 138 179 225 277 342 405
#     4  11  24  42  68  97 135 177 228 278 338 401
#     4  11  23  42  71 103 137 182 231 283 338 406
#     4  10  24  45  66  98 136 180 222 280 342 402
#
# _framework density 27.033107000000001
#
# number of rings (size 3 to 8) (size 9 to 14) (size 15 to 20)
#    0.000    1.500    0.000    4.500    0.000   17.000 
#    0.000    0.000    0.000    0.000    0.000    0.000 
#    0.000    0.000    0.000    0.000    0.000    0.000 
#
# Total GULP energy -90020.114660 kJ/mol
# GULP energy per Si atom -5626.257166 kJ/mol
# Density = 2.697158 g / cm^3
# Si number density = 27.033107 Si / 1000 Ang^3
#
#
#
# Elastic Constant Matrix: (Units=GPa)
#
#
# Indices 1 2 3 4 5 6 
#
# 1 113.2034 42.2432 60.1441 0.0000 -16.5799 0.0000
# 2 42.2432 92.2388 33.9539 0.0000 17.5813 0.0000
# 3 60.1441 33.9539 124.6699 0.0000 -16.4206 0.0000
# 4 0.0000 0.0000 0.0000 40.2127 0.0000 0.5538
# 5 -16.5799 17.5813 -16.4206 0.0000 38.5106 0.0000
# 6 0.0000 0.0000 0.0000 0.5538 0.0000 57.1182
#
#
#
# Elastic Compliance Matrix: (Units=1/GPa)
#
#
# Indices 1 2 3 4 5 6 
#
# 1 0.014659 -0.006553 -0.004304 0.000000 0.007468 0.000000
# 2 -0.006553 0.017295 -0.003137 0.000000 -0.012054 0.000000
# 3 -0.004304 -0.003137 0.011545 0.000000 0.004502 0.000000
# 4 0.000000 0.000000 0.000000 0.024871 0.000000 -0.000241
# 5 0.007468 -0.012054 0.004502 0.000000 0.036604 0.000000
# 6 0.000000 0.000000 0.000000 -0.000241 0.000000 0.017510
#
#
# Mechanical properties :
#
#
# Convention : Reuss Voigt Hill
#
# Bulk Modulus (GPa) = 64.46555 66.97715 65.72135
# Shear Modulus (GPa) = 32.12528 40.08636 36.10582
#
# Velocity S-wave (km/s) = 3.45101 3.85497 3.65857
# Velocity P-wave (km/s) = 6.30698 6.68163 6.49700
#
# Compressibility (1/GPa) = 0.01551216
#
# Stress axis : x y z
#
# Youngs Moduli (GPa) = 68.21696 57.82152 86.62026
#
# Poissons Ratio (x) = 0.37888 0.37279
# Poissons Ratio (y) = 0.44700 0.27170
# Poissons Ratio (z) = 0.29359 0.18137
#
# Static dielectric constant tensor:
#      x y z
#    x 2.060350 0.000000 0.042710 
#    y 0.000000 2.075500 0.000000 
#    z 0.042710 0.000000 2.076310 
# 
# From -- ./inp_files/46228.got.cif
#   From: 2010.05.17/outbox.cif.g08.bks.cpg/sg14_24_cif.got.tgz:46228.got - 2010.06.03 17:49:19.
