data_PCOD9249689
_publ_section_title
;
Structure prediction by ZEFSAII (Michael W. Deem and Ramdas Pophale) SiO2 
 PCOD9249689
Probable space group: P 21/C
;
_chemical_formula_sum "Si O2"
_cell_formula_units_Z 32
_cell_length_a 20.239640
_cell_length_b 4.965425
_cell_length_c 13.101596
_cell_angle_alpha 90.000000
_cell_angle_beta 110.809810
_cell_angle_gamma 90.000000
_cell_volume 1230.795196
_symmetry_space_group_name_H-M "P 21/C"
_symmetry_group_IT_number 14
_symmetry_cell_setting 'monoclinic'
loop_
_space_group_symop_operation_xyz
x,y,z
-x,1/2+y,1/2-z
-x,-y,-z
x,1/2-y,1/2+z
loop_
_atom_site_type_symbol
_atom_site_label
_atom_site_fract_x
_atom_site_fract_y
_atom_site_fract_z
Si Si1 0.745543 0.911847 0.122985
Si Si2 0.105917 0.345921 0.557785
Si Si3 0.490898 0.487638 0.315966
Si Si4 0.301606 0.157241 0.589449
Si Si5 0.810051 0.151505 0.343828
Si Si6 0.388427 0.717166 0.994008
Si Si7 0.634692 0.860960 0.695270
Si Si8 0.993286 0.022259 0.173759
O O1 0.803297 0.065637 0.221203
O O2 0.706690 0.692876 0.172865
O O3 0.682705 0.117364 0.064325
O O4 0.757040 0.765206 0.022262
O O5 0.128924 0.036397 0.575428
O O6 0.073020 0.427394 0.431231
O O7 0.050432 0.396437 0.619065
O O8 0.170536 0.543462 0.622629
O O9 0.494971 0.782221 0.270983
O O10 0.550313 0.406005 0.430078
O O11 0.415535 0.397628 0.319483
O O12 0.262163 0.950526 0.643003
O O13 0.338038 0.396124 0.674601
O O14 0.363574 0.008228 0.561752
O O15 0.406853 0.565844 0.899042
O O16 0.981234 0.274486 0.241836
#
# Coordination Sequence:
#
# PCOD9249689 Si02
#       8
#     4   4   4   4   4   4   4   4
#     4  10  25  41  68  93 134 180 230 278 346 412
#     4  11  26  47  70 113 145 183 241 279 336 404
#     4  12  26  43  69  97 127 169 226 288 352 428
#     4  10  23  44  63  96 134 181 226 282 348 409
#     4  11  26  43  70 101 146 183 226 287 328 403
#     4  11  24  42  68  92 129 180 226 284 351 422
#     4  10  23  43  64  94 129 171 224 292 354 411
#     4  11  24  47  78 106 149 191 227 287 339 392
#
# _framework density 25.999452000000002
#
# number of rings (size 3 to 8) (size 9 to 14) (size 15 to 20)
#    0.000    1.250    1.250    2.625   10.500    6.500 
#    0.000    0.000    0.000    0.000    0.000    0.000 
#    0.000    0.000    0.000    0.000    0.000    0.000 
#
# Total GULP energy -179349.347080 kJ/mol
# GULP energy per Si atom -5604.667096 kJ/mol
# Density = 2.594028 g / cm^3
# Si number density = 25.999452 Si / 1000 Ang^3
#
#
#
# Elastic Constant Matrix: (Units=GPa)
#
#
# Indices 1 2 3 4 5 6 
#
# 1 59.0372 1.0789 14.7871 0.0000 2.8372 0.0000
# 2 1.0789 55.6957 14.1848 0.0000 -8.7251 0.0000
# 3 14.7871 14.1848 136.4826 0.0000 -0.4393 0.0000
# 4 0.0000 0.0000 0.0000 46.0042 0.0000 3.3786
# 5 2.8372 -8.7251 -0.4393 0.0000 36.4039 0.0000
# 6 0.0000 0.0000 0.0000 3.3786 0.0000 40.4637
#
#
#
# Elastic Compliance Matrix: (Units=1/GPa)
#
#
# Indices 1 2 3 4 5 6 
#
# 1 0.017481 -0.000077 -0.001890 0.000000 -0.001404 0.000000
# 2 -0.000077 0.019175 -0.001970 0.000000 0.004578 0.000000
# 3 -0.001890 -0.001970 0.007736 0.000000 -0.000231 0.000000
# 4 0.000000 0.000000 0.000000 0.021871 0.000000 -0.001826
# 5 -0.001404 0.004578 -0.000231 0.000000 0.028673 0.000000
# 6 0.000000 0.000000 0.000000 -0.001826 0.000000 0.024866
#
#
# Mechanical properties :
#
#
# Convention : Reuss Voigt Hill
#
# Bulk Modulus (GPa) = 27.38451 34.59081 30.98766
# Shear Modulus (GPa) = 35.75277 39.31867 37.53572
#
# Velocity S-wave (km/s) = 3.71231 3.89303 3.80374
# Velocity P-wave (km/s) = 5.37871 5.79145 5.58889
#
# Compressibility (1/GPa) = 0.03651699
#
# Stress axis : x y z
#
# Youngs Moduli (GPa) = 57.20548 52.15107 129.27007
#
# Poissons Ratio (x) = 0.00402 0.24438
# Poissons Ratio (y) = 0.00441 0.25464
# Poissons Ratio (z) = 0.10814 0.10273
#
# Static dielectric constant tensor:
#      x y z
#    x 2.033070 0.000000 -0.014260 
#    y 0.000000 2.027500 0.000000 
#    z -0.014260 0.000000 2.077570 
# 
# From -- ./inp_files/35606.got.cif
#   From: 2010.05.17/outbox.cif.g08.bks.cpg/sg14_18_cif.got.tgz:35606.got - 2010.06.03 17:49:19.
