data_PCOD9249133
_publ_section_title
;
Structure prediction by ZEFSAII (Michael W. Deem and Ramdas Pophale) SiO2 
 PCOD9249133
Probable space group: P 21/C
;
_chemical_formula_sum "Si O2"
_cell_formula_units_Z 28
_cell_length_a 20.902947
_cell_length_b 11.180495
_cell_length_c 11.876923
_cell_angle_alpha 90.000000
_cell_angle_beta 25.800676
_cell_angle_gamma 90.000000
_cell_volume 1208.100354
_symmetry_space_group_name_H-M "P 21/C"
_symmetry_group_IT_number 14
_symmetry_cell_setting 'monoclinic'
loop_
_space_group_symop_operation_xyz
x,y,z
-x,1/2+y,1/2-z
-x,-y,-z
x,1/2-y,1/2+z
loop_
_atom_site_type_symbol
_atom_site_label
_atom_site_fract_x
_atom_site_fract_y
_atom_site_fract_z
Si Si1 0.723452 0.640605 0.274998
Si Si2 0.611529 0.290659 0.925177
Si Si3 0.757384 0.086989 0.575483
Si Si4 0.244709 0.989026 0.675736
Si Si5 0.485286 0.842855 0.703551
Si Si6 0.917868 0.849978 0.906178
Si Si7 0.687445 0.938538 0.086784
O O1 0.593495 0.739247 0.485958
O O2 0.735285 0.589168 0.382822
O O3 0.697614 0.531806 0.230932
O O4 0.867355 0.713435 0.005965
O O5 0.652696 0.198888 0.763050
O O6 0.733737 0.387826 0.764175
O O7 0.600754 0.212734 0.056332
O O8 0.453400 0.354320 0.164475
O O9 0.778995 0.062121 0.409807
O O10 0.912788 0.124793 0.383710
O O11 0.399296 0.059654 0.430377
O O12 0.125182 0.081349 0.910272
O O13 0.374600 0.926107 0.807093
O O14 0.814908 0.903839 0.971143
#
# Coordination Sequence:
#
# PCOD9249133 Si02
#       7
#     4   4   4   4   4   4   4
#     4  10  24  42  69 104 132 187 232 284 355 408
#     4  10  23  42  70 104 130 179 233 286 349 405
#     4  12  26  45  71 102 142 185 235 285 352 428
#     4  10  25  44  67 100 137 180 231 290 343 411
#     4   9  20  45  67 102 135 175 231 297 340 401
#     4  11  27  44  69  99 144 189 226 291 352 415
#     4  10  22  46  73  99 140 178 236 292 349 417
#
# _framework density 23.176881000000002
#
# number of rings (size 3 to 8) (size 9 to 14) (size 15 to 20)
#    0.000    1.714    1.429    0.429    8.000   13.143 
#    0.000    0.000    0.000    0.000    0.000    0.000 
#    0.000    0.000    0.000    0.000    0.000    0.000 
#
# Total GULP energy -156746.767382 kJ/mol
# GULP energy per Si atom -5598.098835 kJ/mol
# Density = 2.312413 g / cm^3
# Si number density = 23.176881 Si / 1000 Ang^3
#
#
#
# Elastic Constant Matrix: (Units=GPa)
#
#
# Indices 1 2 3 4 5 6 
#
# 1 126.4524 40.3999 27.3601 0.0000 0.6095 0.0000
# 2 40.3999 132.3056 13.6409 0.0000 -9.2683 0.0000
# 3 27.3601 13.6409 34.4707 0.0000 -15.4272 0.0000
# 4 0.0000 0.0000 0.0000 23.5476 0.0000 14.3670
# 5 0.6095 -9.2683 -15.4272 0.0000 34.3585 0.0000
# 6 0.0000 0.0000 0.0000 14.3670 0.0000 27.0332
#
#
#
# Elastic Compliance Matrix: (Units=1/GPa)
#
#
# Indices 1 2 3 4 5 6 
#
# 1 0.010977 -0.002694 -0.010086 0.000000 -0.005450 0.000000
# 2 -0.002694 0.008564 -0.000245 0.000000 0.002248 0.000000
# 3 -0.010086 -0.000245 0.046509 0.000000 0.020996 0.000000
# 4 0.000000 0.000000 0.000000 0.062845 0.000000 -0.033400
# 5 -0.005450 0.002248 0.020996 0.000000 0.039235 0.000000
# 6 0.000000 0.000000 0.000000 -0.033400 0.000000 0.054742
#
#
# Mechanical properties :
#
#
# Convention : Reuss Voigt Hill
#
# Bulk Modulus (GPa) = 24.99941 50.67007 37.83474
# Shear Modulus (GPa) = 19.06539 31.10970 25.08755
#
# Velocity S-wave (km/s) = 2.87122 3.66768 3.29361
# Velocity P-wave (km/s) = 4.66922 6.31234 5.55190
#
# Compressibility (1/GPa) = 0.04000095
#
# Stress axis : x y z
#
# Youngs Moduli (GPa) = 91.09687 116.77431 21.50119
#
# Poissons Ratio (x) = 0.31457 0.21686
# Poissons Ratio (y) = 0.24540 0.00526
# Poissons Ratio (z) = 0.91881 0.02856
#
# Static dielectric constant tensor:
#      x y z
#    x 1.900440 0.000000 0.021360 
#    y 0.000000 1.880000 0.000000 
#    z 0.021360 0.000000 1.848910 
# 
# From -- ./inp_files/35135.got.cif
#   From: 2010.05.17/outbox.cif.g08.bks.cpg/sg14_18_cif.got.tgz:35135.got - 2010.06.03 17:49:19.
