data_PCOD9249102
_publ_section_title
;
Structure prediction by ZEFSAII (Michael W. Deem and Ramdas Pophale) SiO2 
 PCOD9249102
Probable space group: P 21/C
;
_chemical_formula_sum "Si O2"
_cell_formula_units_Z 28
_cell_length_a 23.505311
_cell_length_b 11.308332
_cell_length_c 10.561937
_cell_angle_alpha 90.000000
_cell_angle_beta 155.372418
_cell_angle_gamma 90.000000
_cell_volume 1169.905684
_symmetry_space_group_name_H-M "P 21/C"
_symmetry_group_IT_number 14
_symmetry_cell_setting 'monoclinic'
loop_
_space_group_symop_operation_xyz
x,y,z
-x,1/2+y,1/2-z
-x,-y,-z
x,1/2-y,1/2+z
loop_
_atom_site_type_symbol
_atom_site_label
_atom_site_fract_x
_atom_site_fract_y
_atom_site_fract_z
Si Si1 0.731100 0.193873 0.123953
Si Si2 0.108098 0.083726 0.359180
Si Si3 0.330555 0.252754 0.221134
Si Si4 0.699296 0.027644 0.829585
Si Si5 0.504647 0.784826 0.693342
Si Si6 0.939524 0.323663 0.708036
Si Si7 0.157220 0.869236 0.312712
O O1 0.718292 0.080354 0.009879
O O2 0.619028 0.203674 0.005619
O O3 0.876529 0.231991 0.476785
O O4 0.714321 0.308631 0.995088
O O5 0.187040 0.181007 0.438304
O O6 0.182852 0.962701 0.475676
O O7 0.084135 0.128028 0.453758
O O8 0.948816 0.066583 0.996182
O O9 0.406149 0.301430 0.499913
O O10 0.409156 0.269762 0.247668
O O11 0.316180 0.111675 0.206752
O O12 0.569018 0.096572 0.507532
O O13 0.831233 0.072595 0.018147
O O14 0.926973 0.242116 0.804557
#
# Coordination Sequence:
#
# PCOD9249102 Si02
#       7
#     4   4   4   4   4   4   4
#     4   9  19  42  67  91 122 183 227 260 335 399
#     4  10  23  39  62  98 132 170 214 278 331 389
#     4  12  27  42  68 103 137 173 226 279 338 395
#     4  10  22  46  69  93 136 181 223 279 333 397
#     4  11  24  43  66  97 134 180 219 277 333 394
#     4   9  20  38  70  92 127 178 218 269 332 403
#     4   9  20  42  63  90 131 171 219 272 326 396
#
# _framework density 23.933551999999999
#
# number of rings (size 3 to 8) (size 9 to 14) (size 15 to 20)
#    0.000    2.000    1.429    0.429    4.000    4.571 
#    5.143    3.571    0.000    0.000    0.000    0.000 
#    0.000    0.000    0.000    0.000    0.000    0.000 
#
# Total GULP energy -156264.525113 kJ/mol
# GULP energy per Si atom -5580.875897 kJ/mol
# Density = 2.387908 g / cm^3
# Si number density = 23.933552 Si / 1000 Ang^3
#
#
#
# Elastic Constant Matrix: (Units=GPa)
#
#
# Indices 1 2 3 4 5 6 
#
# 1 191.6436 42.5417 32.8630 0.0000 28.0007 0.0000
# 2 42.5417 98.1663 20.2141 0.0000 12.9453 0.0000
# 3 32.8630 20.2141 68.4723 0.0000 4.7008 0.0000
# 4 0.0000 0.0000 0.0000 19.5225 0.0000 5.3099
# 5 28.0007 12.9453 4.7008 0.0000 35.6073 0.0000
# 6 0.0000 0.0000 0.0000 5.3099 0.0000 20.2265
#
#
#
# Elastic Compliance Matrix: (Units=1/GPa)
#
#
# Indices 1 2 3 4 5 6 
#
# 1 0.006651 -0.001836 -0.002358 0.000000 -0.004251 0.000000
# 2 -0.001836 0.011817 -0.002434 0.000000 -0.002531 0.000000
# 3 -0.002358 -0.002434 0.016415 0.000000 0.000572 0.000000
# 4 0.000000 0.000000 0.000000 0.055162 0.000000 -0.014481
# 5 -0.004251 -0.002531 0.000572 0.000000 0.032272 0.000000
# 6 0.000000 0.000000 0.000000 -0.014481 0.000000 0.053242
#
#
# Mechanical properties :
#
#
# Convention : Reuss Voigt Hill
#
# Bulk Modulus (GPa) = 46.23650 61.05774 53.64712
# Shear Modulus (GPa) = 25.50694 32.58215 29.04454
#
# Velocity S-wave (km/s) = 3.26811 3.69366 3.48738
# Velocity P-wave (km/s) = 5.79667 6.61495 6.21928
#
# Compressibility (1/GPa) = 0.02162793
#
# Stress axis : x y z
#
# Youngs Moduli (GPa) = 150.34927 84.62075 60.91810
#
# Poissons Ratio (x) = 0.15537 0.14366
# Poissons Ratio (y) = 0.27606 0.14825
# Poissons Ratio (z) = 0.35457 0.20594
#
# Static dielectric constant tensor:
#      x y z
#    x 2.088940 0.000000 -0.091530 
#    y 0.000000 1.928330 0.000000 
#    z -0.091530 0.000000 2.014330 
# 
# From -- ./inp_files/35881.got.cif
#   From: 2010.05.17/outbox.cif.g08.bks.cpg/sg14_18_cif.got.tgz:35881.got - 2010.06.03 17:49:19.
