data_PCOD9249118
_publ_section_title
;
Structure prediction by ZEFSAII (Michael W. Deem and Ramdas Pophale) SiO2 
 PCOD9249118
Probable space group: P 21/C
;
_chemical_formula_sum "Si O2"
_cell_formula_units_Z 24
_cell_length_a 9.743637
_cell_length_b 10.667846
_cell_length_c 9.444386
_cell_angle_alpha 90.000000
_cell_angle_beta 64.534828
_cell_angle_gamma 90.000000
_cell_volume 886.309960
_symmetry_space_group_name_H-M "P 21/C"
_symmetry_group_IT_number 14
_symmetry_cell_setting 'monoclinic'
loop_
_space_group_symop_operation_xyz
x,y,z
-x,1/2+y,1/2-z
-x,-y,-z
x,1/2-y,1/2+z
loop_
_atom_site_type_symbol
_atom_site_label
_atom_site_fract_x
_atom_site_fract_y
_atom_site_fract_z
Si Si1 0.230246 0.103814 0.895613
Si Si2 0.230690 0.487163 0.791710
Si Si3 0.817108 0.333163 0.604259
Si Si4 0.104682 0.900988 0.608395
Si Si5 0.451096 0.799918 0.174013
Si Si6 0.714792 0.736654 0.884693
O O1 0.414213 0.113573 0.822998
O O2 0.201447 0.134515 0.745527
O O3 0.187078 0.209400 0.028562
O O4 0.167322 0.970775 0.966390
O O5 0.323999 0.600804 0.680145
O O6 0.302585 0.355920 0.713680
O O7 0.055184 0.473052 0.825227
O O8 0.224797 0.516918 0.962573
O O9 0.850764 0.354732 0.755971
O O10 0.906842 0.225253 0.483224
O O11 0.641919 0.288298 0.679996
O O12 0.546712 0.716184 0.021268
#
# Coordination Sequence:
#
# PCOD9249118 Si02
#       6
#     4   4   4   4   4   4
#     4  10  26  41  71 109 146 182 241 295 366 434
#     4  10  22  46  71  97 136 191 241 296 349 423
#     4  11  25  47  71 108 141 194 243 294 362 438
#     4  10  26  45  74  97 142 194 245 293 354 424
#     4   9  24  40  75 100 145 182 238 304 367 420
#     4  10  24  42  68 107 142 187 231 302 358 428
#
# _framework density 27.078564
#
# number of rings (size 3 to 8) (size 9 to 14) (size 15 to 20)
#    1.000    1.000    0.000    0.500   14.000    2.000 
#    6.000    1.667    0.000    0.000    0.000    0.000 
#    0.000    0.000    0.000    0.000    0.000    0.000 
#
# Total GULP energy -134248.057270 kJ/mol
# GULP energy per Si atom -5593.669053 kJ/mol
# Density = 2.701693 g / cm^3
# Si number density = 27.078564 Si / 1000 Ang^3
#
#
#
# Elastic Constant Matrix: (Units=GPa)
#
#
# Indices 1 2 3 4 5 6 
#
# 1 86.9767 5.8499 39.7517 0.0000 4.4742 0.0000
# 2 5.8499 96.1741 21.8636 0.0000 -0.3636 0.0000
# 3 39.7517 21.8636 122.8755 0.0000 4.5605 0.0000
# 4 0.0000 0.0000 0.0000 50.9338 0.0000 4.9801
# 5 4.4742 -0.3636 4.5605 0.0000 65.0484 0.0000
# 6 0.0000 0.0000 0.0000 4.9801 0.0000 31.6481
#
#
#
# Elastic Compliance Matrix: (Units=1/GPa)
#
#
# Indices 1 2 3 4 5 6 
#
# 1 0.013520 0.000171 -0.004381 0.000000 -0.000622 0.000000
# 2 0.000171 0.010841 -0.001991 0.000000 0.000188 0.000000
# 3 -0.004381 -0.001991 0.009925 0.000000 -0.000406 0.000000
# 4 0.000000 0.000000 0.000000 0.019940 0.000000 -0.003138
# 5 -0.000622 0.000188 -0.000406 0.000000 0.015445 0.000000
# 6 0.000000 0.000000 0.000000 -0.003138 0.000000 0.032091
#
#
# Mechanical properties :
#
#
# Convention : Reuss Voigt Hill
#
# Bulk Modulus (GPa) = 45.69687 48.99522 47.34604
# Shear Modulus (GPa) = 41.16574 45.43014 43.29794
#
# Velocity S-wave (km/s) = 3.90325 4.10044 4.00306
# Velocity P-wave (km/s) = 6.10132 6.36798 6.23607
#
# Compressibility (1/GPa) = 0.02188334
#
# Stress axis : x y z
#
# Youngs Moduli (GPa) = 73.96312 92.24412 100.75435
#
# Poissons Ratio (x) = -0.01580 0.44144
# Poissons Ratio (y) = -0.01267 0.20064
# Poissons Ratio (z) = 0.32406 0.18369
#
# Static dielectric constant tensor:
#      x y z
#    x 2.142280 0.000000 0.063580 
#    y 0.000000 2.130940 0.000000 
#    z 0.063580 0.000000 2.120120 
# 
# From -- ./inp_files/28980.got.cif
#   From: 2010.05.17/outbox.cif.g08.bks.cpg/sg14_15_cif.got.tgz:28980.got - 2010.06.03 17:49:19.
