data_PCOD9249035
_publ_section_title
;
Structure prediction by ZEFSAII (Michael W. Deem and Ramdas Pophale) SiO2 
 PCOD9249035
Probable space group: P 21/C
;
_chemical_formula_sum "Si O2"
_cell_formula_units_Z 18
_cell_length_a 10.295221
_cell_length_b 9.142364
_cell_length_c 11.154144
_cell_angle_alpha 90.000000
_cell_angle_beta 42.032833
_cell_angle_gamma 90.000000
_cell_volume 702.938877
_symmetry_space_group_name_H-M "P 21/C"
_symmetry_group_IT_number 14
_symmetry_cell_setting 'monoclinic'
loop_
_space_group_symop_operation_xyz
x,y,z
-x,1/2+y,1/2-z
-x,-y,-z
x,1/2-y,1/2+z
loop_
_atom_site_type_symbol
_atom_site_label
_atom_site_fract_x
_atom_site_fract_y
_atom_site_fract_z
Si Si1 0.887527 0.974546 0.266531
Si Si2 0.510695 0.195719 0.121790
Si Si3 0.500000 0.500000 0.000000
Si Si4 0.806793 0.013715 0.746519
Si Si5 0.170926 0.797820 0.902453
O O1 0.683377 0.920554 0.453718
O O2 0.031127 0.034525 0.268536
O O3 0.804868 0.097928 0.230831
O O4 0.010424 0.866726 0.099310
O O5 0.485852 0.364004 0.104578
O O6 0.627823 0.196785 0.165409
O O7 0.310732 0.109539 0.242773
O O8 0.653252 0.109145 0.931808
O O9 0.884730 0.138031 0.603848
#
# Coordination Sequence:
#
# PCOD9249035 Si02
#       5
#     4   4   2   4   4
#     4  10  24  44  71 102 147 190 235 306 359 426
#     4  10  24  41  71 106 145 186 233 302 362 428
#     4  12  24  44  68 102 146 184 232 296 370 412
#     4  10  22  45  72 104 143 189 240 297 360 430
#     4  10  22  46  72 104 142 189 247 290 362 441
#
# _framework density 25.606779
#
# number of rings (size 3 to 8) (size 9 to 14) (size 15 to 20)
#    0.000    1.778    2.222    0.000    6.222    0.000 
#    4.000    2.222    0.000    0.000    0.000    0.000 
#    0.000    0.000    0.000    0.000    0.000    0.000 
#
# Total GULP energy -100392.893288 kJ/mol
# GULP energy per Si atom -5577.382960 kJ/mol
# Density = 2.554850 g / cm^3
# Si number density = 25.606779 Si / 1000 Ang^3
#
#
#
# Elastic Constant Matrix: (Units=GPa)
#
#
# Indices 1 2 3 4 5 6 
#
# 1 264.5200 89.4481 34.5473 0.0000 -11.3024 0.0000
# 2 89.4481 98.1504 5.2053 0.0000 30.7570 0.0000
# 3 34.5473 5.2053 50.8874 0.0000 1.5691 0.0000
# 4 0.0000 0.0000 0.0000 41.6020 0.0000 4.0724
# 5 -11.3024 30.7570 1.5691 0.0000 30.2598 0.0000
# 6 0.0000 0.0000 0.0000 4.0724 0.0000 43.8785
#
#
#
# Elastic Compliance Matrix: (Units=1/GPa)
#
#
# Indices 1 2 3 4 5 6 
#
# 1 0.011041 -0.016312 -0.006476 0.000000 0.021040 0.000000
# 2 -0.016312 0.039107 0.008501 0.000000 -0.046283 0.000000
# 3 -0.006476 0.008501 0.023557 0.000000 -0.012281 0.000000
# 4 0.000000 0.000000 0.000000 0.024258 0.000000 -0.002251
# 5 0.021040 -0.046283 -0.012281 0.000000 0.088586 0.000000
# 6 0.000000 0.000000 0.000000 -0.002251 0.000000 0.022999
#
#
# Mechanical properties :
#
#
# Convention : Reuss Voigt Hill
#
# Bulk Modulus (GPa) = 22.15781 74.66215 48.40998
# Shear Modulus (GPa) = 19.74997 42.10518 30.92758
#
# Velocity S-wave (km/s) = 2.78020 4.05939 3.47910
# Velocity P-wave (km/s) = 4.35637 7.15486 5.92326
#
# Compressibility (1/GPa) = 0.04513082
#
# Stress axis : x y z
#
# Youngs Moduli (GPa) = 90.57078 25.57106 42.45053
#
# Poissons Ratio (x) = 0.41711 0.27491
# Poissons Ratio (y) = 1.47738 -0.36087
# Poissons Ratio (z) = 0.58653 -0.21738
#
# Static dielectric constant tensor:
#      x y z
#    x 1.915930 0.000000 0.221870 
#    y 0.000000 1.672160 0.000000 
#    z 0.221870 0.000000 1.205250 
# 
# From -- ./inp_files/22920.got.cif
#   From: 2010.05.17/outbox.cif.g08.bks.cpg/sg14_12_cif.got.tgz:22920.got - 2010.06.03 17:49:19.
