data_PCOD9249536
_publ_section_title
;
Structure prediction by ZEFSAII (Michael W. Deem and Ramdas Pophale) SiO2 
 PCOD9249536
Probable space group: P 21/C
;
_chemical_formula_sum "Si O2"
_cell_formula_units_Z 12
_cell_length_a 6.939025
_cell_length_b 6.771318
_cell_length_c 16.638803
_cell_angle_alpha 90.000000
_cell_angle_beta 143.615654
_cell_angle_gamma 90.000000
_cell_volume 463.760889
_symmetry_space_group_name_H-M "P 21/C"
_symmetry_group_IT_number 14
_symmetry_cell_setting 'monoclinic'
loop_
_space_group_symop_operation_xyz
x,y,z
-x,1/2+y,1/2-z
-x,-y,-z
x,1/2-y,1/2+z
loop_
_atom_site_type_symbol
_atom_site_label
_atom_site_fract_x
_atom_site_fract_y
_atom_site_fract_z
Si Si1 0.721973 0.333415 0.411344
Si Si2 0.432563 0.761019 0.972931
Si Si3 0.843816 0.129198 0.284077
O O1 0.763341 0.224864 0.510356
O O2 0.752211 0.210314 0.340825
O O3 0.365074 0.430496 0.293520
O O4 0.000000 0.500000 0.500000
O O5 0.769666 0.644539 0.091671
O O6 0.278705 0.738442 0.832922
O O7 0.500000 0.000000 0.000000
#
# Coordination Sequence:
#
# PCOD9249536 Si02
#       3
#     4   4   4
#     4  11  24  45  70  98 140 173 227 281 329 400
#     4  10  23  42  64  98 139 173 220 278 326 394
#     4  11  23  43  72  98 138 182 215 281 341 386
#
# _framework density 25.875399999999999
#
# number of rings (size 3 to 8) (size 9 to 14) (size 15 to 20)
#    0.000    1.333    6.667    0.000    4.667    1.333 
#    0.000    8.333    0.000    0.000    0.000    0.000 
#    0.000    0.000    0.000    0.000    0.000    0.000 
#
# Total GULP energy -67214.077007 kJ/mol
# GULP energy per Si atom -5601.173084 kJ/mol
# Density = 2.581651 g / cm^3
# Si number density = 25.875400 Si / 1000 Ang^3
#
#
#
# Elastic Constant Matrix: (Units=GPa)
#
#
# Indices 1 2 3 4 5 6 
#
# 1 212.7764 17.1664 66.0674 0.0000 -36.3073 0.0000
# 2 17.1664 60.3168 4.8790 0.0000 -0.2561 0.0000
# 3 66.0674 4.8790 155.6003 0.0000 -0.7056 0.0000
# 4 0.0000 0.0000 0.0000 45.6321 0.0000 -6.4207
# 5 -36.3073 -0.2561 -0.7056 0.0000 78.8906 0.0000
# 6 0.0000 0.0000 0.0000 -6.4207 0.0000 57.4419
#
#
#
# Elastic Compliance Matrix: (Units=1/GPa)
#
#
# Indices 1 2 3 4 5 6 
#
# 1 0.006077 -0.001514 -0.002520 0.000000 0.002769 0.000000
# 2 -0.001514 0.016999 0.000107 0.000000 -0.000641 0.000000
# 3 -0.002520 0.000107 0.007489 0.000000 -0.001093 0.000000
# 4 0.000000 0.000000 0.000000 0.022265 0.000000 0.002489
# 5 0.002769 -0.000641 -0.001093 0.000000 0.013938 0.000000
# 6 0.000000 0.000000 0.000000 0.002489 0.000000 0.017687
#
#
# Mechanical properties :
#
#
# Convention : Reuss Voigt Hill
#
# Bulk Modulus (GPa) = 44.03427 67.21324 55.62375
# Shear Modulus (GPa) = 50.06076 59.09829 54.57953
#
# Velocity S-wave (km/s) = 4.40328 4.78426 4.59772
# Velocity P-wave (km/s) = 6.55031 7.52004 7.05186
#
# Compressibility (1/GPa) = 0.02270959
#
# Stress axis : x y z
#
# Youngs Moduli (GPa) = 164.55504 58.82825 133.53800
#
# Poissons Ratio (x) = 0.08906 0.33655
# Poissons Ratio (y) = 0.24912 -0.01427
# Poissons Ratio (z) = 0.41472 -0.00629
#
# Static dielectric constant tensor:
#      x y z
#    x 1.985370 0.000000 -0.026550 
#    y 0.000000 2.240700 0.000000 
#    z -0.026550 0.000000 2.121710 
# 
# From -- ./inp_files/4696.got.cif
#   From: 2010.05.17/outbox.cif.g08.bks.cpg/sg14_3_cif.got.tgz:4696.got - 2010.06.03 17:49:19.
