data_PCOD9249818
_publ_section_title
;
Structure prediction by ZEFSAII (Michael W. Deem and Ramdas Pophale) SiO2 
 PCOD9249818
Probable space group: P 21/C
;
_chemical_formula_sum "Si O2"
_cell_formula_units_Z 32
_cell_length_a 5.375323
_cell_length_b 27.819901
_cell_length_c 8.546590
_cell_angle_alpha 90.000000
_cell_angle_beta 98.230440
_cell_angle_gamma 90.000000
_cell_volume 1264.901551
_symmetry_space_group_name_H-M "P 21/C"
_symmetry_group_IT_number 14
_symmetry_cell_setting 'monoclinic'
loop_
_space_group_symop_operation_xyz
x,y,z
-x,1/2+y,1/2-z
-x,-y,-z
x,1/2-y,1/2+z
loop_
_atom_site_type_symbol
_atom_site_label
_atom_site_fract_x
_atom_site_fract_y
_atom_site_fract_z
Si Si1 0.671887 0.725212 0.577186
Si Si2 0.945903 0.300758 0.914027
Si Si3 0.950237 0.401870 0.778304
Si Si4 0.505521 0.955273 0.880679
Si Si5 0.331295 0.520833 0.847839
Si Si6 0.830594 0.623943 0.535942
Si Si7 0.827438 0.923111 0.365944
Si Si8 0.662130 0.271323 0.177992
O O1 0.832789 0.681256 0.527475
O O2 0.444584 0.728338 0.435946
O O3 0.567598 0.709844 0.737168
O O4 0.767202 0.781184 0.575331
O O5 0.862548 0.348291 0.819079
O O6 0.835411 0.254334 0.818358
O O7 0.829747 0.302990 0.077266
O O8 0.734535 0.442312 0.748089
O O9 0.019663 0.395419 0.601251
O O10 0.139417 0.407771 0.947643
O O11 0.707027 0.977544 0.778033
O O12 0.575961 0.906021 0.973850
O O13 0.500000 0.000000 0.000000
O O14 0.058576 0.539436 0.869143
O O15 0.538378 0.560348 0.810011
O O16 0.500000 0.500000 0.000000
O O17 0.891995 0.610232 0.720687
#
# Coordination Sequence:
#
# PCOD9249818 Si02
#       8
#     4   4   4   4   4   4   4   4
#     4  11  24  46  71 108 150 198 256 319 393 477
#     4  11  24  46  71 109 149 198 256 318 398 477
#     4  12  28  47  75 112 154 203 262 333 400 487
#     4  12  26  49  76 104 154 205 262 330 404 472
#     4  12  25  50  78 109 155 200 263 326 404 465
#     4  12  28  47  74 111 154 202 265 329 398 485
#     4  12  29  48  80 117 152 207 267 332 398 484
#     4  10  23  43  74 100 147 201 249 319 394 463
#
# _framework density 25.298411999999999
#
# number of rings (size 3 to 8) (size 9 to 14) (size 15 to 20)
#    0.000    0.500    2.500    4.875    5.250    4.000 
#    0.000    0.000    0.000    0.000    0.000    0.000 
#    0.000    0.000    0.000    0.000    0.000    0.000 
#
# Total GULP energy -178186.837361 kJ/mol
# GULP energy per Si atom -5568.338668 kJ/mol
# Density = 2.524083 g / cm^3
# Si number density = 25.298412 Si / 1000 Ang^3
#
#
#
# Elastic Constant Matrix: (Units=GPa)
#
#
# Indices 1 2 3 4 5 6 
#
# 1 59.0343 23.2002 6.8087 0.0000 -8.9359 0.0000
# 2 23.2002 87.3993 23.6337 0.0000 8.2223 0.0000
# 3 6.8087 23.6337 114.1650 0.0000 -14.3927 0.0000
# 4 0.0000 0.0000 0.0000 54.9431 0.0000 5.2296
# 5 -8.9359 8.2223 -14.3927 0.0000 46.1229 0.0000
# 6 0.0000 0.0000 0.0000 5.2296 0.0000 22.7019
#
#
#
# Elastic Compliance Matrix: (Units=1/GPa)
#
#
# Indices 1 2 3 4 5 6 
#
# 1 0.019989 -0.005979 0.000696 0.000000 0.005156 0.000000
# 2 -0.005979 0.014340 -0.003206 0.000000 -0.004715 0.000000
# 3 0.000696 -0.003206 0.009858 0.000000 0.003783 0.000000
# 4 0.000000 0.000000 0.000000 0.018609 0.000000 -0.004287
# 5 0.005156 -0.004715 0.003783 0.000000 0.024701 0.000000
# 6 0.000000 0.000000 0.000000 -0.004287 0.000000 0.045037
#
#
# Mechanical properties :
#
#
# Convention : Reuss Voigt Hill
#
# Bulk Modulus (GPa) = 36.75490 40.87598 38.81544
# Shear Modulus (GPa) = 31.52925 38.55065 35.03995
#
# Velocity S-wave (km/s) = 3.53412 3.90787 3.72568
# Velocity P-wave (km/s) = 5.58690 6.04603 5.82099
#
# Compressibility (1/GPa) = 0.02720726
#
# Stress axis : x y z
#
# Youngs Moduli (GPa) = 50.02670 69.73708 101.43635
#
# Poissons Ratio (x) = 0.41698 -0.07056
# Poissons Ratio (y) = 0.29913 0.32524
# Poissons Ratio (z) = -0.03480 0.22360
#
# Static dielectric constant tensor:
#      x y z
#    x 2.484450 0.000000 -0.068150 
#    y 0.000000 2.122210 0.000000 
#    z -0.068150 0.000000 2.025640 
# 
# From -- ./inp_files/6800.got.cif
#   From: 2010.05.17/outbox.cif.g08.bks.cpg/sg14_4_cif.got.tgz:6800.got - 2010.06.03 17:49:19.
