data_PCOD9249567
_publ_section_title
;
Structure prediction by ZEFSAII (Michael W. Deem and Ramdas Pophale) SiO2 
 PCOD9249567
Probable space group: P 21/C
;
_chemical_formula_sum "Si O2"
_cell_formula_units_Z 26
_cell_length_a 10.016755
_cell_length_b 18.339268
_cell_length_c 10.569951
_cell_angle_alpha 90.000000
_cell_angle_beta 138.088651
_cell_angle_gamma 90.000000
_cell_volume 1297.016392
_symmetry_space_group_name_H-M "P 21/C"
_symmetry_group_IT_number 14
_symmetry_cell_setting 'monoclinic'
loop_
_space_group_symop_operation_xyz
x,y,z
-x,1/2+y,1/2-z
-x,-y,-z
x,1/2-y,1/2+z
loop_
_atom_site_type_symbol
_atom_site_label
_atom_site_fract_x
_atom_site_fract_y
_atom_site_fract_z
Si Si1 0.489392 0.606014 0.095587
Si Si2 0.393214 0.842936 0.799773
Si Si3 0.500000 0.500000 0.500000
Si Si4 0.257927 0.503870 0.572522
Si Si5 0.909390 0.101620 0.838873
Si Si6 0.278328 0.272047 0.882898
Si Si7 0.973891 0.768416 0.540374
O O1 0.439396 0.655405 0.182595
O O2 0.600300 0.534561 0.224427
O O3 0.633815 0.652262 0.107468
O O4 0.282251 0.588979 0.882394
O O5 0.163438 0.821707 0.662433
O O6 0.450209 0.923068 0.888784
O O7 0.538161 0.782713 0.962497
O O8 0.382095 0.530546 0.541944
O O9 0.135843 0.567231 0.555917
O O10 0.101167 0.441056 0.420809
O O11 0.948794 0.186614 0.879339
O O12 0.162367 0.285109 0.933112
O O13 0.143487 0.236618 0.676079
#
# Coordination Sequence:
#
# PCOD9249567 Si02
#       7
#     4   4   2   4   4   4   4
#     4  11  22  44  64  95 134 177 223 277 338 401
#     4  11  25  44  66  97 138 177 224 287 342 408
#     4  10  24  44  66  94 138 174 222 282 346 392
#     4  10  23  42  66  97 134 177 220 281 333 408
#     4  11  22  41  67  93 132 175 224 270 334 410
#     4  12  24  43  65 102 135 173 226 288 332 412
#     4  12  25  39  69  99 132 177 228 273 349 400
#
# _framework density 20.046006999999999
#
# number of rings (size 3 to 8) (size 9 to 14) (size 15 to 20)
#    0.000    0.923    4.615    2.308    2.154    1.231 
#    0.000    6.923    0.000    0.000    0.000    0.000 
#    0.000    0.000    0.000    0.000    0.000    0.000 
#
# Total GULP energy -144848.791337 kJ/mol
# GULP energy per Si atom -5571.107359 kJ/mol
# Density = 2.000038 g / cm^3
# Si number density = 20.046007 Si / 1000 Ang^3
#
#
#
# Elastic Constant Matrix: (Units=GPa)
#
#
# Indices 1 2 3 4 5 6 
#
# 1 18.2636 -26.6483 54.7240 0.0000 -33.2929 0.0000
# 2 -26.6483 14.8464 0.1364 0.0000 -13.8891 0.0000
# 3 54.7240 0.1364 67.5530 0.0000 18.3639 0.0000
# 4 0.0000 0.0000 0.0000 -0.6388 0.0000 -4.5923
# 5 -33.2929 -13.8891 18.3639 0.0000 24.9206 0.0000
# 6 0.0000 0.0000 0.0000 -4.5923 0.0000 24.1054
#
#
#
# Elastic Compliance Matrix: (Units=1/GPa)
#
#
# Indices 1 2 3 4 5 6 
#
# 1 -0.001168 -0.013797 0.004362 0.000000 -0.012464 0.000000
# 2 -0.013797 0.032539 0.013995 0.000000 -0.010609 0.000000
# 3 0.004362 0.013995 0.009425 0.000000 0.006683 0.000000
# 4 0.000000 0.000000 0.000000 -0.660622 0.000000 -0.125855
# 5 -0.012464 -0.010609 0.006683 0.000000 0.012639 0.000000
# 6 0.000000 0.000000 0.000000 -0.125855 0.000000 0.017508
#
#
# Mechanical properties :
#
#
# Convention : Reuss Voigt Hill
#
# Bulk Modulus (GPa) = 20.03353 17.45414 18.74383
# Shear Modulus (GPa) = -8.58867 14.50749 2.95941
#
# Velocity S-wave (km/s) = -2.07214 2.69310 1.21635
# Velocity P-wave (km/s) = 2.07134 4.28910 3.36800
#
# Compressibility (1/GPa) = 0.04991632
#
# Stress axis : x y z
#
# Youngs Moduli (GPa) = -856.28367 30.73269 106.10552
#
# Poissons Ratio (x) = 0.42400 -0.46285
# Poissons Ratio (y) = -11.81373 -1.48493
# Poissons Ratio (z) = 3.73525 -0.43010
#
# Static dielectric constant tensor:
#      x y z
#    x 1.747950 0.000000 -0.010660 
#    y 0.000000 1.687540 0.000000 
#    z -0.010660 0.000000 1.732910 
# 
# From -- ./inp_files/10313.got.cif
#   From: 2010.05.17/outbox.cif.g08.bks.cpg/sg14_6_cif.got.tgz:10313.got - 2010.06.03 17:49:19.
