data_PCOD9249482
_publ_section_title
;
Structure prediction by ZEFSAII (Michael W. Deem and Ramdas Pophale) SiO2 
 PCOD9249482
Probable space group: P 21/C
;
_chemical_formula_sum "Si O2"
_cell_formula_units_Z 28
_cell_length_a 13.228022
_cell_length_b 10.453812
_cell_length_c 13.669340
_cell_angle_alpha 90.000000
_cell_angle_beta 147.998262
_cell_angle_gamma 90.000000
_cell_volume 1001.723655
_symmetry_space_group_name_H-M "P 21/C"
_symmetry_group_IT_number 14
_symmetry_cell_setting 'monoclinic'
loop_
_space_group_symop_operation_xyz
x,y,z
-x,1/2+y,1/2-z
-x,-y,-z
x,1/2-y,1/2+z
loop_
_atom_site_type_symbol
_atom_site_label
_atom_site_fract_x
_atom_site_fract_y
_atom_site_fract_z
Si Si1 0.721415 0.585239 0.329195
Si Si2 0.663759 0.669900 0.490766
Si Si3 0.614406 0.933028 0.430394
Si Si4 0.831086 0.189850 0.279845
Si Si5 0.467838 0.408065 0.365335
Si Si6 0.072286 0.989275 0.187247
Si Si7 0.059217 0.397198 0.136288
O O1 0.681796 0.677960 0.387985
O O2 0.514437 0.541470 0.129752
O O3 0.742937 0.874197 0.265415
O O4 0.848245 0.484275 0.496589
O O5 0.544160 0.554428 0.438745
O O6 0.876525 0.663296 0.708648
O O7 0.565609 0.800201 0.441150
O O8 0.826530 0.971991 0.630873
O O9 0.560203 0.918362 0.274051
O O10 0.875827 0.168835 0.434794
O O11 0.902358 0.335827 0.315989
O O12 0.640695 0.172273 0.056274
O O13 0.942347 0.052084 0.350936
O O14 0.165258 0.078403 0.179099
#
# Coordination Sequence:
#
# PCOD9249482 Si02
#       7
#     4   4   4   4   4   4   4
#     4  10  26  48  65 106 142 182 243 277 356 425
#     4  10  23  44  68 104 138 179 234 290 346 430
#     4  11  26  43  71 102 141 185 229 295 357 411
#     4  10  23  41  71 101 134 182 237 282 345 419
#     4  10  24  43  69 101 136 182 235 282 357 418
#     4  11  26  45  73 103 141 191 232 296 352 418
#     4  10  23  44  69 102 139 184 230 291 353 411
#
# _framework density 27.951822
#
# number of rings (size 3 to 8) (size 9 to 14) (size 15 to 20)
#    0.000    1.714    0.000    2.143   14.000    4.571 
#    0.000    0.000    0.000    0.000    0.000    0.000 
#    0.000    0.000    0.000    0.000    0.000    0.000 
#
# Total GULP energy -155971.685547 kJ/mol
# GULP energy per Si atom -5570.417341 kJ/mol
# Density = 2.788820 g / cm^3
# Si number density = 27.951822 Si / 1000 Ang^3
#
#
#
# Elastic Constant Matrix: (Units=GPa)
#
#
# Indices 1 2 3 4 5 6 
#
# 1 85.6983 14.6387 18.5719 0.0000 -0.5893 0.0000
# 2 14.6387 125.2736 41.2995 0.0000 -23.6859 0.0000
# 3 18.5719 41.2995 165.5589 0.0000 -14.5732 0.0000
# 4 0.0000 0.0000 0.0000 2.3099 0.0000 -3.9386
# 5 -0.5893 -23.6859 -14.5732 0.0000 36.0692 0.0000
# 6 0.0000 0.0000 0.0000 -3.9386 0.0000 13.6362
#
#
#
# Elastic Compliance Matrix: (Units=1/GPa)
#
#
# Indices 1 2 3 4 5 6 
#
# 1 0.012122 -0.001243 -0.001145 0.000000 -0.001081 0.000000
# 2 -0.001243 0.009797 -0.001804 0.000000 0.005684 0.000000
# 3 -0.001145 -0.001804 0.006753 0.000000 0.001525 0.000000
# 4 0.000000 0.000000 0.000000 0.853055 0.000000 0.246394
# 5 -0.001081 0.005684 0.001525 0.000000 0.032056 0.000000
# 6 0.000000 0.000000 0.000000 0.246394 0.000000 0.144502
#
#
# Mechanical properties :
#
#
# Convention : Reuss Voigt Hill
#
# Bulk Modulus (GPa) = 49.29177 58.39456 53.84316
# Shear Modulus (GPa) = 4.65796 30.53776 17.59786
#
# Velocity S-wave (km/s) = 1.29230 3.30891 2.51186
# Velocity P-wave (km/s) = 4.46089 5.96112 5.26472
#
# Compressibility (1/GPa) = 0.02028736
#
# Stress axis : x y z
#
# Youngs Moduli (GPa) = 82.49532 102.06787 148.08569
#
# Poissons Ratio (x) = 0.12692 0.16952
# Poissons Ratio (y) = 0.10258 0.26717
# Poissons Ratio (z) = 0.09444 0.18415
#
# Static dielectric constant tensor:
#      x y z
#    x 2.246210 0.000000 -0.041750 
#    y 0.000000 2.287820 0.000000 
#    z -0.041750 0.000000 2.277000 
# 
# From -- ./inp_files/70183.got.cif
#   From: 2010.05.17/outbox.cif.g08.bks.cpg/sg14_36_cif.got.tgz:70183.got - 2010.06.03 17:49:19.
