data_PCOD9249889
_publ_section_title
;
Structure prediction by ZEFSAII (Michael W. Deem and Ramdas Pophale) SiO2 
 PCOD9249889
Probable space group: P 21/C
;
_chemical_formula_sum "Si O2"
_cell_formula_units_Z 28
_cell_length_a 21.307376
_cell_length_b 8.348878
_cell_length_c 9.293878
_cell_angle_alpha 90.000000
_cell_angle_beta 48.538613
_cell_angle_gamma 90.000000
_cell_volume 1238.996162
_symmetry_space_group_name_H-M "P 21/C"
_symmetry_group_IT_number 14
_symmetry_cell_setting 'monoclinic'
loop_
_space_group_symop_operation_xyz
x,y,z
-x,1/2+y,1/2-z
-x,-y,-z
x,1/2-y,1/2+z
loop_
_atom_site_type_symbol
_atom_site_label
_atom_site_fract_x
_atom_site_fract_y
_atom_site_fract_z
Si Si1 0.503149 0.254049 0.255867
Si Si2 0.376492 0.496718 0.428987
Si Si3 0.914532 0.344168 0.004022
Si Si4 0.261286 0.037942 0.857430
Si Si5 0.264205 0.650281 0.839652
Si Si6 0.917655 0.032090 0.823047
Si Si7 0.369193 0.016319 0.429249
O O1 0.436362 0.376005 0.425158
O O2 0.572059 0.376606 0.089614
O O3 0.560999 0.122596 0.245999
O O4 0.438481 0.142002 0.266257
O O5 0.317397 0.409453 0.405739
O O6 0.318392 0.596919 0.621484
O O7 0.923767 0.159370 0.943231
O O8 0.997153 0.435148 0.826068
O O9 0.830826 0.402024 0.049025
O O10 0.903831 0.375080 0.191138
O O11 0.262476 0.842352 0.857980
O O12 0.308567 0.089142 0.641872
O O13 0.163784 0.077558 0.023223
O O14 0.309545 0.566314 0.903980
#
# Coordination Sequence:
#
# PCOD9249889 Si02
#       7
#     4   4   4   4   4   4   4
#     4  10  24  40  60  88 122 168 206 264 302 368
#     4  11  22  40  61  86 123 158 210 255 310 356
#     4  10  23  44  68  96 128 165 205 257 317 382
#     4  11  21  40  64  90 120 165 202 255 305 377
#     4  11  21  40  64  90 120 165 202 255 305 377
#     4  10  23  44  68  96 128 165 205 257 317 382
#     4  11  24  40  61  90 125 162 218 249 314 356
#
# _framework density 22.598939999999999
#
# number of rings (size 3 to 8) (size 9 to 14) (size 15 to 20)
#    0.000    1.429    4.286    0.000    6.000    8.571 
#    5.143    0.000    0.000    0.000    0.000    0.000 
#    0.000    0.000    0.000    0.000    0.000    0.000 
#
# Total GULP energy -156115.925315 kJ/mol
# GULP energy per Si atom -5575.568761 kJ/mol
# Density = 2.254750 g / cm^3
# Si number density = 22.598940 Si / 1000 Ang^3
#
#
#
# Elastic Constant Matrix: (Units=GPa)
#
#
# Indices 1 2 3 4 5 6 
#
# 1 133.5982 26.7745 37.9639 0.0000 -28.5457 0.0000
# 2 26.7745 37.1061 12.0933 0.0000 -19.3208 0.0000
# 3 37.9639 12.0933 139.3896 0.0000 -28.1914 0.0000
# 4 0.0000 0.0000 0.0000 21.9619 0.0000 -10.4504
# 5 -28.5457 -19.3208 -28.1914 0.0000 45.0397 0.0000
# 6 0.0000 0.0000 0.0000 -10.4504 0.0000 24.7852
#
#
#
# Elastic Compliance Matrix: (Units=1/GPa)
#
#
# Indices 1 2 3 4 5 6 
#
# 1 0.009536 -0.004808 -0.001574 0.000000 0.002996 0.000000
# 2 -0.004808 0.037125 0.000794 0.000000 0.013375 0.000000
# 3 -0.001574 0.000794 0.008474 0.000000 0.004647 0.000000
# 4 0.000000 0.000000 0.000000 0.056962 0.000000 0.024017
# 5 0.002996 0.013375 0.004647 0.000000 0.032748 0.000000
# 6 0.000000 0.000000 0.000000 0.024017 0.000000 0.050473
#
#
# Mechanical properties :
#
#
# Convention : Reuss Voigt Hill
#
# Bulk Modulus (GPa) = 22.74910 51.52861 37.13885
# Shear Modulus (GPa) = 22.60945 33.90817 28.25881
#
# Velocity S-wave (km/s) = 3.16644 3.87774 3.54000
# Velocity P-wave (km/s) = 4.84322 6.54981 5.76007
#
# Compressibility (1/GPa) = 0.04395778
#
# Stress axis : x y z
#
# Youngs Moduli (GPa) = 104.86371 26.93638 118.01057
#
# Poissons Ratio (x) = 0.12951 0.18577
# Poissons Ratio (y) = 0.50417 -0.09366
# Poissons Ratio (z) = 0.16507 -0.02138
#
# Static dielectric constant tensor:
#      x y z
#    x 1.848970 0.000000 0.015690 
#    y 0.000000 1.848730 0.000000 
#    z 0.015690 0.000000 1.828900 
# 
# From -- ./inp_files/18709.got.cif
#   From: 2010.05.17/outbox.cif.g08.bks.cpg/sg14_10_cif.got.tgz:18709.got - 2010.06.03 17:49:19.
