data_PCOD9249076
_publ_section_title
;
Structure prediction by ZEFSAII (Michael W. Deem and Ramdas Pophale) SiO2 
 PCOD9249076
Probable space group: P 21/C
;
_chemical_formula_sum "Si O2"
_cell_formula_units_Z 14
_cell_length_a 9.809218
_cell_length_b 4.800872
_cell_length_c 19.097427
_cell_angle_alpha 90.000000
_cell_angle_beta 149.424049
_cell_angle_gamma 90.000000
_cell_volume 457.482104
_symmetry_space_group_name_H-M "P 21/C"
_symmetry_group_IT_number 14
_symmetry_cell_setting 'monoclinic'
loop_
_space_group_symop_operation_xyz
x,y,z
-x,1/2+y,1/2-z
-x,-y,-z
x,1/2-y,1/2+z
loop_
_atom_site_type_symbol
_atom_site_label
_atom_site_fract_x
_atom_site_fract_y
_atom_site_fract_z
Si Si1 0.891002 0.242872 0.882016
Si Si2 0.500000 0.500000 0.500000
Si Si3 0.607922 0.489285 0.392367
Si Si4 0.145182 0.509205 0.781673
O O1 0.692660 0.476424 0.767104
O O2 0.860517 0.019175 0.804530
O O3 0.771745 0.164894 0.904069
O O4 0.210314 0.273046 0.026061
O O5 0.601504 0.373463 0.467131
O O6 0.623166 0.216976 0.593782
O O7 0.118238 0.205035 0.808331
#
# Coordination Sequence:
#
# PCOD9249076 Si02
#       4
#     4   2   4   4
#     4  10  23  44  70 103 150 192 250 306 378 440
#     4  10  22  46  74 108 152 196 254 306 378 450
#     4  10  22  46  66 108 146 198 249 311 372 451
#     4  11  24  46  73 109 145 197 248 311 367 451
#
# _framework density 30.60229
#
# number of rings (size 3 to 8) (size 9 to 14) (size 15 to 20)
#    0.000    1.714    2.857    0.000    0.000    6.857 
#    5.143    0.000    0.000    0.000    0.000    0.000 
#    0.000    0.000    0.000    0.000    0.000    0.000 
#
# Total GULP energy -78104.014215 kJ/mol
# GULP energy per Si atom -5578.858158 kJ/mol
# Density = 3.053264 g / cm^3
# Si number density = 30.602290 Si / 1000 Ang^3
#
#
#
# Elastic Constant Matrix: (Units=GPa)
#
#
# Indices 1 2 3 4 5 6 
#
# 1 293.2872 77.5608 69.2393 0.0000 -61.7006 0.0000
# 2 77.5608 187.0547 43.5311 0.0000 -11.9125 0.0000
# 3 69.2393 43.5311 107.9124 0.0000 -19.2410 0.0000
# 4 0.0000 0.0000 0.0000 16.2538 0.0000 -9.8212
# 5 -61.7006 -11.9125 -19.2410 0.0000 86.6116 0.0000
# 6 0.0000 0.0000 0.0000 -9.8212 0.0000 24.9814
#
#
#
# Elastic Compliance Matrix: (Units=1/GPa)
#
#
# Indices 1 2 3 4 5 6 
#
# 1 0.004844 -0.001350 -0.002063 0.000000 0.002807 0.000000
# 2 -0.001350 0.006283 -0.001755 0.000000 -0.000487 0.000000
# 3 -0.002063 -0.001755 0.011447 0.000000 0.000832 0.000000
# 4 0.000000 0.000000 0.000000 0.080693 0.000000 0.031724
# 5 0.002807 -0.000487 0.000832 0.000000 0.013663 0.000000
# 6 0.000000 0.000000 0.000000 0.031724 0.000000 0.052502
#
#
# Mechanical properties :
#
#
# Convention : Reuss Voigt Hill
#
# Bulk Modulus (GPa) = 81.71525 107.65740 94.68632
# Shear Modulus (GPa) = 27.19645 52.09760 39.64702
#
# Velocity S-wave (km/s) = 2.98435 4.13050 3.60329
# Velocity P-wave (km/s) = 6.21574 7.61603 6.95124
#
# Compressibility (1/GPa) = 0.01223762
#
# Stress axis : x y z
#
# Youngs Moduli (GPa) = 206.43504 159.15542 87.35902
#
# Poissons Ratio (x) = 0.21481 0.18024
# Poissons Ratio (y) = 0.27862 0.15336
# Poissons Ratio (z) = 0.42591 0.27939
#
# Static dielectric constant tensor:
#      x y z
#    x 2.113110 0.000000 -0.025660 
#    y 0.000000 2.467210 0.000000 
#    z -0.025660 0.000000 2.514260 
# 
# From -- ./inp_files/27227.got.cif
#   From: 2010.05.17/outbox.cif.g08.bks.cpg/sg14_14_cif.got.tgz:27227.got - 2010.06.03 17:49:19.
