data_PCOD9249918
_publ_section_title
;
Structure prediction by ZEFSAII (Michael W. Deem and Ramdas Pophale) SiO2 
 PCOD9249918
Probable space group: P 21/C
;
_chemical_formula_sum "Si O2"
_cell_formula_units_Z 32
_cell_length_a 11.295657
_cell_length_b 14.071449
_cell_length_c 11.727482
_cell_angle_alpha 90.000000
_cell_angle_beta 51.958108
_cell_angle_gamma 90.000000
_cell_volume 1468.043631
_symmetry_space_group_name_H-M "P 21/C"
_symmetry_group_IT_number 14
_symmetry_cell_setting 'monoclinic'
loop_
_space_group_symop_operation_xyz
x,y,z
-x,1/2+y,1/2-z
-x,-y,-z
x,1/2-y,1/2+z
loop_
_atom_site_type_symbol
_atom_site_label
_atom_site_fract_x
_atom_site_fract_y
_atom_site_fract_z
Si Si1 0.048590 0.411813 0.548551
Si Si2 0.084118 0.542908 0.127231
Si Si3 0.882884 0.092720 0.634819
Si Si4 0.601442 0.409475 0.964450
Si Si5 0.627989 0.566948 0.296333
Si Si6 0.223592 0.790433 0.827976
Si Si7 0.490305 0.755088 0.306154
Si Si8 0.614176 0.590800 0.575636
O O1 0.227728 0.407694 0.451870
O O2 0.000000 0.500000 0.500000
O O3 0.994744 0.422494 0.711414
O O4 0.946828 0.327162 0.559125
O O5 0.260794 0.550904 0.042070
O O6 0.015717 0.439717 0.138941
O O7 0.055181 0.604025 0.030384
O O8 0.795393 0.187269 0.719023
O O9 0.768737 0.003254 0.695955
O O10 0.680554 0.361749 0.807951
O O11 0.500000 0.500000 0.000000
O O12 0.513698 0.327737 0.085758
O O13 0.605165 0.668130 0.249935
O O14 0.629427 0.590489 0.430303
O O15 0.484715 0.503229 0.344220
O O16 0.319537 0.780700 0.886508
O O17 0.527990 0.817572 0.173189
#
# Coordination Sequence:
#
# PCOD9249918 Si02
#       8
#     4   4   4   4   4   4   4   4
#     4  11  25  45  66 101 141 182 227 290 354 414
#     4  10  23  44  70  95 139 175 236 284 349 413
#     4  11  22  47  74 101 133 190 234 292 349 413
#     4  11  26  46  69 103 142 181 231 298 356 416
#     4  11  24  44  73  96 146 179 230 299 336 422
#     4  11  25  44  71 100 136 181 237 282 354 425
#     4  12  25  43  69 103 135 187 233 282 356 415
#     4  11  24  45  69 104 136 180 240 277 350 426
#
# _framework density 21.797716999999999
#
# number of rings (size 3 to 8) (size 9 to 14) (size 15 to 20)
#    0.000    1.000    3.750    1.500    8.750    3.000 
#    2.250    0.000    0.000    0.000    0.000    0.000 
#    0.000    0.000    0.000    0.000    0.000    0.000 
#
# Total GULP energy -178743.081740 kJ/mol
# GULP energy per Si atom -5585.721304 kJ/mol
# Density = 2.174810 g / cm^3
# Si number density = 21.797717 Si / 1000 Ang^3
#
#
#
# Elastic Constant Matrix: (Units=GPa)
#
#
# Indices 1 2 3 4 5 6 
#
# 1 87.5643 52.3825 2.9041 0.0000 -22.4899 0.0000
# 2 52.3825 139.8108 19.1754 0.0000 -8.5967 0.0000
# 3 2.9041 19.1754 48.2031 0.0000 -3.5593 0.0000
# 4 0.0000 0.0000 0.0000 30.6036 0.0000 -6.9669
# 5 -22.4899 -8.5967 -3.5593 0.0000 29.0044 0.0000
# 6 0.0000 0.0000 0.0000 -6.9669 0.0000 46.7284
#
#
#
# Elastic Compliance Matrix: (Units=1/GPa)
#
#
# Indices 1 2 3 4 5 6 
#
# 1 0.018473 -0.006469 0.002398 0.000000 0.012700 0.000000
# 2 -0.006469 0.009935 -0.003749 0.000000 -0.002532 0.000000
# 3 0.002398 -0.003749 0.022350 0.000000 0.003491 0.000000
# 4 0.000000 0.000000 0.000000 0.033824 0.000000 0.005043
# 5 0.012700 -0.002532 0.003491 0.000000 0.044003 0.000000
# 6 0.000000 0.000000 0.000000 0.005043 0.000000 0.022152
#
#
# Mechanical properties :
#
#
# Convention : Reuss Voigt Hill
#
# Bulk Modulus (GPa) = 28.47576 47.16691 37.82134
# Shear Modulus (GPa) = 28.07675 34.67502 31.37589
#
# Velocity S-wave (km/s) = 3.59285 3.99277 3.79807
# Velocity P-wave (km/s) = 5.50485 6.55299 6.05166
#
# Compressibility (1/GPa) = 0.03511758
#
# Stress axis : x y z
#
# Youngs Moduli (GPa) = 54.13444 100.65599 44.74202
#
# Poissons Ratio (x) = 0.65115 -0.10731
# Poissons Ratio (y) = 0.35020 0.16775
# Poissons Ratio (z) = -0.12983 0.37739
#
# Static dielectric constant tensor:
#      x y z
#    x 1.841040 0.000000 -0.035780 
#    y 0.000000 1.803400 0.000000 
#    z -0.035780 0.000000 1.843540 
# 
# From -- ./inp_files/30001.got.cif
#   From: 2010.05.17/outbox.cif.g08.bks.cpg/sg14_16_cif.got.tgz:30001.got - 2010.06.03 17:49:19.
