data_PCOD9249174
_publ_section_title
;
Structure prediction by ZEFSAII (Michael W. Deem and Ramdas Pophale) SiO2 
 PCOD9249174
Probable space group: P 21/C
;
_chemical_formula_sum "Si O2"
_cell_formula_units_Z 28
_cell_length_a 19.776393
_cell_length_b 5.961750
_cell_length_c 17.009537
_cell_angle_alpha 90.000000
_cell_angle_beta 142.357560
_cell_angle_gamma 90.000000
_cell_volume 1224.796432
_symmetry_space_group_name_H-M "P 21/C"
_symmetry_group_IT_number 14
_symmetry_cell_setting 'monoclinic'
loop_
_space_group_symop_operation_xyz
x,y,z
-x,1/2+y,1/2-z
-x,-y,-z
x,1/2-y,1/2+z
loop_
_atom_site_type_symbol
_atom_site_label
_atom_site_fract_x
_atom_site_fract_y
_atom_site_fract_z
Si Si1 0.390241 0.974982 0.253752
Si Si2 0.049538 0.425025 0.811139
Si Si3 0.427112 0.376717 0.617822
Si Si4 0.209513 0.246623 0.832510
Si Si5 0.545862 0.294713 0.487319
Si Si6 0.766583 0.085927 0.767206
Si Si7 0.955932 0.114642 0.381345
O O1 0.390772 0.114924 0.174284
O O2 0.455400 0.102357 0.384680
O O3 0.460468 0.756000 0.295155
O O4 0.269445 0.915900 0.175520
O O5 0.147343 0.403850 0.837881
O O6 0.018315 0.692714 0.776178
O O7 0.055579 0.369205 0.910027
O O8 0.330459 0.267200 0.478980
O O9 0.434437 0.615851 0.582837
O O10 0.226320 0.338197 0.760759
O O11 0.136091 0.025092 0.753403
O O12 0.500000 0.500000 0.500000
O O13 0.663848 0.215579 0.630420
O O14 0.884670 0.181383 0.849899
O O15 0.000000 0.000000 0.500000
#
# Coordination Sequence:
#
# PCOD9249174 Si02
#       7
#     4   4   4   4   4   4   4
#     4  12  26  42  68 105 144 180 234 296 350 437
#     4  10  22  47  74 100 140 187 240 306 370 437
#     4  12  24  44  66 101 142 187 231 284 354 437
#     4  11  24  45  74  98 137 188 239 286 371 437
#     4  12  23  42  71  97 144 185 229 286 358 433
#     4  12  24  44  71 105 134 185 237 293 366 434
#     4  11  26  48  69 100 141 186 242 311 365 432
#
# _framework density 22.860942999999999
#
# number of rings (size 3 to 8) (size 9 to 14) (size 15 to 20)
#    0.000    0.571    7.143    1.286    0.000    1.714 
#   15.429    0.000    0.000    0.000    0.000    0.000 
#    0.000    0.000    0.000    0.000    0.000    0.000 
#
# Total GULP energy -155969.576628 kJ/mol
# GULP energy per Si atom -5570.342022 kJ/mol
# Density = 2.280891 g / cm^3
# Si number density = 22.860943 Si / 1000 Ang^3
#
#
#
# Elastic Constant Matrix: (Units=GPa)
#
#
# Indices 1 2 3 4 5 6 
#
# 1 129.5004 2.5915 17.8664 0.0000 -31.0093 0.0000
# 2 2.5915 38.8085 -2.5362 0.0000 -2.5157 0.0000
# 3 17.8664 -2.5362 12.6022 0.0000 -15.8192 0.0000
# 4 0.0000 0.0000 0.0000 22.7479 0.0000 -5.5747
# 5 -31.0093 -2.5157 -15.8192 0.0000 33.9953 0.0000
# 6 0.0000 0.0000 0.0000 -5.5747 0.0000 36.7358
#
#
#
# Elastic Compliance Matrix: (Units=1/GPa)
#
#
# Indices 1 2 3 4 5 6 
#
# 1 0.010126 -0.000767 -0.007183 0.000000 0.005838 0.000000
# 2 -0.000767 0.027835 0.020190 0.000000 0.010755 0.000000
# 3 -0.007183 0.020190 0.209794 0.000000 0.092567 0.000000
# 4 0.000000 0.000000 0.000000 0.045658 0.000000 0.006929
# 5 0.005838 0.010755 0.092567 0.000000 0.078611 0.000000
# 6 0.000000 0.000000 0.000000 0.006929 0.000000 0.028273
#
#
# Mechanical properties :
#
#
# Convention : Reuss Voigt Hill
#
# Bulk Modulus (GPa) = 3.67327 24.08384 13.87856
# Shear Modulus (GPa) = 10.71670 29.56176 20.13923
#
# Velocity S-wave (km/s) = 2.16748 3.59989 2.97129
# Velocity P-wave (km/s) = 2.80610 5.27605 4.22557
#
# Compressibility (1/GPa) = 0.27223684
#
# Stress axis : x y z
#
# Youngs Moduli (GPa) = 98.75463 35.92538 4.76658
#
# Poissons Ratio (x) = 0.02756 0.03424
# Poissons Ratio (y) = 0.07576 -0.09624
# Poissons Ratio (z) = 0.70932 -0.72535
#
# Static dielectric constant tensor:
#      x y z
#    x 1.912090 0.000000 0.039440 
#    y 0.000000 2.016230 0.000000 
#    z 0.039440 0.000000 1.976300 
# 
# From -- ./inp_files/60968.got.cif
#   From: 2010.05.17/outbox.cif.g08.bks.cpg/sg14_31_cif.got.tgz:60968.got - 2010.06.03 17:49:19.
