data_PCOD9249379
_publ_section_title
;
Structure prediction by ZEFSAII (Michael W. Deem and Ramdas Pophale) SiO2 
 PCOD9249379
Probable space group: P 21/C
;
_chemical_formula_sum "Si O2"
_cell_formula_units_Z 24
_cell_length_a 9.859906
_cell_length_b 10.147289
_cell_length_c 18.754269
_cell_angle_alpha 90.000000
_cell_angle_beta 152.027181
_cell_angle_gamma 90.000000
_cell_volume 880.125352
_symmetry_space_group_name_H-M "P 21/C"
_symmetry_group_IT_number 14
_symmetry_cell_setting 'monoclinic'
loop_
_space_group_symop_operation_xyz
x,y,z
-x,1/2+y,1/2-z
-x,-y,-z
x,1/2-y,1/2+z
loop_
_atom_site_type_symbol
_atom_site_label
_atom_site_fract_x
_atom_site_fract_y
_atom_site_fract_z
Si Si1 0.102901 0.804946 0.520065
Si Si2 0.689411 0.832142 0.145203
Si Si3 0.597303 0.203245 0.189093
Si Si4 0.328483 0.950559 0.095422
Si Si5 0.919912 0.397936 0.714695
Si Si6 0.592711 0.954393 0.365165
O O1 0.313806 0.790046 0.686897
O O2 0.087759 0.662368 0.477547
O O3 0.833416 0.872084 0.432695
O O4 0.261188 0.910915 0.543274
O O5 0.605394 0.877430 0.186627
O O6 0.822420 0.687597 0.198370
O O7 0.904655 0.943461 0.211990
O O8 0.381159 0.852741 0.962884
O O9 0.867275 0.149626 0.271012
O O10 0.522440 0.350893 0.131708
O O11 0.340776 0.094261 0.064560
O O12 0.363306 0.978790 0.195413
#
# Coordination Sequence:
#
# PCOD9249379 Si02
#       6
#     4   4   4   4   4   4
#     4   9  18  32  53  79 105 137 179 226 276 335
#     4  10  23  41  60  86 118 153 196 241 285 341
#     4   9  19  35  52  76 109 141 179 229 281 332
#     4   9  19  35  52  76 109 141 179 229 281 332
#     4  10  23  41  60  86 118 153 196 241 285 341
#     4   9  18  32  53  79 105 137 179 226 276 335
#
# _framework density 27.268844999999999
#
# number of rings (size 3 to 8) (size 9 to 14) (size 15 to 20)
#    0.000    2.667    0.000    0.000    4.667    2.667 
#    0.000    0.000    0.000    0.000    0.000    0.000 
#    0.000    0.000    0.000    0.000    0.000    0.000 
#
# Total GULP energy -134079.646294 kJ/mol
# GULP energy per Si atom -5586.651929 kJ/mol
# Density = 2.720678 g / cm^3
# Si number density = 27.268845 Si / 1000 Ang^3
#
#
#
# Elastic Constant Matrix: (Units=GPa)
#
#
# Indices 1 2 3 4 5 6 
#
# 1 68.3142 40.7356 9.2052 0.0000 4.0390 0.0000
# 2 40.7356 99.2608 32.4114 0.0000 19.0293 0.0000
# 3 9.2052 32.4114 36.6121 0.0000 -8.1775 0.0000
# 4 0.0000 0.0000 0.0000 37.6852 0.0000 25.0327
# 5 4.0390 19.0293 -8.1775 0.0000 30.0632 0.0000
# 6 0.0000 0.0000 0.0000 25.0327 0.0000 41.4899
#
#
#
# Elastic Compliance Matrix: (Units=1/GPa)
#
#
# Indices 1 2 3 4 5 6 
#
# 1 0.020417 -0.011913 0.006904 0.000000 0.006675 0.000000
# 2 -0.011913 0.028629 -0.027723 0.000000 -0.024062 0.000000
# 3 0.006904 -0.027723 0.057314 0.000000 0.032211 0.000000
# 4 0.000000 0.000000 0.000000 0.044283 0.000000 -0.026718
# 5 0.006675 -0.024062 0.032211 0.000000 0.056358 0.000000
# 6 0.000000 0.000000 0.000000 -0.026718 0.000000 0.040223
#
#
# Mechanical properties :
#
#
# Convention : Reuss Voigt Hill
#
# Bulk Modulus (GPa) = 24.45260 40.98793 32.72026
# Shear Modulus (GPa) = 15.32236 29.96997 22.64616
#
# Velocity S-wave (km/s) = 2.37301 3.31880 2.88493
# Velocity P-wave (km/s) = 4.06140 5.45432 4.80856
#
# Compressibility (1/GPa) = 0.04089545
#
# Stress axis : x y z
#
# Youngs Moduli (GPa) = 48.97893 34.93007 17.44767
#
# Poissons Ratio (x) = 0.41612 -0.12045
# Poissons Ratio (y) = 0.58348 0.48370
# Poissons Ratio (z) = -0.33814 0.96837
#
# Static dielectric constant tensor:
#      x y z
#    x 2.139840 0.000000 -0.035100 
#    y 0.000000 2.172090 0.000000 
#    z -0.035100 0.000000 2.219330 
# 
# From -- ./inp_files/73143.got.cif
#   From: 2010.05.17/outbox.cif.g08.bks.cpg/sg14_37_cif.got.tgz:73143.got - 2010.06.03 17:49:19.
