data_PCOD9249211
_publ_section_title
;
Structure prediction by ZEFSAII (Michael W. Deem and Ramdas Pophale) SiO2 
 PCOD9249211
Probable space group: P 21/C
;
_chemical_formula_sum "Si O2"
_cell_formula_units_Z 32
_cell_length_a 16.753523
_cell_length_b 17.054180
_cell_length_c 14.049008
_cell_angle_alpha 90.000000
_cell_angle_beta 154.117348
_cell_angle_gamma 90.000000
_cell_volume 1752.250318
_symmetry_space_group_name_H-M "P 21/C"
_symmetry_group_IT_number 14
_symmetry_cell_setting 'monoclinic'
loop_
_space_group_symop_operation_xyz
x,y,z
-x,1/2+y,1/2-z
-x,-y,-z
x,1/2-y,1/2+z
loop_
_atom_site_type_symbol
_atom_site_label
_atom_site_fract_x
_atom_site_fract_y
_atom_site_fract_z
Si Si1 0.316332 0.177630 0.211414
Si Si2 0.513942 0.987379 0.627862
Si Si3 0.800080 0.675374 0.192856
Si Si4 0.609405 0.346535 0.304046
Si Si5 0.089189 0.492960 0.700318
Si Si6 0.854671 0.222631 0.457904
Si Si7 0.313878 0.731700 0.419681
Si Si8 0.057235 0.847596 0.256026
O O1 0.395432 0.095871 0.257093
O O2 0.252927 0.164155 0.252660
O O3 0.481415 0.238803 0.383078
O O4 0.133849 0.199169 0.958366
O O5 0.304428 0.988111 0.434383
O O6 0.500000 0.000000 0.500000
O O7 0.613737 0.062410 0.779936
O O8 0.911643 0.598879 0.276185
O O9 0.938916 0.746775 0.334006
O O10 0.603882 0.679773 0.931462
O O11 0.725927 0.294306 0.355527
O O12 0.681145 0.326948 0.485928
O O13 0.010439 0.562931 0.679190
O O14 0.000000 0.500000 0.500000
O O15 0.857575 0.162111 0.548396
O O16 0.775819 0.197574 0.271778
O O17 0.193486 0.806621 0.326134
#
# Coordination Sequence:
#
# PCOD9249211 Si02
#       8
#     4   4   4   4   4   4   4   4
#     4  12  20  33  59  84 115 147 178 233 285 327
#     4  11  19  32  54  85 115 141 178 231 287 328
#     4  11  21  33  56  86 115 143 179 233 284 325
#     4  10  23  36  54  87 113 151 182 228 285 325
#     4  11  19  31  54  83 116 139 178 229 283 325
#     4  11  22  37  57  80 116 151 189 222 275 338
#     4  11  21  39  57  79 118 150 188 226 273 339
#     4  11  23  35  54  88 112 152 183 228 284 326
#
# _framework density 18.262229999999999
#
# number of rings (size 3 to 8) (size 9 to 14) (size 15 to 20)
#    0.000    1.000    7.500    0.750    3.500    0.000 
#    0.000    0.000    0.000    3.750    0.000    0.000 
#    0.000    0.000    0.000    0.000    0.000    0.000 
#
# Total GULP energy -178574.235604 kJ/mol
# GULP energy per Si atom -5580.444863 kJ/mol
# Density = 1.822066 g / cm^3
# Si number density = 18.262230 Si / 1000 Ang^3
#
#
#
# Elastic Constant Matrix: (Units=GPa)
#
#
# Indices 1 2 3 4 5 6 
#
# 1 46.0190 9.1693 24.6218 0.0000 -13.5454 0.0000
# 2 9.1693 41.4011 5.5192 0.0000 -10.7622 0.0000
# 3 24.6218 5.5192 81.0987 0.0000 -15.8712 0.0000
# 4 0.0000 0.0000 0.0000 23.7978 0.0000 -0.4219
# 5 -13.5454 -10.7622 -15.8712 0.0000 41.3211 0.0000
# 6 0.0000 0.0000 0.0000 -0.4219 0.0000 16.2881
#
#
#
# Elastic Compliance Matrix: (Units=1/GPa)
#
#
# Indices 1 2 3 4 5 6 
#
# 1 0.027912 -0.003823 -0.007156 0.000000 0.005405 0.000000
# 2 -0.003823 0.026449 0.000501 0.000000 0.005828 0.000000
# 3 -0.007156 0.000501 0.015176 0.000000 0.003614 0.000000
# 4 0.000000 0.000000 0.000000 0.042040 0.000000 0.001089
# 5 0.005405 0.005828 0.003614 0.000000 0.028879 0.000000
# 6 0.000000 0.000000 0.000000 0.001089 0.000000 0.061423
#
#
# Mechanical properties :
#
#
# Convention : Reuss Voigt Hill
#
# Bulk Modulus (GPa) = 20.58386 27.45992 24.02189
# Shear Modulus (GPa) = 20.91815 24.89531 22.90673
#
# Velocity S-wave (km/s) = 3.38810 3.69618 3.54548
# Velocity P-wave (km/s) = 5.15765 5.76929 5.47202
#
# Compressibility (1/GPa) = 0.04858175
#
# Stress axis : x y z
#
# Youngs Moduli (GPa) = 35.82746 37.80902 65.89193
#
# Poissons Ratio (x) = 0.14453 0.47152
# Poissons Ratio (y) = 0.13695 -0.03302
# Poissons Ratio (z) = 0.25638 -0.01895
#
# Static dielectric constant tensor:
#      x y z
#    x 1.668700 0.000000 0.044850 
#    y 0.000000 1.626630 0.000000 
#    z 0.044850 0.000000 1.677530 
# 
# From -- ./inp_files/33058.got.cif
#   From: 2010.05.17/outbox.cif.g08.bks.cpg/sg14_17_cif.got.tgz:33058.got - 2010.06.03 17:49:19.
