data_PCOD9249831
_publ_section_title
;
Structure prediction by ZEFSAII (Michael W. Deem and Ramdas Pophale) SiO2 
 PCOD9249831
Probable space group: P 21/C
;
_chemical_formula_sum "Si O2"
_cell_formula_units_Z 20
_cell_length_a 12.278204
_cell_length_b 6.807422
_cell_length_c 19.902657
_cell_angle_alpha 90.000000
_cell_angle_beta 147.774649
_cell_angle_gamma 90.000000
_cell_volume 887.074211
_symmetry_space_group_name_H-M "P 21/C"
_symmetry_group_IT_number 14
_symmetry_cell_setting 'monoclinic'
loop_
_space_group_symop_operation_xyz
x,y,z
-x,1/2+y,1/2-z
-x,-y,-z
x,1/2-y,1/2+z
loop_
_atom_site_type_symbol
_atom_site_label
_atom_site_fract_x
_atom_site_fract_y
_atom_site_fract_z
Si Si1 0.134325 0.062569 0.365707
Si Si2 0.262026 0.127474 0.830593
Si Si3 0.761193 0.665528 0.313255
Si Si4 0.920230 0.639544 0.541333
Si Si5 0.359813 0.697327 0.545765
O O1 0.257655 0.176419 0.372761
O O2 0.110549 0.202977 0.417219
O O3 0.244998 0.863351 0.444147
O O4 0.901973 0.015551 0.221559
O O5 0.165156 0.188147 0.707319
O O6 0.490085 0.075583 0.926407
O O7 0.847229 0.716293 0.430997
O O8 0.518195 0.689829 0.178320
O O9 0.851355 0.449605 0.344357
O O10 0.781269 0.451368 0.487726
#
# Coordination Sequence:
#
# PCOD9249831 Si02
#       5
#     4   4   4   4   4
#     4  12  24  44  70  92 136 176 219 275 333 385
#     4  10  24  43  65  95 133 170 222 269 329 386
#     4   9  23  44  63  98 135 166 224 269 325 397
#     4  11  23  44  68  96 135 175 217 275 330 390
#     4  10  23  44  63 101 126 172 223 270 318 405
#
# _framework density 22.546026999999999
#
# number of rings (size 3 to 8) (size 9 to 14) (size 15 to 20)
#    1.200    0.400    2.000    1.800    2.800    3.200 
#    3.600    0.000    0.000    0.000    0.000    0.000 
#    0.000    0.000    0.000    0.000    0.000    0.000 
#
# Total GULP energy -111664.164290 kJ/mol
# GULP energy per Si atom -5583.208214 kJ/mol
# Density = 2.249471 g / cm^3
# Si number density = 22.546027 Si / 1000 Ang^3
#
#
#
# Elastic Constant Matrix: (Units=GPa)
#
#
# Indices 1 2 3 4 5 6 
#
# 1 40.1672 2.5608 -14.1432 0.0000 -23.3280 0.0000
# 2 2.5608 51.4224 23.3292 0.0000 -9.1013 0.0000
# 3 -14.1432 23.3292 54.8923 0.0000 -2.3906 0.0000
# 4 0.0000 0.0000 0.0000 24.5389 0.0000 -4.4862
# 5 -23.3280 -9.1013 -2.3906 0.0000 30.5900 0.0000
# 6 0.0000 0.0000 0.0000 -4.4862 0.0000 36.9307
#
#
#
# Elastic Compliance Matrix: (Units=1/GPa)
#
#
# Indices 1 2 3 4 5 6 
#
# 1 0.056844 -0.003208 0.017917 0.000000 0.043795 0.000000
# 2 -0.003208 0.025585 -0.011515 0.000000 0.004266 0.000000
# 3 0.017917 -0.011515 0.028270 0.000000 0.012447 0.000000
# 4 0.000000 0.000000 0.000000 0.041677 0.000000 0.005063
# 5 0.043795 0.004266 0.012447 0.000000 0.068331 0.000000
# 6 0.000000 0.000000 0.000000 0.005063 0.000000 0.027693
#
#
# Mechanical properties :
#
#
# Convention : Reuss Voigt Hill
#
# Bulk Modulus (GPa) = 8.54056 18.88615 13.71335
# Shear Modulus (GPa) = 17.79101 27.39426 22.59263
#
# Velocity S-wave (km/s) = 2.81213 3.48952 3.16898
# Velocity P-wave (km/s) = 3.78687 4.96292 4.41424
#
# Compressibility (1/GPa) = 0.11708829
#
# Stress axis : x y z
#
# Youngs Moduli (GPa) = 17.59189 39.08471 35.37375
#
# Poissons Ratio (x) = 0.12538 -0.63379
# Poissons Ratio (y) = 0.05643 0.40731
# Poissons Ratio (z) = -0.31519 0.45004
#
# Static dielectric constant tensor:
#      x y z
#    x 1.809450 0.000000 0.000100 
#    y 0.000000 1.828310 0.000000 
#    z 0.000100 0.000000 1.880700 
# 
# From -- ./inp_files/73440.got.cif
#   From: 2010.05.17/outbox.cif.g08.bks.cpg/sg14_37_cif.got.tgz:73440.got - 2010.06.03 17:49:19.
