data_PCOD9249103
_publ_section_title
;
Structure prediction by ZEFSAII (Michael W. Deem and Ramdas Pophale) SiO2 
 PCOD9249103
Probable space group: P 21/C
;
_chemical_formula_sum "Si O2"
_cell_formula_units_Z 16
_cell_length_a 7.662331
_cell_length_b 8.791270
_cell_length_c 10.415800
_cell_angle_alpha 90.000000
_cell_angle_beta 68.214805
_cell_angle_gamma 90.000000
_cell_volume 651.516331
_symmetry_space_group_name_H-M "P 21/C"
_symmetry_group_IT_number 14
_symmetry_cell_setting 'monoclinic'
loop_
_space_group_symop_operation_xyz
x,y,z
-x,1/2+y,1/2-z
-x,-y,-z
x,1/2-y,1/2+z
loop_
_atom_site_type_symbol
_atom_site_label
_atom_site_fract_x
_atom_site_fract_y
_atom_site_fract_z
Si Si1 0.930039 0.583464 0.647211
Si Si2 0.170555 0.396630 0.768443
Si Si3 0.436121 0.606751 0.228042
Si Si4 0.508148 0.818607 0.971814
O O1 0.941776 0.764508 0.630063
O O2 0.716607 0.525576 0.729377
O O3 0.000000 0.500000 0.500000
O O4 0.052422 0.527082 0.734590
O O5 0.348734 0.446032 0.805297
O O6 0.271985 0.303636 0.622802
O O7 0.437799 0.712238 0.103189
O O8 0.398959 0.702789 0.368252
O O9 0.500000 0.000000 0.000000
#
# Coordination Sequence:
#
# PCOD9249103 Si02
#       4
#     4   4   4   4
#     4  12  26  46  71 108 146 187 235 300 357 423
#     4  10  26  41  75 102 142 186 241 282 368 411
#     4  10  24  43  75  96 143 186 237 284 362 412
#     4  10  22  46  69  98 139 185 232 293 348 417
#
# _framework density 24.558097
#
# number of rings (size 3 to 8) (size 9 to 14) (size 15 to 20)
#    1.500    0.000    0.000    4.500    7.000    1.000 
#    0.000    5.000    0.000    0.000    0.000    0.000 
#    0.000    0.000    0.000    0.000    0.000    0.000 
#
# Total GULP energy -89373.687270 kJ/mol
# GULP energy per Si atom -5585.855454 kJ/mol
# Density = 2.450220 g / cm^3
# Si number density = 24.558097 Si / 1000 Ang^3
#
#
#
# Elastic Constant Matrix: (Units=GPa)
#
#
# Indices 1 2 3 4 5 6 
#
# 1 136.5289 30.9727 -6.3607 0.0000 1.5380 0.0000
# 2 30.9727 64.1581 1.5465 0.0000 -2.9731 0.0000
# 3 -6.3607 1.5465 45.5346 0.0000 13.2018 0.0000
# 4 0.0000 0.0000 0.0000 38.1767 0.0000 -2.2594
# 5 1.5380 -2.9731 13.2018 0.0000 33.2286 0.0000
# 6 0.0000 0.0000 0.0000 -2.2594 0.0000 35.6654
#
#
#
# Elastic Compliance Matrix: (Units=1/GPa)
#
#
# Indices 1 2 3 4 5 6 
#
# 1 0.008362 -0.004145 0.001728 0.000000 -0.001444 0.000000
# 2 -0.004145 0.017752 -0.001919 0.000000 0.002543 0.000000
# 3 0.001728 -0.001919 0.025249 0.000000 -0.010283 0.000000
# 4 0.000000 0.000000 0.000000 0.026293 0.000000 0.001666
# 5 -0.001444 0.002543 -0.010283 0.000000 0.034475 0.000000
# 6 0.000000 0.000000 0.000000 0.001666 0.000000 0.028144
#
#
# Mechanical properties :
#
#
# Convention : Reuss Voigt Hill
#
# Bulk Modulus (GPa) = 23.42528 33.17097 28.29813
# Shear Modulus (GPa) = 30.64163 36.08499 33.36331
#
# Velocity S-wave (km/s) = 3.53614 3.83740 3.68984
# Velocity P-wave (km/s) = 5.12170 5.75939 5.44988
#
# Compressibility (1/GPa) = 0.04268893
#
# Stress axis : x y z
#
# Youngs Moduli (GPa) = 119.59462 56.33265 39.60518
#
# Poissons Ratio (x) = 0.23351 -0.06842
# Poissons Ratio (y) = 0.49574 0.07601
# Poissons Ratio (z) = -0.20660 0.10811
#
# Static dielectric constant tensor:
#      x y z
#    x 1.973930 0.000000 -0.026550 
#    y 0.000000 2.003360 0.000000 
#    z -0.026550 0.000000 2.062980 
# 
# From -- ./inp_files/22934.got.cif
#   From: 2010.05.17/outbox.cif.g08.bks.cpg/sg14_12_cif.got.tgz:22934.got - 2010.06.03 17:49:19.
