data_PCOD9249127
_publ_section_title
;
Structure prediction by ZEFSAII (Michael W. Deem and Ramdas Pophale) SiO2 
 PCOD9249127
Probable space group: P 21/C
;
_chemical_formula_sum "Si O2"
_cell_formula_units_Z 32
_cell_length_a 6.586754
_cell_length_b 26.404295
_cell_length_c 9.592792
_cell_angle_alpha 90.000000
_cell_angle_beta 68.283421
_cell_angle_gamma 90.000000
_cell_volume 1549.953620
_symmetry_space_group_name_H-M "P 21/C"
_symmetry_group_IT_number 14
_symmetry_cell_setting 'monoclinic'
loop_
_space_group_symop_operation_xyz
x,y,z
-x,1/2+y,1/2-z
-x,-y,-z
x,1/2-y,1/2+z
loop_
_atom_site_type_symbol
_atom_site_label
_atom_site_fract_x
_atom_site_fract_y
_atom_site_fract_z
Si Si1 0.496391 0.938792 0.850676
Si Si2 0.630988 0.263627 0.153853
Si Si3 0.035493 0.601914 0.557528
Si Si4 0.645525 0.732604 0.037283
Si Si5 0.409514 0.447883 0.344008
Si Si6 0.207335 0.874641 0.320275
Si Si7 0.154507 0.365495 0.881362
Si Si8 0.997945 0.689316 0.357681
O O1 0.661563 0.902275 0.727963
O O2 0.489729 0.995474 0.792401
O O3 0.247661 0.918705 0.921714
O O4 0.571011 0.941537 0.993296
O O5 0.416257 0.259874 0.303285
O O6 0.563628 0.264759 0.010252
O O7 0.749031 0.315802 0.159794
O O8 0.770737 0.214312 0.160458
O O9 0.115504 0.619940 0.687781
O O10 0.842698 0.561604 0.627372
O O11 0.943659 0.647578 0.488077
O O12 0.830849 0.764594 0.914464
O O13 0.727202 0.676761 0.053256
O O14 0.569362 0.406891 0.232925
O O15 0.027926 0.892354 0.477818
O O16 0.033516 0.336621 0.784183
#
# Coordination Sequence:
#
# PCOD9249127 Si02
#       8
#     4   4   4   4   4   4   4   4
#     4  10  23  45  72 100 132 177 232 280 341 407
#     4  12  25  42  65  94 136 181 224 272 332 399
#     4  11  23  43  72 100 129 177 234 275 334 406
#     4  12  26  41  65  92 135 179 227 270 327 403
#     4  10  22  46  72  97 133 180 228 285 336 406
#     4  11  26  40  68 101 140 172 224 282 339 403
#     4  12  25  46  64 105 140 177 223 287 341 404
#     4  12  25  43  66  96 133 185 222 269 331 409
#
# _framework density 20.645779000000001
#
# number of rings (size 3 to 8) (size 9 to 14) (size 15 to 20)
#    0.000    0.750    3.750    3.375    7.000    0.500 
#    0.000    0.625    0.000    0.000    0.000    0.000 
#    0.000    0.000    0.000    0.000    0.000    0.000 
#
# Total GULP energy -178954.093850 kJ/mol
# GULP energy per Si atom -5592.315433 kJ/mol
# Density = 2.059879 g / cm^3
# Si number density = 20.645779 Si / 1000 Ang^3
#
#
#
# Elastic Constant Matrix: (Units=GPa)
#
#
# Indices 1 2 3 4 5 6 
#
# 1 56.2362 8.5369 13.0905 0.0000 -0.8753 0.0000
# 2 8.5369 75.0844 22.0173 0.0000 -1.6619 0.0000
# 3 13.0905 22.0173 88.7381 0.0000 -13.4729 0.0000
# 4 0.0000 0.0000 0.0000 20.7697 0.0000 -11.1478
# 5 -0.8753 -1.6619 -13.4729 0.0000 34.4157 0.0000
# 6 0.0000 0.0000 0.0000 -11.1478 0.0000 19.0614
#
#
#
# Elastic Compliance Matrix: (Units=1/GPa)
#
#
# Indices 1 2 3 4 5 6 
#
# 1 0.018562 -0.001396 -0.002478 0.000000 -0.000565 0.000000
# 2 -0.001396 0.014486 -0.003495 0.000000 -0.000704 0.000000
# 3 -0.002478 -0.003495 0.013254 0.000000 0.004957 0.000000
# 4 0.000000 0.000000 0.000000 0.070175 0.000000 0.041041
# 5 -0.000565 -0.000704 0.004957 0.000000 0.030949 0.000000
# 6 0.000000 0.000000 0.000000 0.041041 0.000000 0.076464
#
#
# Mechanical properties :
#
#
# Convention : Reuss Voigt Hill
#
# Bulk Modulus (GPa) = 31.68125 34.14976 32.91551
# Shear Modulus (GPa) = 20.06814 26.61027 23.33921
#
# Velocity S-wave (km/s) = 3.12111 3.59402 3.36588
# Velocity P-wave (km/s) = 5.32606 5.81372 5.57522
#
# Compressibility (1/GPa) = 0.03156441
#
# Stress axis : x y z
#
# Youngs Moduli (GPa) = 53.87335 69.03003 75.44643
#
# Poissons Ratio (x) = 0.09640 0.18692
# Poissons Ratio (y) = 0.07523 0.26370
# Poissons Ratio (z) = 0.13348 0.24128
#
# Static dielectric constant tensor:
#      x y z
#    x 1.794100 0.000000 -0.031890 
#    y 0.000000 1.715750 0.000000 
#    z -0.031890 0.000000 1.705070 
# 
# From -- ./inp_files/6962.got.cif
#   From: 2010.05.17/outbox.cif.g08.bks.cpg/sg14_4_cif.got.tgz:6962.got - 2010.06.03 17:49:19.
