data_PCOD9249537
_publ_section_title
;
Structure prediction by ZEFSAII (Michael W. Deem and Ramdas Pophale) SiO2 
 PCOD9249537
Probable space group: P 21/C
;
_chemical_formula_sum "Si O2"
_cell_formula_units_Z 32
_cell_length_a 11.081949
_cell_length_b 11.269270
_cell_length_c 11.457815
_cell_angle_alpha 90.000000
_cell_angle_beta 75.352981
_cell_angle_gamma 90.000000
_cell_volume 1384.412790
_symmetry_space_group_name_H-M "P 21/C"
_symmetry_group_IT_number 14
_symmetry_cell_setting 'monoclinic'
loop_
_space_group_symop_operation_xyz
x,y,z
-x,1/2+y,1/2-z
-x,-y,-z
x,1/2-y,1/2+z
loop_
_atom_site_type_symbol
_atom_site_label
_atom_site_fract_x
_atom_site_fract_y
_atom_site_fract_z
Si Si1 0.173349 0.125708 0.815669
Si Si2 0.974481 0.317596 0.793058
Si Si3 0.562254 0.346513 0.949234
Si Si4 0.354461 0.031103 0.350367
Si Si5 0.371225 0.280201 0.658799
Si Si6 0.176428 0.433370 0.577290
Si Si7 0.737565 0.339191 0.296902
Si Si8 0.811859 0.492764 0.933138
O O1 0.303265 0.195270 0.768336
O O2 0.062809 0.219293 0.827267
O O3 0.171496 0.050269 0.697177
O O4 0.162276 0.060871 0.941675
O O5 0.855710 0.250541 0.764093
O O6 0.926297 0.403211 0.908817
O O7 0.053327 0.392022 0.678532
O O8 0.473416 0.435604 0.900285
O O9 0.617682 0.237500 0.862140
O O10 0.685176 0.415922 0.958282
O O11 0.482999 0.288513 0.072060
O O12 0.396254 0.101707 0.224538
O O13 0.301695 0.908418 0.309915
O O14 0.229612 0.077270 0.450721
O O15 0.274589 0.328079 0.584692
O O16 0.223678 0.558102 0.619592
#
# Coordination Sequence:
#
# PCOD9249537 Si02
#       8
#     4   4   4   4   4   4   4   4
#     4  11  23  42  71  94 138 178 225 281 339 411
#     4  10  24  44  67 103 135 180 227 284 344 407
#     4  11  24  44  67 100 140 177 228 283 344 411
#     4  11  24  42  69  97 135 180 224 282 342 409
#     4  10  23  42  65 100 131 178 228 280 343 403
#     4  10  23  45  67  99 135 181 229 280 344 404
#     4  10  25  45  67 104 138 175 234 284 340 407
#     4  11  25  43  66 103 134 178 231 279 346 412
#
# _framework density 23.114493
#
# number of rings (size 3 to 8) (size 9 to 14) (size 15 to 20)
#    0.000    1.500    1.250    1.875    5.250    6.000 
#    4.500    2.500    0.000    0.000    0.000    0.000 
#    0.000    0.000    0.000    0.000    0.000    0.000 
#
# Total GULP energy -178660.888854 kJ/mol
# GULP energy per Si atom -5583.152777 kJ/mol
# Density = 2.306188 g / cm^3
# Si number density = 23.114493 Si / 1000 Ang^3
#
#
#
# Elastic Constant Matrix: (Units=GPa)
#
#
# Indices 1 2 3 4 5 6 
#
# 1 79.6871 21.1761 47.0089 0.0000 -15.2574 0.0000
# 2 21.1761 68.9108 33.4182 0.0000 -4.2029 0.0000
# 3 47.0089 33.4182 110.1589 0.0000 -3.7119 0.0000
# 4 0.0000 0.0000 0.0000 26.7874 0.0000 -71.5187
# 5 -15.2574 -4.2029 -3.7119 0.0000 33.9774 0.0000
# 6 0.0000 0.0000 0.0000 -71.5187 0.0000 -135.9605
#
#
#
# Elastic Compliance Matrix: (Units=1/GPa)
#
#
# Indices 1 2 3 4 5 6 
#
# 1 0.018673 -0.001811 -0.007170 0.000000 0.007378 0.000000
# 2 -0.001811 0.017272 -0.004439 0.000000 0.000838 0.000000
# 3 -0.007170 -0.004439 0.013407 0.000000 -0.002304 0.000000
# 4 0.000000 0.000000 0.000000 0.015526 0.000000 -0.008167
# 5 0.007378 0.000838 -0.002304 0.000000 0.032596 0.000000
# 6 0.000000 0.000000 0.000000 -0.008167 0.000000 -0.003059
#
#
# Mechanical properties :
#
#
# Convention : Reuss Voigt Hill
#
# Bulk Modulus (GPa) = 44.42226 51.32925 47.87575
# Shear Modulus (GPa) = 38.83264 -4.56223 17.13521
#
# Velocity S-wave (km/s) = 4.10324 -1.40643 2.72567
# Velocity P-wave (km/s) = 6.45824 4.42915 5.53743
#
# Compressibility (1/GPa) = 0.02251124
#
# Stress axis : x y z
#
# Youngs Moduli (GPa) = 53.55373 57.89856 74.59037
#
# Poissons Ratio (x) = 0.10485 0.53485
# Poissons Ratio (y) = 0.09698 0.33107
# Poissons Ratio (z) = 0.38400 0.25699
#
# Static dielectric constant tensor:
#      x y z
#    x 1.897190 0.000000 0.084780 
#    y 0.000000 2.018280 0.000000 
#    z 0.084780 0.000000 2.077020 
# 
# From -- ./inp_files/29055.got.cif
#   From: 2010.05.17/outbox.cif.g08.bks.cpg/sg14_15_cif.got.tgz:29055.got - 2010.06.03 17:49:19.
