data_PCOD9249079
_publ_section_title
;
Structure prediction by ZEFSAII (Michael W. Deem and Ramdas Pophale) SiO2 
 PCOD9249079
Probable space group: P 21/C
;
_chemical_formula_sum "Si O2"
_cell_formula_units_Z 28
_cell_length_a 5.127263
_cell_length_b 22.574207
_cell_length_c 9.455613
_cell_angle_alpha 90.000000
_cell_angle_beta 99.567713
_cell_angle_gamma 90.000000
_cell_volume 1079.205820
_symmetry_space_group_name_H-M "P 21/C"
_symmetry_group_IT_number 14
_symmetry_cell_setting 'monoclinic'
loop_
_space_group_symop_operation_xyz
x,y,z
-x,1/2+y,1/2-z
-x,-y,-z
x,1/2-y,1/2+z
loop_
_atom_site_type_symbol
_atom_site_label
_atom_site_fract_x
_atom_site_fract_y
_atom_site_fract_z
Si Si1 0.881842 0.412337 0.552238
Si Si2 0.844663 0.220014 0.133071
Si Si3 0.504233 0.825276 0.380293
Si Si4 0.765149 0.422280 0.989004
Si Si5 0.657866 0.880349 0.107353
Si Si6 0.171208 0.253251 0.410331
Si Si7 0.218070 0.038104 0.327681
O O1 0.850658 0.350906 0.639511
O O2 0.064668 0.402041 0.430178
O O3 0.052971 0.455443 0.667701
O O4 0.581430 0.420703 0.472121
O O5 0.096554 0.243969 0.242652
O O6 0.907061 0.234217 0.976018
O O7 0.618353 0.261953 0.175012
O O8 0.271400 0.860577 0.436900
O O9 0.706142 0.805936 0.518438
O O10 0.620424 0.867737 0.269842
O O11 0.753450 0.471800 0.110951
O O12 0.512378 0.434260 0.862324
O O13 0.032402 0.430802 0.927671
O O14 0.650375 0.811881 0.050754
#
# Coordination Sequence:
#
# PCOD9249079 Si02
#       7
#     4   4   4   4   4   4   4
#     4  11  23  42  64  88 133 168 214 264 322 386
#     4  11  24  37  61  92 129 173 215 258 328 395
#     4  12  24  40  63  93 133 169 217 269 334 379
#     4  10  24  40  71  97 128 163 218 279 321 386
#     4  11  24  41  58  94 129 169 214 268 311 403
#     4  11  23  40  59  89 132 175 211 267 320 390
#     4  10  22  46  66  99 124 166 223 269 327 385
#
# _framework density 25.945005999999999
#
# number of rings (size 3 to 8) (size 9 to 14) (size 15 to 20)
#    0.000    1.143    2.857    3.429    4.000    1.143 
#    0.000    1.429    0.000    0.000    0.000    0.000 
#    0.000    0.000    0.000    0.000    0.000    0.000 
#
# Total GULP energy -156641.345173 kJ/mol
# GULP energy per Si atom -5594.333756 kJ/mol
# Density = 2.588595 g / cm^3
# Si number density = 25.945006 Si / 1000 Ang^3
#
#
#
# Elastic Constant Matrix: (Units=GPa)
#
#
# Indices 1 2 3 4 5 6 
#
# 1 116.1033 15.6277 9.2605 0.0000 -7.4000 0.0000
# 2 15.6277 53.7701 -1.4653 0.0000 -4.0459 0.0000
# 3 9.2605 -1.4653 68.8109 0.0000 -1.6404 0.0000
# 4 0.0000 0.0000 0.0000 21.6716 0.0000 1.6699
# 5 -7.4000 -4.0459 -1.6404 0.0000 36.3436 0.0000
# 6 0.0000 0.0000 0.0000 1.6699 0.0000 30.3784
#
#
#
# Elastic Compliance Matrix: (Units=1/GPa)
#
#
# Indices 1 2 3 4 5 6 
#
# 1 0.009157 -0.002581 -0.001251 0.000000 0.001521 0.000000
# 2 -0.002581 0.019496 0.000803 0.000000 0.001681 0.000000
# 3 -0.001251 0.000803 0.014730 0.000000 0.000499 0.000000
# 4 0.000000 0.000000 0.000000 0.046340 0.000000 -0.002547
# 5 0.001521 0.001681 0.000499 0.000000 0.028034 0.000000
# 6 0.000000 0.000000 0.000000 -0.002547 0.000000 0.033058
#
#
# Mechanical properties :
#
#
# Convention : Reuss Voigt Hill
#
# Bulk Modulus (GPa) = 26.79229 31.72557 29.25893
# Shear Modulus (GPa) = 29.53059 32.02950 30.78004
#
# Velocity S-wave (km/s) = 3.37738 3.51738 3.44809
# Velocity P-wave (km/s) = 5.05548 5.36195 5.21097
#
# Compressibility (1/GPa) = 0.03732417
#
# Stress axis : x y z
#
# Youngs Moduli (GPa) = 109.20436 51.29203 67.88893
#
# Poissons Ratio (x) = 0.13239 0.08493
# Poissons Ratio (y) = 0.28187 -0.05449
# Poissons Ratio (z) = 0.13662 -0.04117
#
# Static dielectric constant tensor:
#      x y z
#    x 2.048150 0.000000 0.050440 
#    y 0.000000 2.016370 0.000000 
#    z 0.050440 0.000000 2.005460 
# 
# From -- ./inp_files/6545.got.cif
#   From: 2010.05.17/outbox.cif.g08.bks.cpg/sg14_4_cif.got.tgz:6545.got - 2010.06.03 17:49:19.
