data_PCOD9249616
_publ_section_title
;
Structure prediction by ZEFSAII (Michael W. Deem and Ramdas Pophale) SiO2 
 PCOD9249616
Probable space group: P 21/C
;
_chemical_formula_sum "Si O2"
_cell_formula_units_Z 28
_cell_length_a 13.788756
_cell_length_b 9.373478
_cell_length_c 17.580216
_cell_angle_alpha 90.000000
_cell_angle_beta 148.331905
_cell_angle_gamma 90.000000
_cell_volume 1192.909616
_symmetry_space_group_name_H-M "P 21/C"
_symmetry_group_IT_number 14
_symmetry_cell_setting 'monoclinic'
loop_
_space_group_symop_operation_xyz
x,y,z
-x,1/2+y,1/2-z
-x,-y,-z
x,1/2-y,1/2+z
loop_
_atom_site_type_symbol
_atom_site_label
_atom_site_fract_x
_atom_site_fract_y
_atom_site_fract_z
Si Si1 0.620199 0.122676 0.958608
Si Si2 0.739194 0.863368 0.373056
Si Si3 0.125915 0.924307 0.243634
Si Si4 0.153330 0.901287 0.431642
Si Si5 0.504135 0.259477 0.018262
Si Si6 0.861474 0.788494 0.814701
Si Si7 0.249619 0.325621 0.488396
O O1 0.425949 0.083988 0.790453
O O2 0.698300 0.273745 0.981024
O O3 0.603191 0.131432 0.038453
O O4 0.750148 0.994700 0.021644
O O5 0.879408 0.786580 0.408367
O O6 0.666554 0.737851 0.379071
O O7 0.804661 0.988535 0.472800
O O8 0.147643 0.978311 0.345741
O O9 0.326640 0.865237 0.353829
O O10 0.971398 0.799966 0.149320
O O11 0.069899 0.050243 0.148978
O O12 0.965410 0.817317 0.326126
O O13 0.352577 0.303871 0.853565
O O14 0.380647 0.229288 0.008789
#
# Coordination Sequence:
#
# PCOD9249616 Si02
#       7
#     4   4   4   4   4   4   4
#     4  10  23  44  67  98 138 183 233 292 344 417
#     4  11  26  41  65  99 137 189 228 280 356 416
#     4  11  24  42  75 105 135 184 233 291 351 412
#     4  11  22  43  71  98 140 183 234 285 351 409
#     4  10  23  42  69 106 132 179 235 295 347 412
#     4  11  22  45  66  99 144 176 235 287 343 422
#     4  12  23  45  70 100 142 179 234 292 350 417
#
# _framework density 23.472021999999999
#
# number of rings (size 3 to 8) (size 9 to 14) (size 15 to 20)
#    0.000    1.143    2.857    3.000    0.000    4.000 
#   10.286    0.000    0.000    0.000    0.000    0.000 
#    0.000    0.000    0.000    0.000    0.000    0.000 
#
# Total GULP energy -156271.888745 kJ/mol
# GULP energy per Si atom -5581.138884 kJ/mol
# Density = 2.341860 g / cm^3
# Si number density = 23.472022 Si / 1000 Ang^3
#
#
#
# Elastic Constant Matrix: (Units=GPa)
#
#
# Indices 1 2 3 4 5 6 
#
# 1 135.4336 43.2875 28.1582 0.0000 16.2558 0.0000
# 2 43.2875 95.9530 11.5160 0.0000 9.8982 0.0000
# 3 28.1582 11.5160 54.4139 0.0000 18.4871 0.0000
# 4 0.0000 0.0000 0.0000 22.4301 0.0000 1.2563
# 5 16.2558 9.8982 18.4871 0.0000 36.2513 0.0000
# 6 0.0000 0.0000 0.0000 1.2563 0.0000 34.8886
#
#
#
# Elastic Compliance Matrix: (Units=1/GPa)
#
#
# Indices 1 2 3 4 5 6 
#
# 1 0.009493 -0.003701 -0.003661 0.000000 -0.001380 0.000000
# 2 -0.003701 0.012275 -0.000130 0.000000 -0.001625 0.000000
# 3 -0.003661 -0.000130 0.023865 0.000000 -0.010493 0.000000
# 4 0.000000 0.000000 0.000000 0.044673 0.000000 -0.001609
# 5 -0.001380 -0.001625 -0.010493 0.000000 0.033999 0.000000
# 6 0.000000 0.000000 0.000000 -0.001609 0.000000 0.028721
#
#
# Mechanical properties :
#
#
# Convention : Reuss Voigt Hill
#
# Bulk Modulus (GPa) = 32.62783 50.19154 41.40969
# Shear Modulus (GPa) = 28.05436 32.23660 30.14548
#
# Velocity S-wave (km/s) = 3.46095 3.70997 3.58762
# Velocity P-wave (km/s) = 5.46826 6.30728 5.90270
#
# Compressibility (1/GPa) = 0.03064868
#
# Stress axis : x y z
#
# Youngs Moduli (GPa) = 105.33732 81.46799 41.90310
#
# Poissons Ratio (x) = 0.30152 0.15339
# Poissons Ratio (y) = 0.38986 0.00546
# Poissons Ratio (z) = 0.38560 0.01062
#
# Static dielectric constant tensor:
#      x y z
#    x 1.928070 0.000000 0.036360 
#    y 0.000000 1.980330 0.000000 
#    z 0.036360 0.000000 1.912440 
# 
# From -- ./inp_files/68370.got.cif
#   From: 2010.05.17/outbox.cif.g08.bks.cpg/sg14_35_cif.got.tgz:68370.got - 2010.06.03 17:49:19.
