data_PCOD9249623
_publ_section_title
;
Structure prediction by ZEFSAII (Michael W. Deem and Ramdas Pophale) SiO2 
 PCOD9249623
Probable space group: P 21/C
;
_chemical_formula_sum "Si O2"
_cell_formula_units_Z 28
_cell_length_a 14.840428
_cell_length_b 11.701664
_cell_length_c 8.606840
_cell_angle_alpha 90.000000
_cell_angle_beta 63.408912
_cell_angle_gamma 90.000000
_cell_volume 1336.546396
_symmetry_space_group_name_H-M "P 21/C"
_symmetry_group_IT_number 14
_symmetry_cell_setting 'monoclinic'
loop_
_space_group_symop_operation_xyz
x,y,z
-x,1/2+y,1/2-z
-x,-y,-z
x,1/2-y,1/2+z
loop_
_atom_site_type_symbol
_atom_site_label
_atom_site_fract_x
_atom_site_fract_y
_atom_site_fract_z
Si Si1 0.399867 0.537821 0.730487
Si Si2 0.765514 0.916992 0.052327
Si Si3 0.981972 0.873320 0.956371
Si Si4 0.415937 0.326217 0.496500
Si Si5 0.105343 0.697411 0.068742
Si Si6 0.391986 0.057578 0.558010
Si Si7 0.783746 0.375598 0.316033
O O1 0.425941 0.414101 0.633771
O O2 0.495524 0.621234 0.679322
O O3 0.328189 0.603354 0.663844
O O4 0.352241 0.500695 0.929969
O O5 0.692565 0.960338 0.245802
O O6 0.862709 0.850677 0.038098
O O7 0.691802 0.845392 0.999839
O O8 0.804998 0.021267 0.917011
O O9 0.035149 0.862858 0.748349
O O10 0.036905 0.790361 0.034005
O O11 0.000000 0.000000 0.000000
O O12 0.417592 0.192597 0.528243
O O13 0.192050 0.762004 0.103071
O O14 0.150152 0.625109 0.891899
O O15 0.500000 0.000000 0.500000
#
# Coordination Sequence:
#
# PCOD9249623 Si02
#       7
#     4   4   4   4   4   4   4
#     4  10  23  42  69  96 136 184 221 289 343 409
#     4  11  24  44  66  98 138 182 228 286 346 420
#     4  11  24  46  69  98 141 178 231 292 347 415
#     4  10  23  46  62  97 140 177 236 276 345 419
#     4  10  24  46  69 104 132 181 236 288 345 408
#     4  12  25  42  69 102 137 183 232 284 346 414
#     4  10  23  44  69  99 133 175 231 283 348 404
#
# _framework density 20.949515999999999
#
# number of rings (size 3 to 8) (size 9 to 14) (size 15 to 20)
#    0.000    1.429    2.857    0.857    4.000    2.857 
#    0.000    0.000    0.000    0.000    0.000    0.000 
#    0.000    0.000    0.000    0.000    0.000    0.000 
#
# Total GULP energy -156317.095880 kJ/mol
# GULP energy per Si atom -5582.753424 kJ/mol
# Density = 2.090183 g / cm^3
# Si number density = 20.949516 Si / 1000 Ang^3
#
#
#
# Elastic Constant Matrix: (Units=GPa)
#
#
# Indices 1 2 3 4 5 6 
#
# 1 97.7977 51.5995 19.2710 0.0000 -6.2291 0.0000
# 2 51.5995 91.6555 66.4395 0.0000 -8.1036 0.0000
# 3 19.2710 66.4395 155.4018 0.0000 12.2338 0.0000
# 4 0.0000 0.0000 0.0000 21.6885 0.0000 -5.1713
# 5 -6.2291 -8.1036 12.2338 0.0000 25.1173 0.0000
# 6 0.0000 0.0000 0.0000 -5.1713 0.0000 25.2623
#
#
#
# Elastic Compliance Matrix: (Units=1/GPa)
#
#
# Indices 1 2 3 4 5 6 
#
# 1 0.015246 -0.010662 0.002746 0.000000 -0.000996 0.000000
# 2 -0.010662 0.025348 -0.010348 0.000000 0.010574 0.000000
# 3 0.002746 -0.010348 0.011155 0.000000 -0.008091 0.000000
# 4 0.000000 0.000000 0.000000 0.048473 0.000000 0.009923
# 5 -0.000996 0.010574 -0.008091 0.000000 0.046918 0.000000
# 6 0.000000 0.000000 0.000000 0.009923 0.000000 0.041616
#
#
# Mechanical properties :
#
#
# Convention : Reuss Voigt Hill
#
# Bulk Modulus (GPa) = 65.68961 68.83057 67.26009
# Shear Modulus (GPa) = 21.70538 28.24994 24.97766
#
# Velocity S-wave (km/s) = 3.22231 3.67615 3.45668
# Velocity P-wave (km/s) = 6.72819 7.13761 6.93592
#
# Compressibility (1/GPa) = 0.01522311
#
# Stress axis : x y z
#
# Youngs Moduli (GPa) = 65.59157 39.45044 89.64383
#
# Poissons Ratio (x) = 0.42061 -0.24617
# Poissons Ratio (y) = 0.69931 0.92759
# Poissons Ratio (z) = -0.18012 0.40821
#
# Static dielectric constant tensor:
#      x y z
#    x 1.793550 0.000000 -0.003700 
#    y 0.000000 1.729970 0.000000 
#    z -0.003700 0.000000 1.801390 
# 
# From -- ./inp_files/15466.got.cif
#   From: 2010.05.17/outbox.cif.g08.bks.cpg/sg14_8_cif.got.tgz:15466.got - 2010.06.03 17:49:19.
