data_PCOD9249893
_publ_section_title
;
Structure prediction by ZEFSAII (Michael W. Deem and Ramdas Pophale) SiO2 
 PCOD9249893
Probable space group: P 21/C
;
_chemical_formula_sum "Si O2"
_cell_formula_units_Z 32
_cell_length_a 13.449252
_cell_length_b 9.451219
_cell_length_c 10.244270
_cell_angle_alpha 90.000000
_cell_angle_beta 68.501200
_cell_angle_gamma 90.000000
_cell_volume 1211.569854
_symmetry_space_group_name_H-M "P 21/C"
_symmetry_group_IT_number 14
_symmetry_cell_setting 'monoclinic'
loop_
_space_group_symop_operation_xyz
x,y,z
-x,1/2+y,1/2-z
-x,-y,-z
x,1/2-y,1/2+z
loop_
_atom_site_type_symbol
_atom_site_label
_atom_site_fract_x
_atom_site_fract_y
_atom_site_fract_z
Si Si1 0.084957 0.836619 0.843774
Si Si2 0.116045 0.263888 0.920798
Si Si3 0.466274 0.865147 0.640502
Si Si4 0.724570 0.509576 0.412502
Si Si5 0.297639 0.059268 0.385012
Si Si6 0.050406 0.988060 0.268440
Si Si7 0.363292 0.726879 0.943705
Si Si8 0.275964 0.033443 0.806115
O O1 0.070902 0.676009 0.793198
O O2 0.198302 0.893293 0.842332
O O3 0.053461 0.953248 0.751351
O O4 0.987683 0.828274 0.994407
O O5 0.200974 0.340071 0.977415
O O6 0.068452 0.404669 0.878693
O O7 0.199485 0.162643 0.804975
O O8 0.585122 0.899006 0.625260
O O9 0.415925 0.772797 0.782149
O O10 0.457670 0.802317 0.501148
O O11 0.380350 0.994169 0.675804
O O12 0.698987 0.552959 0.276666
O O13 0.850255 0.532111 0.370767
O O14 0.699656 0.345258 0.445164
O O15 0.677391 0.568789 0.570463
O O16 0.284988 0.901963 0.447586
#
# Coordination Sequence:
#
# PCOD9249893 Si02
#       8
#     4   4   4   4   4   4   4   4
#     4  12  25  45  70 107 145 196 248 308 378 454
#     4  11  26  45  68 109 145 192 247 317 375 446
#     4  11  26  46  77 107 146 195 252 303 388 433
#     4  10  23  44  69 100 141 189 244 302 380 440
#     4  11  26  46  74 105 148 189 256 309 371 454
#     4  11  25  43  70 103 146 192 249 308 377 449
#     4  11  23  47  72 106 145 193 248 311 366 453
#     4  11  25  45  75 102 147 195 248 307 379 453
#
# _framework density 26.412016000000001
#
# number of rings (size 3 to 8) (size 9 to 14) (size 15 to 20)
#    0.000    1.000    2.500    2.625    8.750    6.000 
#    0.000    0.000    0.000    0.000    0.000    0.000 
#    0.000    0.000    0.000    0.000    0.000    0.000 
#
# Total GULP energy -178712.406212 kJ/mol
# GULP energy per Si atom -5584.762694 kJ/mol
# Density = 2.635190 g / cm^3
# Si number density = 26.412016 Si / 1000 Ang^3
#
#
#
# Elastic Constant Matrix: (Units=GPa)
#
#
# Indices 1 2 3 4 5 6 
#
# 1 140.1408 35.2494 34.9626 0.0000 10.1361 0.0000
# 2 35.2494 140.3767 27.5828 0.0000 10.2941 0.0000
# 3 34.9626 27.5828 81.6110 0.0000 21.7348 0.0000
# 4 0.0000 0.0000 0.0000 39.6059 0.0000 -10.2320
# 5 10.1361 10.2941 21.7348 0.0000 39.8929 0.0000
# 6 0.0000 0.0000 0.0000 -10.2320 0.0000 37.8997
#
#
#
# Elastic Compliance Matrix: (Units=1/GPa)
#
#
# Indices 1 2 3 4 5 6 
#
# 1 0.008267 -0.001476 -0.003023 0.000000 -0.000072 0.000000
# 2 -0.001476 0.007909 -0.001868 0.000000 -0.000648 0.000000
# 3 -0.003023 -0.001868 0.016197 0.000000 -0.007574 0.000000
# 4 0.000000 0.000000 0.000000 0.027142 0.000000 0.007328
# 5 -0.000072 -0.000648 -0.007574 0.000000 0.029379 0.000000
# 6 0.000000 0.000000 0.000000 0.007328 0.000000 0.028364
#
#
# Mechanical properties :
#
#
# Convention : Reuss Voigt Hill
#
# Bulk Modulus (GPa) = 50.92349 61.96867 56.44608
# Shear Modulus (GPa) = 36.61973 41.10194 38.86083
#
# Velocity S-wave (km/s) = 3.72759 3.94913 3.83996
# Velocity P-wave (km/s) = 6.15214 6.65638 6.40922
#
# Compressibility (1/GPa) = 0.01963730
#
# Stress axis : x y z
#
# Youngs Moduli (GPa) = 120.97017 126.43837 61.73995
#
# Poissons Ratio (x) = 0.18668 0.18665
# Poissons Ratio (y) = 0.17861 0.11533
# Poissons Ratio (z) = 0.36571 0.23618
#
# Static dielectric constant tensor:
#      x y z
#    x 2.045290 0.000000 0.056160 
#    y 0.000000 2.198150 0.000000 
#    z 0.056160 0.000000 2.189510 
# 
# From -- ./inp_files/31791.got.cif
#   From: 2010.05.17/outbox.cif.g08.bks.cpg/sg14_16_cif.got.tgz:31791.got - 2010.06.03 17:49:19.
