data_PCOD9249143
_publ_section_title
;
Structure prediction by ZEFSAII (Michael W. Deem and Ramdas Pophale) SiO2 
 PCOD9249143
Probable space group: P 21/C
;
_chemical_formula_sum "Si O2"
_cell_formula_units_Z 20
_cell_length_a 7.312423
_cell_length_b 8.747234
_cell_length_c 21.194408
_cell_angle_alpha 90.000000
_cell_angle_beta 31.847723
_cell_angle_gamma 90.000000
_cell_volume 715.336527
_symmetry_space_group_name_H-M "P 21/C"
_symmetry_group_IT_number 14
_symmetry_cell_setting 'monoclinic'
loop_
_space_group_symop_operation_xyz
x,y,z
-x,1/2+y,1/2-z
-x,-y,-z
x,1/2-y,1/2+z
loop_
_atom_site_type_symbol
_atom_site_label
_atom_site_fract_x
_atom_site_fract_y
_atom_site_fract_z
Si Si1 0.703745 0.433976 0.748102
Si Si2 0.972205 0.606904 0.832080
Si Si3 0.968244 0.340089 0.542863
Si Si4 0.324909 0.585434 0.609144
Si Si5 0.229804 0.568648 0.988768
O O1 0.370888 0.469603 0.887879
O O2 0.891963 0.279763 0.718440
O O3 0.692868 0.375938 0.679256
O O4 0.938265 0.588293 0.689722
O O5 0.574013 0.606785 0.928322
O O6 0.198753 0.517158 0.713293
O O7 0.992662 0.528835 0.894674
O O8 0.344340 0.310182 0.467110
O O9 0.876225 0.225277 0.514056
O O10 0.000000 0.500000 0.500000
O O11 0.500000 0.500000 0.500000
#
# Coordination Sequence:
#
# PCOD9249143 Si02
#       5
#     4   4   4   4   4
#     4  10  23  44  74 108 153 206 255 324 398 479
#     4  10  22  46  75 108 153 204 267 317 389 495
#     4  11  24  46  71 111 154 194 260 332 387 467
#     4   9  21  43  71 105 145 201 257 316 389 470
#     4  10  24  47  77 114 147 213 263 326 400 472
#
# _framework density 27.958869
#
# number of rings (size 3 to 8) (size 9 to 14) (size 15 to 20)
#    0.000    2.000    0.000    1.200    5.600    2.400 
#   28.800    0.000    0.000    0.000    0.000    0.000 
#    0.000    0.000    0.000    0.000    0.000    0.000 
#
# Total GULP energy -111428.157095 kJ/mol
# GULP energy per Si atom -5571.407855 kJ/mol
# Density = 2.789523 g / cm^3
# Si number density = 27.958869 Si / 1000 Ang^3
#
#
#
# Elastic Constant Matrix: (Units=GPa)
#
#
# Indices 1 2 3 4 5 6 
#
# 1 165.5311 81.2716 35.3383 0.0000 39.7361 0.0000
# 2 81.2716 169.4813 72.7745 0.0000 20.8577 0.0000
# 3 35.3383 72.7745 174.9483 0.0000 31.7591 0.0000
# 4 0.0000 0.0000 0.0000 43.0621 0.0000 -3.2649
# 5 39.7361 20.8577 31.7591 0.0000 42.1698 0.0000
# 6 0.0000 0.0000 0.0000 -3.2649 0.0000 65.0893
#
#
#
# Elastic Compliance Matrix: (Units=1/GPa)
#
#
# Indices 1 2 3 4 5 6 
#
# 1 0.009794 -0.004240 0.001251 0.000000 -0.008074 0.000000
# 2 -0.004240 0.009103 -0.003288 0.000000 0.001969 0.000000
# 3 0.001251 -0.003288 0.007819 0.000000 -0.005441 0.000000
# 4 0.000000 0.000000 0.000000 0.023311 0.000000 0.001169
# 5 -0.008074 0.001969 -0.005441 0.000000 0.034446 0.000000
# 6 0.000000 0.000000 0.000000 0.001169 0.000000 0.015422
#
#
# Mechanical properties :
#
#
# Convention : Reuss Voigt Hill
#
# Bulk Modulus (GPa) = 70.60927 98.74771 84.67849
# Shear Modulus (GPa) = 42.67366 51.43600 47.05483
#
# Velocity S-wave (km/s) = 3.91103 4.29383 4.10689
# Velocity P-wave (km/s) = 6.76050 7.74456 7.26920
#
# Compressibility (1/GPa) = 0.01416245
#
# Stress axis : x y z
#
# Youngs Moduli (GPa) = 102.10318 109.85379 127.90037
#
# Poissons Ratio (x) = 0.46580 -0.16003
# Poissons Ratio (y) = 0.43293 0.42048
# Poissons Ratio (z) = -0.12775 0.36116
#
# Static dielectric constant tensor:
#      x y z
#    x 2.700900 0.000000 -0.107980 
#    y 0.000000 2.283280 0.000000 
#    z -0.107980 0.000000 2.251980 
# 
# From -- ./inp_files/23816.got.cif
#   From: 2010.05.17/outbox.cif.g08.bks.cpg/sg14_12_cif.got.tgz:23816.got - 2010.06.03 17:49:19.
