data_PCOD9249660
_publ_section_title
;
Structure prediction by ZEFSAII (Michael W. Deem and Ramdas Pophale) SiO2 
 PCOD9249660
Probable space group: P 21/C
;
_chemical_formula_sum "Si O2"
_cell_formula_units_Z 28
_cell_length_a 9.312470
_cell_length_b 9.616035
_cell_length_c 16.328834
_cell_angle_alpha 90.000000
_cell_angle_beta 54.264328
_cell_angle_gamma 90.000000
_cell_volume 1186.922534
_symmetry_space_group_name_H-M "P 21/C"
_symmetry_group_IT_number 14
_symmetry_cell_setting 'monoclinic'
loop_
_space_group_symop_operation_xyz
x,y,z
-x,1/2+y,1/2-z
-x,-y,-z
x,1/2-y,1/2+z
loop_
_atom_site_type_symbol
_atom_site_label
_atom_site_fract_x
_atom_site_fract_y
_atom_site_fract_z
Si Si1 0.995046 0.112173 0.575567
Si Si2 0.349855 0.162953 0.547253
Si Si3 0.988330 0.344223 0.468329
Si Si4 0.656354 0.119319 0.990710
Si Si5 0.346719 0.936925 0.674051
Si Si6 0.636042 0.576088 0.658333
Si Si7 0.274090 0.864726 0.208999
O O1 0.172079 0.182293 0.554009
O O2 0.905485 0.245520 0.564214
O O3 0.875642 0.060191 0.689663
O O4 0.000000 0.000000 0.500000
O O5 0.489339 0.275563 0.538450
O O6 0.472958 0.091703 0.436610
O O7 0.280092 0.068521 0.644872
O O8 0.197236 0.320770 0.383893
O O9 0.000000 0.500000 0.500000
O O10 0.854902 0.320226 0.438537
O O11 0.649815 0.015651 0.070148
O O12 0.675993 0.059953 0.892466
O O13 0.231619 0.797101 0.704410
O O14 0.371836 0.980918 0.758883
O O15 0.449691 0.649612 0.705993
#
# Coordination Sequence:
#
# PCOD9249660 Si02
#       7
#     4   4   4   4   4   4   4
#     4  12  27  46  70 106 143 187 243 297 357 436
#     4  10  24  46  69  99 142 184 238 302 358 424
#     4  10  23  44  70  97 140 182 230 288 358 428
#     4  10  23  44  70 101 136 184 231 295 359 425
#     4  10  23  42  72  94 134 186 232 286 364 417
#     4  11  23  42  71 100 136 184 234 286 354 435
#     4  11  24  42  67  98 140 179 234 286 357 423
#
# _framework density 23.590419000000001
#
# number of rings (size 3 to 8) (size 9 to 14) (size 15 to 20)
#    0.000    1.429    0.000    4.714   12.000    1.143 
#    2.571    0.000    0.000    0.000    0.000    0.000 
#    0.000    0.000    0.000    0.000    0.000    0.000 
#
# Total GULP energy -155946.538336 kJ/mol
# GULP energy per Si atom -5569.519226 kJ/mol
# Density = 2.353673 g / cm^3
# Si number density = 23.590419 Si / 1000 Ang^3
#
#
#
# Elastic Constant Matrix: (Units=GPa)
#
#
# Indices 1 2 3 4 5 6 
#
# 1 174.8927 23.5590 32.8012 0.0000 8.2303 0.0000
# 2 23.5590 76.6264 39.2719 0.0000 16.7924 0.0000
# 3 32.8012 39.2719 133.6462 0.0000 28.7706 0.0000
# 4 0.0000 0.0000 0.0000 37.3061 0.0000 13.1696
# 5 8.2303 16.7924 28.7706 0.0000 38.7320 0.0000
# 6 0.0000 0.0000 0.0000 13.1696 0.0000 24.5914
#
#
#
# Elastic Compliance Matrix: (Units=1/GPa)
#
#
# Indices 1 2 3 4 5 6 
#
# 1 0.006103 -0.001321 -0.001135 0.000000 0.000119 0.000000
# 2 -0.001321 0.016171 -0.003546 0.000000 -0.004097 0.000000
# 3 -0.001135 -0.003546 0.010023 0.000000 -0.005667 0.000000
# 4 0.000000 0.000000 0.000000 0.033054 0.000000 -0.017702
# 5 0.000119 -0.004097 -0.005667 0.000000 0.031778 0.000000
# 6 0.000000 0.000000 0.000000 -0.017702 0.000000 0.050145
#
#
# Mechanical properties :
#
#
# Convention : Reuss Voigt Hill
#
# Bulk Modulus (GPa) = 49.27709 64.04774 56.66242
# Shear Modulus (GPa) = 30.11265 39.42809 34.77037
#
# Velocity S-wave (km/s) = 3.57666 4.09266 3.84333
# Velocity P-wave (km/s) = 6.16365 7.03861 6.61561
#
# Compressibility (1/GPa) = 0.02029340
#
# Stress axis : x y z
#
# Youngs Moduli (GPa) = 163.85296 61.83735 99.77080
#
# Poissons Ratio (x) = 0.08166 0.11329
# Poissons Ratio (y) = 0.21638 0.35379
# Poissons Ratio (z) = 0.18605 0.21927
#
# Static dielectric constant tensor:
#      x y z
#    x 1.913560 0.000000 0.016230 
#    y 0.000000 1.979330 0.000000 
#    z 0.016230 0.000000 1.924620 
# 
# From -- ./inp_files/39940.got.cif
#   From: 2010.05.17/outbox.cif.g08.bks.cpg/sg14_20_cif.got.tgz:39940.got - 2010.06.03 17:49:19.
