data_PCOD9249511
_publ_section_title
;
Structure prediction by ZEFSAII (Michael W. Deem and Ramdas Pophale) SiO2 
 PCOD9249511
Probable space group: P 21/C
;
_chemical_formula_sum "Si O2"
_cell_formula_units_Z 22
_cell_length_a 7.793201
_cell_length_b 9.796789
_cell_length_c 11.719481
_cell_angle_alpha 90.000000
_cell_angle_beta 73.552570
_cell_angle_gamma 90.000000
_cell_volume 858.149216
_symmetry_space_group_name_H-M "P 21/C"
_symmetry_group_IT_number 14
_symmetry_cell_setting 'monoclinic'
loop_
_space_group_symop_operation_xyz
x,y,z
-x,1/2+y,1/2-z
-x,-y,-z
x,1/2-y,1/2+z
loop_
_atom_site_type_symbol
_atom_site_label
_atom_site_fract_x
_atom_site_fract_y
_atom_site_fract_z
Si Si1 0.321448 0.356363 0.262742
Si Si2 0.297590 0.883250 0.621981
Si Si3 0.009028 0.746181 0.324836
Si Si4 0.452754 0.692509 0.423140
Si Si5 0.000000 0.500000 0.000000
Si Si6 0.232886 0.043914 0.023226
O O1 0.360773 0.503059 0.199711
O O2 0.154638 0.292720 0.225739
O O3 0.269231 0.368171 0.403236
O O4 0.493244 0.263587 0.204106
O O5 0.450343 0.810078 0.519558
O O6 0.161710 0.954291 0.558159
O O7 0.179690 0.774859 0.714104
O O8 0.948291 0.597591 0.386411
O O9 0.032498 0.859234 0.417085
O O10 0.610922 0.584488 0.417433
O O11 0.270343 0.609845 0.476562
#
# Coordination Sequence:
#
# PCOD9249511 Si02
#       6
#     4   4   4   4   2   4
#     4  10  23  42  63  95 128 173 219 274 328 405
#     4  11  24  41  68  98 131 176 222 276 336 405
#     4  10  23  43  65  99 130 173 223 273 343 394
#     4  10  24  43  63  96 128 171 221 266 338 397
#     4  10  24  42  62 100 138 176 216 284 328 402
#     4  10  23  43  66  93 131 169 218 275 324 407
#
# _framework density 25.636566999999999
#
# number of rings (size 3 to 8) (size 9 to 14) (size 15 to 20)
#    0.000    1.818    0.000    1.636   10.182    0.727 
#    9.818    0.000    0.000    0.000    0.000    0.000 
#    0.000    0.000    0.000    0.000    0.000    0.000 
#
# Total GULP energy -122701.232171 kJ/mol
# GULP energy per Si atom -5577.328735 kJ/mol
# Density = 2.557822 g / cm^3
# Si number density = 25.636567 Si / 1000 Ang^3
#
#
#
# Elastic Constant Matrix: (Units=GPa)
#
#
# Indices 1 2 3 4 5 6 
#
# 1 70.4331 19.6939 5.7395 0.0000 11.1932 0.0000
# 2 19.6939 67.5891 4.0771 0.0000 -3.6819 0.0000
# 3 5.7395 4.0771 76.7814 0.0000 -12.8369 0.0000
# 4 0.0000 0.0000 0.0000 36.7928 0.0000 2.1110
# 5 11.1932 -3.6819 -12.8369 0.0000 38.5865 0.0000
# 6 0.0000 0.0000 0.0000 2.1110 0.0000 22.1750
#
#
#
# Elastic Compliance Matrix: (Units=1/GPa)
#
#
# Indices 1 2 3 4 5 6 
#
# 1 0.016734 -0.005083 -0.001984 0.000000 -0.005999 0.000000
# 2 -0.005083 0.016441 0.000017 0.000000 0.003049 0.000000
# 3 -0.001984 0.000017 0.014049 0.000000 0.005251 0.000000
# 4 0.000000 0.000000 0.000000 0.027329 0.000000 -0.002602
# 5 -0.005999 0.003049 0.005251 0.000000 0.029694 0.000000
# 6 0.000000 0.000000 0.000000 -0.002602 0.000000 0.045344
#
#
# Mechanical properties :
#
#
# Convention : Reuss Voigt Hill
#
# Bulk Modulus (GPa) = 30.18950 30.42497 30.30723
# Shear Modulus (GPa) = 28.61503 31.86372 30.23938
#
# Velocity S-wave (km/s) = 3.34455 3.52931 3.43817
# Velocity P-wave (km/s) = 5.16877 5.33869 5.25442
#
# Compressibility (1/GPa) = 0.03312410
#
# Stress axis : x y z
#
# Youngs Moduli (GPa) = 59.75768 60.82186 71.17778
#
# Poissons Ratio (x) = 0.30916 0.14122
# Poissons Ratio (y) = 0.30375 -0.00119
# Poissons Ratio (z) = 0.11856 -0.00101
#
# Static dielectric constant tensor:
#      x y z
#    x 2.020180 0.000000 0.005000 
#    y 0.000000 2.049340 0.000000 
#    z 0.005000 0.000000 1.948010 
# 
# From -- ./inp_files/23057.got.cif
#   From: 2010.05.17/outbox.cif.g08.bks.cpg/sg14_12_cif.got.tgz:23057.got - 2010.06.03 17:49:19.
