data_PCOD9249242
_publ_section_title
;
Structure prediction by ZEFSAII (Michael W. Deem and Ramdas Pophale) SiO2 
 PCOD9249242
Probable space group: P 21/C
;
_chemical_formula_sum "Si O2"
_cell_formula_units_Z 20
_cell_length_a 17.228378
_cell_length_b 7.868778
_cell_length_c 11.855316
_cell_angle_alpha 90.000000
_cell_angle_beta 28.621811
_cell_angle_gamma 90.000000
_cell_volume 769.881616
_symmetry_space_group_name_H-M "P 21/C"
_symmetry_group_IT_number 14
_symmetry_cell_setting 'monoclinic'
loop_
_space_group_symop_operation_xyz
x,y,z
-x,1/2+y,1/2-z
-x,-y,-z
x,1/2-y,1/2+z
loop_
_atom_site_type_symbol
_atom_site_label
_atom_site_fract_x
_atom_site_fract_y
_atom_site_fract_z
Si Si1 0.655946 0.508527 0.876981
Si Si2 0.215460 0.833696 0.192855
Si Si3 0.243934 0.520745 0.887212
Si Si4 0.006695 0.423496 0.616794
Si Si5 0.419163 0.353128 0.468342
O O1 0.678021 0.332669 0.914955
O O2 0.805647 0.548282 0.601990
O O3 0.500000 0.500000 0.000000
O O4 0.636860 0.664709 0.988919
O O5 0.155296 0.882797 0.396202
O O6 0.069859 0.765594 0.300963
O O7 0.328261 0.994740 0.017742
O O8 0.345759 0.380627 0.689154
O O9 0.388656 0.629571 0.760266
O O10 0.110816 0.480634 0.148654
O O11 0.000000 0.500000 0.500000
#
# Coordination Sequence:
#
# PCOD9249242 Si02
#       5
#     4   4   4   4   4
#     4  11  19  37  65  90 124 173 211 262 331 391
#     4   9  20  41  61  89 131 165 212 270 321 390
#     4   9  18  41  64  89 129 172 208 276 336 387
#     4  10  23  38  64  97 135 166 220 277 327 399
#     4   9  19  39  67  88 128 169 218 264 333 398
#
# _framework density 25.978019
#
# number of rings (size 3 to 8) (size 9 to 14) (size 15 to 20)
#    1.200    1.200    2.000    0.000    0.000    4.000 
#    7.200    0.000   13.200    0.000    0.000    0.000 
#    0.000    0.000    0.000    0.000    0.000    0.000 
#
# Total GULP energy -111678.525430 kJ/mol
# GULP energy per Si atom -5583.926272 kJ/mol
# Density = 2.591889 g / cm^3
# Si number density = 25.978019 Si / 1000 Ang^3
#
#
#
# Elastic Constant Matrix: (Units=GPa)
#
#
# Indices 1 2 3 4 5 6 
#
# 1 83.2353 15.5313 56.0149 0.0000 -12.7586 0.0000
# 2 15.5313 135.6391 12.5992 0.0000 -14.7098 0.0000
# 3 56.0149 12.5992 181.0626 0.0000 -15.9119 0.0000
# 4 0.0000 0.0000 0.0000 15.9793 0.0000 -10.2167
# 5 -12.7586 -14.7098 -15.9119 0.0000 46.2711 0.0000
# 6 0.0000 0.0000 0.0000 -10.2167 0.0000 35.6972
#
#
#
# Elastic Compliance Matrix: (Units=1/GPa)
#
#
# Indices 1 2 3 4 5 6 
#
# 1 0.015654 -0.001109 -0.004555 0.000000 0.002397 0.000000
# 2 -0.001109 0.007733 -0.000006 0.000000 0.002151 0.000000
# 3 -0.004555 -0.000006 0.007035 0.000000 0.001161 0.000000
# 4 0.000000 0.000000 0.000000 0.076597 0.000000 0.021922
# 5 0.002397 0.002151 0.001161 0.000000 0.023356 0.000000
# 6 0.000000 0.000000 0.000000 0.021922 0.000000 0.034288
#
#
# Mechanical properties :
#
#
# Convention : Reuss Voigt Hill
#
# Bulk Modulus (GPa) = 52.40729 63.13644 57.77187
# Shear Modulus (GPa) = 27.41778 40.64229 34.03003
#
# Velocity S-wave (km/s) = 3.25225 3.95965 3.62326
# Velocity P-wave (km/s) = 5.85836 6.72768 6.30801
#
# Compressibility (1/GPa) = 0.01908131
#
# Stress axis : x y z
#
# Youngs Moduli (GPa) = 63.88159 129.31088 142.15509
#
# Poissons Ratio (x) = 0.14345 0.64751
# Poissons Ratio (y) = 0.07087 0.00084
# Poissons Ratio (z) = 0.29098 0.00077
#
# Static dielectric constant tensor:
#      x y z
#    x 2.079920 0.000000 -0.032430 
#    y 0.000000 2.110620 0.000000 
#    z -0.032430 0.000000 2.067530 
# 
# From -- ./inp_files/51081.got.cif
#   From: 2010.05.17/outbox.cif.g08.bks.cpg/sg14_26_cif.got.tgz:51081.got - 2010.06.03 17:49:19.
