data_PCOD9249635
_publ_section_title
;
Structure prediction by ZEFSAII (Michael W. Deem and Ramdas Pophale) SiO2 
 PCOD9249635
Probable space group: P 21/C
;
_chemical_formula_sum "Si O2"
_cell_formula_units_Z 20
_cell_length_a 13.032127
_cell_length_b 5.823459
_cell_length_c 19.741431
_cell_angle_alpha 90.000000
_cell_angle_beta 151.031402
_cell_angle_gamma 90.000000
_cell_volume 725.632127
_symmetry_space_group_name_H-M "P 21/C"
_symmetry_group_IT_number 14
_symmetry_cell_setting 'monoclinic'
loop_
_space_group_symop_operation_xyz
x,y,z
-x,1/2+y,1/2-z
-x,-y,-z
x,1/2-y,1/2+z
loop_
_atom_site_type_symbol
_atom_site_label
_atom_site_fract_x
_atom_site_fract_y
_atom_site_fract_z
Si Si1 0.812935 0.128795 0.213859
Si Si2 0.163585 0.361686 0.715206
Si Si3 0.350428 0.455693 0.512999
Si Si4 0.233609 0.805014 0.085637
Si Si5 0.442750 0.035008 0.618785
O O1 0.878280 0.387873 0.274688
O O2 0.582213 0.098111 0.116654
O O3 0.899789 0.873558 0.283338
O O4 0.775961 0.109398 0.112387
O O5 0.415434 0.362394 0.844190
O O6 0.017416 0.337466 0.563680
O O7 0.322671 0.541910 0.574032
O O8 0.287638 0.185888 0.483264
O O9 0.300833 0.556721 0.097717
O O10 0.361804 0.845984 0.227678
#
# Coordination Sequence:
#
# PCOD9249635 Si02
#       5
#     4   4   4   4   4
#     4  10  24  45  68 101 135 180 229 286 341 406
#     4  11  26  44  71 101 139 179 231 286 342 408
#     4  10  23  42  70  95 137 182 226 283 344 408
#     4  12  24  42  70  99 139 185 227 284 348 411
#     4  11  24  45  67 104 137 182 232 285 345 414
#
# _framework density 27.562176999999998
#
# number of rings (size 3 to 8) (size 9 to 14) (size 15 to 20)
#    0.000    1.200    4.000    0.600    5.600    4.000 
#    0.000    4.000    0.000    0.000    0.000    0.000 
#    0.000    0.000    0.000    0.000    0.000    0.000 
#
# Total GULP energy -111538.561887 kJ/mol
# GULP energy per Si atom -5576.928094 kJ/mol
# Density = 2.749944 g / cm^3
# Si number density = 27.562177 Si / 1000 Ang^3
#
#
#
# Elastic Constant Matrix: (Units=GPa)
#
#
# Indices 1 2 3 4 5 6 
#
# 1 61.5236 5.3294 -6.9630 0.0000 -7.8124 0.0000
# 2 5.3294 131.8182 33.9958 0.0000 -20.7201 0.0000
# 3 -6.9630 33.9958 87.3446 0.0000 -24.5326 0.0000
# 4 0.0000 0.0000 0.0000 47.2434 0.0000 -2.6492
# 5 -7.8124 -20.7201 -24.5326 0.0000 44.6767 0.0000
# 6 0.0000 0.0000 0.0000 -2.6492 0.0000 58.1143
#
#
#
# Elastic Compliance Matrix: (Units=1/GPa)
#
#
# Indices 1 2 3 4 5 6 
#
# 1 0.017178 -0.000768 0.002852 0.000000 0.004214 0.000000
# 2 -0.000768 0.008709 -0.002783 0.000000 0.002376 0.000000
# 3 0.002852 -0.002783 0.014823 0.000000 0.007347 0.000000
# 4 0.000000 0.000000 0.000000 0.021221 0.000000 0.000967
# 5 0.004214 0.002376 0.007347 0.000000 0.028257 0.000000
# 6 0.000000 0.000000 0.000000 0.000967 0.000000 0.017252
#
#
# Mechanical properties :
#
#
# Convention : Reuss Voigt Hill
#
# Bulk Modulus (GPa) = 25.43769 38.37897 31.90833
# Shear Modulus (GPa) = 41.00324 46.56184 43.78254
#
# Velocity S-wave (km/s) = 3.86121 4.11461 3.98992
# Velocity P-wave (km/s) = 5.39702 6.04385 5.72957
#
# Compressibility (1/GPa) = 0.03931174
#
# Stress axis : x y z
#
# Youngs Moduli (GPa) = 58.21316 114.82955 67.46172
#
# Poissons Ratio (x) = 0.08814 -0.19238
# Poissons Ratio (y) = 0.04469 0.18776
# Poissons Ratio (z) = -0.16601 0.31960
#
# Static dielectric constant tensor:
#      x y z
#    x 2.105380 0.000000 0.058290 
#    y 0.000000 2.445380 0.000000 
#    z 0.058290 0.000000 2.115350 
# 
# From -- ./inp_files/42502.got.cif
#   From: 2010.05.17/outbox.cif.g08.bks.cpg/sg14_22_cif.got.tgz:42502.got - 2010.06.03 17:49:19.
