data_PCOD9249369
_publ_section_title
;
Structure prediction by ZEFSAII (Michael W. Deem and Ramdas Pophale) SiO2 
 PCOD9249369
Probable space group: P 21/C
;
_chemical_formula_sum "Si O2"
_cell_formula_units_Z 20
_cell_length_a 11.517057
_cell_length_b 8.793598
_cell_length_c 10.086408
_cell_angle_alpha 90.000000
_cell_angle_beta 52.272821
_cell_angle_gamma 90.000000
_cell_volume 807.950117
_symmetry_space_group_name_H-M "P 21/C"
_symmetry_group_IT_number 14
_symmetry_cell_setting 'monoclinic'
loop_
_space_group_symop_operation_xyz
x,y,z
-x,1/2+y,1/2-z
-x,-y,-z
x,1/2-y,1/2+z
loop_
_atom_site_type_symbol
_atom_site_label
_atom_site_fract_x
_atom_site_fract_y
_atom_site_fract_z
Si Si1 0.968859 0.613982 0.141018
Si Si2 0.887968 0.869389 0.032443
Si Si3 0.875560 0.311881 0.304100
Si Si4 0.456432 0.718758 0.478653
Si Si5 0.439951 0.089293 0.830339
O O1 0.859692 0.747706 0.173112
O O2 0.912876 0.489420 0.285262
O O3 0.115631 0.709018 0.070583
O O4 0.000000 0.500000 0.000000
O O5 0.728283 0.920856 0.099026
O O6 0.986501 0.765133 0.866051
O O7 0.000000 0.000000 0.000000
O O8 0.714698 0.292232 0.359712
O O9 0.542603 0.706376 0.557521
O O10 0.478876 0.857044 0.360489
O O11 0.488547 0.569615 0.364156
#
# Coordination Sequence:
#
# PCOD9249369 Si02
#       5
#     4   4   4   4   4
#     4  10  23  40  72 103 146 186 252 312 373 442
#     4  11  25  46  75 110 147 195 257 310 380 456
#     4  11  24  45  74 107 143 201 250 316 376 457
#     4  11  28  50  74 108 153 201 250 316 381 459
#     4  11  28  49  75 109 154 198 252 313 384 454
#
# _framework density 24.754004999999999
#
# number of rings (size 3 to 8) (size 9 to 14) (size 15 to 20)
#    0.000    1.200    0.000    3.600   16.800    2.400 
#    0.000    0.000    0.000    0.000    0.000    0.000 
#    0.000    0.000    0.000    0.000    0.000    0.000 
#
# Total GULP energy -111602.961822 kJ/mol
# GULP energy per Si atom -5580.148091 kJ/mol
# Density = 2.469766 g / cm^3
# Si number density = 24.754005 Si / 1000 Ang^3
#
#
#
# Elastic Constant Matrix: (Units=GPa)
#
#
# Indices 1 2 3 4 5 6 
#
# 1 136.9138 31.6861 10.4065 0.0000 3.7375 0.0000
# 2 31.6861 113.9924 9.8383 0.0000 -1.7023 0.0000
# 3 10.4065 9.8383 64.5130 0.0000 -5.6375 0.0000
# 4 0.0000 0.0000 0.0000 37.6920 0.0000 16.9656
# 5 3.7375 -1.7023 -5.6375 0.0000 27.0111 0.0000
# 6 0.0000 0.0000 0.0000 16.9656 0.0000 47.1620
#
#
#
# Elastic Compliance Matrix: (Units=1/GPa)
#
#
# Indices 1 2 3 4 5 6 
#
# 1 0.007919 -0.002130 -0.001080 0.000000 -0.001455 0.000000
# 2 -0.002130 0.009464 -0.001041 0.000000 0.000674 0.000000
# 3 -0.001080 -0.001041 0.016135 0.000000 0.003451 0.000000
# 4 0.000000 0.000000 0.000000 0.031657 0.000000 -0.011388
# 5 -0.001455 0.000674 0.003451 0.000000 0.037986 0.000000
# 6 0.000000 0.000000 0.000000 -0.011388 0.000000 0.025300
#
#
# Mechanical properties :
#
#
# Convention : Reuss Voigt Hill
#
# Bulk Modulus (GPa) = 39.97179 46.58676 43.27927
# Shear Modulus (GPa) = 34.41144 39.93892 37.17518
#
# Velocity S-wave (km/s) = 3.73250 4.02111 3.87949
# Velocity P-wave (km/s) = 5.89560 6.35766 6.13098
#
# Compressibility (1/GPa) = 0.02501765
#
# Stress axis : x y z
#
# Youngs Moduli (GPa) = 126.28620 105.65930 61.97608
#
# Poissons Ratio (x) = 0.22502 0.06692
# Poissons Ratio (y) = 0.26894 0.06451
# Poissons Ratio (z) = 0.13635 0.10998
#
# Static dielectric constant tensor:
#      x y z
#    x 2.319650 0.000000 0.586190 
#    y 0.000000 1.996290 0.000000 
#    z 0.586190 0.000000 2.744360 
# 
# From -- ./inp_files/27968.got.cif
#   From: 2010.05.17/outbox.cif.g08.bks.cpg/sg14_14_cif.got.tgz:27968.got - 2010.06.03 17:49:19.
