data_PCOD9249368
_publ_section_title
;
Structure prediction by ZEFSAII (Michael W. Deem and Ramdas Pophale) SiO2 
 PCOD9249368
Probable space group: P 21/C
;
_chemical_formula_sum "Si O2"
_cell_formula_units_Z 28
_cell_length_a 11.294918
_cell_length_b 21.951925
_cell_length_c 10.593904
_cell_angle_alpha 90.000000
_cell_angle_beta 151.984626
_cell_angle_gamma 90.000000
_cell_volume 1233.786779
_symmetry_space_group_name_H-M "P 21/C"
_symmetry_group_IT_number 14
_symmetry_cell_setting 'monoclinic'
loop_
_space_group_symop_operation_xyz
x,y,z
-x,1/2+y,1/2-z
-x,-y,-z
x,1/2-y,1/2+z
loop_
_atom_site_type_symbol
_atom_site_label
_atom_site_fract_x
_atom_site_fract_y
_atom_site_fract_z
Si Si1 0.444057 0.314991 0.270939
Si Si2 0.985831 0.083544 0.868882
Si Si3 0.328197 0.579141 0.165598
Si Si4 0.563938 0.119110 0.640947
Si Si5 0.081598 0.613802 0.183030
Si Si6 0.675291 0.483470 0.407916
Si Si7 0.369834 0.327365 0.696124
O O1 0.525557 0.326890 0.202876
O O2 0.684494 0.339119 0.575613
O O3 0.393849 0.243721 0.237815
O O4 0.188795 0.353442 0.059173
O O5 0.796876 0.060632 0.584245
O O6 0.847665 0.101198 0.866776
O O7 0.193165 0.030884 0.063724
O O8 0.091389 0.146947 0.911332
O O9 0.131416 0.585654 0.092236
O O10 0.535352 0.526444 0.377911
O O11 0.463801 0.643132 0.258556
O O12 0.437723 0.138851 0.392009
O O13 0.490141 0.059767 0.652381
O O14 0.138880 0.561785 0.341430
#
# Coordination Sequence:
#
# PCOD9249368 Si02
#       7
#     4   4   4   4   4   4   4
#     4  11  28  45  71 100 138 187 232 285 342 414
#     4  10  23  40  72 101 136 182 228 290 346 409
#     4  10  24  43  69 100 141 180 231 284 349 411
#     4  10  24  44  67 101 136 175 233 282 347 407
#     4  11  27  46  70 104 139 187 231 285 346 411
#     4  10  23  43  69 105 137 180 230 286 350 411
#     4  10  25  43  68 101 133 186 229 289 345 406
#
# _framework density 22.694358000000001
#
# number of rings (size 3 to 8) (size 9 to 14) (size 15 to 20)
#    0.000    1.714    0.000    0.857   18.000    5.714 
#    0.000    0.000    0.000    0.000    0.000    0.000 
#    0.000    0.000    0.000    0.000    0.000    0.000 
#
# Total GULP energy -156272.104096 kJ/mol
# GULP energy per Si atom -5581.146575 kJ/mol
# Density = 2.264270 g / cm^3
# Si number density = 22.694358 Si / 1000 Ang^3
#
#
#
# Elastic Constant Matrix: (Units=GPa)
#
#
# Indices 1 2 3 4 5 6 
#
# 1 126.6317 33.2831 18.2030 0.0000 5.4399 0.0000
# 2 33.2831 146.2127 23.9206 0.0000 22.6392 0.0000
# 3 18.2030 23.9206 49.3308 0.0000 15.7675 0.0000
# 4 0.0000 0.0000 0.0000 23.4056 0.0000 3.1914
# 5 5.4399 22.6392 15.7675 0.0000 26.6978 0.0000
# 6 0.0000 0.0000 0.0000 3.1914 0.0000 12.3764
#
#
#
# Elastic Compliance Matrix: (Units=1/GPa)
#
#
# Indices 1 2 3 4 5 6 
#
# 1 0.008696 -0.001730 -0.002801 0.000000 0.001350 0.000000
# 2 -0.001730 0.008394 -0.001565 0.000000 -0.005841 0.000000
# 3 -0.002801 -0.001565 0.026450 0.000000 -0.013724 0.000000
# 4 0.000000 0.000000 0.000000 0.044282 0.000000 -0.011419
# 5 0.001350 -0.005841 -0.013724 0.000000 0.050239 0.000000
# 6 0.000000 0.000000 0.000000 -0.011419 0.000000 0.083744
#
#
# Mechanical properties :
#
#
# Convention : Reuss Voigt Hill
#
# Bulk Modulus (GPa) = 31.90038 52.55430 42.22734
# Shear Modulus (GPa) = 20.45432 28.94716 24.70074
#
# Velocity S-wave (km/s) = 3.00542 3.57532 3.30268
# Velocity P-wave (km/s) = 5.11179 6.34441 5.76116
#
# Compressibility (1/GPa) = 0.03134759
#
# Stress axis : x y z
#
# Youngs Moduli (GPa) = 114.99003 119.13824 37.80689
#
# Poissons Ratio (x) = 0.20614 0.10591
# Poissons Ratio (y) = 0.19897 0.05915
# Poissons Ratio (z) = 0.32213 0.18641
#
# Static dielectric constant tensor:
#      x y z
#    x 1.855230 0.000000 0.019480 
#    y 0.000000 1.830140 0.000000 
#    z 0.019480 0.000000 1.948860 
# 
# From -- ./inp_files/30682.got.cif
#   From: 2010.05.17/outbox.cif.g08.bks.cpg/sg14_16_cif.got.tgz:30682.got - 2010.06.03 17:49:19.
