data_PCOD9249054
_publ_section_title
;
Structure prediction by ZEFSAII (Michael W. Deem and Ramdas Pophale) SiO2 
 PCOD9249054
Probable space group: P 21/C
;
_chemical_formula_sum "Si O2"
_cell_formula_units_Z 28
_cell_length_a 19.896079
_cell_length_b 5.860121
_cell_length_c 10.702811
_cell_angle_alpha 90.000000
_cell_angle_beta 64.612393
_cell_angle_gamma 90.000000
_cell_volume 1127.367490
_symmetry_space_group_name_H-M "P 21/C"
_symmetry_group_IT_number 14
_symmetry_cell_setting 'monoclinic'
loop_
_space_group_symop_operation_xyz
x,y,z
-x,1/2+y,1/2-z
-x,-y,-z
x,1/2-y,1/2+z
loop_
_atom_site_type_symbol
_atom_site_label
_atom_site_fract_x
_atom_site_fract_y
_atom_site_fract_z
Si Si1 0.456357 0.207607 0.280840
Si Si2 0.060822 0.428276 0.851645
Si Si3 0.080986 0.733119 0.634389
Si Si4 0.278090 0.715846 0.179556
Si Si5 0.771499 0.471028 0.041299
Si Si6 0.171391 0.121774 0.908797
Si Si7 0.415085 0.084280 0.570787
O O1 0.501904 0.454754 0.259698
O O2 0.403745 0.192925 0.443905
O O3 0.411822 0.242824 0.188254
O O4 0.094436 0.654295 0.764381
O O5 0.126208 0.279244 0.850705
O O6 0.005927 0.289349 0.803647
O O7 0.000000 0.500000 0.000000
O O8 0.139877 0.919187 0.544320
O O9 0.108016 0.521237 0.529657
O O10 0.260205 0.915357 0.294434
O O11 0.263721 0.686860 0.040434
O O12 0.224873 0.526067 0.281659
O O13 0.362111 0.630481 0.131046
O O14 0.776358 0.744394 0.033676
O O15 0.500000 0.000000 0.500000
#
# Coordination Sequence:
#
# PCOD9249054 Si02
#       7
#     4   4   4   4   4   4   4
#     4  10  22  45  75 111 154 194 246 312 386 458
#     4  12  23  40  66  95 130 181 222 293 347 419
#     4  11  25  40  66  98 134 176 238 289 356 425
#     4  11  27  45  74 104 142 192 245 301 376 443
#     4  11  25  49  70 102 145 191 240 300 366 452
#     4  11  24  45  66  97 139 181 238 289 364 435
#     4  10  24  47  73 111 146 194 247 312 380 449
#
# _framework density 24.836621000000001
#
# number of rings (size 3 to 8) (size 9 to 14) (size 15 to 20)
#    0.000    1.143    1.429    3.429    6.000    5.714 
#    5.143    0.000    0.000    0.000    0.000    0.000 
#    0.000    0.000    0.000    0.000    0.000    0.000 
#
# Total GULP energy -156241.058380 kJ/mol
# GULP energy per Si atom -5580.037799 kJ/mol
# Density = 2.478009 g / cm^3
# Si number density = 24.836621 Si / 1000 Ang^3
#
#
#
# Elastic Constant Matrix: (Units=GPa)
#
#
# Indices 1 2 3 4 5 6 
#
# 1 61.9967 16.6878 39.0700 0.0000 -43.6519 0.0000
# 2 16.6878 72.1159 0.5244 0.0000 6.2002 0.0000
# 3 39.0700 0.5244 71.7072 0.0000 40.5488 0.0000
# 4 0.0000 0.0000 0.0000 30.1582 0.0000 3.6888
# 5 -43.6519 6.2002 40.5488 0.0000 14.8890 0.0000
# 6 0.0000 0.0000 0.0000 3.6888 0.0000 35.9306
#
#
#
# Elastic Compliance Matrix: (Units=1/GPa)
#
#
# Indices 1 2 3 4 5 6 
#
# 1 0.001770 0.000738 0.006908 0.000000 -0.013930 0.000000
# 2 0.000738 0.013389 -0.002647 0.000000 0.003797 0.000000
# 3 0.006908 -0.002647 0.003470 0.000000 0.011904 0.000000
# 4 0.000000 0.000000 0.000000 0.033580 0.000000 -0.003448
# 5 -0.013930 0.003797 0.011904 0.000000 -0.007678 0.000000
# 6 0.000000 0.000000 0.000000 -0.003448 0.000000 0.028185
#
#
# Mechanical properties :
#
#
# Convention : Reuss Voigt Hill
#
# Bulk Modulus (GPa) = 34.93456 35.37601 35.15528
# Shear Modulus (GPa) = 69.19391 26.16474 47.67932
#
# Velocity S-wave (km/s) = 5.28395 3.24925 4.38621
# Velocity P-wave (km/s) = 7.16401 5.32459 6.31167
#
# Compressibility (1/GPa) = 0.02862495
#
# Stress axis : x y z
#
# Youngs Moduli (GPa) = 565.00311 74.69027 288.19589
#
# Poissons Ratio (x) = -0.05511 -1.99072
# Poissons Ratio (y) = -0.41690 0.76288
# Poissons Ratio (z) = -3.90277 0.19771
#
# Static dielectric constant tensor:
#      x y z
#    x 2.028610 0.000000 0.066900 
#    y 0.000000 2.237080 0.000000 
#    z 0.066900 0.000000 1.998650 
# 
# From -- ./inp_files/34657.got.cif
#   From: 2010.05.17/outbox.cif.g08.bks.cpg/sg14_18_cif.got.tgz:34657.got - 2010.06.03 17:49:19.
