data_PCOD9249984
_publ_section_title
;
Structure prediction by ZEFSAII (Michael W. Deem and Ramdas Pophale) SiO2 
 PCOD9249984
Probable space group: P 21/C
;
_chemical_formula_sum "Si O2"
_cell_formula_units_Z 16
_cell_length_a 9.539754
_cell_length_b 9.259925
_cell_length_c 10.184675
_cell_angle_alpha 90.000000
_cell_angle_beta 40.377431
_cell_angle_gamma 90.000000
_cell_volume 582.835626
_symmetry_space_group_name_H-M "P 21/C"
_symmetry_group_IT_number 14
_symmetry_cell_setting 'monoclinic'
loop_
_space_group_symop_operation_xyz
x,y,z
-x,1/2+y,1/2-z
-x,-y,-z
x,1/2-y,1/2+z
loop_
_atom_site_type_symbol
_atom_site_label
_atom_site_fract_x
_atom_site_fract_y
_atom_site_fract_z
Si Si1 0.227683 0.201645 0.312241
Si Si2 0.200527 0.904588 0.241615
Si Si3 0.204701 0.008022 0.953641
Si Si4 0.490482 0.346081 0.937583
O O1 0.298801 0.329555 0.361691
O O2 0.988598 0.160163 0.533169
O O3 0.314957 0.037371 0.235824
O O4 0.259924 0.279643 0.147906
O O5 0.356400 0.771707 0.104145
O O6 0.130116 0.975594 0.154417
O O7 0.383184 0.888598 0.785033
O O8 0.000000 0.000000 0.000000
O O9 0.500000 0.500000 0.000000
#
# Coordination Sequence:
#
# PCOD9249984 Si02
#       4
#     4   4   4   4
#     4  10  24  44  69 104 139 188 242 298 366 437
#     4  11  24  44  71 101 148 186 240 308 360 434
#     4  11  24  43  69 101 143 193 238 291 369 431
#     4  10  23  45  68 106 141 182 244 297 366 445
#
# _framework density 27.451995
#
# number of rings (size 3 to 8) (size 9 to 14) (size 15 to 20)
#    0.000    1.500    2.500    0.750    3.500    4.000 
#    9.000    0.000    0.000    0.000    0.000    0.000 
#    0.000    0.000    0.000    0.000    0.000    0.000 
#
# Total GULP energy -89296.697038 kJ/mol
# GULP energy per Si atom -5581.043565 kJ/mol
# Density = 2.738951 g / cm^3
# Si number density = 27.451995 Si / 1000 Ang^3
#
#
#
# Elastic Constant Matrix: (Units=GPa)
#
#
# Indices 1 2 3 4 5 6 
#
# 1 120.1610 44.2386 51.9326 0.0000 21.8438 0.0000
# 2 44.2386 251.0307 72.0109 0.0000 -11.3366 0.0000
# 3 51.9326 72.0109 199.0103 0.0000 18.2221 0.0000
# 4 0.0000 0.0000 0.0000 75.5845 0.0000 -10.6652
# 5 21.8438 -11.3366 18.2221 0.0000 21.3889 0.0000
# 6 0.0000 0.0000 0.0000 -10.6652 0.0000 41.2652
#
#
#
# Elastic Compliance Matrix: (Units=1/GPa)
#
#
# Indices 1 2 3 4 5 6 
#
# 1 0.011940 -0.002345 -0.001125 0.000000 -0.012479 0.000000
# 2 -0.002345 0.005253 -0.001912 0.000000 0.006808 0.000000
# 3 -0.001125 -0.001912 0.006505 0.000000 -0.005407 0.000000
# 4 0.000000 0.000000 0.000000 0.013731 0.000000 0.003549
# 5 -0.012479 0.006808 -0.005407 0.000000 0.067712 0.000000
# 6 0.000000 0.000000 0.000000 0.003549 0.000000 0.025151
#
#
# Mechanical properties :
#
#
# Convention : Reuss Voigt Hill
#
# Bulk Modulus (GPa) = 77.31254 100.72959 89.02107
# Shear Modulus (GPa) = 34.39555 54.44906 44.42230
#
# Velocity S-wave (km/s) = 3.54352 4.45840 4.02703
# Velocity P-wave (km/s) = 6.70567 7.95461 7.35669
#
# Compressibility (1/GPa) = 0.01293451
#
# Stress axis : x y z
#
# Youngs Moduli (GPa) = 83.75121 190.37392 153.72026
#
# Poissons Ratio (x) = 0.44645 0.17288
# Poissons Ratio (y) = 0.19641 0.29393
# Poissons Ratio (z) = 0.09419 0.36402
#
# Static dielectric constant tensor:
#      x y z
#    x 2.279220 0.000000 0.061010 
#    y 0.000000 2.144760 0.000000 
#    z 0.061010 0.000000 2.264370 
# 
# From -- ./inp_files/27677.got.cif
#   From: 2010.05.17/outbox.cif.g08.bks.cpg/sg14_14_cif.got.tgz:27677.got - 2010.06.03 17:49:19.
