data_PCOD9249833
_publ_section_title
;
Structure prediction by ZEFSAII (Michael W. Deem and Ramdas Pophale) SiO2 
 PCOD9249833
Probable space group: P 21/C
;
_chemical_formula_sum "Si O2"
_cell_formula_units_Z 32
_cell_length_a 9.057021
_cell_length_b 14.013630
_cell_length_c 11.653367
_cell_angle_alpha 90.000000
_cell_angle_beta 120.844206
_cell_angle_gamma 90.000000
_cell_volume 1269.873361
_symmetry_space_group_name_H-M "P 21/C"
_symmetry_group_IT_number 14
_symmetry_cell_setting 'monoclinic'
loop_
_space_group_symop_operation_xyz
x,y,z
-x,1/2+y,1/2-z
-x,-y,-z
x,1/2-y,1/2+z
loop_
_atom_site_type_symbol
_atom_site_label
_atom_site_fract_x
_atom_site_fract_y
_atom_site_fract_z
Si Si1 0.901839 0.404064 0.590857
Si Si2 0.533208 0.369953 0.088989
Si Si3 0.254863 0.094992 0.925935
Si Si4 0.302459 0.404220 0.183910
Si Si5 0.012016 0.276248 0.024197
Si Si6 0.751219 0.082125 0.464580
Si Si7 0.619413 0.154915 0.168223
Si Si8 0.153445 0.312908 0.857813
O O1 0.866143 0.516230 0.561843
O O2 0.921772 0.326100 0.497362
O O3 0.747130 0.377417 0.616478
O O4 0.078680 0.374436 0.725012
O O5 0.486997 0.411740 0.195739
O O6 0.615906 0.268437 0.148888
O O7 0.637560 0.425245 0.033504
O O8 0.344263 0.347972 0.961306
O O9 0.303860 0.065421 0.815314
O O10 0.169008 0.197947 0.869416
O O11 0.429696 0.113639 0.064398
O O12 0.196191 0.480458 0.066132
O O13 0.213224 0.299177 0.135848
O O14 0.905908 0.348520 0.060724
O O15 0.007456 0.321729 0.896979
O O16 0.658385 0.130121 0.316978
#
# Coordination Sequence:
#
# PCOD9249833 Si02
#       8
#     4   4   4   4   4   4   4   4
#     4  12  22  42  70 100 135 183 229 281 349 413
#     4  10  25  41  67  97 137 180 230 284 350 409
#     4  11  24  43  70 102 138 179 229 285 352 415
#     4  11  23  42  69  98 137 177 227 288 353 400
#     4  11  23  41  69  96 135 179 226 286 341 408
#     4  12  23  42  68 101 134 182 233 279 341 423
#     4  11  24  41  67  99 138 178 225 286 348 416
#     4  10  23  44  63  98 136 179 222 283 350 411
#
# _framework density 25.199365
#
# number of rings (size 3 to 8) (size 9 to 14) (size 15 to 20)
#    0.000    1.000    5.000    1.125    3.500    2.500 
#    0.000    0.000    0.000    0.000    0.000    0.000 
#    0.000    0.000    0.000    0.000    0.000    0.000 
#
# Total GULP energy -178579.750740 kJ/mol
# GULP energy per Si atom -5580.617211 kJ/mol
# Density = 2.514201 g / cm^3
# Si number density = 25.199365 Si / 1000 Ang^3
#
#
#
# Elastic Constant Matrix: (Units=GPa)
#
#
# Indices 1 2 3 4 5 6 
#
# 1 95.5205 24.4251 25.9221 0.0000 -19.3462 0.0000
# 2 24.4251 115.7115 30.5237 0.0000 -5.8025 0.0000
# 3 25.9221 30.5237 48.1996 0.0000 2.4354 0.0000
# 4 0.0000 0.0000 0.0000 22.9124 0.0000 0.4491
# 5 -19.3462 -5.8025 2.4354 0.0000 27.3963 0.0000
# 6 0.0000 0.0000 0.0000 0.4491 0.0000 51.1355
#
#
#
# Elastic Compliance Matrix: (Units=1/GPa)
#
#
# Indices 1 2 3 4 5 6 
#
# 1 0.015181 -0.000393 -0.008491 0.000000 0.011392 0.000000
# 2 -0.000393 0.010603 -0.006632 0.000000 0.002557 0.000000
# 3 -0.008491 -0.006632 0.030022 0.000000 -0.010069 0.000000
# 4 0.000000 0.000000 0.000000 0.043652 0.000000 -0.000383
# 5 0.011392 0.002557 -0.010069 0.000000 0.045982 0.000000
# 6 0.000000 0.000000 0.000000 -0.000383 0.000000 0.019559
#
#
# Mechanical properties :
#
#
# Convention : Reuss Voigt Hill
#
# Bulk Modulus (GPa) = 40.36623 46.79704 43.58164
# Shear Modulus (GPa) = 24.47490 32.19290 28.33390
#
# Velocity S-wave (km/s) = 3.11987 3.57813 3.35683
# Velocity P-wave (km/s) = 5.38810 5.97342 5.68829
#
# Compressibility (1/GPa) = 0.02477318
#
# Stress axis : x y z
#
# Youngs Moduli (GPa) = 65.87178 94.31287 33.30851
#
# Poissons Ratio (x) = 0.03710 0.28282
# Poissons Ratio (y) = 0.02591 0.22091
# Poissons Ratio (z) = 0.55931 0.62551
#
# Static dielectric constant tensor:
#      x y z
#    x 2.037560 0.000000 -0.036610 
#    y 0.000000 2.069650 0.000000 
#    z -0.036610 0.000000 2.092500 
# 
# From -- ./inp_files/25549.got.cif
#   From: 2010.05.17/outbox.cif.g08.bks.cpg/sg14_13_cif.got.tgz:25549.got - 2010.06.03 17:49:19.
