data_PCOD9249530
_publ_section_title
;
Structure prediction by ZEFSAII (Michael W. Deem and Ramdas Pophale) SiO2 
 PCOD9249530
Probable space group: P 21/C
;
_chemical_formula_sum "Si O2"
_cell_formula_units_Z 16
_cell_length_a 6.337909
_cell_length_b 10.204195
_cell_length_c 15.036938
_cell_angle_alpha 90.000000
_cell_angle_beta 138.051595
_cell_angle_gamma 90.000000
_cell_volume 650.070289
_symmetry_space_group_name_H-M "P 21/C"
_symmetry_group_IT_number 14
_symmetry_cell_setting 'monoclinic'
loop_
_space_group_symop_operation_xyz
x,y,z
-x,1/2+y,1/2-z
-x,-y,-z
x,1/2-y,1/2+z
loop_
_atom_site_type_symbol
_atom_site_label
_atom_site_fract_x
_atom_site_fract_y
_atom_site_fract_z
Si Si1 0.786456 0.750789 0.684889
Si Si2 0.668238 0.601816 0.986046
Si Si3 0.664818 0.037729 0.142903
Si Si4 0.582813 0.437495 0.804316
O O1 0.665818 0.768237 0.545171
O O2 0.841533 0.599905 0.722569
O O3 0.540549 0.816261 0.676093
O O4 0.090768 0.843507 0.789483
O O5 0.040948 0.576465 0.089645
O O6 0.500000 0.500000 0.000000
O O7 0.522430 0.569088 0.843810
O O8 0.449705 0.062157 0.162729
O O9 0.500000 0.000000 0.000000
#
# Coordination Sequence:
#
# PCOD9249530 Si02
#       4
#     4   4   4   4
#     4  10  23  42  64  95 135 176 224 279 336 400
#     4   8  16  34  62  92 124 169 220 268 323 390
#     4  11  26  43  66 100 136 176 225 280 338 403
#     4   9  19  37  63  93 130 176 221 269 334 399
#
# _framework density 24.612722000000002
#
# number of rings (size 3 to 8) (size 9 to 14) (size 15 to 20)
#    0.000    2.500    0.000    0.000    0.000   19.000 
#    0.000    0.000    0.000    0.000    0.000    0.000 
#    0.000    0.000    0.000    0.000    0.000    0.000 
#
# Total GULP energy -89310.045182 kJ/mol
# GULP energy per Si atom -5581.877824 kJ/mol
# Density = 2.455670 g / cm^3
# Si number density = 24.612722 Si / 1000 Ang^3
#
#
#
# Elastic Constant Matrix: (Units=GPa)
#
#
# Indices 1 2 3 4 5 6 
#
# 1 147.2016 18.5594 58.5614 0.0000 -28.1655 0.0000
# 2 18.5594 115.8372 17.1942 0.0000 6.6786 0.0000
# 3 58.5614 17.1942 101.5691 0.0000 -24.5683 0.0000
# 4 0.0000 0.0000 0.0000 33.1878 0.0000 -0.5492
# 5 -28.1655 6.6786 -24.5683 0.0000 46.0395 0.0000
# 6 0.0000 0.0000 0.0000 -0.5492 0.0000 25.6850
#
#
#
# Elastic Compliance Matrix: (Units=1/GPa)
#
#
# Indices 1 2 3 4 5 6 
#
# 1 0.009333 -0.001055 -0.004345 0.000000 0.003544 0.000000
# 2 -0.001055 0.009210 -0.001642 0.000000 -0.002858 0.000000
# 3 -0.004345 -0.001642 0.013829 0.000000 0.004959 0.000000
# 4 0.000000 0.000000 0.000000 0.030142 0.000000 0.000644
# 5 0.003544 -0.002858 0.004959 0.000000 0.026949 0.000000
# 6 0.000000 0.000000 0.000000 0.000644 0.000000 0.038947
#
#
# Mechanical properties :
#
#
# Convention : Reuss Voigt Hill
#
# Bulk Modulus (GPa) = 54.68315 61.47089 58.07702
# Shear Modulus (GPa) = 33.64930 39.00199 36.32564
#
# Velocity S-wave (km/s) = 3.70151 3.98506 3.84590
# Velocity P-wave (km/s) = 6.36663 6.79733 6.58550
#
# Compressibility (1/GPa) = 0.01828717
#
# Stress axis : x y z
#
# Youngs Moduli (GPa) = 107.14402 108.57382 72.31406
#
# Poissons Ratio (x) = 0.11451 0.31424
# Poissons Ratio (y) = 0.11300 0.11876
# Poissons Ratio (z) = 0.46559 0.17831
#
# Static dielectric constant tensor:
#      x y z
#    x 1.945340 0.000000 -0.032740 
#    y 0.000000 2.000750 0.000000 
#    z -0.032740 0.000000 2.060300 
# 
# From -- ./inp_files/28831.got.cif
#   From: 2010.05.17/outbox.cif.g08.bks.cpg/sg14_15_cif.got.tgz:28831.got - 2010.06.03 17:49:19.
