data_PCOD9249672
_publ_section_title
;
Structure prediction by ZEFSAII (Michael W. Deem and Ramdas Pophale) SiO2 
 PCOD9249672
Probable space group: P 21/C
;
_chemical_formula_sum "Si O2"
_cell_formula_units_Z 32
_cell_length_a 8.462481
_cell_length_b 14.815822
_cell_length_c 14.746150
_cell_angle_alpha 90.000000
_cell_angle_beta 52.264328
_cell_angle_gamma 90.000000
_cell_volume 1462.150868
_symmetry_space_group_name_H-M "P 21/C"
_symmetry_group_IT_number 14
_symmetry_cell_setting 'monoclinic'
loop_
_space_group_symop_operation_xyz
x,y,z
-x,1/2+y,1/2-z
-x,-y,-z
x,1/2-y,1/2+z
loop_
_atom_site_type_symbol
_atom_site_label
_atom_site_fract_x
_atom_site_fract_y
_atom_site_fract_z
Si Si1 0.483422 0.780558 0.841299
Si Si2 0.091341 0.825731 0.517257
Si Si3 0.343593 0.012580 0.639263
Si Si4 0.626137 0.962481 0.872935
Si Si5 0.678845 0.686443 0.098581
Si Si6 0.802638 0.694412 0.858530
Si Si7 0.035614 0.637326 0.247646
Si Si8 0.676355 0.477143 0.160937
O O1 0.281759 0.737671 0.945972
O O2 0.501112 0.882693 0.868798
O O3 0.512024 0.774678 0.723237
O O4 0.672886 0.733787 0.822038
O O5 0.053259 0.856163 0.632807
O O6 0.151608 0.912245 0.436260
O O7 0.895798 0.776141 0.549818
O O8 0.181203 0.087633 0.665763
O O9 0.473358 0.048183 0.678403
O O10 0.500000 0.000000 0.500000
O O11 0.230423 0.920403 0.705902
O O12 0.833932 0.919947 0.835979
O O13 0.666754 0.027263 0.772751
O O14 0.500000 0.000000 0.000000
O O15 0.701893 0.580680 0.118124
O O16 0.665750 0.700762 0.996741
O O17 0.992641 0.761170 0.798992
#
# Coordination Sequence:
#
# PCOD9249672 Si02
#       8
#     4   4   4   4   4   4   4   4
#     4  10  23  43  61  93 135 170 219 277 331 397
#     4  12  21  40  65  96 127 173 217 280 330 390
#     4  12  22  40  71 102 130 170 226 280 334 394
#     4  10  24  46  64  93 136 177 217 275 339 407
#     4  11  23  40  63  93 135 168 222 277 332 397
#     4  11  22  42  64  94 139 173 214 281 336 397
#     4  11  24  42  66  97 138 171 223 279 331 403
#     4  11  22  39  70  96 130 166 230 276 335 392
#
# _framework density 21.885566000000001
#
# number of rings (size 3 to 8) (size 9 to 14) (size 15 to 20)
#    0.000    1.000    7.500    0.375    1.750    5.000 
#    0.000    0.625    0.000    0.000    0.000    0.000 
#    0.000    0.000    0.000    0.000    0.000    0.000 
#
# Total GULP energy -178742.335303 kJ/mol
# GULP energy per Si atom -5585.697978 kJ/mol
# Density = 2.183575 g / cm^3
# Si number density = 21.885566 Si / 1000 Ang^3
#
#
#
# Elastic Constant Matrix: (Units=GPa)
#
#
# Indices 1 2 3 4 5 6 
#
# 1 42.3857 5.3874 7.7630 0.0000 -8.8405 0.0000
# 2 5.3874 66.2332 47.2238 0.0000 -8.6625 0.0000
# 3 7.7630 47.2238 121.2350 0.0000 3.9869 0.0000
# 4 0.0000 0.0000 0.0000 43.7756 0.0000 -14.0823
# 5 -8.8405 -8.6625 3.9869 0.0000 42.9899 0.0000
# 6 0.0000 0.0000 0.0000 -14.0823 0.0000 32.4539
#
#
#
# Elastic Compliance Matrix: (Units=1/GPa)
#
#
# Indices 1 2 3 4 5 6 
#
# 1 0.025027 -0.000108 -0.001734 0.000000 0.005286 0.000000
# 2 -0.000108 0.022025 -0.008744 0.000000 0.005227 0.000000
# 3 -0.001734 -0.008744 0.011871 0.000000 -0.003220 0.000000
# 4 0.000000 0.000000 0.000000 0.026550 0.000000 0.011520
# 5 0.005286 0.005227 -0.003220 0.000000 0.025700 0.000000
# 6 0.000000 0.000000 0.000000 0.011520 0.000000 0.035812
#
#
# Mechanical properties :
#
#
# Convention : Reuss Voigt Hill
#
# Bulk Modulus (GPa) = 26.48975 38.95581 32.72278
# Shear Modulus (GPa) = 27.66385 35.14253 31.40319
#
# Velocity S-wave (km/s) = 3.55917 4.01152 3.79209
# Velocity P-wave (km/s) = 5.38705 6.26855 5.84444
#
# Compressibility (1/GPa) = 0.03775045
#
# Stress axis : x y z
#
# Youngs Moduli (GPa) = 39.95738 45.40262 84.23549
#
# Poissons Ratio (x) = 0.00489 0.14610
# Poissons Ratio (y) = 0.00431 0.73658
# Poissons Ratio (z) = 0.06930 0.39701
#
# Static dielectric constant tensor:
#      x y z
#    x 1.868320 0.000000 -0.013060 
#    y 0.000000 1.867410 0.000000 
#    z -0.013060 0.000000 1.761220 
# 
# From -- ./inp_files/41678.got.cif
#   From: 2010.05.17/outbox.cif.g08.bks.cpg/sg14_21_cif.got.tgz:41678.got - 2010.06.03 17:49:19.
