data_PCOD9249299
_publ_section_title
;
Structure prediction by ZEFSAII (Michael W. Deem and Ramdas Pophale) SiO2 
 PCOD9249299
Probable space group: P 21/C
;
_chemical_formula_sum "Si O2"
_cell_formula_units_Z 28
_cell_length_a 10.234844
_cell_length_b 11.455887
_cell_length_c 11.016533
_cell_angle_alpha 90.000000
_cell_angle_beta 108.962094
_cell_angle_gamma 90.000000
_cell_volume 1221.585251
_symmetry_space_group_name_H-M "P 21/C"
_symmetry_group_IT_number 14
_symmetry_cell_setting 'monoclinic'
loop_
_space_group_symop_operation_xyz
x,y,z
-x,1/2+y,1/2-z
-x,-y,-z
x,1/2-y,1/2+z
loop_
_atom_site_type_symbol
_atom_site_label
_atom_site_fract_x
_atom_site_fract_y
_atom_site_fract_z
Si Si1 0.062193 0.823210 0.640371
Si Si2 0.848562 0.511899 0.680148
Si Si3 0.185851 0.189021 0.619585
Si Si4 0.301176 0.541253 0.061329
Si Si5 0.430075 0.623733 0.322450
Si Si6 0.720179 0.360739 0.211538
Si Si7 0.275488 0.435060 0.597552
O O1 0.170865 0.891581 0.584737
O O2 0.138253 0.712140 0.721733
O O3 0.935501 0.798765 0.515486
O O4 0.038583 0.918030 0.740414
O O5 0.857317 0.624019 0.769667
O O6 0.700522 0.446348 0.660899
O O7 0.841663 0.543223 0.538353
O O8 0.244705 0.316405 0.660266
O O9 0.287974 0.095243 0.587109
O O10 0.293761 0.573703 0.919799
O O11 0.428379 0.590346 0.178500
O O12 0.394699 0.759385 0.321938
O O13 0.576613 0.590428 0.420369
O O14 0.709441 0.451827 0.316245
#
# Coordination Sequence:
#
# PCOD9249299 Si02
#       7
#     4   4   4   4   4   4   4
#     4   9  21  42  66  85 121 164 205 250 313 360
#     4   9  21  42  61  86 121 168 199 249 311 358
#     4  10  23  40  61  91 120 165 203 254 310 357
#     4   9  20  43  63  87 120 167 204 244 309 369
#     4   9  23  40  65  85 127 163 198 254 309 366
#     4  10  24  39  64  94 119 164 205 252 306 360
#     4  12  25  38  62  99 123 153 212 255 300 371
#
# _framework density 22.921036999999998
#
# number of rings (size 3 to 8) (size 9 to 14) (size 15 to 20)
#    0.000    2.857    0.000    2.143   14.000    4.571 
#    0.000    0.000    0.000    0.000    0.000    0.000 
#    0.000    0.000    0.000    0.000    0.000    0.000 
#
# Total GULP energy -156443.302225 kJ/mol
# GULP energy per Si atom -5587.260794 kJ/mol
# Density = 2.286887 g / cm^3
# Si number density = 22.921037 Si / 1000 Ang^3
#
#
#
# Elastic Constant Matrix: (Units=GPa)
#
#
# Indices 1 2 3 4 5 6 
#
# 1 26.5003 19.9865 1.0798 0.0000 9.3964 0.0000
# 2 19.9865 128.6253 28.6452 0.0000 -12.0474 0.0000
# 3 1.0798 28.6452 93.2941 0.0000 -8.0353 0.0000
# 4 0.0000 0.0000 0.0000 21.9052 0.0000 4.8016
# 5 9.3964 -12.0474 -8.0353 0.0000 22.6103 0.0000
# 6 0.0000 0.0000 0.0000 4.8016 0.0000 10.6641
#
#
#
# Elastic Compliance Matrix: (Units=1/GPa)
#
#
# Indices 1 2 3 4 5 6 
#
# 1 0.057208 -0.011775 0.000377 0.000000 -0.029915 0.000000
# 2 -0.011775 0.011071 -0.002407 0.000000 0.009937 0.000000
# 3 0.000377 -0.002407 0.011687 0.000000 0.002714 0.000000
# 4 0.000000 0.000000 0.000000 0.050650 0.000000 -0.022806
# 5 -0.029915 0.009937 0.002714 0.000000 0.062919 0.000000
# 6 0.000000 0.000000 0.000000 -0.022806 0.000000 0.104041
#
#
# Mechanical properties :
#
#
# Convention : Reuss Voigt Hill
#
# Bulk Modulus (GPa) = 19.10021 38.64919 28.87470
# Shear Modulus (GPa) = 14.59262 24.28315 19.43788
#
# Velocity S-wave (km/s) = 2.52592 3.25841 2.91527
# Velocity P-wave (km/s) = 4.10587 5.57269 4.89454
#
# Compressibility (1/GPa) = 0.05235544
#
# Stress axis : x y z
#
# Youngs Moduli (GPa) = 17.48008 90.32608 85.56300
#
# Poissons Ratio (x) = 1.06360 -0.03224
# Poissons Ratio (y) = 0.20583 0.20596
# Poissons Ratio (z) = -0.00659 0.21742
#
# Static dielectric constant tensor:
#      x y z
#    x 1.944080 0.000000 0.006090 
#    y 0.000000 1.834080 0.000000 
#    z 0.006090 0.000000 1.849130 
# 
# From -- ./inp_files/28678.got.cif
#   From: 2010.05.17/outbox.cif.g08.bks.cpg/sg14_15_cif.got.tgz:28678.got - 2010.06.03 17:49:19.
