data_PCOD9249221
_publ_section_title
;
Structure prediction by ZEFSAII (Michael W. Deem and Ramdas Pophale) SiO2 
 PCOD9249221
Probable space group: P 21/C
;
_chemical_formula_sum "Si O2"
_cell_formula_units_Z 32
_cell_length_a 12.198533
_cell_length_b 14.119050
_cell_length_c 8.964707
_cell_angle_alpha 90.000000
_cell_angle_beta 113.016480
_cell_angle_gamma 90.000000
_cell_volume 1421.092080
_symmetry_space_group_name_H-M "P 21/C"
_symmetry_group_IT_number 14
_symmetry_cell_setting 'monoclinic'
loop_
_space_group_symop_operation_xyz
x,y,z
-x,1/2+y,1/2-z
-x,-y,-z
x,1/2-y,1/2+z
loop_
_atom_site_type_symbol
_atom_site_label
_atom_site_fract_x
_atom_site_fract_y
_atom_site_fract_z
Si Si1 0.467413 0.127413 0.727581
Si Si2 0.943518 0.157130 0.026924
Si Si3 0.843424 0.530566 0.343888
Si Si4 0.323503 0.120305 0.056503
Si Si5 0.593228 0.426833 0.753708
Si Si6 0.802262 0.290431 0.743106
Si Si7 0.372804 0.271695 0.880818
Si Si8 0.667000 0.405803 0.118151
O O1 0.476385 0.211262 0.851759
O O2 0.412254 0.171327 0.547386
O O3 0.592393 0.090174 0.731886
O O4 0.393547 0.039944 0.754594
O O5 0.866687 0.163856 0.136113
O O6 0.076486 0.123039 0.141736
O O7 0.902266 0.251082 0.913456
O O8 0.913694 0.068055 0.903949
O O9 0.772881 0.540997 0.463845
O O10 0.752327 0.497134 0.166649
O O11 0.463620 0.096133 0.116421
O O12 0.319022 0.170412 0.217127
O O13 0.288895 0.191441 0.907527
O O14 0.701449 0.362092 0.753761
O O15 0.586729 0.412043 0.928879
O O16 0.733408 0.194570 0.656391
#
# Coordination Sequence:
#
# PCOD9249221 Si02
#       8
#     4   4   4   4   4   4   4   4
#     4  11  22  38  60  93 140 170 217 253 329 403
#     4  10  24  46  68  95 124 175 227 275 319 384
#     4  10  23  42  69  90 129 171 223 274 327 374
#     4  11  22  39  59  94 135 169 211 264 332 391
#     4  12  23  37  66 103 132 173 214 269 333 401
#     4  11  23  42  71  96 129 171 225 271 327 389
#     4  10  23  37  56  90 134 182 205 258 320 400
#     4  11  21  40  65  97 133 175 211 270 334 388
#
# _framework density 22.517893999999998
#
# number of rings (size 3 to 8) (size 9 to 14) (size 15 to 20)
#    0.000    1.250    3.750    2.625    1.750    3.500 
#    0.000    0.625    0.000    0.000    0.000    0.000 
#    0.000    0.000    0.000    0.000    0.000    0.000 
#
# Total GULP energy -178421.092513 kJ/mol
# GULP energy per Si atom -5575.659141 kJ/mol
# Density = 2.246664 g / cm^3
# Si number density = 22.517894 Si / 1000 Ang^3
#
#
#
# Elastic Constant Matrix: (Units=GPa)
#
#
# Indices 1 2 3 4 5 6 
#
# 1 79.9058 36.2397 8.7831 0.0000 -0.0640 0.0000
# 2 36.2397 112.8545 27.1990 0.0000 3.5120 0.0000
# 3 8.7831 27.1990 59.1636 0.0000 -13.0013 0.0000
# 4 0.0000 0.0000 0.0000 31.0702 0.0000 -2.9150
# 5 -0.0640 3.5120 -13.0013 0.0000 20.4691 0.0000
# 6 0.0000 0.0000 0.0000 -2.9150 0.0000 40.1806
#
#
#
# Elastic Compliance Matrix: (Units=1/GPa)
#
#
# Indices 1 2 3 4 5 6 
#
# 1 0.014666 -0.004804 0.000259 0.000000 0.001034 0.000000
# 2 -0.004804 0.012074 -0.006155 0.000000 -0.005996 0.000000
# 3 0.000259 -0.006155 0.023158 0.000000 0.015766 0.000000
# 4 0.000000 0.000000 0.000000 0.032406 0.000000 0.002351
# 5 0.001034 -0.005996 0.015766 0.000000 0.059900 0.000000
# 6 0.000000 0.000000 0.000000 0.002351 0.000000 0.025058
#
#
# Mechanical properties :
#
#
# Convention : Reuss Voigt Hill
#
# Bulk Modulus (GPa) = 35.09160 44.04082 39.56621
# Shear Modulus (GPa) = 25.23194 30.32412 27.77803
#
# Velocity S-wave (km/s) = 3.35106 3.67368 3.51607
# Velocity P-wave (km/s) = 5.53087 6.13149 5.83891
#
# Compressibility (1/GPa) = 0.02849685
#
# Stress axis : x y z
#
# Youngs Moduli (GPa) = 68.18535 82.82515 43.18139
#
# Poissons Ratio (x) = 0.39789 -0.01117
# Poissons Ratio (y) = 0.32756 0.26578
# Poissons Ratio (z) = -0.01763 0.50979
#
# Static dielectric constant tensor:
#      x y z
#    x 1.958280 0.000000 0.060840 
#    y 0.000000 1.962450 0.000000 
#    z 0.060840 0.000000 1.870710 
# 
# From -- ./inp_files/13378.got.cif
#   From: 2010.05.17/outbox.cif.g08.bks.cpg/sg14_7_cif.got.tgz:13378.got - 2010.06.03 17:49:19.
