data_PCOD9249373
_publ_section_title
;
Structure prediction by ZEFSAII (Michael W. Deem and Ramdas Pophale) SiO2 
 PCOD9249373
Probable space group: P 21/C
;
_chemical_formula_sum "Si O2"
_cell_formula_units_Z 28
_cell_length_a 7.313160
_cell_length_b 11.846857
_cell_length_c 13.194989
_cell_angle_alpha 90.000000
_cell_angle_beta 80.261375
_cell_angle_gamma 90.000000
_cell_volume 1126.713227
_symmetry_space_group_name_H-M "P 21/C"
_symmetry_group_IT_number 14
_symmetry_cell_setting 'monoclinic'
loop_
_space_group_symop_operation_xyz
x,y,z
-x,1/2+y,1/2-z
-x,-y,-z
x,1/2-y,1/2+z
loop_
_atom_site_type_symbol
_atom_site_label
_atom_site_fract_x
_atom_site_fract_y
_atom_site_fract_z
Si Si1 0.208926 0.168375 0.991808
Si Si2 0.620770 0.114521 0.406563
Si Si3 0.654987 0.451767 0.601745
Si Si4 0.982094 0.953579 0.806098
Si Si5 0.858314 0.173683 0.895217
Si Si6 0.622451 0.638695 0.888409
Si Si7 0.341678 0.334189 0.757326
O O1 0.058751 0.201589 0.923128
O O2 0.358926 0.082671 0.930590
O O3 0.101841 0.087666 0.078943
O O4 0.267764 0.275227 0.050355
O O5 0.755284 0.216218 0.366924
O O6 0.570015 0.125118 0.531077
O O7 0.437646 0.134484 0.354363
O O8 0.696851 0.988508 0.382100
O O9 0.735151 0.379152 0.499641
O O10 0.464500 0.402857 0.662175
O O11 0.803067 0.445961 0.680654
O O12 0.868371 0.877795 0.737325
O O13 0.907416 0.081534 0.804965
O O14 0.624738 0.704568 0.781647
#
# Coordination Sequence:
#
# PCOD9249373 Si02
#       7
#     4   4   4   4   4   4   4
#     4   8  17  34  62  85 111 149 192 249 299 349
#     4  11  24  37  58  85 122 161 199 239 305 367
#     4   9  17  35  62  91 112 145 202 250 292 344
#     4   8  18  33  58  93 114 140 200 254 288 345
#     4   9  17  35  59  86 115 149 195 248 299 347
#     4  10  23  41  54  88 123 154 200 246 296 363
#     4  11  22  37  65  82 120 166 199 247 299 349
#
# _framework density 24.851044000000002
#
# number of rings (size 3 to 8) (size 9 to 14) (size 15 to 20)
#    0.000    2.571    1.429    1.714    4.000    2.286 
#    2.571    0.000    9.429    0.000    0.000    0.000 
#    0.000    0.000    0.000    0.000    0.000    0.000 
#
# Total GULP energy -156478.384708 kJ/mol
# GULP energy per Si atom -5588.513740 kJ/mol
# Density = 2.479448 g / cm^3
# Si number density = 24.851044 Si / 1000 Ang^3
#
#
#
# Elastic Constant Matrix: (Units=GPa)
#
#
# Indices 1 2 3 4 5 6 
#
# 1 79.0427 25.5953 14.8541 0.0000 21.7943 0.0000
# 2 25.5953 168.5003 45.1067 0.0000 27.2091 0.0000
# 3 14.8541 45.1067 70.1682 0.0000 -1.6001 0.0000
# 4 0.0000 0.0000 0.0000 30.1641 0.0000 13.1048
# 5 21.7943 27.2091 -1.6001 0.0000 29.9245 0.0000
# 6 0.0000 0.0000 0.0000 13.1048 0.0000 18.5552
#
#
#
# Elastic Compliance Matrix: (Units=1/GPa)
#
#
# Indices 1 2 3 4 5 6 
#
# 1 0.016864 0.000727 -0.004338 0.000000 -0.013175 0.000000
# 2 0.000727 0.008895 -0.006076 0.000000 -0.008942 0.000000
# 3 -0.004338 -0.006076 0.019297 0.000000 0.009715 0.000000
# 4 0.000000 0.000000 0.000000 0.047827 0.000000 -0.033778
# 5 -0.013175 -0.008942 0.009715 0.000000 0.051663 0.000000
# 6 0.000000 0.000000 0.000000 -0.033778 0.000000 0.077749
#
#
# Mechanical properties :
#
#
# Convention : Reuss Voigt Hill
#
# Bulk Modulus (GPa) = 38.93663 54.31369 46.62516
# Shear Modulus (GPa) = 19.98177 31.20579 25.59378
#
# Velocity S-wave (km/s) = 2.83867 3.54745 3.21267
# Velocity P-wave (km/s) = 5.14258 6.21951 5.70651
#
# Compressibility (1/GPa) = 0.02568276
#
# Stress axis : x y z
#
# Youngs Moduli (GPa) = 59.29836 112.42789 51.82175
#
# Poissons Ratio (x) = -0.08174 0.22479
# Poissons Ratio (y) = -0.04311 0.31485
# Poissons Ratio (z) = 0.25722 0.68307
#
# Static dielectric constant tensor:
#      x y z
#    x 2.018100 0.000000 -0.070790 
#    y 0.000000 2.014270 0.000000 
#    z -0.070790 0.000000 2.013800 
# 
# From -- ./inp_files/40112.got.cif
#   From: 2010.05.17/outbox.cif.g08.bks.cpg/sg14_21_cif.got.tgz:40112.got - 2010.06.03 17:49:19.
