data_PCOD9250892
_publ_section_title
;
Structure prediction by ZEFSAII (Michael W. Deem and Ramdas Pophale) SiO2 
 PCOD9250892
Probable space group: P 21/C
;
_chemical_formula_sum "Si O2"
_cell_formula_units_Z 26
_cell_length_a 19.966417
_cell_length_b 8.055907
_cell_length_c 9.295457
_cell_angle_alpha 90.000000
_cell_angle_beta 138.331432
_cell_angle_gamma 90.000000
_cell_volume 994.007889
_symmetry_space_group_name_H-M "P 21/C"
_symmetry_group_IT_number 14
_symmetry_cell_setting 'monoclinic'
loop_
_space_group_symop_operation_xyz
x,y,z
-x,1/2+y,1/2-z
-x,-y,-z
x,1/2-y,1/2+z
loop_
_atom_site_type_symbol
_atom_site_label
_atom_site_fract_x
_atom_site_fract_y
_atom_site_fract_z
Si Si1 0.730017 0.932545 0.911114
Si Si2 0.356742 0.568443 0.988220
Si Si3 0.988062 0.283145 0.226839
Si Si4 0.000000 0.000000 0.000000
Si Si5 0.681166 0.944779 0.270955
Si Si6 0.874554 0.945211 0.394377
Si Si7 0.561933 0.421993 0.347279
O O1 0.699488 0.741033 0.853171
O O2 0.732608 0.016947 0.760015
O O3 0.639122 0.026419 0.846705
O O4 0.832412 0.937377 0.165663
O O5 0.324595 0.560241 0.100958
O O6 0.447266 0.436105 0.115982
O O7 0.406369 0.744930 0.040024
O O8 0.959557 0.420988 0.062073
O O9 0.090331 0.230735 0.480629
O O10 0.937663 0.367923 0.289220
O O11 0.976221 0.119007 0.105920
O O12 0.774065 0.994952 0.319869
O O13 0.582934 0.953971 0.013615
#
# Coordination Sequence:
#
# PCOD9250892 Si02
#       7
#     4   4   4   2   4   4   4
#     4  11  24  45  70 107 149 195 247 314 384 456
#     4  12  23  44  74 105 153 194 256 302 377 461
#     4  10  24  52  75 112 145 207 261 331 402 490
#     4  10  24  48  82 112 150 194 270 330 404 484
#     4  11  24  46  69 108 146 199 242 318 379 459
#     4  10  25  49  74 105 152 192 258 316 410 466
#     4  11  24  44  70 109 147 205 247 303 372 464
#
# _framework density 26.156734
#
# number of rings (size 3 to 8) (size 9 to 14) (size 15 to 20)
#    0.000    1.231    0.000    5.538    4.308    2.462 
#   22.154    0.000    0.000    0.000    0.000    0.000 
#    0.000    0.000    0.000    0.000    0.000    0.000 
#
# Total GULP energy -144793.619189 kJ/mol
# GULP energy per Si atom -5568.985353 kJ/mol
# Density = 2.609720 g / cm^3
# Si number density = 26.156734 Si / 1000 Ang^3
#
#
#
# Elastic Constant Matrix: (Units=GPa)
#
#
# Indices 1 2 3 4 5 6 
#
# 1 51.8064 7.0236 23.8030 0.0000 7.8729 0.0000
# 2 7.0236 122.3144 58.0028 0.0000 1.0119 0.0000
# 3 23.8030 58.0028 205.8600 0.0000 -18.5580 0.0000
# 4 0.0000 0.0000 0.0000 41.9575 0.0000 -9.5605
# 5 7.8729 1.0119 -18.5580 0.0000 35.5250 0.0000
# 6 0.0000 0.0000 0.0000 -9.5605 0.0000 18.9587
#
#
#
# Elastic Compliance Matrix: (Units=1/GPa)
#
#
# Indices 1 2 3 4 5 6 
#
# 1 0.021708 0.000317 -0.003184 0.000000 -0.006483 0.000000
# 2 0.000317 0.009545 -0.002893 0.000000 -0.001853 0.000000
# 3 -0.003184 -0.002893 0.006414 0.000000 0.004139 0.000000
# 4 0.000000 0.000000 0.000000 0.026928 0.000000 0.013579
# 5 -0.006483 -0.001853 0.004139 0.000000 0.031801 0.000000
# 6 0.000000 0.000000 0.000000 0.013579 0.000000 0.059594
#
#
# Mechanical properties :
#
#
# Convention : Reuss Voigt Hill
#
# Bulk Modulus (GPa) = 38.24578 61.95994 50.10286
# Shear Modulus (GPa) = 28.37297 38.69834 33.53565
#
# Velocity S-wave (km/s) = 3.29710 3.85057 3.58453
# Velocity P-wave (km/s) = 5.39889 6.59610 6.02729
#
# Compressibility (1/GPa) = 0.02614668
#
# Stress axis : x y z
#
# Youngs Moduli (GPa) = 46.06668 104.77027 155.90864
#
# Poissons Ratio (x) = -0.03320 0.49637
# Poissons Ratio (y) = -0.01460 0.45105
# Poissons Ratio (z) = 0.14666 0.30310
#
# Static dielectric constant tensor:
#      x y z
#    x 1.992810 0.000000 -0.118130 
#    y 0.000000 2.046730 0.000000 
#    z -0.118130 0.000000 1.941980 
# 
# From -- ./inp_files/18762.got.cif
#   From: 2010.05.17/outbox.cif.g08.bks.cpg/sg14_10_cif.got.tgz:18762.got - 2010.06.03 17:49:19.
