data_PCOD9250110
_publ_section_title
;
Structure prediction by ZEFSAII (Michael W. Deem and Ramdas Pophale) SiO2 
 PCOD9250110
Probable space group: P 21/C
;
_chemical_formula_sum "Si O2"
_cell_formula_units_Z 16
_cell_length_a 4.862400
_cell_length_b 21.421730
_cell_length_c 5.691928
_cell_angle_alpha 90.000000
_cell_angle_beta 72.620147
_cell_angle_gamma 90.000000
_cell_volume 565.809475
_symmetry_space_group_name_H-M "P 21/C"
_symmetry_group_IT_number 14
_symmetry_cell_setting 'monoclinic'
loop_
_space_group_symop_operation_xyz
x,y,z
-x,1/2+y,1/2-z
-x,-y,-z
x,1/2-y,1/2+z
loop_
_atom_site_type_symbol
_atom_site_label
_atom_site_fract_x
_atom_site_fract_y
_atom_site_fract_z
Si Si1 0.604867 0.363763 0.449664
Si Si2 0.721511 0.041481 0.582874
Si Si3 0.578292 0.176693 0.453675
Si Si4 0.128075 0.225436 0.838807
O O1 0.455303 0.345618 0.728751
O O2 0.926148 0.337086 0.394538
O O3 0.617812 0.434992 0.366656
O O4 0.452242 0.326083 0.267578
O O5 0.752546 0.109290 0.455713
O O6 0.500000 0.000000 0.500000
O O7 0.000000 0.000000 0.500000
O O8 0.841587 0.226365 0.374014
O O9 0.266725 0.236385 0.534147
#
# Coordination Sequence:
#
# PCOD9250110 Si02
#       4
#     4   4   4   4
#     4  10  24  43  66 101 141 175 243 285 350 429
#     4  10  23  46  74 104 142 190 235 300 366 420
#     4  10  24  43  66 101 141 175 243 285 350 429
#     4  12  25  42  70  98 140 190 231 288 358 416
#
# _framework density 28.27807
#
# number of rings (size 3 to 8) (size 9 to 14) (size 15 to 20)
#    1.500    0.000    0.000    4.500    0.000    8.000 
#    0.000    0.000    0.000    0.000    0.000    0.000 
#    0.000    0.000    0.000    0.000    0.000    0.000 
#
# Total GULP energy -89447.900331 kJ/mol
# GULP energy per Si atom -5590.493771 kJ/mol
# Density = 2.821371 g / cm^3
# Si number density = 28.278070 Si / 1000 Ang^3
#
#
#
# Elastic Constant Matrix: (Units=GPa)
#
#
# Indices 1 2 3 4 5 6 
#
# 1 228.9088 59.9087 29.5246 0.0000 16.2231 0.0000
# 2 59.9087 178.5307 31.2614 0.0000 -5.8133 0.0000
# 3 29.5246 31.2614 136.0276 0.0000 16.6518 0.0000
# 4 0.0000 0.0000 0.0000 77.1715 0.0000 13.0811
# 5 16.2231 -5.8133 16.6518 0.0000 57.1216 0.0000
# 6 0.0000 0.0000 0.0000 13.0811 0.0000 58.6065
#
#
#
# Elastic Compliance Matrix: (Units=1/GPa)
#
#
# Indices 1 2 3 4 5 6 
#
# 1 0.004961 -0.001618 -0.000531 0.000000 -0.001419 0.000000
# 2 -0.001618 0.006422 -0.001308 0.000000 0.001494 0.000000
# 3 -0.000531 -0.001308 0.008052 0.000000 -0.002330 0.000000
# 4 0.000000 0.000000 0.000000 0.013468 0.000000 -0.003006
# 5 -0.001419 0.001494 -0.002330 0.000000 0.018741 0.000000
# 6 0.000000 0.000000 0.000000 -0.003006 0.000000 0.017734
#
#
# Mechanical properties :
#
#
# Convention : Reuss Voigt Hill
#
# Bulk Modulus (GPa) = 79.86124 87.20630 83.53377
# Shear Modulus (GPa) = 62.13873 66.76472 64.45172
#
# Velocity S-wave (km/s) = 4.69275 4.86429 4.77929
# Velocity P-wave (km/s) = 7.59376 7.90280 7.74982
#
# Compressibility (1/GPa) = 0.01252172
#
# Stress axis : x y z
#
# Youngs Moduli (GPa) = 201.56974 155.71914 124.18577
#
# Poissons Ratio (x) = 0.25194 0.06598
# Poissons Ratio (y) = 0.32613 0.16238
# Poissons Ratio (z) = 0.10709 0.20362
#
# Static dielectric constant tensor:
#      x y z
#    x 2.181370 0.000000 -0.066320 
#    y 0.000000 2.119060 0.000000 
#    z -0.066320 0.000000 2.474620 
# 
# From -- ./inp_files/276.got.cif
#   From: 2010.05.17/outbox.cif.g08.bks.cpg/sg14_1_cif.got.tgz:276.got - 2010.06.03 17:49:19.
