data_PCOD9250109
_publ_section_title
;
Structure prediction by ZEFSAII (Michael W. Deem and Ramdas Pophale) SiO2 
 PCOD9250109
Probable space group: P 21/C
;
_chemical_formula_sum "Si O2"
_cell_formula_units_Z 32
_cell_length_a 13.164511
_cell_length_b 10.418992
_cell_length_c 14.366962
_cell_angle_alpha 90.000000
_cell_angle_beta 38.664920
_cell_angle_gamma 90.000000
_cell_volume 1231.152555
_symmetry_space_group_name_H-M "P 21/C"
_symmetry_group_IT_number 14
_symmetry_cell_setting 'monoclinic'
loop_
_space_group_symop_operation_xyz
x,y,z
-x,1/2+y,1/2-z
-x,-y,-z
x,1/2-y,1/2+z
loop_
_atom_site_type_symbol
_atom_site_label
_atom_site_fract_x
_atom_site_fract_y
_atom_site_fract_z
Si Si1 0.380686 0.355281 0.694008
Si Si2 0.827569 0.204447 0.420005
Si Si3 0.267150 0.654443 0.337751
Si Si4 0.319495 0.341586 0.456330
Si Si5 0.960720 0.088586 0.151632
Si Si6 0.553553 0.485511 0.169273
Si Si7 0.835989 0.696113 0.773240
Si Si8 0.390375 0.617114 0.626166
O O1 0.398387 0.408515 0.785970
O O2 0.268208 0.238139 0.741880
O O3 0.300206 0.483005 0.703181
O O4 0.550701 0.330919 0.515734
O O5 0.715013 0.080790 0.516934
O O6 0.870682 0.197878 0.279682
O O7 0.751631 0.316835 0.539343
O O8 0.010543 0.207450 0.330803
O O9 0.100892 0.609971 0.408972
O O10 0.417082 0.560228 0.208183
O O11 0.310976 0.783849 0.252619
O O12 0.151049 0.397264 0.537639
O O13 0.446904 0.362306 0.281600
O O14 0.266842 0.220626 0.557696
O O15 0.433250 0.413135 0.450915
O O16 0.897333 0.948961 0.227172
#
# Coordination Sequence:
#
# PCOD9250109 Si02
#       8
#     4   4   4   4   4   4   4   4
#     4   9  19  41  69  98 141 193 228 292 362 417
#     4  11  26  48  70 110 144 194 245 301 362 438
#     4  12  26  46  72 110 148 183 252 300 364 438
#     4   9  20  47  69  98 145 196 232 291 362 429
#     4  11  27  48  73 105 147 196 233 305 372 432
#     4  11  24  42  73 104 145 193 251 296 354 431
#     4  10  23  46  73 108 149 190 246 296 372 440
#     4   9  19  42  70 100 136 190 240 287 357 436
#
# _framework density 25.991904999999999
#
# number of rings (size 3 to 8) (size 9 to 14) (size 15 to 20)
#    0.000    1.750    2.500    1.500    5.250    4.000 
#   18.000    0.000    0.000    0.000    0.000    0.000 
#    0.000    0.000    0.000    0.000    0.000    0.000 
#
# Total GULP energy -178392.246580 kJ/mol
# GULP energy per Si atom -5574.757706 kJ/mol
# Density = 2.593275 g / cm^3
# Si number density = 25.991905 Si / 1000 Ang^3
#
#
#
# Elastic Constant Matrix: (Units=GPa)
#
#
# Indices 1 2 3 4 5 6 
#
# 1 157.4361 22.5051 34.5547 0.0000 -4.0272 0.0000
# 2 22.5051 75.7832 18.0796 0.0000 -8.8758 0.0000
# 3 34.5547 18.0796 110.4558 0.0000 -8.4831 0.0000
# 4 0.0000 0.0000 0.0000 44.6782 0.0000 -7.9335
# 5 -4.0272 -8.8758 -8.4831 0.0000 33.2913 0.0000
# 6 0.0000 0.0000 0.0000 -7.9335 0.0000 27.7599
#
#
#
# Elastic Compliance Matrix: (Units=1/GPa)
#
#
# Indices 1 2 3 4 5 6 
#
# 1 0.007007 -0.001629 -0.001931 0.000000 -0.000079 0.000000
# 2 -0.001629 0.014442 -0.001605 0.000000 0.003244 0.000000
# 3 -0.001931 -0.001605 0.010066 0.000000 0.001904 0.000000
# 4 0.000000 0.000000 0.000000 0.023579 0.000000 0.006739
# 5 -0.000079 0.003244 0.001904 0.000000 0.031378 0.000000
# 6 0.000000 0.000000 0.000000 0.006739 0.000000 0.037949
#
#
# Mechanical properties :
#
#
# Convention : Reuss Voigt Hill
#
# Bulk Modulus (GPa) = 47.20516 54.88377 51.04447
# Shear Modulus (GPa) = 35.25740 39.04824 37.15282
#
# Velocity S-wave (km/s) = 3.68703 3.88019 3.78484
# Velocity P-wave (km/s) = 6.02715 6.42153 6.22746
#
# Compressibility (1/GPa) = 0.02118412
#
# Stress axis : x y z
#
# Youngs Moduli (GPa) = 142.72368 69.24120 99.33945
#
# Poissons Ratio (x) = 0.11281 0.19185
# Poissons Ratio (y) = 0.23253 0.15945
# Poissons Ratio (z) = 0.27564 0.11114
#
# Static dielectric constant tensor:
#      x y z
#    x 2.081110 0.000000 0.068230 
#    y 0.000000 2.125030 0.000000 
#    z 0.068230 0.000000 2.126230 
# 
# From -- ./inp_files/60675.got.cif
#   From: 2010.05.17/outbox.cif.g08.bks.cpg/sg14_31_cif.got.tgz:60675.got - 2010.06.03 17:49:19.
