data_PCOD9250280
_publ_section_title
;
Structure prediction by ZEFSAII (Michael W. Deem and Ramdas Pophale) SiO2 
 PCOD9250280
Probable space group: P 21/C
;
_chemical_formula_sum "Si O2"
_cell_formula_units_Z 20
_cell_length_a 11.032910
_cell_length_b 14.222230
_cell_length_c 11.486112
_cell_angle_alpha 90.000000
_cell_angle_beta 24.705400
_cell_angle_gamma 90.000000
_cell_volume 753.282628
_symmetry_space_group_name_H-M "P 21/C"
_symmetry_group_IT_number 14
_symmetry_cell_setting 'monoclinic'
loop_
_space_group_symop_operation_xyz
x,y,z
-x,1/2+y,1/2-z
-x,-y,-z
x,1/2-y,1/2+z
loop_
_atom_site_type_symbol
_atom_site_label
_atom_site_fract_x
_atom_site_fract_y
_atom_site_fract_z
Si Si1 0.869938 0.891176 0.397868
Si Si2 0.097298 0.315837 0.729741
Si Si3 0.690210 0.166923 0.801519
Si Si4 0.709887 0.473549 0.648072
Si Si5 0.621027 0.135104 0.467724
O O1 0.821993 0.782604 0.402658
O O2 0.562754 0.937723 0.690725
O O3 0.101681 0.895072 0.299434
O O4 0.007063 0.942053 0.166441
O O5 0.391196 0.369924 0.507425
O O6 0.579749 0.244591 0.474974
O O7 0.900409 0.297498 0.015177
O O8 0.882965 0.368433 0.830031
O O9 0.644843 0.580588 0.740838
O O10 0.686543 0.415727 0.788934
#
# Coordination Sequence:
#
# PCOD9250280 Si02
#       5
#     4   4   4   4   4
#     4  11  22  40  62  88 125 158 203 250 301 362
#     4  11  22  40  62  91 119 161 205 246 302 358
#     4  11  23  41  64  91 120 163 204 249 297 363
#     4  11  23  42  62  95 120 159 201 252 308 347
#     4  10  24  40  66  90 125 157 203 255 298 358
#
# _framework density 26.550459
#
# number of rings (size 3 to 8) (size 9 to 14) (size 15 to 20)
#    0.000    1.200    4.000    1.200    0.000   12.800 
#    0.000    6.000    0.000    0.000    0.000    0.000 
#    0.000    0.000    0.000    0.000    0.000    0.000 
#
# Total GULP energy -112255.126892 kJ/mol
# GULP energy per Si atom -5612.756345 kJ/mol
# Density = 2.649003 g / cm^3
# Si number density = 26.550459 Si / 1000 Ang^3
#
#
#
# Elastic Constant Matrix: (Units=GPa)
#
#
# Indices 1 2 3 4 5 6 
#
# 1 150.1927 13.5608 30.0177 0.0000 -39.3778 0.0000
# 2 13.5608 70.3045 6.7352 0.0000 0.5385 0.0000
# 3 30.0177 6.7352 94.6060 0.0000 -20.1740 0.0000
# 4 0.0000 0.0000 0.0000 32.7501 0.0000 -4.5359
# 5 -39.3778 0.5385 -20.1740 0.0000 52.2041 0.0000
# 6 0.0000 0.0000 0.0000 -4.5359 0.0000 25.3447
#
#
#
# Elastic Compliance Matrix: (Units=1/GPa)
#
#
# Indices 1 2 3 4 5 6 
#
# 1 0.008649 -0.001585 -0.001348 0.000000 0.006019 0.000000
# 2 -0.001585 0.014629 -0.000900 0.000000 -0.001694 0.000000
# 3 -0.001348 -0.000900 0.011821 0.000000 0.003561 0.000000
# 4 0.000000 0.000000 0.000000 0.031310 0.000000 0.005604
# 5 0.006019 -0.001694 0.003561 0.000000 0.025090 0.000000
# 6 0.000000 0.000000 0.000000 0.005604 0.000000 0.040459
#
#
# Mechanical properties :
#
#
# Convention : Reuss Voigt Hill
#
# Bulk Modulus (GPa) = 36.45216 46.19229 41.32223
# Shear Modulus (GPa) = 33.60952 39.71240 36.66096
#
# Velocity S-wave (km/s) = 3.56177 3.87167 3.71995
# Velocity P-wave (km/s) = 5.53842 6.11736 5.83508
#
# Compressibility (1/GPa) = 0.02743322
#
# Stress axis : x y z
#
# Youngs Moduli (GPa) = 115.62340 68.35834 84.59397
#
# Poissons Ratio (x) = 0.10836 0.11401
# Poissons Ratio (y) = 0.18329 0.07612
# Poissons Ratio (z) = 0.15583 0.06151
#
# Static dielectric constant tensor:
#      x y z
#    x 2.078510 0.000000 -0.020390 
#    y 0.000000 2.101460 0.000000 
#    z -0.020390 0.000000 1.994000 
# 
# From -- ./inp_files/20875.got.cif
#   From: 2010.05.17/outbox.cif.g08.bks.cpg/sg14_11_cif.got.tgz:20875.got - 2010.06.03 17:49:19.
