data_PCOD9250499
_publ_section_title
;
Structure prediction by ZEFSAII (Michael W. Deem and Ramdas Pophale) SiO2 
 PCOD9250499
Probable space group: P 21/C
;
_chemical_formula_sum "Si O2"
_cell_formula_units_Z 28
_cell_length_a 14.450716
_cell_length_b 11.760851
_cell_length_c 8.887532
_cell_angle_alpha 90.000000
_cell_angle_beta 130.300691
_cell_angle_gamma 90.000000
_cell_volume 1151.968389
_symmetry_space_group_name_H-M "P 21/C"
_symmetry_group_IT_number 14
_symmetry_cell_setting 'monoclinic'
loop_
_space_group_symop_operation_xyz
x,y,z
-x,1/2+y,1/2-z
-x,-y,-z
x,1/2-y,1/2+z
loop_
_atom_site_type_symbol
_atom_site_label
_atom_site_fract_x
_atom_site_fract_y
_atom_site_fract_z
Si Si1 0.908252 0.527592 0.215154
Si Si2 0.055846 0.614797 0.128204
Si Si3 0.435364 0.811207 0.692784
Si Si4 0.699690 0.609656 0.453246
Si Si5 0.073158 0.335825 0.475673
Si Si6 0.391139 0.912654 0.338277
Si Si7 0.715844 0.472352 0.769069
O O1 0.880190 0.583268 0.343154
O O2 0.024542 0.595587 0.270047
O O3 0.957480 0.399646 0.282814
O O4 0.793701 0.528030 0.985484
O O5 0.192447 0.617033 0.215800
O O6 0.975296 0.721366 0.002803
O O7 0.000000 0.500000 0.000000
O O8 0.576712 0.821102 0.798479
O O9 0.361910 0.848409 0.464821
O O10 0.418055 0.687712 0.747290
O O11 0.396055 0.905095 0.776467
O O12 0.819963 0.676826 0.532713
O O13 0.696087 0.497293 0.344476
O O14 0.694645 0.566052 0.619246
O O15 0.500000 0.000000 0.500000
#
# Coordination Sequence:
#
# PCOD9250499 Si02
#       7
#     4   4   4   4   4   4   4
#     4  10  24  43  68 104 141 194 244 302 371 434
#     4  10  24  44  66 102 143 185 241 296 363 441
#     4  11  24  46  74 105 147 201 238 311 373 436
#     4  11  24  46  75 109 147 191 245 309 373 455
#     4  11  24  45  72 104 146 190 245 306 373 441
#     4  10  24  48  69 107 149 189 256 294 368 449
#     4  11  23  44  73 106 149 188 251 301 370 448
#
# _framework density 24.306222999999999
#
# number of rings (size 3 to 8) (size 9 to 14) (size 15 to 20)
#    0.000    1.429    1.429    2.143    4.000    5.714 
#   25.714    0.000    0.000    0.000    0.000    0.000 
#    0.000    0.000    0.000    0.000    0.000    0.000 
#
# Total GULP energy -156537.812334 kJ/mol
# GULP energy per Si atom -5590.636155 kJ/mol
# Density = 2.425090 g / cm^3
# Si number density = 24.306223 Si / 1000 Ang^3
#
#
#
# Elastic Constant Matrix: (Units=GPa)
#
#
# Indices 1 2 3 4 5 6 
#
# 1 83.8932 14.1423 -5.4722 0.0000 -12.2973 0.0000
# 2 14.1423 72.9426 1.7865 0.0000 -7.7477 0.0000
# 3 -5.4722 1.7865 88.5222 0.0000 -14.2637 0.0000
# 4 0.0000 0.0000 0.0000 21.7952 0.0000 -15.9711
# 5 -12.2973 -7.7477 -14.2637 0.0000 30.7150 0.0000
# 6 0.0000 0.0000 0.0000 -15.9711 0.0000 30.4958
#
#
#
# Elastic Compliance Matrix: (Units=1/GPa)
#
#
# Indices 1 2 3 4 5 6 
#
# 1 0.013192 -0.002007 0.001757 0.000000 0.005592 0.000000
# 2 -0.002007 0.014400 0.000044 0.000000 0.002849 0.000000
# 3 0.001757 0.000044 0.012451 0.000000 0.006497 0.000000
# 4 0.000000 0.000000 0.000000 0.074455 0.000000 0.038993
# 5 0.005592 0.002849 0.006497 0.000000 0.038532 0.000000
# 6 0.000000 0.000000 0.000000 0.038993 0.000000 0.053213
#
#
# Mechanical properties :
#
#
# Convention : Reuss Voigt Hill
#
# Bulk Modulus (GPa) = 25.23163 29.58570 27.40866
# Shear Modulus (GPa) = 22.74118 32.26130 27.50124
#
# Velocity S-wave (km/s) = 3.06210 3.64715 3.36735
# Velocity P-wave (km/s) = 4.78593 5.47120 5.14000
#
# Compressibility (1/GPa) = 0.03963280
#
# Stress axis : x y z
#
# Youngs Moduli (GPa) = 75.80085 69.44404 80.31380
#
# Poissons Ratio (x) = 0.13937 -0.14111
# Poissons Ratio (y) = 0.15213 -0.00357
# Poissons Ratio (z) = -0.13318 -0.00309
#
# Static dielectric constant tensor:
#      x y z
#    x 1.974440 0.000000 -0.026750 
#    y 0.000000 1.975370 0.000000 
#    z -0.026750 0.000000 1.978970 
# 
# From -- ./inp_files/15629.got.cif
#   From: 2010.05.17/outbox.cif.g08.bks.cpg/sg14_8_cif.got.tgz:15629.got - 2010.06.03 17:49:19.
