data_PCOD9250501
_publ_section_title
;
Structure prediction by ZEFSAII (Michael W. Deem and Ramdas Pophale) SiO2 
 PCOD9250501
Probable space group: P 21/C
;
_chemical_formula_sum "Si O2"
_cell_formula_units_Z 20
_cell_length_a 5.507459
_cell_length_b 20.077207
_cell_length_c 9.133452
_cell_angle_alpha 90.000000
_cell_angle_beta 62.080749
_cell_angle_gamma 90.000000
_cell_volume 892.378988
_symmetry_space_group_name_H-M "P 21/C"
_symmetry_group_IT_number 14
_symmetry_cell_setting 'monoclinic'
loop_
_space_group_symop_operation_xyz
x,y,z
-x,1/2+y,1/2-z
-x,-y,-z
x,1/2-y,1/2+z
loop_
_atom_site_type_symbol
_atom_site_label
_atom_site_fract_x
_atom_site_fract_y
_atom_site_fract_z
Si Si1 0.016904 0.662862 0.672788
Si Si2 0.241910 0.776753 0.827935
Si Si3 0.802151 0.465203 0.941592
Si Si4 0.819844 0.484110 0.409275
Si Si5 0.459067 0.831429 0.478928
O O1 0.112913 0.723087 0.751797
O O2 0.026165 0.686456 0.498531
O O3 0.182673 0.594491 0.627547
O O4 0.735059 0.641655 0.829265
O O5 0.428995 0.819864 0.662678
O O6 0.414732 0.736009 0.899431
O O7 0.760118 0.388321 0.994353
O O8 0.001134 0.470903 0.748719
O O9 0.500000 0.500000 0.000000
O O10 0.000000 0.500000 0.000000
O O11 0.500000 0.500000 0.500000
O O12 0.000000 0.500000 0.500000
#
# Coordination Sequence:
#
# PCOD9250501 Si02
#       5
#     4   4   4   4   4
#     4  11  23  45  71 100 147 182 244 298 359 432
#     4  10  24  43  68 107 134 194 238 295 363 425
#     4  12  25  46  74 105 141 192 239 297 367 428
#     4  12  27  47  73 107 146 189 242 304 365 430
#     4  11  23  44  72  99 146 183 245 295 361 433
#
# _framework density 22.412002999999999
#
# number of rings (size 3 to 8) (size 9 to 14) (size 15 to 20)
#    0.000    0.800    2.000    4.800    2.800    0.000 
#   14.400    0.000    0.000    0.000    0.000    0.000 
#    0.000    0.000    0.000    0.000    0.000    0.000 
#
# Total GULP energy -111442.728074 kJ/mol
# GULP energy per Si atom -5572.136404 kJ/mol
# Density = 2.236099 g / cm^3
# Si number density = 22.412003 Si / 1000 Ang^3
#
#
#
# Elastic Constant Matrix: (Units=GPa)
#
#
# Indices 1 2 3 4 5 6 
#
# 1 104.8981 15.3293 68.1864 0.0000 -24.0640 0.0000
# 2 15.3293 87.0361 43.4258 0.0000 -23.3894 0.0000
# 3 68.1864 43.4258 214.3228 0.0000 -15.0177 0.0000
# 4 0.0000 0.0000 0.0000 13.8331 0.0000 -10.1500
# 5 -24.0640 -23.3894 -15.0177 0.0000 36.0697 0.0000
# 6 0.0000 0.0000 0.0000 -10.1500 0.0000 35.4657
#
#
#
# Elastic Compliance Matrix: (Units=1/GPa)
#
#
# Indices 1 2 3 4 5 6 
#
# 1 0.014051 0.002051 -0.004260 0.000000 0.008930 0.000000
# 2 0.002051 0.015356 -0.003059 0.000000 0.010052 0.000000
# 3 -0.004260 -0.003059 0.006492 0.000000 -0.002123 0.000000
# 4 0.000000 0.000000 0.000000 0.091506 0.000000 0.026189
# 5 0.008930 0.010052 -0.002123 0.000000 0.039316 0.000000
# 6 0.000000 0.000000 0.000000 0.026189 0.000000 0.035691
#
#
# Mechanical properties :
#
#
# Convention : Reuss Voigt Hill
#
# Bulk Modulus (GPa) = 39.42958 73.34890 56.38924
# Shear Modulus (GPa) = 22.58302 35.69473 29.13888
#
# Velocity S-wave (km/s) = 3.17776 3.99515 3.60967
# Velocity P-wave (km/s) = 5.57633 7.35392 6.52593
#
# Compressibility (1/GPa) = 0.02536167
#
# Stress axis : x y z
#
# Youngs Moduli (GPa) = 71.16827 65.12084 154.02734
#
# Poissons Ratio (x) = -0.13354 0.65617
# Poissons Ratio (y) = -0.14594 0.47124
# Poissons Ratio (z) = 0.30318 0.19924
#
# Static dielectric constant tensor:
#      x y z
#    x 1.795660 0.000000 -0.061160 
#    y 0.000000 1.883600 0.000000 
#    z -0.061160 0.000000 1.789740 
# 
# From -- ./inp_files/5852.got.cif
#   From: 2010.05.17/outbox.cif.g08.bks.cpg/sg14_3_cif.got.tgz:5852.got - 2010.06.03 17:49:19.
