data_PCOD9250743
_publ_section_title
;
Structure prediction by ZEFSAII (Michael W. Deem and Ramdas Pophale) SiO2 
 PCOD9250743
Probable space group: P 21/C
;
_chemical_formula_sum "Si O2"
_cell_formula_units_Z 28
_cell_length_a 8.721410
_cell_length_b 13.592414
_cell_length_c 14.329019
_cell_angle_alpha 90.000000
_cell_angle_beta 51.445563
_cell_angle_gamma 90.000000
_cell_volume 1328.359386
_symmetry_space_group_name_H-M "P 21/C"
_symmetry_group_IT_number 14
_symmetry_cell_setting 'monoclinic'
loop_
_space_group_symop_operation_xyz
x,y,z
-x,1/2+y,1/2-z
-x,-y,-z
x,1/2-y,1/2+z
loop_
_atom_site_type_symbol
_atom_site_label
_atom_site_fract_x
_atom_site_fract_y
_atom_site_fract_z
Si Si1 0.028796 0.769057 0.912916
Si Si2 0.923915 0.462169 0.127167
Si Si3 0.390311 0.863374 0.683622
Si Si4 0.189404 0.450166 0.194459
Si Si5 0.551493 0.909835 0.821115
Si Si6 0.352434 0.248818 0.056990
Si Si7 0.894000 0.075485 0.971687
O O1 0.086412 0.655518 0.879824
O O2 0.173568 0.829249 0.791909
O O3 0.811263 0.782897 0.956225
O O4 0.065172 0.815781 0.000956
O O5 0.720971 0.510208 0.238936
O O6 0.095431 0.488490 0.134713
O O7 0.000000 0.500000 0.000000
O O8 0.515348 0.860328 0.732359
O O9 0.472917 0.793311 0.571983
O O10 0.358525 0.976510 0.665527
O O11 0.272596 0.342579 0.143800
O O12 0.004242 0.438415 0.333274
O O13 0.607293 0.834786 0.882442
O O14 0.336604 0.947267 0.934459
O O15 0.000000 0.000000 0.000000
#
# Coordination Sequence:
#
# PCOD9250743 Si02
#       7
#     4   4   4   4   4   4   4
#     4  10  24  46  66  97 139 179 221 286 346 397
#     4  11  26  46  70 100 137 179 232 285 338 413
#     4  11  24  46  65 103 135 179 233 276 353 407
#     4  11  24  45  71  99 141 182 223 286 351 401
#     4  11  25  43  71 106 133 187 232 279 347 411
#     4  11  26  41  73 100 138 180 230 287 332 419
#     4  11  24  46  68  99 143 177 225 281 344 407
#
# _framework density 21.078633
#
# number of rings (size 3 to 8) (size 9 to 14) (size 15 to 20)
#    0.000    1.143    2.857    3.000    8.000    6.286 
#    0.000    0.000    0.000    0.000    0.000    0.000 
#    0.000    0.000    0.000    0.000    0.000    0.000 
#
# Total GULP energy -156465.236614 kJ/mol
# GULP energy per Si atom -5588.044165 kJ/mol
# Density = 2.103066 g / cm^3
# Si number density = 21.078633 Si / 1000 Ang^3
#
#
#
# Elastic Constant Matrix: (Units=GPa)
#
#
# Indices 1 2 3 4 5 6 
#
# 1 80.5025 37.6556 43.7455 0.0000 -8.0455 0.0000
# 2 37.6556 53.9697 25.0713 0.0000 -0.3966 0.0000
# 3 43.7455 25.0713 110.2370 0.0000 13.2911 0.0000
# 4 0.0000 0.0000 0.0000 36.5504 0.0000 -1.3795
# 5 -8.0455 -0.3966 13.2911 0.0000 30.3924 0.0000
# 6 0.0000 0.0000 0.0000 -1.3795 0.0000 30.7775
#
#
#
# Elastic Compliance Matrix: (Units=1/GPa)
#
#
# Indices 1 2 3 4 5 6 
#
# 1 0.023408 -0.012777 -0.007506 0.000000 0.009312 0.000000
# 2 -0.012777 0.027868 -0.000954 0.000000 -0.002601 0.000000
# 3 -0.007506 -0.000954 0.013204 0.000000 -0.007774 0.000000
# 4 0.000000 0.000000 0.000000 0.027406 0.000000 0.001228
# 5 0.009312 -0.002601 -0.007774 0.000000 0.038734 0.000000
# 6 0.000000 0.000000 0.000000 0.001228 0.000000 0.032546
#
#
# Mechanical properties :
#
#
# Convention : Reuss Voigt Hill
#
# Bulk Modulus (GPa) = 45.44195 50.85047 48.14621
# Shear Modulus (GPa) = 23.47698 28.75985 26.11841
#
# Velocity S-wave (km/s) = 3.34096 3.69780 3.52390
# Velocity P-wave (km/s) = 6.04051 6.51215 6.28076
#
# Compressibility (1/GPa) = 0.02200610
#
# Stress axis : x y z
#
# Youngs Moduli (GPa) = 42.72068 35.88396 75.73341
#
# Poissons Ratio (x) = 0.45848 0.56845
# Poissons Ratio (y) = 0.54583 0.07225
# Poissons Ratio (z) = 0.32066 0.03424
#
# Static dielectric constant tensor:
#      x y z
#    x 1.763920 0.000000 0.023090 
#    y 0.000000 1.976570 0.000000 
#    z 0.023090 0.000000 1.719330 
# 
# From -- ./inp_files/41131.got.cif
#   From: 2010.05.17/outbox.cif.g08.bks.cpg/sg14_21_cif.got.tgz:41131.got - 2010.06.03 17:49:19.
