data_PCOD9250113
_publ_section_title
;
Structure prediction by ZEFSAII (Michael W. Deem and Ramdas Pophale) SiO2 
 PCOD9250113
Probable space group: P 21/C
;
_chemical_formula_sum "Si O2"
_cell_formula_units_Z 22
_cell_length_a 6.729998
_cell_length_b 18.147794
_cell_length_c 8.170476
_cell_angle_alpha 90.000000
_cell_angle_beta 57.641919
_cell_angle_gamma 90.000000
_cell_volume 842.944089
_symmetry_space_group_name_H-M "P 21/C"
_symmetry_group_IT_number 14
_symmetry_cell_setting 'monoclinic'
loop_
_space_group_symop_operation_xyz
x,y,z
-x,1/2+y,1/2-z
-x,-y,-z
x,1/2-y,1/2+z
loop_
_atom_site_type_symbol
_atom_site_label
_atom_site_fract_x
_atom_site_fract_y
_atom_site_fract_z
Si Si1 0.399384 0.286957 0.764666
Si Si2 0.095671 0.085760 0.294815
Si Si3 0.000000 0.500000 0.500000
Si Si4 0.755757 0.122902 0.931628
Si Si5 0.294382 0.356691 0.153020
Si Si6 0.620399 0.456716 0.175929
O O1 0.196046 0.332326 0.759004
O O2 0.636246 0.306744 0.563741
O O3 0.344480 0.201277 0.775398
O O4 0.405752 0.320484 0.943403
O O5 0.834411 0.081235 0.482938
O O6 0.274359 0.037187 0.330917
O O7 0.085559 0.045408 0.127031
O O8 0.800319 0.436704 0.551719
O O9 0.606309 0.085510 0.854683
O O10 0.016968 0.136988 0.748532
O O11 0.386780 0.436686 0.174375
#
# Coordination Sequence:
#
# PCOD9250113 Si02
#       6
#     4   4   2   4   4   4
#     4  12  28  46  74 105 147 194 240 300 364 436
#     4  10  23  46  75 109 145 192 245 305 357 434
#     4  10  24  42  76 110 140 186 240 302 360 422
#     4  11  26  46  72 110 139 191 242 298 361 436
#     4  12  28  47  72 104 149 196 236 302 365 438
#     4  10  23  48  73 103 148 188 247 298 363 427
#
# _framework density 26.099003
#
# number of rings (size 3 to 8) (size 9 to 14) (size 15 to 20)
#    0.000    1.091    1.818    2.182   10.182    3.636 
#    0.000    0.000    0.000    0.000    0.000    0.000 
#    0.000    0.000    0.000    0.000    0.000    0.000 
#
# Total GULP energy -122909.903297 kJ/mol
# GULP energy per Si atom -5586.813786 kJ/mol
# Density = 2.603960 g / cm^3
# Si number density = 26.099003 Si / 1000 Ang^3
#
#
#
# Elastic Constant Matrix: (Units=GPa)
#
#
# Indices 1 2 3 4 5 6 
#
# 1 94.9388 7.6878 28.2438 0.0000 11.5371 0.0000
# 2 7.6878 98.5823 5.0132 0.0000 13.7668 0.0000
# 3 28.2438 5.0132 82.4154 0.0000 4.6109 0.0000
# 4 0.0000 0.0000 0.0000 27.3854 0.0000 6.2287
# 5 11.5371 13.7668 4.6109 0.0000 45.8325 0.0000
# 6 0.0000 0.0000 0.0000 6.2287 0.0000 50.6783
#
#
#
# Elastic Compliance Matrix: (Units=1/GPa)
#
#
# Indices 1 2 3 4 5 6 
#
# 1 0.012050 -0.000386 -0.003965 0.000000 -0.002518 0.000000
# 2 -0.000386 0.010618 -0.000342 0.000000 -0.003058 0.000000
# 3 -0.003965 -0.000342 0.013528 0.000000 -0.000260 0.000000
# 4 0.000000 0.000000 0.000000 0.037566 0.000000 -0.004617
# 5 -0.002518 -0.003058 -0.000260 0.000000 0.023397 0.000000
# 6 0.000000 0.000000 0.000000 -0.004617 0.000000 0.020300
#
#
# Mechanical properties :
#
#
# Convention : Reuss Voigt Hill
#
# Bulk Modulus (GPa) = 37.30178 39.75846 38.53012
# Shear Modulus (GPa) = 36.82343 40.44536 38.63440
#
# Velocity S-wave (km/s) = 3.76029 3.94088 3.85164
# Velocity P-wave (km/s) = 5.75990 5.99785 5.88008
#
# Compressibility (1/GPa) = 0.02680837
#
# Stress axis : x y z
#
# Youngs Moduli (GPa) = 82.98740 94.17646 73.92139
#
# Poissons Ratio (x) = 0.03639 0.29311
# Poissons Ratio (y) = 0.03207 0.02531
# Poissons Ratio (z) = 0.32906 0.03225
#
# Static dielectric constant tensor:
#      x y z
#    x 2.163410 0.000000 -0.310080 
#    y 0.000000 2.402670 0.000000 
#    z -0.310080 0.000000 2.460360 
# 
# From -- ./inp_files/5890.got.cif
#   From: 2010.05.17/outbox.cif.g08.bks.cpg/sg14_3_cif.got.tgz:5890.got - 2010.06.03 17:49:19.
