data_PCOD9250693
_publ_section_title
;
Structure prediction by ZEFSAII (Michael W. Deem and Ramdas Pophale) SiO2 
 PCOD9250693
Probable space group: P 21/C
;
_chemical_formula_sum "Si O2"
_cell_formula_units_Z 28
_cell_length_a 10.721362
_cell_length_b 22.446189
_cell_length_c 5.813646
_cell_angle_alpha 90.000000
_cell_angle_beta 62.159671
_cell_angle_gamma 90.000000
_cell_volume 1237.136000
_symmetry_space_group_name_H-M "P 21/C"
_symmetry_group_IT_number 14
_symmetry_cell_setting 'monoclinic'
loop_
_space_group_symop_operation_xyz
x,y,z
-x,1/2+y,1/2-z
-x,-y,-z
x,1/2-y,1/2+z
loop_
_atom_site_type_symbol
_atom_site_label
_atom_site_fract_x
_atom_site_fract_y
_atom_site_fract_z
Si Si1 0.230465 0.496373 0.826258
Si Si2 0.065721 0.059111 0.841296
Si Si3 0.836443 0.265653 0.316394
Si Si4 0.578521 0.063094 0.484566
Si Si5 0.314814 0.397882 0.445065
Si Si6 0.803806 0.106952 0.953921
Si Si7 0.164088 0.225402 0.096586
O O1 0.299881 0.539109 0.953609
O O2 0.334432 0.448378 0.623076
O O3 0.179643 0.543728 0.685627
O O4 0.113143 0.454830 0.041417
O O5 0.208754 0.074233 0.849386
O O6 0.948092 0.109543 0.978538
O O7 0.000000 0.000000 0.000000
O O8 0.775325 0.262172 0.632297
O O9 0.820280 0.336105 0.280329
O O10 0.994846 0.238974 0.221336
O O11 0.467216 0.107249 0.698707
O O12 0.658230 0.097531 0.212541
O O13 0.500000 0.000000 0.500000
O O14 0.230742 0.339323 0.593041
O O15 0.210557 0.239027 0.790245
#
# Coordination Sequence:
#
# PCOD9250693 Si02
#       7
#     4   4   4   4   4   4   4
#     4  12  24  39  71 106 146 184 235 289 376 442
#     4  12  22  39  61 107 143 172 233 291 364 431
#     4  10  24  45  70  99 139 186 243 300 361 416
#     4  12  24  47  63 108 151 186 229 284 377 448
#     4  12  26  42  74 100 143 192 234 301 355 440
#     4  12  26  42  71 104 143 187 230 306 366 437
#     4  10  24  46  70 102 135 188 248 303 352 414
#
# _framework density 22.632919999999999
#
# number of rings (size 3 to 8) (size 9 to 14) (size 15 to 20)
#    0.000    0.571    5.714    2.571    8.000    0.000 
#    0.000    1.429    0.000    0.000    0.000    0.000 
#    0.000    0.000    0.000    0.000    0.000    0.000 
#
# Total GULP energy -155977.432233 kJ/mol
# GULP energy per Si atom -5570.622580 kJ/mol
# Density = 2.258141 g / cm^3
# Si number density = 22.632920 Si / 1000 Ang^3
#
#
#
# Elastic Constant Matrix: (Units=GPa)
#
#
# Indices 1 2 3 4 5 6 
#
# 1 20.0121 1.5823 10.9041 0.0000 -12.9997 0.0000
# 2 1.5823 90.1613 12.9565 0.0000 -2.6208 0.0000
# 3 10.9041 12.9565 72.6764 0.0000 -7.6318 0.0000
# 4 0.0000 0.0000 0.0000 37.1334 0.0000 -2.6685
# 5 -12.9997 -2.6208 -7.6318 0.0000 44.5636 0.0000
# 6 0.0000 0.0000 0.0000 -2.6685 0.0000 17.9251
#
#
#
# Elastic Compliance Matrix: (Units=1/GPa)
#
#
# Indices 1 2 3 4 5 6 
#
# 1 0.065967 0.000528 -0.008113 0.000000 0.017885 0.000000
# 2 0.000528 0.011392 -0.002061 0.000000 0.000471 0.000000
# 3 -0.008113 -0.002061 0.015359 0.000000 0.000142 0.000000
# 4 0.000000 0.000000 0.000000 0.027221 0.000000 0.004052
# 5 0.017885 0.000471 0.000142 0.000000 0.027709 0.000000
# 6 0.000000 0.000000 0.000000 0.004052 0.000000 0.056391
#
#
# Mechanical properties :
#
#
# Convention : Reuss Voigt Hill
#
# Bulk Modulus (GPa) = 13.61922 25.97063 19.79493
# Shear Modulus (GPa) = 20.17707 30.41822 25.29764
#
# Velocity S-wave (km/s) = 2.98903 3.67001 3.34688
# Velocity P-wave (km/s) = 4.23590 5.42755 4.86832
#
# Compressibility (1/GPa) = 0.07342563
#
# Stress axis : x y z
#
# Youngs Moduli (GPa) = 15.15919 87.78256 65.10739
#
# Poissons Ratio (x) = -0.04636 0.52824
# Poissons Ratio (y) = -0.00801 0.13416
# Poissons Ratio (z) = 0.12299 0.18089
#
# Static dielectric constant tensor:
#      x y z
#    x 1.942050 0.000000 0.014590 
#    y 0.000000 1.883980 0.000000 
#    z 0.014590 0.000000 1.995530 
# 
# From -- ./inp_files/2922.got.cif
#   From: 2010.05.17/outbox.cif.g08.bks.cpg/sg14_2_cif.got.tgz:2922.got - 2010.06.03 17:49:19.
