data_PCOD9250279
_publ_section_title
;
Structure prediction by ZEFSAII (Michael W. Deem and Ramdas Pophale) SiO2 
 PCOD9250279
Probable space group: P 21/C
;
_chemical_formula_sum "Si O2"
_cell_formula_units_Z 12
_cell_length_a 7.439869
_cell_length_b 6.721478
_cell_length_c 15.256533
_cell_angle_alpha 90.000000
_cell_angle_beta 140.713067
_cell_angle_gamma 90.000000
_cell_volume 483.091980
_symmetry_space_group_name_H-M "P 21/C"
_symmetry_group_IT_number 14
_symmetry_cell_setting 'monoclinic'
loop_
_space_group_symop_operation_xyz
x,y,z
-x,1/2+y,1/2-z
-x,-y,-z
x,1/2-y,1/2+z
loop_
_atom_site_type_symbol
_atom_site_label
_atom_site_fract_x
_atom_site_fract_y
_atom_site_fract_z
Si Si1 0.879656 0.597123 0.605879
Si Si2 0.502856 0.820323 0.331324
Si Si3 0.309614 0.267373 0.787361
O O1 0.697186 0.666357 0.455226
O O2 0.719916 0.644520 0.635570
O O3 0.169296 0.727738 0.712406
O O4 0.006337 0.375117 0.652339
O O5 0.589870 0.836781 0.263047
O O6 0.514799 0.040767 0.378343
#
# Coordination Sequence:
#
# PCOD9250279 Si02
#       3
#     4   4   4
#     4  10  24  42  64  92 124 162 204 252 304 362
#     4  10  24  42  64  92 124 162 204 252 304 362
#     4  10  24  40  66  90 124 160 206 250 304 360
#
# _framework density 24.839988999999999
#
# number of rings (size 3 to 8) (size 9 to 14) (size 15 to 20)
#    2.000    0.000    0.000    2.000    4.667    5.333 
#    0.000    0.000    0.000    0.000    0.000    0.000 
#    0.000    0.000    0.000    0.000    0.000    0.000 
#
# Total GULP energy -67143.731965 kJ/mol
# GULP energy per Si atom -5595.310997 kJ/mol
# Density = 2.478345 g / cm^3
# Si number density = 24.839989 Si / 1000 Ang^3
#
#
#
# Elastic Constant Matrix: (Units=GPa)
#
#
# Indices 1 2 3 4 5 6 
#
# 1 155.4736 27.8112 14.8528 0.0000 -39.2110 0.0000
# 2 27.8112 63.0357 20.5926 0.0000 -3.7406 0.0000
# 3 14.8528 20.5926 103.4114 0.0000 -14.6563 0.0000
# 4 0.0000 0.0000 0.0000 25.7415 0.0000 -7.5058
# 5 -39.2110 -3.7406 -14.6563 0.0000 26.8642 0.0000
# 6 0.0000 0.0000 0.0000 -7.5058 0.0000 36.6622
#
#
#
# Elastic Compliance Matrix: (Units=1/GPa)
#
#
# Indices 1 2 3 4 5 6 
#
# 1 0.011322 -0.004540 0.001659 0.000000 0.016799 0.000000
# 2 -0.004540 0.018797 -0.003966 0.000000 -0.006174 0.000000
# 3 0.001659 -0.003966 0.011365 0.000000 0.008070 0.000000
# 4 0.000000 0.000000 0.000000 0.041314 0.000000 0.008458
# 5 0.016799 -0.006174 0.008070 0.000000 0.065287 0.000000
# 6 0.000000 0.000000 0.000000 0.008458 0.000000 0.029008
#
#
# Mechanical properties :
#
#
# Convention : Reuss Voigt Hill
#
# Bulk Modulus (GPa) = 35.98516 49.82598 42.90557
# Shear Modulus (GPa) = 24.99362 35.09785 30.04574
#
# Velocity S-wave (km/s) = 3.17548 3.76301 3.48166
# Velocity P-wave (km/s) = 5.28802 6.24361 5.78558
#
# Compressibility (1/GPa) = 0.02778923
#
# Stress axis : x y z
#
# Youngs Moduli (GPa) = 88.31994 53.20137 87.98735
#
# Poissons Ratio (x) = 0.24156 -0.14596
# Poissons Ratio (y) = 0.40102 0.34894
# Poissons Ratio (z) = -0.14651 0.21099
#
# Static dielectric constant tensor:
#      x y z
#    x 1.902400 0.000000 0.073930 
#    y 0.000000 2.049730 0.000000 
#    z 0.073930 0.000000 1.909200 
# 
# From -- ./inp_files/4837.got.cif
#   From: 2010.05.17/outbox.cif.g08.bks.cpg/sg14_3_cif.got.tgz:4837.got - 2010.06.03 17:49:19.
