data_PCOD9250372
_publ_section_title
;
Structure prediction by ZEFSAII (Michael W. Deem and Ramdas Pophale) SiO2 
 PCOD9250372
Probable space group: P 21/C
;
_chemical_formula_sum "Si O2"
_cell_formula_units_Z 28
_cell_length_a 11.275567
_cell_length_b 13.485250
_cell_length_c 8.182065
_cell_angle_alpha 90.000000
_cell_angle_beta 74.677488
_cell_angle_gamma 90.000000
_cell_volume 1199.890695
_symmetry_space_group_name_H-M "P 21/C"
_symmetry_group_IT_number 14
_symmetry_cell_setting 'monoclinic'
loop_
_space_group_symop_operation_xyz
x,y,z
-x,1/2+y,1/2-z
-x,-y,-z
x,1/2-y,1/2+z
loop_
_atom_site_type_symbol
_atom_site_label
_atom_site_fract_x
_atom_site_fract_y
_atom_site_fract_z
Si Si1 0.635501 0.199322 0.840837
Si Si2 0.804675 0.438003 0.065563
Si Si3 0.656059 0.097937 0.186257
Si Si4 0.400181 0.093499 0.395559
Si Si5 0.992436 0.540144 0.237251
Si Si6 0.382734 0.288333 0.237147
Si Si7 0.845925 0.580087 0.602954
O O1 0.736098 0.142663 0.697305
O O2 0.670449 0.315060 0.814610
O O3 0.502345 0.186732 0.803487
O O4 0.634808 0.155008 0.022472
O O5 0.699926 0.510409 0.033561
O O6 0.886176 0.506774 0.154731
O O7 0.902645 0.400601 0.897372
O O8 0.529639 0.046693 0.292487
O O9 0.765503 0.021374 0.120961
O O10 0.368146 0.169424 0.259162
O O11 0.406906 0.164835 0.550797
O O12 0.062638 0.441877 0.280013
O O13 0.930784 0.592444 0.413853
O O14 0.254759 0.335341 0.342033
#
# Coordination Sequence:
#
# PCOD9250372 Si02
#       7
#     4   4   4   4   4   4   4
#     4  11  24  40  66  97 125 160 204 258 317 372
#     4  11  23  44  66  88 129 165 208 256 310 357
#     4  11  24  40  66  97 125 160 204 258 317 372
#     4  11  24  40  66  97 125 160 204 258 317 372
#     4  10  24  42  64  90 122 170 216 252 290 376
#     4  11  24  40  66  97 125 160 204 258 317 372
#     4  11  23  44  66  88 129 165 208 256 310 357
#
# _framework density 23.335457999999999
#
# number of rings (size 3 to 8) (size 9 to 14) (size 15 to 20)
#    0.000    1.143    2.857    4.286    8.000    2.286 
#    0.000    8.571    0.000    0.000    0.000    0.000 
#    0.000    0.000    0.000    0.000    0.000    0.000 
#
# Total GULP energy -156730.285885 kJ/mol
# GULP energy per Si atom -5597.510210 kJ/mol
# Density = 2.328235 g / cm^3
# Si number density = 23.335458 Si / 1000 Ang^3
#
#
#
# Elastic Constant Matrix: (Units=GPa)
#
#
# Indices 1 2 3 4 5 6 
#
# 1 108.3075 19.7642 41.0115 0.0000 -20.7508 0.0000
# 2 19.7642 61.7850 10.2760 0.0000 -11.4439 0.0000
# 3 41.0115 10.2760 134.5489 0.0000 -38.5918 0.0000
# 4 0.0000 0.0000 0.0000 30.5386 0.0000 -9.0667
# 5 -20.7508 -11.4439 -38.5918 0.0000 46.1820 0.0000
# 6 0.0000 0.0000 0.0000 -9.0667 0.0000 14.8559
#
#
#
# Elastic Compliance Matrix: (Units=1/GPa)
#
#
# Indices 1 2 3 4 5 6 
#
# 1 0.011116 -0.002726 -0.002553 0.000000 0.002186 0.000000
# 2 -0.002726 0.017634 0.000508 0.000000 0.003569 0.000000
# 3 -0.002553 0.000508 0.010362 0.000000 0.007638 0.000000
# 4 0.000000 0.000000 0.000000 0.039992 0.000000 0.024408
# 5 0.002186 0.003569 0.007638 0.000000 0.029903 0.000000
# 6 0.000000 0.000000 0.000000 0.024408 0.000000 0.082210
#
#
# Mechanical properties :
#
#
# Convention : Reuss Voigt Hill
#
# Bulk Modulus (GPa) = 33.81897 49.63831 41.72864
# Shear Modulus (GPa) = 23.73989 33.88795 28.81392
#
# Velocity S-wave (km/s) = 3.19302 3.81492 3.51774
# Velocity P-wave (km/s) = 5.30263 6.38143 5.86688
#
# Compressibility (1/GPa) = 0.02956920
#
# Stress axis : x y z
#
# Youngs Moduli (GPa) = 89.96037 56.70895 96.50254
#
# Poissons Ratio (x) = 0.15461 0.24638
# Poissons Ratio (y) = 0.24527 -0.04902
# Poissons Ratio (z) = 0.22968 -0.02881
#
# Static dielectric constant tensor:
#      x y z
#    x 1.879190 0.000000 0.041750 
#    y 0.000000 1.854830 0.000000 
#    z 0.041750 0.000000 1.909740 
# 
# From -- ./inp_files/13039.got.cif
#   From: 2010.05.17/outbox.cif.g08.bks.cpg/sg14_7_cif.got.tgz:13039.got - 2010.06.03 17:49:19.
