data_PCOD9250803
_publ_section_title
;
Structure prediction by ZEFSAII (Michael W. Deem and Ramdas Pophale) SiO2 
 PCOD9250803
Probable space group: P 21/C
;
_chemical_formula_sum "Si O2"
_cell_formula_units_Z 20
_cell_length_a 11.133521
_cell_length_b 5.127621
_cell_length_c 19.067033
_cell_angle_alpha 90.000000
_cell_angle_beta 135.055262
_cell_angle_gamma 90.000000
_cell_volume 768.948559
_symmetry_space_group_name_H-M "P 21/C"
_symmetry_group_IT_number 14
_symmetry_cell_setting 'monoclinic'
loop_
_space_group_symop_operation_xyz
x,y,z
-x,1/2+y,1/2-z
-x,-y,-z
x,1/2-y,1/2+z
loop_
_atom_site_type_symbol
_atom_site_label
_atom_site_fract_x
_atom_site_fract_y
_atom_site_fract_z
Si Si1 0.595137 0.022709 0.818033
Si Si2 0.900499 0.520220 0.625976
Si Si3 0.919389 0.342209 0.901734
Si Si4 0.774576 0.773186 0.222860
Si Si5 0.431488 0.648970 0.540267
O O1 0.470415 0.263076 0.746343
O O2 0.783221 0.129916 0.875862
O O3 0.575951 0.974035 0.892982
O O4 0.842892 0.610349 0.678109
O O5 0.766086 0.289476 0.553409
O O6 0.915419 0.728248 0.570272
O O7 0.097076 0.455510 0.710256
O O8 0.815775 0.521679 0.802389
O O9 0.000000 0.500000 0.000000
O O10 0.586301 0.665895 0.126508
O O11 0.500000 0.500000 0.500000
#
# Coordination Sequence:
#
# PCOD9250803 Si02
#       5
#     4   4   4   4   4
#     4  12  27  50  77 111 157 202 252 320 388 454
#     4  11  24  45  74 106 150 197 259 312 386 464
#     4  12  27  42  76 109 146 200 255 320 389 451
#     4  11  22  47  70 104 149 200 247 319 383 459
#     4  10  24  46  74 109 150 201 259 307 390 461
#
# _framework density 26.009543000000001
#
# number of rings (size 3 to 8) (size 9 to 14) (size 15 to 20)
#    0.000    0.800    4.000    2.400    2.800    1.600 
#    0.000    2.000    0.000    0.000    0.000    0.000 
#    0.000    0.000    0.000    0.000    0.000    0.000 
#
# Total GULP energy -111629.295732 kJ/mol
# GULP energy per Si atom -5581.464787 kJ/mol
# Density = 2.595034 g / cm^3
# Si number density = 26.009543 Si / 1000 Ang^3
#
#
#
# Elastic Constant Matrix: (Units=GPa)
#
#
# Indices 1 2 3 4 5 6 
#
# 1 164.4566 43.0717 76.9775 0.0000 -31.4459 0.0000
# 2 43.0717 76.4606 38.9470 0.0000 5.3719 0.0000
# 3 76.9775 38.9470 125.3260 0.0000 -1.4706 0.0000
# 4 0.0000 0.0000 0.0000 30.5478 0.0000 11.8834
# 5 -31.4459 5.3719 -1.4706 0.0000 48.5578 0.0000
# 6 0.0000 0.0000 0.0000 11.8834 0.0000 32.2570
#
#
#
# Elastic Compliance Matrix: (Units=1/GPa)
#
#
# Indices 1 2 3 4 5 6 
#
# 1 0.011138 -0.003992 -0.005513 0.000000 0.007488 0.000000
# 2 -0.003992 0.017140 -0.002928 0.000000 -0.004570 0.000000
# 3 -0.005513 -0.002928 0.012241 0.000000 -0.002875 0.000000
# 4 0.000000 0.000000 0.000000 0.038212 0.000000 -0.014077
# 5 0.007488 -0.004570 -0.002875 0.000000 0.025862 0.000000
# 6 0.000000 0.000000 0.000000 -0.014077 0.000000 0.036187
#
#
# Mechanical properties :
#
#
# Convention : Reuss Voigt Hill
#
# Bulk Modulus (GPa) = 63.88339 76.02616 69.95477
# Shear Modulus (GPa) = 29.26287 36.08899 32.67593
#
# Velocity S-wave (km/s) = 3.35786 3.72900 3.54829
# Velocity P-wave (km/s) = 6.29671 6.91622 6.61372
#
# Compressibility (1/GPa) = 0.01565352
#
# Stress axis : x y z
#
# Youngs Moduli (GPa) = 89.77900 58.34245 81.68966
#
# Poissons Ratio (x) = 0.23293 0.45034
# Poissons Ratio (y) = 0.35844 0.23918
# Poissons Ratio (z) = 0.49494 0.17082
#
# Static dielectric constant tensor:
#      x y z
#    x 2.140090 0.000000 0.031810 
#    y 0.000000 2.125030 0.000000 
#    z 0.031810 0.000000 2.172790 
# 
# From -- ./inp_files/56652.got.cif
#   From: 2010.05.17/outbox.cif.g08.bks.cpg/sg14_29_cif.got.tgz:56652.got - 2010.06.03 17:49:19.
