data_PCOD9250893
_publ_section_title
;
Structure prediction by ZEFSAII (Michael W. Deem and Ramdas Pophale) SiO2 
 PCOD9250893
Probable space group: P 21/C
;
_chemical_formula_sum "Si O2"
_cell_formula_units_Z 20
_cell_length_a 6.834290
_cell_length_b 10.186802
_cell_length_c 12.877255
_cell_angle_alpha 90.000000
_cell_angle_beta 96.006167
_cell_angle_gamma 90.000000
_cell_volume 891.587554
_symmetry_space_group_name_H-M "P 21/C"
_symmetry_group_IT_number 14
_symmetry_cell_setting 'monoclinic'
loop_
_space_group_symop_operation_xyz
x,y,z
-x,1/2+y,1/2-z
-x,-y,-z
x,1/2-y,1/2+z
loop_
_atom_site_type_symbol
_atom_site_label
_atom_site_fract_x
_atom_site_fract_y
_atom_site_fract_z
Si Si1 0.783261 0.217585 0.602198
Si Si2 0.906231 0.400540 0.912297
Si Si3 0.866785 0.779561 0.223261
Si Si4 0.558814 0.585941 0.817051
Si Si5 0.615502 0.501652 0.613076
O O1 0.843120 0.217437 0.485208
O O2 0.602606 0.118033 0.607978
O O3 0.713208 0.360721 0.631041
O O4 0.953867 0.178121 0.692362
O O5 0.717284 0.475661 0.856648
O O6 0.057786 0.346229 0.835430
O O7 0.000000 0.500000 0.000000
O O8 0.682121 0.782156 0.292998
O O9 0.786671 0.888089 0.136841
O O10 0.474067 0.537898 0.702103
O O11 0.500000 0.500000 0.500000
#
# Coordination Sequence:
#
# PCOD9250893 Si02
#       5
#     4   4   4   4   4
#     4  12  25  46  73 103 145 186 246 301 361 438
#     4  12  24  45  73 106 137 195 239 294 370 423
#     4  10  24  49  67 103 145 186 240 294 358 435
#     4  10  25  46  69 105 144 190 239 297 362 435
#     4  10  25  45  68 108 138 190 237 293 373 411
#
# _framework density 22.431896999999999
#
# number of rings (size 3 to 8) (size 9 to 14) (size 15 to 20)
#    1.200    0.000    4.000    0.600    5.600    2.400 
#    0.000    0.000    0.000    0.000    0.000    0.000 
#    0.000    0.000    0.000    0.000    0.000    0.000 
#
# Total GULP energy -111512.118969 kJ/mol
# GULP energy per Si atom -5575.605948 kJ/mol
# Density = 2.238084 g / cm^3
# Si number density = 22.431897 Si / 1000 Ang^3
#
#
#
# Elastic Constant Matrix: (Units=GPa)
#
#
# Indices 1 2 3 4 5 6 
#
# 1 57.2204 12.1036 27.1735 0.0000 8.2285 0.0000
# 2 12.1036 54.4388 6.2760 0.0000 12.0483 0.0000
# 3 27.1735 6.2760 106.4469 0.0000 22.8444 0.0000
# 4 0.0000 0.0000 0.0000 43.3213 0.0000 -5.3756
# 5 8.2285 12.0483 22.8444 0.0000 42.6086 0.0000
# 6 0.0000 0.0000 0.0000 -5.3756 0.0000 27.9242
#
#
#
# Elastic Compliance Matrix: (Units=1/GPa)
#
#
# Indices 1 2 3 4 5 6 
#
# 1 0.020729 -0.003989 -0.005017 0.000000 -0.000185 0.000000
# 2 -0.003989 0.020363 0.001004 0.000000 -0.005526 0.000000
# 3 -0.005017 0.001004 0.011830 0.000000 -0.005658 0.000000
# 4 0.000000 0.000000 0.000000 0.023648 0.000000 0.004552
# 5 -0.000185 -0.005526 -0.005658 0.000000 0.028101 0.000000
# 6 0.000000 0.000000 0.000000 0.004552 0.000000 0.036688
#
#
# Mechanical properties :
#
#
# Convention : Reuss Voigt Hill
#
# Bulk Modulus (GPa) = 27.08718 34.35692 30.72205
# Shear Modulus (GPa) = 29.46889 34.27434 31.87162
#
# Velocity S-wave (km/s) = 3.62844 3.91311 3.77346
# Velocity P-wave (km/s) = 5.44570 5.98046 5.71933
#
# Compressibility (1/GPa) = 0.03691783
#
# Stress axis : x y z
#
# Youngs Moduli (GPa) = 48.24110 49.10748 84.53090
#
# Poissons Ratio (x) = 0.19591 0.42407
# Poissons Ratio (y) = 0.19245 -0.08484
# Poissons Ratio (z) = 0.24201 -0.04929
#
# Static dielectric constant tensor:
#      x y z
#    x 1.867030 0.000000 -0.020060 
#    y 0.000000 1.890830 0.000000 
#    z -0.020060 0.000000 1.834700 
# 
# From -- ./inp_files/36923.got.cif
#   From: 2010.05.17/outbox.cif.g08.bks.cpg/sg14_19_cif.got.tgz:36923.got - 2010.06.03 17:49:19.
