data_PCOD9250725
_publ_section_title
;
Structure prediction by ZEFSAII (Michael W. Deem and Ramdas Pophale) SiO2 
 PCOD9250725
Probable space group: P 21/C
;
_chemical_formula_sum "Si O2"
_cell_formula_units_Z 18
_cell_length_a 10.503468
_cell_length_b 4.926188
_cell_length_c 13.780834
_cell_angle_alpha 90.000000
_cell_angle_beta 63.196147
_cell_angle_gamma 90.000000
_cell_volume 636.435547
_symmetry_space_group_name_H-M "P 21/C"
_symmetry_group_IT_number 14
_symmetry_cell_setting 'monoclinic'
loop_
_space_group_symop_operation_xyz
x,y,z
-x,1/2+y,1/2-z
-x,-y,-z
x,1/2-y,1/2+z
loop_
_atom_site_type_symbol
_atom_site_label
_atom_site_fract_x
_atom_site_fract_y
_atom_site_fract_z
Si Si1 0.934570 0.731558 0.898129
Si Si2 0.485519 0.356672 0.322873
Si Si3 0.682837 0.982737 0.353087
Si Si4 0.500000 0.000000 0.000000
Si Si5 0.893760 0.743042 0.640561
O O1 0.812841 0.581865 0.879430
O O2 0.075360 0.544056 0.832351
O O3 0.900168 0.727549 0.023689
O O4 0.982102 0.040523 0.864976
O O5 0.530742 0.573553 0.227051
O O6 0.382764 0.461137 0.441786
O O7 0.610543 0.281841 0.365709
O O8 0.560576 0.778835 0.426082
O O9 0.749044 0.894292 0.226790
#
# Coordination Sequence:
#
# PCOD9250725 Si02
#       5
#     4   4   4   2   4
#     4  10  24  45  75 109 148 195 259 319 396 462
#     4  12  29  53  76 110 156 204 271 328 395 474
#     4  12  27  46  81 108 159 207 261 321 392 470
#     4  12  30  52  74 122 150 222 260 328 392 488
#     4  10  24  46  72 113 148 196 254 327 390 462
#
# _framework density 28.282520999999999
#
# number of rings (size 3 to 8) (size 9 to 14) (size 15 to 20)
#    0.000    0.889    2.222    2.000    9.333    0.000 
#    8.000    0.000    0.000    0.000    0.000    0.000 
#    0.000    0.000    0.000    0.000    0.000    0.000 
#
# Total GULP energy -100432.477253 kJ/mol
# GULP energy per Si atom -5579.582070 kJ/mol
# Density = 2.821815 g / cm^3
# Si number density = 28.282521 Si / 1000 Ang^3
#
#
#
# Elastic Constant Matrix: (Units=GPa)
#
#
# Indices 1 2 3 4 5 6 
#
# 1 91.0926 48.8216 11.6075 0.0000 0.8494 0.0000
# 2 48.8216 201.3480 24.4713 0.0000 9.0957 0.0000
# 3 11.6075 24.4713 147.8153 0.0000 32.4758 0.0000
# 4 0.0000 0.0000 0.0000 41.7787 0.0000 8.1979
# 5 0.8494 9.0957 32.4758 0.0000 50.1101 0.0000
# 6 0.0000 0.0000 0.0000 8.1979 0.0000 61.3412
#
#
#
# Elastic Compliance Matrix: (Units=1/GPa)
#
#
# Indices 1 2 3 4 5 6 
#
# 1 0.012678 -0.003028 -0.000662 0.000000 0.000764 0.000000
# 2 -0.003028 0.005800 -0.000586 0.000000 -0.000622 0.000000
# 3 -0.000662 -0.000586 0.008032 0.000000 -0.005088 0.000000
# 4 0.000000 0.000000 0.000000 0.024580 0.000000 -0.003285
# 5 0.000764 -0.000622 -0.005088 0.000000 0.023353 0.000000
# 6 0.000000 0.000000 0.000000 -0.003285 0.000000 0.016741
#
#
# Mechanical properties :
#
#
# Convention : Reuss Voigt Hill
#
# Bulk Modulus (GPa) = 55.68526 67.78409 61.73467
# Shear Modulus (GPa) = 47.29338 54.33637 50.81488
#
# Velocity S-wave (km/s) = 4.09366 4.38790 4.24333
# Velocity P-wave (km/s) = 6.48658 7.04914 6.77371
#
# Compressibility (1/GPa) = 0.01795807
#
# Stress axis : x y z
#
# Youngs Moduli (GPa) = 78.87664 172.41218 124.50177
#
# Poissons Ratio (x) = 0.52209 0.08243
# Poissons Ratio (y) = 0.23885 0.07293
# Poissons Ratio (z) = 0.05222 0.10100
#
# Static dielectric constant tensor:
#      x y z
#    x 2.534100 0.000000 0.207320 
#    y 0.000000 2.316930 0.000000 
#    z 0.207320 0.000000 3.412610 
# 
# From -- ./inp_files/42343.got.cif
#   From: 2010.05.17/outbox.cif.g08.bks.cpg/sg14_22_cif.got.tgz:42343.got - 2010.06.03 17:49:19.
