data_PCOD9250530
_publ_section_title
;
Structure prediction by ZEFSAII (Michael W. Deem and Ramdas Pophale) SiO2 
 PCOD9250530
Probable space group: P 21/C
;
_chemical_formula_sum "Si O2"
_cell_formula_units_Z 32
_cell_length_a 10.777930
_cell_length_b 13.491032
_cell_length_c 9.544898
_cell_angle_alpha 90.000000
_cell_angle_beta 71.302352
_cell_angle_gamma 90.000000
_cell_volume 1314.632179
_symmetry_space_group_name_H-M "P 21/C"
_symmetry_group_IT_number 14
_symmetry_cell_setting 'monoclinic'
loop_
_space_group_symop_operation_xyz
x,y,z
-x,1/2+y,1/2-z
-x,-y,-z
x,1/2-y,1/2+z
loop_
_atom_site_type_symbol
_atom_site_label
_atom_site_fract_x
_atom_site_fract_y
_atom_site_fract_z
Si Si1 0.111659 0.208124 0.112696
Si Si2 0.516895 0.149235 0.624834
Si Si3 0.857838 0.077753 0.124459
Si Si4 0.672117 0.240278 0.308548
Si Si5 0.897040 0.556162 0.865514
Si Si6 0.821360 0.063289 0.812768
Si Si7 0.657092 0.534622 0.154461
Si Si8 0.718868 0.745129 0.196763
O O1 0.090613 0.326434 0.117971
O O2 0.167034 0.195615 0.249614
O O3 0.986053 0.144031 0.116756
O O4 0.222483 0.195016 0.954238
O O5 0.600220 0.195886 0.469235
O O6 0.575394 0.198816 0.744121
O O7 0.367805 0.184484 0.673947
O O8 0.541614 0.032615 0.635374
O O9 0.737339 0.149914 0.202325
O O10 0.857196 0.983869 0.227101
O O11 0.850830 0.048415 0.965198
O O12 0.784953 0.320450 0.308225
O O13 0.049917 0.527257 0.817997
O O14 0.783392 0.517488 0.008494
O O15 0.698852 0.004977 0.792415
O O16 0.635448 0.651284 0.172603
#
# Coordination Sequence:
#
# PCOD9250530 Si02
#       8
#     4   4   4   4   4   4   4   4
#     4  11  25  43  67 100 141 179 224 271 346 407
#     4  11  23  46  69  95 132 179 239 276 327 403
#     4  12  23  41  68 103 140 173 220 280 342 404
#     4  11  22  40  68  98 131 175 221 282 337 389
#     4  11  22  40  66 101 139 180 219 272 343 414
#     4  11  22  39  64 105 141 171 219 280 337 411
#     4  10  24  43  70  99 133 184 230 271 344 402
#     4  11  25  48  67  96 136 186 222 287 333 393
#
# _framework density 24.341408999999999
#
# number of rings (size 3 to 8) (size 9 to 14) (size 15 to 20)
#    0.000    1.000    3.750    3.000    0.000    2.000 
#    2.250    8.750    0.000    0.000    0.000    0.000 
#    0.000    0.000    0.000    0.000    0.000    0.000 
#
# Total GULP energy -179121.954178 kJ/mol
# GULP energy per Si atom -5597.561068 kJ/mol
# Density = 2.428601 g / cm^3
# Si number density = 24.341409 Si / 1000 Ang^3
#
#
#
# Elastic Constant Matrix: (Units=GPa)
#
#
# Indices 1 2 3 4 5 6 
#
# 1 71.1632 22.9061 22.1863 0.0000 10.5329 0.0000
# 2 22.9061 63.4503 23.8914 0.0000 2.5075 0.0000
# 3 22.1863 23.8914 90.0310 0.0000 12.7910 0.0000
# 4 0.0000 0.0000 0.0000 34.1455 0.0000 -1.2540
# 5 10.5329 2.5075 12.7910 0.0000 41.2470 0.0000
# 6 0.0000 0.0000 0.0000 -1.2540 0.0000 33.7560
#
#
#
# Elastic Compliance Matrix: (Units=1/GPa)
#
#
# Indices 1 2 3 4 5 6 
#
# 1 0.016909 -0.005090 -0.002350 0.000000 -0.003280 0.000000
# 2 -0.005090 0.019048 -0.003997 0.000000 0.001381 0.000000
# 3 -0.002350 -0.003997 0.013209 0.000000 -0.003253 0.000000
# 4 0.000000 0.000000 0.000000 0.029326 0.000000 0.001089
# 5 -0.003280 0.001381 -0.003253 0.000000 0.026007 0.000000
# 6 0.000000 0.000000 0.000000 0.001089 0.000000 0.029665
#
#
# Mechanical properties :
#
#
# Convention : Reuss Voigt Hill
#
# Bulk Modulus (GPa) = 38.03324 40.29023 39.16174
# Shear Modulus (GPa) = 30.15661 32.20708 31.18185
#
# Velocity S-wave (km/s) = 3.52362 3.64144 3.58302
# Velocity P-wave (km/s) = 5.67568 5.85391 5.76548
#
# Compressibility (1/GPa) = 0.02629279
#
# Stress axis : x y z
#
# Youngs Moduli (GPa) = 59.14162 52.49873 75.70454
#
# Poissons Ratio (x) = 0.26720 0.17792
# Poissons Ratio (y) = 0.30101 0.30257
# Poissons Ratio (z) = 0.13900 0.20982
#
# Static dielectric constant tensor:
#      x y z
#    x 1.950330 0.000000 -0.001340 
#    y 0.000000 1.928550 0.000000 
#    z -0.001340 0.000000 1.905590 
# 
# From -- ./inp_files/13291.got.cif
#   From: 2010.05.17/outbox.cif.g08.bks.cpg/sg14_7_cif.got.tgz:13291.got - 2010.06.03 17:49:19.
