data_PCOD9250576
_publ_section_title
;
Structure prediction by ZEFSAII (Michael W. Deem and Ramdas Pophale) SiO2 
 PCOD9250576
Probable space group: P 21/C
;
_chemical_formula_sum "Si O2"
_cell_formula_units_Z 16
_cell_length_a 8.740049
_cell_length_b 6.977047
_cell_length_c 14.099501
_cell_angle_alpha 90.000000
_cell_angle_beta 56.590140
_cell_angle_gamma 90.000000
_cell_volume 717.707210
_symmetry_space_group_name_H-M "P 21/C"
_symmetry_group_IT_number 14
_symmetry_cell_setting 'monoclinic'
loop_
_space_group_symop_operation_xyz
x,y,z
-x,1/2+y,1/2-z
-x,-y,-z
x,1/2-y,1/2+z
loop_
_atom_site_type_symbol
_atom_site_label
_atom_site_fract_x
_atom_site_fract_y
_atom_site_fract_z
Si Si1 0.415074 0.294503 0.003513
Si Si2 0.247264 0.835438 0.212576
Si Si3 0.180208 0.395211 0.900487
Si Si4 0.860329 0.894871 0.247953
O O1 0.585804 0.159580 0.918903
O O2 0.299008 0.322129 0.947412
O O3 0.500000 0.500000 0.000000
O O4 0.276378 0.270363 0.138453
O O5 0.215381 0.608510 0.242601
O O6 0.054787 0.905928 0.234623
O O7 0.283096 0.953191 0.296508
O O8 0.121580 0.217380 0.855773
O O9 0.000000 0.500000 0.000000
#
# Coordination Sequence:
#
# PCOD9250576 Si02
#       4
#     4   4   4   4
#     4  10  24  44  67 101 137 173 228 280 327 405
#     4  11  23  43  70  99 138 178 222 277 334 397
#     4  12  24  45  70  97 140 178 224 279 333 400
#     4  11  23  47  67 100 136 180 221 276 341 396
#
# _framework density 22.293213000000002
#
# number of rings (size 3 to 8) (size 9 to 14) (size 15 to 20)
#    0.000    1.000    5.000    1.500    7.000    2.000 
#    0.000    0.000    0.000    0.000    0.000    0.000 
#    0.000    0.000    0.000    0.000    0.000    0.000 
#
# Total GULP energy -89504.504310 kJ/mol
# GULP energy per Si atom -5594.031519 kJ/mol
# Density = 2.224247 g / cm^3
# Si number density = 22.293213 Si / 1000 Ang^3
#
#
#
# Elastic Constant Matrix: (Units=GPa)
#
#
# Indices 1 2 3 4 5 6 
#
# 1 41.7511 -25.1376 7.8050 0.0000 -4.1232 0.0000
# 2 -25.1376 76.9543 12.8804 0.0000 -1.8110 0.0000
# 3 7.8050 12.8804 83.1558 0.0000 -7.0671 0.0000
# 4 0.0000 0.0000 0.0000 58.9547 0.0000 0.4465
# 5 -4.1232 -1.8110 -7.0671 0.0000 49.3479 0.0000
# 6 0.0000 0.0000 0.0000 0.4465 0.0000 28.7865
#
#
#
# Elastic Compliance Matrix: (Units=1/GPa)
#
#
# Indices 1 2 3 4 5 6 
#
# 1 0.031771 0.011190 -0.004510 0.000000 0.002419 0.000000
# 2 0.011190 0.017284 -0.003638 0.000000 0.001048 0.000000
# 3 -0.004510 -0.003638 0.013129 0.000000 0.001370 0.000000
# 4 0.000000 0.000000 0.000000 0.016964 0.000000 -0.000263
# 5 0.002419 0.001048 0.001370 0.000000 0.020701 0.000000
# 6 0.000000 0.000000 0.000000 -0.000263 0.000000 0.034743
#
#
# Mechanical properties :
#
#
# Convention : Reuss Voigt Hill
#
# Bulk Modulus (GPa) = 14.64844 21.43966 18.04405
# Shear Modulus (GPa) = 33.05507 41.17205 37.11356
#
# Velocity S-wave (km/s) = 3.85482 4.30215 4.08461
# Velocity P-wave (km/s) = 5.13789 5.85799 5.50971
#
# Compressibility (1/GPa) = 0.06826667
#
# Stress axis : x y z
#
# Youngs Moduli (GPa) = 31.47568 57.85841 76.16798
#
# Poissons Ratio (x) = -0.64742 0.34349
# Poissons Ratio (y) = -0.35221 0.27712
# Poissons Ratio (z) = 0.14194 0.21051
#
# Static dielectric constant tensor:
#      x y z
#    x 1.634890 0.000000 -0.059490 
#    y 0.000000 1.843310 0.000000 
#    z -0.059490 0.000000 1.832010 
# 
# From -- ./inp_files/22564.got.cif
#   From: 2010.05.17/outbox.cif.g08.bks.cpg/sg14_12_cif.got.tgz:22564.got - 2010.06.03 17:49:19.
