data_PCOD9250240
_publ_section_title
;
Structure prediction by ZEFSAII (Michael W. Deem and Ramdas Pophale) SiO2 
 PCOD9250240
Probable space group: P 21/C
;
_chemical_formula_sum "Si O2"
_cell_formula_units_Z 28
_cell_length_a 14.119677
_cell_length_b 4.972318
_cell_length_c 18.182355
_cell_angle_alpha 90.000000
_cell_angle_beta 58.850337
_cell_angle_gamma 90.000000
_cell_volume 1092.485635
_symmetry_space_group_name_H-M "P 21/C"
_symmetry_group_IT_number 14
_symmetry_cell_setting 'monoclinic'
loop_
_space_group_symop_operation_xyz
x,y,z
-x,1/2+y,1/2-z
-x,-y,-z
x,1/2-y,1/2+z
loop_
_atom_site_type_symbol
_atom_site_label
_atom_site_fract_x
_atom_site_fract_y
_atom_site_fract_z
Si Si1 0.500000 0.500000 0.500000
Si Si2 0.169763 0.336480 0.003927
Si Si3 0.219154 0.402939 0.193568
Si Si4 0.653568 0.136763 0.652637
Si Si5 0.847131 0.488046 0.621021
Si Si6 0.236209 0.593283 0.592767
Si Si7 0.576958 0.810625 0.817563
Si Si8 0.000000 0.000000 0.500000
O O1 0.369162 0.570532 0.532648
O O2 0.469010 0.502894 0.600517
O O3 0.283273 0.486753 0.939284
O O4 0.122076 0.252531 0.939406
O O5 0.186895 0.071092 0.043689
O O6 0.068114 0.530601 0.056903
O O7 0.151452 0.471728 0.293009
O O8 0.200386 0.100380 0.174511
O O9 0.347967 0.402323 0.168313
O O10 0.208620 0.605144 0.129319
O O11 0.651759 0.961099 0.727646
O O12 0.723302 0.402468 0.644168
O O13 0.527964 0.187104 0.681094
O O14 0.923309 0.250138 0.565344
#
# Coordination Sequence:
#
# PCOD9250240 Si02
#       8
#     2   4   4   4   4   4   4   2
#     4  10  24  38  64 100 146 200 236 294 356 434
#     4  11  25  46  71 104 134 187 242 314 357 447
#     4  11  25  45  68 101 152 191 232 291 374 441
#     4  11  24  39  69 102 140 193 247 300 350 436
#     4  11  22  47  73 100 136 183 243 306 375 441
#     4  11  27  42  69 102 149 193 237 293 364 438
#     4  11  23  41  66 104 148 198 249 294 361 448
#     4  10  26  44  80  98 132 170 252 302 384 422
#
# _framework density 25.629626999999999
#
# number of rings (size 3 to 8) (size 9 to 14) (size 15 to 20)
#    0.000    1.143    1.429    3.857   12.000    1.143 
#    0.000    1.429    0.000    0.000    0.000    0.000 
#    0.000    0.000    0.000    0.000    0.000    0.000 
#
# Total GULP energy -155916.577171 kJ/mol
# GULP energy per Si atom -5568.449185 kJ/mol
# Density = 2.557129 g / cm^3
# Si number density = 25.629627 Si / 1000 Ang^3
#
#
#
# Elastic Constant Matrix: (Units=GPa)
#
#
# Indices 1 2 3 4 5 6 
#
# 1 104.1412 8.2257 13.5416 0.0000 8.9758 0.0000
# 2 8.2257 89.1142 7.7464 0.0000 -5.0729 0.0000
# 3 13.5416 7.7464 58.8641 0.0000 16.3494 0.0000
# 4 0.0000 0.0000 0.0000 43.5173 0.0000 8.6146
# 5 8.9758 -5.0729 16.3494 0.0000 32.4697 0.0000
# 6 0.0000 0.0000 0.0000 8.6146 0.0000 37.6314
#
#
#
# Elastic Compliance Matrix: (Units=1/GPa)
#
#
# Indices 1 2 3 4 5 6 
#
# 1 0.010066 -0.000910 -0.001609 0.000000 -0.002115 0.000000
# 2 -0.000910 0.011680 -0.002214 0.000000 0.003191 0.000000
# 3 -0.001609 -0.002214 0.020488 0.000000 -0.010217 0.000000
# 4 0.000000 0.000000 0.000000 0.024070 0.000000 -0.005510
# 5 -0.002115 0.003191 -0.010217 0.000000 0.037026 0.000000
# 6 0.000000 0.000000 0.000000 -0.005510 0.000000 0.027835
#
#
# Mechanical properties :
#
#
# Convention : Reuss Voigt Hill
#
# Bulk Modulus (GPa) = 30.51731 34.57187 32.54459
# Shear Modulus (GPa) = 32.99222 37.56408 35.27815
#
# Velocity S-wave (km/s) = 3.59175 3.83253 3.71409
# Velocity P-wave (km/s) = 5.39757 5.75350 5.57837
#
# Compressibility (1/GPa) = 0.03276828
#
# Stress axis : x y z
#
# Youngs Moduli (GPa) = 99.34812 85.61908 48.81015
#
# Poissons Ratio (x) = 0.07788 0.07851
# Poissons Ratio (y) = 0.09037 0.10807
# Poissons Ratio (z) = 0.15980 0.18957
#
# Static dielectric constant tensor:
#      x y z
#    x 2.157050 0.000000 0.012500 
#    y 0.000000 2.066040 0.000000 
#    z 0.012500 0.000000 2.044860 
# 
# From -- ./inp_files/58569.got.cif
#   From: 2010.05.17/outbox.cif.g08.bks.cpg/sg14_30_cif.got.tgz:58569.got - 2010.06.03 17:49:19.
