data_PCOD9250486
_publ_section_title
;
Structure prediction by ZEFSAII (Michael W. Deem and Ramdas Pophale) SiO2 
 PCOD9250486
Probable space group: P 21/C
;
_chemical_formula_sum "Si O2"
_cell_formula_units_Z 28
_cell_length_a 7.199919
_cell_length_b 8.563685
_cell_length_c 16.823741
_cell_angle_alpha 90.000000
_cell_angle_beta 99.417075
_cell_angle_gamma 90.000000
_cell_volume 1023.336063
_symmetry_space_group_name_H-M "P 21/C"
_symmetry_group_IT_number 14
_symmetry_cell_setting 'monoclinic'
loop_
_space_group_symop_operation_xyz
x,y,z
-x,1/2+y,1/2-z
-x,-y,-z
x,1/2-y,1/2+z
loop_
_atom_site_type_symbol
_atom_site_label
_atom_site_fract_x
_atom_site_fract_y
_atom_site_fract_z
Si Si1 0.583125 0.167812 0.021523
Si Si2 0.116466 0.051878 0.197679
Si Si3 0.500000 0.500000 0.000000
Si Si4 0.943725 0.152449 0.946157
Si Si5 0.000000 0.500000 0.000000
Si Si6 0.346018 0.998496 0.655304
Si Si7 0.056422 0.609019 0.860022
Si Si8 0.523737 0.174975 0.194034
O O1 0.447009 0.314192 0.016880
O O2 0.638376 0.161701 0.120004
O O3 0.731874 0.177434 0.960794
O O4 0.500000 0.000000 0.000000
O O5 0.017758 0.219682 0.170374
O O6 0.333340 0.072433 0.185356
O O7 0.031943 0.908535 0.141218
O O8 0.104587 0.994691 0.287818
O O9 0.470968 0.547776 0.091794
O O10 0.037907 0.314197 0.975921
O O11 0.000000 0.000000 0.000000
O O12 0.183753 0.569829 0.945991
O O13 0.132219 0.031630 0.608172
O O14 0.437130 0.153407 0.698362
O O15 0.341768 0.873076 0.724644
#
# Coordination Sequence:
#
# PCOD9250486 Si02
#       8
#     4   4   2   4   2   4   4   4
#     4  11  24  45  74 104 141 193 238 302 358 427
#     4  11  24  48  68 105 143 189 237 306 354 439
#     4  10  24  44  68 102 144 180 238 292 354 426
#     4  12  26  45  74 106 150 188 246 299 359 443
#     4  12  26  46  72 110 140 200 236 298 366 432
#     4  10  24  43  67 100 137 182 229 299 349 429
#     4  11  25  44  70 100 145 185 247 292 364 428
#     4  10  24  43  68 101 138 180 238 288 366 418
#
# _framework density 27.361488000000001
#
# number of rings (size 3 to 8) (size 9 to 14) (size 15 to 20)
#    0.000    1.143    2.857    1.714    4.000    6.857 
#    0.000    0.000    0.000    0.000    0.000    0.000 
#    0.000    0.000    0.000    0.000    0.000    0.000 
#
# Total GULP energy -156081.583115 kJ/mol
# GULP energy per Si atom -5574.342254 kJ/mol
# Density = 2.729921 g / cm^3
# Si number density = 27.361488 Si / 1000 Ang^3
#
#
#
# Elastic Constant Matrix: (Units=GPa)
#
#
# Indices 1 2 3 4 5 6 
#
# 1 93.0156 16.2370 -3.4516 0.0000 -7.6949 0.0000
# 2 16.2370 215.0295 67.1275 0.0000 22.1595 0.0000
# 3 -3.4516 67.1275 192.8654 0.0000 -19.7182 0.0000
# 4 0.0000 0.0000 0.0000 67.9355 0.0000 1.3702
# 5 -7.6949 22.1595 -19.7182 0.0000 40.9264 0.0000
# 6 0.0000 0.0000 0.0000 1.3702 0.0000 41.3608
#
#
#
# Elastic Compliance Matrix: (Units=1/GPa)
#
#
# Indices 1 2 3 4 5 6 
#
# 1 0.011356 -0.001566 0.001108 0.000000 0.003517 0.000000
# 2 -0.001566 0.006098 -0.002648 0.000000 -0.004872 0.000000
# 3 0.001108 -0.002648 0.006621 0.000000 0.004832 0.000000
# 4 0.000000 0.000000 0.000000 0.014730 0.000000 -0.000488
# 5 0.003517 -0.004872 0.004832 0.000000 0.030061 0.000000
# 6 0.000000 0.000000 0.000000 -0.000488 0.000000 0.024194
#
#
# Mechanical properties :
#
#
# Convention : Reuss Voigt Hill
#
# Bulk Modulus (GPa) = 55.98600 73.41515 64.70057
# Shear Modulus (GPa) = 47.51691 58.11104 52.81397
#
# Velocity S-wave (km/s) = 4.17182 4.61350 4.39820
# Velocity P-wave (km/s) = 6.61146 7.43431 7.03493
#
# Compressibility (1/GPa) = 0.01786161
#
# Stress axis : x y z
#
# Youngs Moduli (GPa) = 88.05739 163.99908 151.04388
#
# Poissons Ratio (x) = 0.25678 -0.16732
# Poissons Ratio (y) = 0.13787 0.40003
# Poissons Ratio (z) = -0.09754 0.43434
#
# Static dielectric constant tensor:
#      x y z
#    x 2.768010 0.000000 -0.101650 
#    y 0.000000 -0.727480 0.000000 
#    z -0.101650 0.000000 2.419450 
# 
# From -- ./inp_files/54889.got.cif
#   From: 2010.05.17/outbox.cif.g08.bks.cpg/sg14_28_cif.got.tgz:54889.got - 2010.06.03 17:49:19.
