data_PCOD9250584
_publ_section_title
;
Structure prediction by ZEFSAII (Michael W. Deem and Ramdas Pophale) SiO2 
 PCOD9250584
Probable space group: P 21/C
;
_chemical_formula_sum "Si O2"
_cell_formula_units_Z 24
_cell_length_a 17.595635
_cell_length_b 8.594933
_cell_length_c 14.148113
_cell_angle_alpha 90.000000
_cell_angle_beta 31.450218
_cell_angle_gamma 90.000000
_cell_volume 1116.386808
_symmetry_space_group_name_H-M "P 21/C"
_symmetry_group_IT_number 14
_symmetry_cell_setting 'monoclinic'
loop_
_space_group_symop_operation_xyz
x,y,z
-x,1/2+y,1/2-z
-x,-y,-z
x,1/2-y,1/2+z
loop_
_atom_site_type_symbol
_atom_site_label
_atom_site_fract_x
_atom_site_fract_y
_atom_site_fract_z
Si Si1 0.959791 0.412965 0.384951
Si Si2 0.339660 0.590854 0.517034
Si Si3 0.552643 0.760092 0.417388
Si Si4 0.146550 0.322139 0.814231
Si Si5 0.382100 0.922166 0.751945
Si Si6 0.945672 0.231337 0.692952
O O1 0.065214 0.303637 0.334764
O O2 0.000357 0.592565 0.355350
O O3 0.788643 0.400193 0.592010
O O4 0.972421 0.358148 0.262860
O O5 0.473005 0.623450 0.444922
O O6 0.231891 0.449887 0.660698
O O7 0.392240 0.578689 0.354046
O O8 0.227096 0.734713 0.642495
O O9 0.720145 0.738973 0.264200
O O10 0.469356 0.789693 0.604026
O O11 0.551087 0.916160 0.356072
O O12 0.026738 0.356988 0.021942
#
# Coordination Sequence:
#
# PCOD9250584 Si02
#       6
#     4   4   4   4   4   4
#     4  11  23  44  68 101 133 181 231 278 345 395
#     4  11  26  44  67 102 135 180 229 280 343 406
#     4  11  25  43  67  98 138 179 226 279 346 407
#     4  12  25  42  72  99 137 176 227 287 342 404
#     4  10  24  44  67  96 137 180 226 279 337 415
#     4  11  24  43  69 100 133 178 228 285 332 408
#
# _framework density 21.497924999999999
#
# number of rings (size 3 to 8) (size 9 to 14) (size 15 to 20)
#    0.000    1.000    1.667    4.500    7.000    2.667 
#    0.000    0.000    0.000    0.000    0.000    0.000 
#    0.000    0.000    0.000    0.000    0.000    0.000 
#
# Total GULP energy -134114.359452 kJ/mol
# GULP energy per Si atom -5588.098311 kJ/mol
# Density = 2.144899 g / cm^3
# Si number density = 21.497925 Si / 1000 Ang^3
#
#
#
# Elastic Constant Matrix: (Units=GPa)
#
#
# Indices 1 2 3 4 5 6 
#
# 1 122.0685 35.4643 62.8003 0.0000 1.5097 0.0000
# 2 35.4643 56.6329 44.1954 0.0000 -2.0393 0.0000
# 3 62.8003 44.1954 111.0602 0.0000 30.8723 0.0000
# 4 0.0000 0.0000 0.0000 17.6259 0.0000 -3.3305
# 5 1.5097 -2.0393 30.8723 0.0000 39.2515 0.0000
# 6 0.0000 0.0000 0.0000 -3.3305 0.0000 28.9684
#
#
#
# Elastic Compliance Matrix: (Units=1/GPa)
#
#
# Indices 1 2 3 4 5 6 
#
# 1 0.012823 -0.001199 -0.008472 0.000000 0.006108 0.000000
# 2 -0.001199 0.031019 -0.015520 0.000000 0.013864 0.000000
# 3 -0.008472 -0.015520 0.025730 0.000000 -0.020717 0.000000
# 4 0.000000 0.000000 0.000000 0.057995 0.000000 0.006668
# 5 0.006108 0.013864 -0.020717 0.000000 0.042257 0.000000
# 6 0.000000 0.000000 0.000000 0.006668 0.000000 0.035287
#
#
# Mechanical properties :
#
#
# Convention : Reuss Voigt Hill
#
# Bulk Modulus (GPa) = 52.10826 63.85349 57.98088
# Shear Modulus (GPa) = 19.09210 26.98927 23.04069
#
# Velocity S-wave (km/s) = 2.98332 3.54706 3.27733
# Velocity P-wave (km/s) = 6.01318 6.82218 6.43041
#
# Compressibility (1/GPa) = 0.01919082
#
# Stress axis : x y z
#
# Youngs Moduli (GPa) = 77.98239 32.23838 38.86581
#
# Poissons Ratio (x) = 0.03865 0.32927
# Poissons Ratio (y) = 0.09350 0.60319
# Poissons Ratio (z) = 0.66066 0.50033
#
# Static dielectric constant tensor:
#      x y z
#    x 1.769160 0.000000 0.006600 
#    y 0.000000 1.810220 0.000000 
#    z 0.006600 0.000000 1.735080 
# 
# From -- ./inp_files/39045.got.cif
#   From: 2010.05.17/outbox.cif.g08.bks.cpg/sg14_20_cif.got.tgz:39045.got - 2010.06.03 17:49:19.
