data_PCOD9250986
_publ_section_title
;
Structure prediction by ZEFSAII (Michael W. Deem and Ramdas Pophale) SiO2 
 PCOD9250986
Probable space group: P 21/C
;
_chemical_formula_sum "Si O2"
_cell_formula_units_Z 24
_cell_length_a 19.633065
_cell_length_b 9.441850
_cell_length_c 10.439091
_cell_angle_alpha 90.000000
_cell_angle_beta 145.473204
_cell_angle_gamma 90.000000
_cell_volume 1096.809720
_symmetry_space_group_name_H-M "P 21/C"
_symmetry_group_IT_number 14
_symmetry_cell_setting 'monoclinic'
loop_
_space_group_symop_operation_xyz
x,y,z
-x,1/2+y,1/2-z
-x,-y,-z
x,1/2-y,1/2+z
loop_
_atom_site_type_symbol
_atom_site_label
_atom_site_fract_x
_atom_site_fract_y
_atom_site_fract_z
Si Si1 0.513862 0.876942 0.919538
Si Si2 0.274586 0.178646 0.252840
Si Si3 0.850204 0.963116 0.394886
Si Si4 0.290928 0.790803 0.692028
Si Si5 0.446829 0.555902 0.054419
Si Si6 0.122055 0.958648 0.854078
O O1 0.380487 0.809851 0.711061
O O2 0.540348 0.924510 0.814960
O O3 0.614795 0.771854 0.128457
O O4 0.500000 0.000000 0.000000
O O5 0.191775 0.300246 0.184740
O O6 0.348140 0.060837 0.446968
O O7 0.196287 0.086473 0.033710
O O8 0.758091 0.061405 0.330535
O O9 0.980696 0.966205 0.663676
O O10 0.863088 0.030034 0.274972
O O11 0.180640 0.687442 0.491418
O O12 0.377829 0.702060 0.920735
O O13 0.500000 0.500000 0.000000
#
# Coordination Sequence:
#
# PCOD9250986 Si02
#       6
#     4   4   4   4   4   4
#     4  12  26  39  67 102 133 175 222 276 343 411
#     4  11  25  40  69  96 137 172 223 281 339 406
#     4  11  23  43  70  92 134 179 235 276 339 398
#     4  11  23  43  65  96 136 173 220 283 336 407
#     4  11  26  42  64 100 140 178 220 276 341 412
#     4  10  25  44  65  98 129 184 229 284 332 400
#
# _framework density 21.881644000000001
#
# number of rings (size 3 to 8) (size 9 to 14) (size 15 to 20)
#    0.000    1.000    3.333    2.000    9.333    0.000 
#    0.000    0.000    0.000   11.000    0.000    0.000 
#    0.000    0.000    0.000    0.000    0.000    0.000 
#
# Total GULP energy -133991.763376 kJ/mol
# GULP energy per Si atom -5582.990141 kJ/mol
# Density = 2.183184 g / cm^3
# Si number density = 21.881644 Si / 1000 Ang^3
#
#
#
# Elastic Constant Matrix: (Units=GPa)
#
#
# Indices 1 2 3 4 5 6 
#
# 1 59.9629 11.5151 17.4585 0.0000 8.3378 0.0000
# 2 11.5151 98.6109 29.5901 0.0000 2.1221 0.0000
# 3 17.4585 29.5901 89.7452 0.0000 11.2325 0.0000
# 4 0.0000 0.0000 0.0000 22.0998 0.0000 10.3637
# 5 8.3378 2.1221 11.2325 0.0000 38.5610 0.0000
# 6 0.0000 0.0000 0.0000 10.3637 0.0000 20.6682
#
#
#
# Elastic Compliance Matrix: (Units=1/GPa)
#
#
# Indices 1 2 3 4 5 6 
#
# 1 0.018136 -0.001230 -0.002740 0.000000 -0.003056 0.000000
# 2 -0.001230 0.011346 -0.003588 0.000000 0.000687 0.000000
# 3 -0.002740 -0.003588 0.013243 0.000000 -0.003068 0.000000
# 4 0.000000 0.000000 0.000000 0.059161 0.000000 -0.029665
# 5 -0.003056 0.000687 -0.003068 0.000000 0.027449 0.000000
# 6 0.000000 0.000000 0.000000 -0.029665 0.000000 0.063259
#
#
# Mechanical properties :
#
#
# Convention : Reuss Voigt Hill
#
# Bulk Modulus (GPa) = 36.21956 40.60517 38.41236
# Shear Modulus (GPa) = 23.05083 28.91616 25.98349
#
# Velocity S-wave (km/s) = 3.24918 3.63916 3.44969
# Velocity P-wave (km/s) = 5.53757 6.02121 5.78445
#
# Compressibility (1/GPa) = 0.02760939
#
# Stress axis : x y z
#
# Youngs Moduli (GPa) = 55.13950 88.13478 75.51417
#
# Poissons Ratio (x) = 0.10839 0.20692
# Poissons Ratio (y) = 0.06781 0.27092
# Poissons Ratio (z) = 0.15109 0.31620
#
# Static dielectric constant tensor:
#      x y z
#    x 1.843650 0.000000 0.036720 
#    y 0.000000 1.832370 0.000000 
#    z 0.036720 0.000000 1.806710 
# 
# From -- ./inp_files/35782.got.cif
#   From: 2010.05.17/outbox.cif.g08.bks.cpg/sg14_18_cif.got.tgz:35782.got - 2010.06.03 17:49:19.
