data_PCOD9250429
_publ_section_title
;
Structure prediction by ZEFSAII (Michael W. Deem and Ramdas Pophale) SiO2 
 PCOD9250429
Probable space group: P 21/C
;
_chemical_formula_sum "Si O2"
_cell_formula_units_Z 22
_cell_length_a 8.326938
_cell_length_b 12.611073
_cell_length_c 16.468204
_cell_angle_alpha 90.000000
_cell_angle_beta 147.195664
_cell_angle_gamma 90.000000
_cell_volume 936.914631
_symmetry_space_group_name_H-M "P 21/C"
_symmetry_group_IT_number 14
_symmetry_cell_setting 'monoclinic'
loop_
_space_group_symop_operation_xyz
x,y,z
-x,1/2+y,1/2-z
-x,-y,-z
x,1/2-y,1/2+z
loop_
_atom_site_type_symbol
_atom_site_label
_atom_site_fract_x
_atom_site_fract_y
_atom_site_fract_z
Si Si1 0.861003 0.981683 0.318514
Si Si2 0.947552 0.735754 0.340786
Si Si3 0.550914 0.779897 0.022358
Si Si4 0.500000 0.000000 0.000000
Si Si5 0.484106 0.431912 0.075652
Si Si6 0.722338 0.959890 0.830595
O O1 0.959112 0.858412 0.371827
O O2 0.752375 0.990445 0.179603
O O3 0.581093 0.013157 0.253199
O O4 0.142233 0.054694 0.456735
O O5 0.772124 0.662965 0.328878
O O6 0.273178 0.686436 0.462968
O O7 0.788831 0.733713 0.185686
O O8 0.450322 0.688580 0.919544
O O9 0.628039 0.889094 0.013443
O O10 0.694886 0.480426 0.232759
O O11 0.500000 0.500000 0.000000
O O12 0.000000 0.000000 0.000000
#
# Coordination Sequence:
#
# PCOD9250429 Si02
#       6
#     4   4   4   2   4   4
#     4  11  25  45  74 104 149 185 246 293 365 434
#     4  11  22  44  68 100 140 193 225 304 366 418
#     4  11  23  41  74 101 143 187 245 292 355 431
#     4  10  24  42  70 110 138 190 242 294 354 428
#     4  12  24  46  75 106 140 193 244 290 358 433
#     4  12  27  44  71 108 149 187 241 301 362 427
#
# _framework density 23.481327
#
# number of rings (size 3 to 8) (size 9 to 14) (size 15 to 20)
#    0.000    0.727    3.636    3.818    2.545    1.455 
#    0.000    5.455    0.000    0.000    0.000    0.000 
#    0.000    0.000    0.000    0.000    0.000    0.000 
#
# Total GULP energy -122711.613710 kJ/mol
# GULP energy per Si atom -5577.800623 kJ/mol
# Density = 2.342788 g / cm^3
# Si number density = 23.481327 Si / 1000 Ang^3
#
#
#
# Elastic Constant Matrix: (Units=GPa)
#
#
# Indices 1 2 3 4 5 6 
#
# 1 80.8031 2.4839 26.3370 0.0000 12.6983 0.0000
# 2 2.4839 75.1707 4.1979 0.0000 -26.3578 0.0000
# 3 26.3370 4.1979 116.4361 0.0000 -10.5927 0.0000
# 4 0.0000 0.0000 0.0000 27.5750 0.0000 -9.4808
# 5 12.6983 -26.3578 -10.5927 0.0000 43.9351 0.0000
# 6 0.0000 0.0000 0.0000 -9.4808 0.0000 14.5623
#
#
#
# Elastic Compliance Matrix: (Units=1/GPa)
#
#
# Indices 1 2 3 4 5 6 
#
# 1 0.014787 -0.002657 -0.003867 0.000000 -0.006800 0.000000
# 2 -0.002657 0.017336 0.001014 0.000000 0.011413 0.000000
# 3 -0.003867 0.001014 0.009799 0.000000 0.004089 0.000000
# 4 0.000000 0.000000 0.000000 0.046723 0.000000 0.030419
# 5 -0.006800 0.011413 0.004089 0.000000 0.032559 0.000000
# 6 0.000000 0.000000 0.000000 0.030419 0.000000 0.088475
#
#
# Mechanical properties :
#
#
# Convention : Reuss Voigt Hill
#
# Bulk Modulus (GPa) = 32.36170 37.60528 34.98349
# Shear Modulus (GPa) = 21.64511 33.17390 27.40950
#
# Velocity S-wave (km/s) = 3.03941 3.76277 3.42027
# Velocity P-wave (km/s) = 5.11167 5.90996 5.52525
#
# Compressibility (1/GPa) = 0.03090072
#
# Stress axis : x y z
#
# Youngs Moduli (GPa) = 67.62861 57.68361 102.05539
#
# Poissons Ratio (x) = 0.15327 0.39470
# Poissons Ratio (y) = 0.17969 -0.10351
# Poissons Ratio (z) = 0.26155 -0.05851
#
# Static dielectric constant tensor:
#      x y z
#    x 1.904520 0.000000 0.046660 
#    y 0.000000 1.903860 0.000000 
#    z 0.046660 0.000000 1.844840 
# 
# From -- ./inp_files/56000.got.cif
#   From: 2010.05.17/outbox.cif.g08.bks.cpg/sg14_28_cif.got.tgz:56000.got - 2010.06.03 17:49:19.
