data_PCOD9250714
_publ_section_title
;
Structure prediction by ZEFSAII (Michael W. Deem and Ramdas Pophale) SiO2 
 PCOD9250714
Probable space group: P 21/C
;
_chemical_formula_sum "Si O2"
_cell_formula_units_Z 32
_cell_length_a 10.358779
_cell_length_b 17.936021
_cell_length_c 13.846647
_cell_angle_alpha 90.000000
_cell_angle_beta 148.806426
_cell_angle_gamma 90.000000
_cell_volume 1332.451037
_symmetry_space_group_name_H-M "P 21/C"
_symmetry_group_IT_number 14
_symmetry_cell_setting 'monoclinic'
loop_
_space_group_symop_operation_xyz
x,y,z
-x,1/2+y,1/2-z
-x,-y,-z
x,1/2-y,1/2+z
loop_
_atom_site_type_symbol
_atom_site_label
_atom_site_fract_x
_atom_site_fract_y
_atom_site_fract_z
Si Si1 0.761743 0.292985 0.253944
Si Si2 0.432944 0.861382 0.640509
Si Si3 0.005839 0.322163 0.022369
Si Si4 0.859834 0.430609 0.591299
Si Si5 0.915831 0.425876 0.249161
Si Si6 0.506122 0.202890 0.922100
Si Si7 0.270975 0.383159 0.000515
Si Si8 0.330164 0.994323 0.222501
O O1 0.960708 0.346735 0.328988
O O2 0.902077 0.259503 0.434335
O O3 0.653135 0.230997 0.110788
O O4 0.512601 0.335212 0.127342
O O5 0.274207 0.897965 0.452608
O O6 0.485212 0.775669 0.643710
O O7 0.243842 0.865188 0.608805
O O8 0.659735 0.918506 0.794888
O O9 0.213274 0.317943 0.238765
O O10 0.129099 0.350470 0.002120
O O11 0.640951 0.372050 0.472698
O O12 0.830330 0.449102 0.458864
O O13 0.869392 0.515551 0.641970
O O14 0.097047 0.392228 0.795264
O O15 0.760145 0.474107 0.228431
O O16 0.390666 0.461726 0.107475
#
# Coordination Sequence:
#
# PCOD9250714 Si02
#       8
#     4   4   4   4   4   4   4   4
#     4  10  25  43  72 103 136 192 237 292 352 419
#     4  11  26  45  71 108 137 186 242 289 352 426
#     4  12  25  46  68  99 150 187 232 293 354 421
#     4  12  24  45  72 107 139 189 232 295 362 414
#     4  10  24  45  73 104 138 178 240 296 348 413
#     4  11  26  44  70 104 143 185 235 296 358 418
#     4  11  24  45  69  99 147 179 235 297 351 417
#     4  11  24  46  71 104 136 187 236 292 355 419
#
# _framework density 24.015893999999999
#
# number of rings (size 3 to 8) (size 9 to 14) (size 15 to 20)
#    0.000    1.000    3.750    1.500    8.750    0.500 
#    2.250    1.250    0.000    0.000    0.000    0.000 
#    0.000    0.000    0.000    0.000    0.000    0.000 
#
# Total GULP energy -178655.429463 kJ/mol
# GULP energy per Si atom -5582.982171 kJ/mol
# Density = 2.396123 g / cm^3
# Si number density = 24.015894 Si / 1000 Ang^3
#
#
#
# Elastic Constant Matrix: (Units=GPa)
#
#
# Indices 1 2 3 4 5 6 
#
# 1 48.8738 14.4606 -0.3484 0.0000 1.8271 0.0000
# 2 14.4606 80.9876 18.9089 0.0000 4.7475 0.0000
# 3 -0.3484 18.9089 102.6553 0.0000 -0.9751 0.0000
# 4 0.0000 0.0000 0.0000 26.6305 0.0000 11.1437
# 5 1.8271 4.7475 -0.9751 0.0000 21.1972 0.0000
# 6 0.0000 0.0000 0.0000 11.1437 0.0000 26.4272
#
#
#
# Elastic Compliance Matrix: (Units=1/GPa)
#
#
# Indices 1 2 3 4 5 6 
#
# 1 0.021686 -0.004005 0.000802 0.000000 -0.000935 0.000000
# 2 -0.004005 0.013836 -0.002589 0.000000 -0.002873 0.000000
# 3 0.000802 -0.002589 0.010230 0.000000 0.000981 0.000000
# 4 0.000000 0.000000 0.000000 0.045597 0.000000 -0.019227
# 5 -0.000935 -0.002873 0.000981 0.000000 0.047945 0.000000
# 6 0.000000 0.000000 0.000000 -0.019227 0.000000 0.045947
#
#
# Mechanical properties :
#
#
# Convention : Reuss Voigt Hill
#
# Bulk Modulus (GPa) = 29.26629 33.17321 31.21975
# Shear Modulus (GPa) = 24.01371 28.15070 26.08221
#
# Velocity S-wave (km/s) = 3.16556 3.42741 3.29909
# Velocity P-wave (km/s) = 5.05705 5.43193 5.24784
#
# Compressibility (1/GPa) = 0.03416900
#
# Stress axis : x y z
#
# Youngs Moduli (GPa) = 46.11181 72.27741 97.74849
#
# Poissons Ratio (x) = 0.28945 -0.07843
# Poissons Ratio (y) = 0.18466 0.25311
# Poissons Ratio (z) = -0.03700 0.18715
#
# Static dielectric constant tensor:
#      x y z
#    x 1.918860 0.000000 0.005140 
#    y 0.000000 2.040040 0.000000 
#    z 0.005140 0.000000 1.947540 
# 
# From -- ./inp_files/45453.got.cif
#   From: 2010.05.17/outbox.cif.g08.bks.cpg/sg14_23_cif.got.tgz:45453.got - 2010.06.03 17:49:19.
