data_PCOD9250111
_publ_section_title
;
Structure prediction by ZEFSAII (Michael W. Deem and Ramdas Pophale) SiO2 
 PCOD9250111
Probable space group: P 21/C
;
_chemical_formula_sum "Si O2"
_cell_formula_units_Z 22
_cell_length_a 12.880678
_cell_length_b 5.073416
_cell_length_c 13.871803
_cell_angle_alpha 90.000000
_cell_angle_beta 113.940042
_cell_angle_gamma 90.000000
_cell_volume 828.522549
_symmetry_space_group_name_H-M "P 21/C"
_symmetry_group_IT_number 14
_symmetry_cell_setting 'monoclinic'
loop_
_space_group_symop_operation_xyz
x,y,z
-x,1/2+y,1/2-z
-x,-y,-z
x,1/2-y,1/2+z
loop_
_atom_site_type_symbol
_atom_site_label
_atom_site_fract_x
_atom_site_fract_y
_atom_site_fract_z
Si Si1 0.445942 0.024722 0.279769
Si Si2 0.243785 0.340813 0.158636
Si Si3 0.032006 0.175960 0.820283
Si Si4 0.274777 0.560248 0.377564
Si Si5 0.375595 0.068977 0.507743
Si Si6 0.000000 0.000000 0.500000
O O1 0.509232 0.288946 0.268635
O O2 0.313065 0.078311 0.214877
O O3 0.496736 0.975982 0.404687
O O4 0.268280 0.523721 0.260597
O O5 0.304297 0.423107 0.082261
O O6 0.111361 0.341678 0.086388
O O7 0.154327 0.037335 0.873519
O O8 0.959662 0.942505 0.742305
O O9 0.991472 0.285124 0.906933
O O10 0.306992 0.845879 0.425397
O O11 0.363802 0.353337 0.454734
#
# Coordination Sequence:
#
# PCOD9250111 Si02
#       6
#     4   4   4   4   4   2
#     4  10  23  46  74 107 149 193 247 306 364 443
#     4  11  26  47  75 113 143 199 248 301 373 440
#     4  12  27  51  71 109 151 194 249 305 366 445
#     4  12  26  46  75 110 146 192 252 304 365 451
#     4  11  25  48  75 106 151 193 240 313 370 430
#     4  12  26  48  78 110 144 208 230 316 374 436
#
# _framework density 26.553291999999999
#
# number of rings (size 3 to 8) (size 9 to 14) (size 15 to 20)
#    0.000    0.727    3.636    3.273    0.000    6.545 
#    0.000    0.000    0.000    0.000    0.000    0.000 
#    0.000    0.000    0.000    0.000    0.000    0.000 
#
# Total GULP energy -122862.555308 kJ/mol
# GULP energy per Si atom -5584.661605 kJ/mol
# Density = 2.649286 g / cm^3
# Si number density = 26.553292 Si / 1000 Ang^3
#
#
#
# Elastic Constant Matrix: (Units=GPa)
#
#
# Indices 1 2 3 4 5 6 
#
# 1 82.3412 36.7628 23.7873 0.0000 30.5733 0.0000
# 2 36.7628 120.6214 67.8953 0.0000 6.4096 0.0000
# 3 23.7873 67.8953 198.9407 0.0000 22.7452 0.0000
# 4 0.0000 0.0000 0.0000 53.1420 0.0000 5.9699
# 5 30.5733 6.4096 22.7452 0.0000 46.1960 0.0000
# 6 0.0000 0.0000 0.0000 5.9699 0.0000 36.7692
#
#
#
# Elastic Compliance Matrix: (Units=1/GPa)
#
#
# Indices 1 2 3 4 5 6 
#
# 1 0.018953 -0.005742 0.001098 0.000000 -0.012288 0.000000
# 2 -0.005742 0.012006 -0.003873 0.000000 0.004041 0.000000
# 3 0.001098 -0.003873 0.006611 0.000000 -0.003444 0.000000
# 4 0.000000 0.000000 0.000000 0.019167 0.000000 -0.003112
# 5 -0.012288 0.004041 -0.003444 0.000000 0.030914 0.000000
# 6 0.000000 0.000000 0.000000 -0.003112 0.000000 0.027702
#
#
# Mechanical properties :
#
#
# Convention : Reuss Voigt Hill
#
# Bulk Modulus (GPa) = 48.69269 73.19933 60.94601
# Shear Modulus (GPa) = 35.91148 45.45198 40.68173
#
# Velocity S-wave (km/s) = 3.68153 4.14179 3.91842
# Velocity P-wave (km/s) = 6.03731 7.10629 6.59350
#
# Compressibility (1/GPa) = 0.02053696
#
# Stress axis : x y z
#
# Youngs Moduli (GPa) = 52.76138 83.29495 151.26690
#
# Poissons Ratio (x) = 0.47826 -0.16612
# Poissons Ratio (y) = 0.30294 0.58582
# Poissons Ratio (z) = -0.05794 0.32258
#
# Static dielectric constant tensor:
#      x y z
#    x 2.274260 0.000000 -0.081820 
#    y 0.000000 2.017920 0.000000 
#    z -0.081820 0.000000 2.139470 
# 
# From -- ./inp_files/45999.got.cif
#   From: 2010.05.17/outbox.cif.g08.bks.cpg/sg14_23_cif.got.tgz:45999.got - 2010.06.03 17:49:19.
