data_PCOD9250665
_publ_section_title
;
Structure prediction by ZEFSAII (Michael W. Deem and Ramdas Pophale) SiO2 
 PCOD9250665
Probable space group: P 21/C
;
_chemical_formula_sum "Si O2"
_cell_formula_units_Z 20
_cell_length_a 5.328246
_cell_length_b 10.917929
_cell_length_c 15.647460
_cell_angle_alpha 90.000000
_cell_angle_beta 124.751598
_cell_angle_gamma 90.000000
_cell_volume 747.902907
_symmetry_space_group_name_H-M "P 21/C"
_symmetry_group_IT_number 14
_symmetry_cell_setting 'monoclinic'
loop_
_space_group_symop_operation_xyz
x,y,z
-x,1/2+y,1/2-z
-x,-y,-z
x,1/2-y,1/2+z
loop_
_atom_site_type_symbol
_atom_site_label
_atom_site_fract_x
_atom_site_fract_y
_atom_site_fract_z
Si Si1 0.084423 0.584308 0.751189
Si Si2 0.738296 0.275228 0.067942
Si Si3 0.821058 0.184026 0.903182
Si Si4 0.467431 0.548881 0.396897
Si Si5 0.335101 0.556133 0.085588
O O1 0.019677 0.664158 0.822202
O O2 0.002552 0.660412 0.650659
O O3 0.431322 0.540367 0.830350
O O4 0.872926 0.466634 0.704743
O O5 0.513193 0.193146 0.081456
O O6 0.894096 0.203129 0.018961
O O7 0.556503 0.380740 0.982401
O O8 0.679977 0.319656 0.860059
O O9 0.659742 0.049041 0.879912
O O10 0.500000 0.500000 0.500000
O O11 0.000000 0.500000 0.000000
#
# Coordination Sequence:
#
# PCOD9250665 Si02
#       5
#     4   4   4   4   4
#     4  12  25  41  77 101 143 199 232 299 377 424
#     4   9  24  45  67 104 148 183 248 303 352 440
#     4   9  25  45  67 102 144 188 242 299 359 431
#     4  10  24  45  67 102 145 183 248 299 354 437
#     4  10  25  45  69 104 147 184 248 298 361 440
#
# _framework density 26.741439
#
# number of rings (size 3 to 8) (size 9 to 14) (size 15 to 20)
#    1.200    0.800    0.000    0.600    8.400    6.400 
#    0.000    0.000    0.000    0.000    0.000    0.000 
#    0.000    0.000    0.000    0.000    0.000    0.000 
#
# Total GULP energy -111335.668442 kJ/mol
# GULP energy per Si atom -5566.783422 kJ/mol
# Density = 2.668057 g / cm^3
# Si number density = 26.741439 Si / 1000 Ang^3
#
#
#
# Elastic Constant Matrix: (Units=GPa)
#
#
# Indices 1 2 3 4 5 6 
#
# 1 59.5416 32.2037 53.7563 0.0000 -2.3093 0.0000
# 2 32.2037 155.6406 42.6580 0.0000 3.2746 0.0000
# 3 53.7563 42.6580 142.5170 0.0000 -12.4692 0.0000
# 4 0.0000 0.0000 0.0000 40.6289 0.0000 -11.4698
# 5 -2.3093 3.2746 -12.4692 0.0000 45.5510 0.0000
# 6 0.0000 0.0000 0.0000 -11.4698 0.0000 26.7928
#
#
#
# Elastic Compliance Matrix: (Units=1/GPa)
#
#
# Indices 1 2 3 4 5 6 
#
# 1 0.026745 -0.002969 -0.009285 0.000000 -0.000972 0.000000
# 2 -0.002969 0.007383 -0.001178 0.000000 -0.001004 0.000000
# 3 -0.009285 -0.001178 0.011104 0.000000 0.002653 0.000000
# 4 0.000000 0.000000 0.000000 0.027996 0.000000 0.011985
# 5 -0.000972 -0.001004 0.002653 0.000000 0.022703 0.000000
# 6 0.000000 0.000000 0.000000 0.011985 0.000000 0.042454
#
#
# Mechanical properties :
#
#
# Convention : Reuss Voigt Hill
#
# Bulk Modulus (GPa) = 54.43782 68.32613 61.38197
# Shear Modulus (GPa) = 29.17635 37.86660 33.52148
#
# Velocity S-wave (km/s) = 3.30669 3.76710 3.54438
# Velocity P-wave (km/s) = 5.91441 6.67289 6.30507
#
# Compressibility (1/GPa) = 0.01836958
#
# Stress axis : x y z
#
# Youngs Moduli (GPa) = 37.38950 135.44068 90.06123
#
# Poissons Ratio (x) = 0.40209 0.83619
# Poissons Ratio (y) = 0.11100 0.10609
# Poissons Ratio (z) = 0.34715 0.15955
#
# Static dielectric constant tensor:
#      x y z
#    x 2.198600 0.000000 0.073890 
#    y 0.000000 2.158330 0.000000 
#    z 0.073890 0.000000 2.083530 
# 
# From -- ./inp_files/52894.got.cif
#   From: 2010.05.17/outbox.cif.g08.bks.cpg/sg14_27_cif.got.tgz:52894.got - 2010.06.03 17:49:19.
