data_PCOD9250065
_publ_section_title
;
Structure prediction by ZEFSAII (Michael W. Deem and Ramdas Pophale) SiO2 
 PCOD9250065
Probable space group: P 21/C
;
_chemical_formula_sum "Si O2"
_cell_formula_units_Z 16
_cell_length_a 9.157607
_cell_length_b 12.976880
_cell_length_c 7.459443
_cell_angle_alpha 90.000000
_cell_angle_beta 34.621596
_cell_angle_gamma 90.000000
_cell_volume 503.645236
_symmetry_space_group_name_H-M "P 21/C"
_symmetry_group_IT_number 14
_symmetry_cell_setting 'monoclinic'
loop_
_space_group_symop_operation_xyz
x,y,z
-x,1/2+y,1/2-z
-x,-y,-z
x,1/2-y,1/2+z
loop_
_atom_site_type_symbol
_atom_site_label
_atom_site_fract_x
_atom_site_fract_y
_atom_site_fract_z
Si Si1 0.665616 0.900692 0.406054
Si Si2 0.405361 0.752948 0.908292
Si Si3 0.899221 0.888665 0.493287
Si Si4 0.033620 0.592006 0.206031
O O1 0.471615 0.806928 0.528144
O O2 0.643421 0.836228 0.641124
O O3 0.895546 0.880341 0.031322
O O4 0.500000 0.000000 0.500000
O O5 0.157341 0.828026 0.175003
O O6 0.294860 0.654385 0.913676
O O7 0.837146 0.854149 0.762103
O O8 0.862859 0.973687 0.355002
O O9 0.000000 0.000000 0.500000
#
# Coordination Sequence:
#
# PCOD9250065 Si02
#       4
#     4   4   4   4
#     4  10  23  46  67 110 146 189 254 299 362 463
#     4  10  24  44  70 110 145 188 252 302 371 439
#     4   9  24  47  75 114 139 195 262 288 376 457
#     4  11  22  50  79 100 156 195 235 329 358 428
#
# _framework density 31.768393
#
# number of rings (size 3 to 8) (size 9 to 14) (size 15 to 20)
#    1.500    0.500    0.000    2.250    0.000    5.000 
#    9.000   13.750    0.000    1.500    0.000    0.000 
#    0.000    0.000    0.000    0.000    0.000    0.000 
#
# Total GULP energy -89413.304953 kJ/mol
# GULP energy per Si atom -5588.331560 kJ/mol
# Density = 3.169609 g / cm^3
# Si number density = 31.768393 Si / 1000 Ang^3
#
#
#
# Elastic Constant Matrix: (Units=GPa)
#
#
# Indices 1 2 3 4 5 6 
#
# 1 376.5753 60.8658 78.4529 0.0000 -49.9953 0.0000
# 2 60.8658 306.3691 141.6639 0.0000 -14.7498 0.0000
# 3 78.4529 141.6639 258.7370 0.0000 -31.1792 0.0000
# 4 0.0000 0.0000 0.0000 -7.7685 0.0000 120.3485
# 5 -49.9953 -14.7498 -31.1792 0.0000 60.0812 0.0000
# 6 0.0000 0.0000 0.0000 120.3485 0.0000 -92.3126
#
#
#
# Elastic Compliance Matrix: (Units=1/GPa)
#
#
# Indices 1 2 3 4 5 6 
#
# 1 0.003106 -0.000266 -0.000525 0.000000 0.002247 0.000000
# 2 -0.000266 0.004395 -0.002371 0.000000 -0.000373 0.000000
# 3 -0.000525 -0.002371 0.005546 0.000000 0.001859 0.000000
# 4 0.000000 0.000000 0.000000 0.006706 0.000000 0.008742
# 5 0.002247 -0.000373 0.001859 0.000000 0.019387 0.000000
# 6 0.000000 0.000000 0.000000 0.008742 0.000000 0.000564
#
#
# Mechanical properties :
#
#
# Convention : Reuss Voigt Hill
#
# Bulk Modulus (GPa) = 148.73411 167.07186 157.90298
# Shear Modulus (GPa) = 103.58411 36.04661 69.81536
#
# Velocity S-wave (km/s) = 5.71636 3.37214 4.69298
# Velocity P-wave (km/s) = 9.51257 8.23811 8.89819
#
# Compressibility (1/GPa) = 0.00672341
#
# Stress axis : x y z
#
# Youngs Moduli (GPa) = 321.92949 227.52452 180.30104
#
# Poissons Ratio (x) = 0.06051 0.09475
# Poissons Ratio (y) = 0.08562 0.42744
# Poissons Ratio (z) = 0.16917 0.53939
#
# Static dielectric constant tensor:
#      x y z
#    x 2.147700 0.000000 -0.004290 
#    y 0.000000 2.556960 0.000000 
#    z -0.004290 0.000000 2.341710 
# 
# From -- ./inp_files/23671.got.cif
#   From: 2010.05.17/outbox.cif.g08.bks.cpg/sg14_12_cif.got.tgz:23671.got - 2010.06.03 17:49:19.
