data_PCOD9250575
_publ_section_title
;
Structure prediction by ZEFSAII (Michael W. Deem and Ramdas Pophale) SiO2 
 PCOD9250575
Probable space group: P 21/C
;
_chemical_formula_sum "Si O2"
_cell_formula_units_Z 18
_cell_length_a 18.050932
_cell_length_b 4.736192
_cell_length_c 10.189608
_cell_angle_alpha 90.000000
_cell_angle_beta 134.872979
_cell_angle_gamma 90.000000
_cell_volume 617.350892
_symmetry_space_group_name_H-M "P 21/C"
_symmetry_group_IT_number 14
_symmetry_cell_setting 'monoclinic'
loop_
_space_group_symop_operation_xyz
x,y,z
-x,1/2+y,1/2-z
-x,-y,-z
x,1/2-y,1/2+z
loop_
_atom_site_type_symbol
_atom_site_label
_atom_site_fract_x
_atom_site_fract_y
_atom_site_fract_z
Si Si1 0.060557 0.029376 0.381385
Si Si2 0.375311 0.166512 0.911988
Si Si3 0.000000 0.500000 0.500000
Si Si4 0.227112 0.951423 0.387139
Si Si5 0.599702 0.169318 0.741701
O O1 0.052485 0.222541 0.495136
O O2 0.173920 0.031983 0.460641
O O3 0.992679 0.214979 0.183645
O O4 0.281473 0.301396 0.874789
O O5 0.393438 0.353812 0.802507
O O6 0.368864 0.854878 0.846694
O O7 0.482813 0.225206 0.125781
O O8 0.122030 0.641884 0.682254
O O9 0.316832 0.734227 0.542346
#
# Coordination Sequence:
#
# PCOD9250575 Si02
#       5
#     4   4   2   4   4
#     4  10  24  44  67 100 142 188 236 286 349 421
#     4  10  24  45  68 100 137 180 234 292 345 413
#     4  10  24  44  68 102 142 180 228 288 350 422
#     4  11  24  43  74 104 142 188 236 290 357 428
#     4  10  24  44  67  98 138 181 232 288 350 412
#
# _framework density 29.156838
#
# number of rings (size 3 to 8) (size 9 to 14) (size 15 to 20)
#    0.000    1.778    0.000    1.333    0.000   24.889 
#    0.000    0.000    0.000    0.000    0.000    0.000 
#    0.000    0.000    0.000    0.000    0.000    0.000 
#
# Total GULP energy -100693.696836 kJ/mol
# GULP energy per Si atom -5594.094269 kJ/mol
# Density = 2.909048 g / cm^3
# Si number density = 29.156838 Si / 1000 Ang^3
#
#
#
# Elastic Constant Matrix: (Units=GPa)
#
#
# Indices 1 2 3 4 5 6 
#
# 1 120.9246 6.8924 36.2609 0.0000 31.9935 0.0000
# 2 6.8924 137.8530 25.4554 0.0000 -6.2067 0.0000
# 3 36.2609 25.4554 206.2531 0.0000 40.5459 0.0000
# 4 0.0000 0.0000 0.0000 46.2500 0.0000 2.5555
# 5 31.9935 -6.2067 40.5459 0.0000 52.6449 0.0000
# 6 0.0000 0.0000 0.0000 2.5555 0.0000 33.3530
#
#
#
# Elastic Compliance Matrix: (Units=1/GPa)
#
#
# Indices 1 2 3 4 5 6 
#
# 1 0.009986 -0.000655 -0.000550 0.000000 -0.005722 0.000000
# 2 -0.000655 0.007625 -0.001274 0.000000 0.002278 0.000000
# 3 -0.000550 -0.001274 0.005970 0.000000 -0.004414 0.000000
# 4 0.000000 0.000000 0.000000 0.021714 0.000000 -0.001664
# 5 -0.005722 0.002278 -0.004414 0.000000 0.026141 0.000000
# 6 0.000000 0.000000 0.000000 -0.001664 0.000000 0.030110
#
#
# Mechanical properties :
#
#
# Convention : Reuss Voigt Hill
#
# Bulk Modulus (GPa) = 53.69748 66.91643 60.30696
# Shear Modulus (GPa) = 44.36163 52.87772 48.61968
#
# Velocity S-wave (km/s) = 3.90485 4.26321 4.08796
# Velocity P-wave (km/s) = 6.22794 6.87267 6.55823
#
# Compressibility (1/GPa) = 0.01862285
#
# Stress axis : x y z
#
# Youngs Moduli (GPa) = 100.14173 131.15384 167.50492
#
# Poissons Ratio (x) = 0.08596 0.09209
# Poissons Ratio (y) = 0.06563 0.21334
# Poissons Ratio (z) = 0.05505 0.16704
#
# Static dielectric constant tensor:
#      x y z
#    x 2.240710 0.000000 -0.146560 
#    y 0.000000 2.161480 0.000000 
#    z -0.146560 0.000000 2.303130 
# 
# From -- ./inp_files/34504.got.cif
#   From: 2010.05.17/outbox.cif.g08.bks.cpg/sg14_18_cif.got.tgz:34504.got - 2010.06.03 17:49:19.
