data_PCOD9250415
_publ_section_title
;
Structure prediction by ZEFSAII (Michael W. Deem and Ramdas Pophale) SiO2 
 PCOD9250415
Probable space group: P 21/C
;
_chemical_formula_sum "Si O2"
_cell_formula_units_Z 28
_cell_length_a 27.679266
_cell_length_b 5.141051
_cell_length_c 8.755845
_cell_angle_alpha 90.000000
_cell_angle_beta 75.634240
_cell_angle_gamma 90.000000
_cell_volume 1207.002071
_symmetry_space_group_name_H-M "P 21/C"
_symmetry_group_IT_number 14
_symmetry_cell_setting 'monoclinic'
loop_
_space_group_symop_operation_xyz
x,y,z
-x,1/2+y,1/2-z
-x,-y,-z
x,1/2-y,1/2+z
loop_
_atom_site_type_symbol
_atom_site_label
_atom_site_fract_x
_atom_site_fract_y
_atom_site_fract_z
Si Si1 0.363839 0.569829 0.388102
Si Si2 0.327257 0.413157 0.744949
Si Si3 0.480510 0.588550 0.350061
Si Si4 0.127328 0.425000 0.515070
Si Si5 0.782903 0.935826 0.564883
Si Si6 0.016765 0.129985 0.147872
Si Si7 0.831991 0.286999 0.784787
O O1 0.333740 0.481435 0.562357
O O2 0.343679 0.834621 0.329392
O O3 0.420841 0.607436 0.393891
O O4 0.359379 0.336806 0.268912
O O5 0.270339 0.350903 0.834679
O O6 0.502827 0.864601 0.281488
O O7 0.500000 0.500000 0.500000
O O8 0.178790 0.284248 0.515457
O O9 0.074829 0.293336 0.581487
O O10 0.130008 0.672814 0.622530
O O11 0.136862 0.501544 0.333331
O O12 0.811364 0.088158 0.676445
O O13 0.783397 0.115083 0.414609
O O14 0.010358 0.893871 0.275455
O O15 0.000000 0.000000 0.000000
#
# Coordination Sequence:
#
# PCOD9250415 Si02
#       7
#     4   4   4   4   4   4   4
#     4  12  26  48  70 109 147 190 236 304 357 424
#     4  12  28  45  73 101 152 187 239 291 372 422
#     4  12  25  45  76 105 143 190 248 295 356 424
#     4  11  25  43  73  98 140 177 239 281 349 423
#     4  11  25  42  70  98 136 185 233 282 348 424
#     4  12  29  49  76 108 146 187 235 297 370 425
#     4  10  24  42  68  99 134 174 237 282 341 405
#
# _framework density 23.197973000000001
#
# number of rings (size 3 to 8) (size 9 to 14) (size 15 to 20)
#    0.000    0.571    0.000    6.857   16.000    0.000 
#    0.000    0.000    0.000    0.000    0.000    0.000 
#    0.000    0.000    0.000    0.000    0.000    0.000 
#
# Total GULP energy -156743.664441 kJ/mol
# GULP energy per Si atom -5597.988016 kJ/mol
# Density = 2.314517 g / cm^3
# Si number density = 23.197973 Si / 1000 Ang^3
#
#
#
# Elastic Constant Matrix: (Units=GPa)
#
#
# Indices 1 2 3 4 5 6 
#
# 1 68.8286 13.9226 2.8171 0.0000 -17.6020 0.0000
# 2 13.9226 74.3927 6.1256 0.0000 -0.9939 0.0000
# 3 2.8171 6.1256 84.4441 0.0000 -1.3745 0.0000
# 4 0.0000 0.0000 0.0000 33.5581 0.0000 3.4340
# 5 -17.6020 -0.9939 -1.3745 0.0000 33.7022 0.0000
# 6 0.0000 0.0000 0.0000 3.4340 0.0000 36.5655
#
#
#
# Elastic Compliance Matrix: (Units=1/GPa)
#
#
# Indices 1 2 3 4 5 6 
#
# 1 0.017480 -0.003134 -0.000209 0.000000 0.009029 0.000000
# 2 -0.003134 0.014089 -0.000938 0.000000 -0.001259 0.000000
# 3 -0.000209 -0.000938 0.011923 0.000000 0.000350 0.000000
# 4 0.000000 0.000000 0.000000 0.030088 0.000000 -0.002826
# 5 0.009029 -0.001259 0.000350 0.000000 0.034364 0.000000
# 6 0.000000 0.000000 0.000000 -0.002826 0.000000 0.027614
#
#
# Mechanical properties :
#
#
# Convention : Reuss Voigt Hill
#
# Bulk Modulus (GPa) = 28.62772 30.37733 29.50252
# Shear Modulus (GPa) = 32.10009 34.41850 33.25930
#
# Velocity S-wave (km/s) = 3.72391 3.85604 3.79055
# Velocity P-wave (km/s) = 5.55494 5.74009 5.64828
#
# Compressibility (1/GPa) = 0.03493118
#
# Stress axis : x y z
#
# Youngs Moduli (GPa) = 57.20751 70.97709 83.87257
#
# Poissons Ratio (x) = 0.22241 0.01752
# Poissons Ratio (y) = 0.17927 0.07867
# Poissons Ratio (z) = 0.01195 0.06657
#
# Static dielectric constant tensor:
#      x y z
#    x 1.862620 0.000000 -0.010170 
#    y 0.000000 2.257370 0.000000 
#    z -0.010170 0.000000 1.841430 
# 
# From -- ./inp_files/19595.got.cif
#   From: 2010.05.17/outbox.cif.g08.bks.cpg/sg14_10_cif.got.tgz:19595.got - 2010.06.03 17:49:19.
