data_PCOD9250989
_publ_section_title
;
Structure prediction by ZEFSAII (Michael W. Deem and Ramdas Pophale) SiO2 
 PCOD9250989
Probable space group: P 21/C
;
_chemical_formula_sum "Si O2"
_cell_formula_units_Z 20
_cell_length_a 8.467316
_cell_length_b 9.922375
_cell_length_c 9.153176
_cell_angle_alpha 90.000000
_cell_angle_beta 99.384949
_cell_angle_gamma 90.000000
_cell_volume 758.718975
_symmetry_space_group_name_H-M "P 21/C"
_symmetry_group_IT_number 14
_symmetry_cell_setting 'monoclinic'
loop_
_space_group_symop_operation_xyz
x,y,z
-x,1/2+y,1/2-z
-x,-y,-z
x,1/2-y,1/2+z
loop_
_atom_site_type_symbol
_atom_site_label
_atom_site_fract_x
_atom_site_fract_y
_atom_site_fract_z
Si Si1 0.265093 0.876272 0.895963
Si Si2 0.381726 0.855283 0.207614
Si Si3 0.810887 0.933088 0.654524
Si Si4 0.727020 0.656550 0.746345
Si Si5 0.958660 0.171747 0.503826
O O1 0.311616 0.781966 0.765591
O O2 0.122922 0.810872 0.970156
O O3 0.236755 0.029235 0.849414
O O4 0.405137 0.859725 0.037377
O O5 0.558832 0.875591 0.299543
O O6 0.261223 0.976690 0.227579
O O7 0.709324 0.796428 0.655453
O O8 0.985034 0.863309 0.651350
O O9 0.837090 0.055630 0.541177
O O10 0.875145 0.671759 0.879920
#
# Coordination Sequence:
#
# PCOD9250989 Si02
#       5
#     4   4   4   4   4
#     4  11  27  48  73 103 147 187 236 297 355 420
#     4  11  27  48  71 106 147 187 237 295 354 425
#     4  10  25  44  67 102 143 180 241 281 364 411
#     4  12  25  43  77 103 139 188 241 292 355 417
#     4  10  25  45  71 102 143 187 237 295 349 427
#
# _framework density 26.360220999999999
#
# number of rings (size 3 to 8) (size 9 to 14) (size 15 to 20)
#    0.000    1.200    0.000    3.000   19.600    1.600 
#    0.000    0.000    0.000    0.000    0.000    0.000 
#    0.000    0.000    0.000    0.000    0.000    0.000 
#
# Total GULP energy -111643.815179 kJ/mol
# GULP energy per Si atom -5582.190759 kJ/mol
# Density = 2.630022 g / cm^3
# Si number density = 26.360221 Si / 1000 Ang^3
#
#
#
# Elastic Constant Matrix: (Units=GPa)
#
#
# Indices 1 2 3 4 5 6 
#
# 1 107.9438 44.3779 19.4638 0.0000 6.1785 0.0000
# 2 44.3779 174.3379 59.3789 0.0000 -0.3111 0.0000
# 3 19.4638 59.3789 88.3653 0.0000 -1.9948 0.0000
# 4 0.0000 0.0000 0.0000 45.5232 0.0000 -18.7692
# 5 6.1785 -0.3111 -1.9948 0.0000 33.9840 0.0000
# 6 0.0000 0.0000 0.0000 -18.7692 0.0000 48.9051
#
#
#
# Elastic Compliance Matrix: (Units=1/GPa)
#
#
# Indices 1 2 3 4 5 6 
#
# 1 0.010507 -0.002431 -0.000725 0.000000 -0.001975 0.000000
# 2 -0.002431 0.008003 -0.004837 0.000000 0.000231 0.000000
# 3 -0.000725 -0.004837 0.014748 0.000000 0.000953 0.000000
# 4 0.000000 0.000000 0.000000 0.026096 0.000000 0.010015
# 5 -0.001975 0.000231 0.000953 0.000000 0.029843 0.000000
# 6 0.000000 0.000000 0.000000 0.010015 0.000000 0.024292
#
#
# Mechanical properties :
#
#
# Convention : Reuss Voigt Hill
#
# Bulk Modulus (GPa) = 57.89859 68.56535 63.23197
# Shear Modulus (GPa) = 36.97332 42.17755 39.57543
#
# Velocity S-wave (km/s) = 3.74922 4.00440 3.87891
# Velocity P-wave (km/s) = 6.38390 6.88822 6.64085
#
# Compressibility (1/GPa) = 0.01727158
#
# Stress axis : x y z
#
# Youngs Moduli (GPa) = 95.17089 124.95845 67.80505
#
# Poissons Ratio (x) = 0.30379 0.04918
# Poissons Ratio (y) = 0.23137 0.32796
# Poissons Ratio (z) = 0.06903 0.60440
#
# Static dielectric constant tensor:
#      x y z
#    x 2.144280 0.000000 0.071030 
#    y 0.000000 2.013770 0.000000 
#    z 0.071030 0.000000 2.130470 
# 
# From -- ./inp_files/23067.got.cif
#   From: 2010.05.17/outbox.cif.g08.bks.cpg/sg14_12_cif.got.tgz:23067.got - 2010.06.03 17:49:19.
