data_PCOD9250668
_publ_section_title
;
Structure prediction by ZEFSAII (Michael W. Deem and Ramdas Pophale) SiO2 
 PCOD9250668
Probable space group: P 21/C
;
_chemical_formula_sum "Si O2"
_cell_formula_units_Z 32
_cell_length_a 9.888100
_cell_length_b 14.379917
_cell_length_c 9.588083
_cell_angle_alpha 90.000000
_cell_angle_beta 66.969631
_cell_angle_gamma 90.000000
_cell_volume 1254.669422
_symmetry_space_group_name_H-M "P 21/C"
_symmetry_group_IT_number 14
_symmetry_cell_setting 'monoclinic'
loop_
_space_group_symop_operation_xyz
x,y,z
-x,1/2+y,1/2-z
-x,-y,-z
x,1/2-y,1/2+z
loop_
_atom_site_type_symbol
_atom_site_label
_atom_site_fract_x
_atom_site_fract_y
_atom_site_fract_z
Si Si1 0.968585 0.082140 0.864725
Si Si2 0.449378 0.424800 0.906972
Si Si3 0.138128 0.266600 0.796536
Si Si4 0.114971 0.650539 0.303553
Si Si5 0.213635 0.645013 0.802176
Si Si6 0.677660 0.732642 0.525828
Si Si7 0.480720 0.451384 0.358774
Si Si8 0.841268 0.028565 0.426528
O O1 0.827198 0.119208 0.839324
O O2 0.091245 0.160550 0.800665
O O3 0.929813 0.086126 0.045351
O O4 0.032726 0.005942 0.730754
O O5 0.445081 0.313306 0.919716
O O6 0.531928 0.461357 0.737603
O O7 0.500000 0.500000 0.000000
O O8 0.273730 0.451892 0.977529
O O9 0.182466 0.270611 0.941002
O O10 0.285732 0.282325 0.650773
O O11 0.016120 0.320823 0.753475
O O12 0.178039 0.747115 0.338494
O O13 0.231156 0.603486 0.151467
O O14 0.377700 0.607358 0.751447
O O15 0.117240 0.585874 0.952011
O O16 0.641623 0.628910 0.594019
O O17 0.500000 0.500000 0.500000
#
# Coordination Sequence:
#
# PCOD9250668 Si02
#       8
#     4   4   4   4   4   4   4   4
#     4  11  22  42  68 103 138 179 232 294 350 428
#     4  11  26  46  69 104 143 189 242 292 363 433
#     4  11  23  42  70 102 138 180 239 285 362 420
#     4  11  24  42  68 104 143 186 235 293 359 437
#     4  10  24  45  67  99 144 186 232 290 367 421
#     4  12  24  46  74 100 146 190 233 306 355 425
#     4  11  27  48  71 107 139 190 247 295 354 433
#     4  11  24  41  69 101 141 185 235 293 357 430
#
# _framework density 25.504726000000002
#
# number of rings (size 3 to 8) (size 9 to 14) (size 15 to 20)
#    0.000    1.000    2.500    3.750    3.500    4.000 
#    4.500    0.000    0.000    0.000    0.000    0.000 
#    0.000    0.000    0.000    0.000    0.000    0.000 
#
# Total GULP energy -178459.140282 kJ/mol
# GULP energy per Si atom -5576.848134 kJ/mol
# Density = 2.544668 g / cm^3
# Si number density = 25.504726 Si / 1000 Ang^3
#
#
#
# Elastic Constant Matrix: (Units=GPa)
#
#
# Indices 1 2 3 4 5 6 
#
# 1 38.1259 7.5170 -0.1952 0.0000 10.5398 0.0000
# 2 7.5170 117.7364 19.9537 0.0000 -3.7722 0.0000
# 3 -0.1952 19.9537 149.3745 0.0000 21.1541 0.0000
# 4 0.0000 0.0000 0.0000 29.9574 0.0000 -2.3386
# 5 10.5398 -3.7722 21.1541 0.0000 32.8935 0.0000
# 6 0.0000 0.0000 0.0000 -2.3386 0.0000 26.0057
#
#
#
# Elastic Compliance Matrix: (Units=1/GPa)
#
#
# Indices 1 2 3 4 5 6 
#
# 1 0.029822 -0.002592 0.001959 0.000000 -0.011113 0.000000
# 2 -0.002592 0.009027 -0.001621 0.000000 0.002908 0.000000
# 3 0.001959 -0.001621 0.007733 0.000000 -0.005787 0.000000
# 4 0.000000 0.000000 0.000000 0.033617 0.000000 0.003023
# 5 -0.011113 0.002908 -0.005787 0.000000 0.038017 0.000000
# 6 0.000000 0.000000 0.000000 0.003023 0.000000 0.038725
#
#
# Mechanical properties :
#
#
# Convention : Reuss Voigt Hill
#
# Bulk Modulus (GPa) = 23.76770 39.97643 31.87207
# Shear Modulus (GPa) = 28.49424 36.30207 32.39815
#
# Velocity S-wave (km/s) = 3.34610 3.77682 3.56797
# Velocity P-wave (km/s) = 4.92623 5.89299 5.43116
#
# Compressibility (1/GPa) = 0.04207390
#
# Stress axis : x y z
#
# Youngs Moduli (GPa) = 33.53222 110.77920 129.31217
#
# Poissons Ratio (x) = 0.28715 -0.25332
# Poissons Ratio (y) = 0.08692 0.20963
# Poissons Ratio (z) = -0.06569 0.17958
#
# Static dielectric constant tensor:
#      x y z
#    x 2.326360 0.000000 0.373360 
#    y 0.000000 2.183030 0.000000 
#    z 0.373360 0.000000 3.042620 
# 
# From -- ./inp_files/13271.got.cif
#   From: 2010.05.17/outbox.cif.g08.bks.cpg/sg14_7_cif.got.tgz:13271.got - 2010.06.03 17:49:19.
