data_PCOD9250617
_publ_section_title
;
Structure prediction by ZEFSAII (Michael W. Deem and Ramdas Pophale) SiO2 
 PCOD9250617
Probable space group: P 21/C
;
_chemical_formula_sum "Si O2"
_cell_formula_units_Z 16
_cell_length_a 4.858689
_cell_length_b 4.952947
_cell_length_c 27.639305
_cell_angle_alpha 90.000000
_cell_angle_beta 124.927141
_cell_angle_gamma 90.000000
_cell_volume 545.331512
_symmetry_space_group_name_H-M "P 21/C"
_symmetry_group_IT_number 14
_symmetry_cell_setting 'monoclinic'
loop_
_space_group_symop_operation_xyz
x,y,z
-x,1/2+y,1/2-z
-x,-y,-z
x,1/2-y,1/2+z
loop_
_atom_site_type_symbol
_atom_site_label
_atom_site_fract_x
_atom_site_fract_y
_atom_site_fract_z
Si Si1 0.730536 0.709928 0.995147
Si Si2 0.626847 0.986987 0.677133
Si Si3 0.199861 0.114899 0.096940
Si Si4 0.083263 0.494678 0.692794
O O1 0.592526 0.861865 0.933052
O O2 0.500000 0.500000 0.000000
O O3 0.000000 0.500000 0.000000
O O4 0.887537 0.946585 0.043818
O O5 0.262473 0.072850 0.620525
O O6 0.872809 0.227464 0.684116
O O7 0.642375 0.002125 0.736739
O O8 0.810962 0.729707 0.673800
O O9 0.236416 0.990080 0.154770
#
# Coordination Sequence:
#
# PCOD9250617 Si02
#       4
#     4   4   4   4
#     4  11  28  49  76 114 155 208 277 335 398 472
#     4  10  24  44  70 109 153 203 265 331 409 497
#     4  11  26  42  78 104 158 207 268 332 412 477
#     4  10  24  44  70 109 153 203 265 331 409 497
#
# _framework density 29.339950000000002
#
# number of rings (size 3 to 8) (size 9 to 14) (size 15 to 20)
#    0.000    1.500    0.000    1.500   14.000    8.000 
#    0.000    0.000    0.000    0.000    0.000    0.000 
#    0.000    0.000    0.000    0.000    0.000    0.000 
#
# Total GULP energy -89458.635845 kJ/mol
# GULP energy per Si atom -5591.164740 kJ/mol
# Density = 2.927317 g / cm^3
# Si number density = 29.339950 Si / 1000 Ang^3
#
#
#
# Elastic Constant Matrix: (Units=GPa)
#
#
# Indices 1 2 3 4 5 6 
#
# 1 187.1196 77.8586 78.9688 0.0000 -53.0150 0.0000
# 2 77.8586 200.4866 57.5332 0.0000 -26.4630 0.0000
# 3 78.9688 57.5332 307.7806 0.0000 -62.0030 0.0000
# 4 0.0000 0.0000 0.0000 60.4442 0.0000 0.1301
# 5 -53.0150 -26.4630 -62.0030 0.0000 58.5447 0.0000
# 6 0.0000 0.0000 0.0000 0.1301 0.0000 64.8790
#
#
#
# Elastic Compliance Matrix: (Units=1/GPa)
#
#
# Indices 1 2 3 4 5 6 
#
# 1 0.008141 -0.002250 -0.000493 0.000000 0.005833 0.000000
# 2 -0.002250 0.006029 -0.000523 0.000000 0.000134 0.000000
# 3 -0.000493 -0.000523 0.004240 0.000000 0.003808 0.000000
# 4 0.000000 0.000000 0.000000 0.016544 0.000000 -0.000033
# 5 0.005833 0.000134 0.003808 0.000000 0.026456 0.000000
# 6 0.000000 0.000000 0.000000 -0.000033 0.000000 0.015413
#
#
# Mechanical properties :
#
#
# Convention : Reuss Voigt Hill
#
# Bulk Modulus (GPa) = 84.18285 124.90087 104.54186
# Shear Modulus (GPa) = 57.26270 68.84199 63.05235
#
# Velocity S-wave (km/s) = 4.42259 4.84918 4.64079
# Velocity P-wave (km/s) = 7.40497 8.60322 8.02649
#
# Compressibility (1/GPa) = 0.01187890
#
# Stress axis : x y z
#
# Youngs Moduli (GPa) = 122.83313 165.85327 235.82346
#
# Poissons Ratio (x) = 0.37320 0.11630
# Poissons Ratio (y) = 0.27640 0.12327
# Poissons Ratio (z) = 0.06058 0.08669
#
# Static dielectric constant tensor:
#      x y z
#    x 2.387070 0.000000 0.247580 
#    y 0.000000 2.334830 0.000000 
#    z 0.247580 0.000000 2.421350 
# 
# From -- ./inp_files/75502.got.cif
#   From: 2010.05.17/outbox.cif.g08.bks.cpg/sg14_38_cif.got.tgz:75502.got - 2010.06.03 17:49:19.
