data_PCOD9250164
_publ_section_title
;
Structure prediction by ZEFSAII (Michael W. Deem and Ramdas Pophale) SiO2 
 PCOD9250164
Probable space group: P 21/C
;
_chemical_formula_sum "Si O2"
_cell_formula_units_Z 26
_cell_length_a 11.432559
_cell_length_b 11.704829
_cell_length_c 7.606663
_cell_angle_alpha 90.000000
_cell_angle_beta 85.118697
_cell_angle_gamma 90.000000
_cell_volume 1014.202559
_symmetry_space_group_name_H-M "P 21/C"
_symmetry_group_IT_number 14
_symmetry_cell_setting 'monoclinic'
loop_
_space_group_symop_operation_xyz
x,y,z
-x,1/2+y,1/2-z
-x,-y,-z
x,1/2-y,1/2+z
loop_
_atom_site_type_symbol
_atom_site_label
_atom_site_fract_x
_atom_site_fract_y
_atom_site_fract_z
Si Si1 0.500000 0.500000 0.500000
Si Si2 0.030364 0.616072 0.592016
Si Si3 0.506398 0.717052 0.208840
Si Si4 0.707246 0.142442 0.848327
Si Si5 0.967543 0.851073 0.506814
Si Si6 0.597164 0.917832 0.404642
Si Si7 0.196031 0.543474 0.015863
O O1 0.501178 0.617800 0.356208
O O2 0.368680 0.536542 0.573110
O O3 0.169170 0.646266 0.566449
O O4 0.953422 0.717654 0.520634
O O5 0.997356 0.617434 0.801925
O O6 0.000000 0.500000 0.500000
O O7 0.376117 0.744480 0.147273
O O8 0.546016 0.848379 0.248776
O O9 0.601741 0.677531 0.054201
O O10 0.738364 0.114843 0.641424
O O11 0.860965 0.931703 0.571123
O O12 0.085038 0.885834 0.599072
O O13 0.713464 0.988747 0.359825
O O14 0.500000 0.000000 0.500000
#
# Coordination Sequence:
#
# PCOD9250164 Si02
#       7
#     2   4   4   4   4   4   4
#     4  12  24  44  70 114 146 194 254 296 374 450
#     4  11  28  50  77 113 145 195 259 315 378 458
#     4  12  25  44  69 109 145 197 238 303 367 446
#     4  11  25  47  73 109 151 193 250 303 376 449
#     4  10  26  48  78 106 149 194 253 313 382 440
#     4  12  25  45  70 105 148 192 245 302 369 443
#     4  10  23  47  72 104 146 199 242 311 368 442
#
# _framework density 25.635904
#
# number of rings (size 3 to 8) (size 9 to 14) (size 15 to 20)
#    0.000    0.923    4.615    0.000   12.923    2.462 
#    5.538    0.000    0.000    0.000    0.000    0.000 
#    0.000    0.000    0.000    0.000    0.000    0.000 
#
# Total GULP energy -144958.940266 kJ/mol
# GULP energy per Si atom -5575.343856 kJ/mol
# Density = 2.557756 g / cm^3
# Si number density = 25.635904 Si / 1000 Ang^3
#
#
#
# Elastic Constant Matrix: (Units=GPa)
#
#
# Indices 1 2 3 4 5 6 
#
# 1 82.0871 31.4681 13.2471 0.0000 12.0253 0.0000
# 2 31.4681 151.2180 2.7714 0.0000 22.9584 0.0000
# 3 13.2471 2.7714 54.4554 0.0000 11.8471 0.0000
# 4 0.0000 0.0000 0.0000 39.5533 0.0000 8.2769
# 5 12.0253 22.9584 11.8471 0.0000 30.8096 0.0000
# 6 0.0000 0.0000 0.0000 8.2769 0.0000 45.6890
#
#
#
# Elastic Compliance Matrix: (Units=1/GPa)
#
#
# Indices 1 2 3 4 5 6 
#
# 1 0.013938 -0.002462 -0.002707 0.000000 -0.002565 0.000000
# 2 -0.002462 0.007932 0.001388 0.000000 -0.005484 0.000000
# 3 -0.002707 0.001388 0.020676 0.000000 -0.007928 0.000000
# 4 0.000000 0.000000 0.000000 0.026278 0.000000 -0.004761
# 5 -0.002565 -0.005484 -0.007928 0.000000 0.040594 0.000000
# 6 0.000000 0.000000 0.000000 -0.004761 0.000000 0.022749
#
#
# Mechanical properties :
#
#
# Convention : Reuss Voigt Hill
#
# Bulk Modulus (GPa) = 28.58306 42.52597 35.55452
# Shear Modulus (GPa) = 33.02672 39.22864 36.12768
#
# Velocity S-wave (km/s) = 3.59318 3.91605 3.75809
# Velocity P-wave (km/s) = 5.32808 6.08865 5.72102
#
# Compressibility (1/GPa) = 0.03498576
#
# Stress axis : x y z
#
# Youngs Moduli (GPa) = 71.74379 126.06585 48.36411
#
# Poissons Ratio (x) = 0.31031 0.13094
# Poissons Ratio (y) = 0.17660 -0.06714
# Poissons Ratio (z) = 0.19424 -0.17500
#
# Static dielectric constant tensor:
#      x y z
#    x 1.999760 0.000000 0.019230 
#    y 0.000000 2.269950 0.000000 
#    z 0.019230 0.000000 1.969760 
# 
# From -- ./inp_files/12460.got.cif
#   From: 2010.05.17/outbox.cif.g08.bks.cpg/sg14_7_cif.got.tgz:12460.got - 2010.06.03 17:49:19.
