data_PCOD9250789
_publ_section_title
;
Structure prediction by ZEFSAII (Michael W. Deem and Ramdas Pophale) SiO2 
 PCOD9250789
Probable space group: P 21/C
;
_chemical_formula_sum "Si O2"
_cell_formula_units_Z 32
_cell_length_a 15.369279
_cell_length_b 20.373597
_cell_length_c 8.127927
_cell_angle_alpha 90.000000
_cell_angle_beta 29.431641
_cell_angle_gamma 90.000000
_cell_volume 1250.612359
_symmetry_space_group_name_H-M "P 21/C"
_symmetry_group_IT_number 14
_symmetry_cell_setting 'monoclinic'
loop_
_space_group_symop_operation_xyz
x,y,z
-x,1/2+y,1/2-z
-x,-y,-z
x,1/2-y,1/2+z
loop_
_atom_site_type_symbol
_atom_site_label
_atom_site_fract_x
_atom_site_fract_y
_atom_site_fract_z
Si Si1 0.988653 0.698196 0.637642
Si Si2 0.252889 0.477626 0.355937
Si Si3 0.460645 0.603710 0.563920
Si Si4 0.485159 0.154515 0.475179
Si Si5 0.878633 0.173171 0.714535
Si Si6 0.569037 0.512475 0.635756
Si Si7 0.947735 0.400823 0.758211
Si Si8 0.602043 0.764630 0.688810
O O1 0.020181 0.676606 0.775097
O O2 0.131170 0.752104 0.339558
O O3 0.980820 0.641120 0.513385
O O4 0.802615 0.735090 0.921274
O O5 0.260265 0.498107 0.533314
O O6 0.064830 0.466109 0.585585
O O7 0.354320 0.406974 0.191005
O O8 0.392269 0.524522 0.035617
O O9 0.592287 0.574193 0.480951
O O10 0.482023 0.552477 0.379167
O O11 0.496716 0.677821 0.457721
O O12 0.257784 0.591510 0.943848
O O13 0.483533 0.193563 0.648941
O O14 0.403833 0.208291 0.485240
O O15 0.685043 0.146333 0.082988
O O16 0.952366 0.133644 0.433207
#
# Coordination Sequence:
#
# PCOD9250789 Si02
#       8
#     4   4   4   4   4   4   4   4
#     4  12  24  41  64  98 141 184 224 276 340 410
#     4  11  24  46  69  99 133 176 230 282 339 411
#     4  11  24  46  69  99 133 176 230 282 339 411
#     4  12  24  43  67 100 138 177 223 276 344 409
#     4  12  24  41  64  98 141 184 224 276 340 410
#     4  10  24  46  72  92 130 182 224 284 344 400
#     4  12  24  44  66 102 136 172 234 286 336 406
#     4  12  24  43  67 100 138 177 223 276 344 409
#
# _framework density 25.587464000000001
#
# number of rings (size 3 to 8) (size 9 to 14) (size 15 to 20)
#    0.000    0.500    5.000    3.000    5.250    1.000 
#    0.000    0.000    0.000    0.000    0.000    0.000 
#    0.000    0.000    0.000    0.000    0.000    0.000 
#
# Total GULP energy -179050.228472 kJ/mol
# GULP energy per Si atom -5595.319640 kJ/mol
# Density = 2.552923 g / cm^3
# Si number density = 25.587464 Si / 1000 Ang^3
#
#
#
# Elastic Constant Matrix: (Units=GPa)
#
#
# Indices 1 2 3 4 5 6 
#
# 1 117.7512 25.8286 9.1072 0.0000 20.5009 0.0000
# 2 25.8286 50.8251 -2.4138 0.0000 4.7073 0.0000
# 3 9.1072 -2.4138 61.2765 0.0000 -7.8916 0.0000
# 4 0.0000 0.0000 0.0000 26.5580 0.0000 -4.9129
# 5 20.5009 4.7073 -7.8916 0.0000 30.5427 0.0000
# 6 0.0000 0.0000 0.0000 -4.9129 0.0000 32.5648
#
#
#
# Elastic Compliance Matrix: (Units=1/GPa)
#
#
# Indices 1 2 3 4 5 6 
#
# 1 0.011116 -0.005097 -0.002806 0.000000 -0.007401 0.000000
# 2 -0.005097 0.022307 0.001690 0.000000 0.000420 0.000000
# 3 -0.002806 0.001690 0.017598 0.000000 0.006170 0.000000
# 4 0.000000 0.000000 0.000000 0.038734 0.000000 0.005844
# 5 -0.007401 0.000420 0.006170 0.000000 0.039238 0.000000
# 6 0.000000 0.000000 0.000000 0.005844 0.000000 0.031590
#
#
# Mechanical properties :
#
#
# Convention : Reuss Voigt Hill
#
# Bulk Modulus (GPa) = 25.90980 32.76634 29.33807
# Shear Modulus (GPa) = 26.90014 31.08850 28.99432
#
# Velocity S-wave (km/s) = 3.24590 3.48945 3.36987
# Velocity P-wave (km/s) = 4.91892 5.39152 5.16063
#
# Compressibility (1/GPa) = 0.03859543
#
# Stress axis : x y z
#
# Youngs Moduli (GPa) = 89.96056 44.82935 56.82566
#
# Poissons Ratio (x) = 0.22849 0.15945
# Poissons Ratio (y) = 0.45851 -0.09605
# Poissons Ratio (z) = 0.25243 -0.07577
#
# Static dielectric constant tensor:
#      x y z
#    x 2.086250 0.000000 0.076810 
#    y 0.000000 2.060630 0.000000 
#    z 0.076810 0.000000 2.030310 
# 
# From -- ./inp_files/17005.got.cif
#   From: 2010.05.17/outbox.cif.g08.bks.cpg/sg14_9_cif.got.tgz:17005.got - 2010.06.03 17:49:19.
