data_PCOD9250694
_publ_section_title
;
Structure prediction by ZEFSAII (Michael W. Deem and Ramdas Pophale) SiO2 
 PCOD9250694
Probable space group: P 21/C
;
_chemical_formula_sum "Si O2"
_cell_formula_units_Z 32
_cell_length_a 22.190121
_cell_length_b 9.289435
_cell_length_c 10.188894
_cell_angle_alpha 90.000000
_cell_angle_beta 45.332024
_cell_angle_gamma 90.000000
_cell_volume 1493.699333
_symmetry_space_group_name_H-M "P 21/C"
_symmetry_group_IT_number 14
_symmetry_cell_setting 'monoclinic'
loop_
_space_group_symop_operation_xyz
x,y,z
-x,1/2+y,1/2-z
-x,-y,-z
x,1/2-y,1/2+z
loop_
_atom_site_type_symbol
_atom_site_label
_atom_site_fract_x
_atom_site_fract_y
_atom_site_fract_z
Si Si1 0.498730 0.851535 0.247291
Si Si2 0.544695 0.344869 0.916529
Si Si3 0.775209 0.537829 0.051468
Si Si4 0.727285 0.105602 0.072658
Si Si5 0.624959 0.881286 0.593231
Si Si6 0.903018 0.471346 0.619010
Si Si7 0.773789 0.643171 0.647776
Si Si8 0.200514 0.773243 0.297141
O O1 0.439987 0.794680 0.457778
O O2 0.498118 0.777293 0.105600
O O3 0.588068 0.782026 0.164743
O O4 0.457200 0.011537 0.294153
O O5 0.628391 0.380554 0.709299
O O6 0.500000 0.500000 0.000000
O O7 0.683392 0.552608 0.119872
O O8 0.788187 0.692534 0.094303
O O9 0.786785 0.421454 0.147078
O O10 0.845046 0.496832 0.836034
O O11 0.749277 0.165420 0.183932
O O12 0.757724 0.942583 0.036782
O O13 0.767555 0.200627 0.898327
O O14 0.690147 0.878107 0.369045
O O15 0.857720 0.578380 0.585968
O O16 0.888216 0.309541 0.586369
O O17 0.000000 0.500000 0.500000
#
# Coordination Sequence:
#
# PCOD9250694 Si02
#       8
#     4   4   4   4   4   4   4   4
#     4  12  25  45  65  93 138 184 240 310 355 411
#     4  12  25  42  63  96 134 182 239 300 357 408
#     4  11  25  45  71 105 139 189 239 284 363 432
#     4  11  22  42  70  96 137 190 237 288 349 426
#     4  11  26  46  65 101 140 189 250 299 356 420
#     4  10  24  48  74 108 147 178 231 293 350 435
#     4  10  24  45  70  99 147 187 229 296 360 432
#     4  11  23  44  75 105 134 188 236 286 347 438
#
# _framework density 21.423321000000001
#
# number of rings (size 3 to 8) (size 9 to 14) (size 15 to 20)
#    0.000    1.000    3.750    1.500    8.750    1.500 
#    2.250    0.625    0.000    0.000    0.000    0.000 
#    0.000    0.000    0.000    0.000    0.000    0.000 
#
# Total GULP energy -178325.027951 kJ/mol
# GULP energy per Si atom -5572.657123 kJ/mol
# Density = 2.137456 g / cm^3
# Si number density = 21.423321 Si / 1000 Ang^3
#
#
#
# Elastic Constant Matrix: (Units=GPa)
#
#
# Indices 1 2 3 4 5 6 
#
# 1 103.7549 47.9564 46.9935 0.0000 -18.1747 0.0000
# 2 47.9564 134.4335 32.3228 0.0000 -11.2458 0.0000
# 3 46.9935 32.3228 49.0956 0.0000 -15.7238 0.0000
# 4 0.0000 0.0000 0.0000 23.3168 0.0000 -1.8101
# 5 -18.1747 -11.2458 -15.7238 0.0000 39.9676 0.0000
# 6 0.0000 0.0000 0.0000 -1.8101 0.0000 30.8705
#
#
#
# Elastic Compliance Matrix: (Units=1/GPa)
#
#
# Indices 1 2 3 4 5 6 
#
# 1 0.017870 -0.002676 -0.014854 0.000000 0.001530 0.000000
# 2 -0.002676 0.009240 -0.003523 0.000000 -0.000003 0.000000
# 3 -0.014854 -0.003523 0.039388 0.000000 0.007750 0.000000
# 4 0.000000 0.000000 0.000000 0.043084 0.000000 0.002526
# 5 0.001530 -0.000003 0.007750 0.000000 0.028764 0.000000
# 6 0.000000 0.000000 0.000000 0.002526 0.000000 0.032541
#
#
# Mechanical properties :
#
#
# Convention : Reuss Voigt Hill
#
# Bulk Modulus (GPa) = 40.99524 60.20327 50.59926
# Shear Modulus (GPa) = 22.61177 29.49840 26.05509
#
# Velocity S-wave (km/s) = 3.25233 3.71473 3.49119
# Velocity P-wave (km/s) = 5.76896 6.82361 6.31833
#
# Compressibility (1/GPa) = 0.02439307
#
# Stress axis : x y z
#
# Youngs Moduli (GPa) = 55.95822 108.22596 25.38851
#
# Poissons Ratio (x) = 0.28956 0.37712
# Poissons Ratio (y) = 0.14972 0.08945
# Poissons Ratio (z) = 0.83120 0.38130
#
# Static dielectric constant tensor:
#      x y z
#    x 2.238140 0.000000 0.116530 
#    y 0.000000 1.958760 0.000000 
#    z 0.116530 0.000000 1.792070 
# 
# From -- ./inp_files/35740.got.cif
#   From: 2010.05.17/outbox.cif.g08.bks.cpg/sg14_18_cif.got.tgz:35740.got - 2010.06.03 17:49:19.
