data_PCOD9250375
_publ_section_title
;
Structure prediction by ZEFSAII (Michael W. Deem and Ramdas Pophale) SiO2 
 PCOD9250375
Probable space group: P 21/C
;
_chemical_formula_sum "Si O2"
_cell_formula_units_Z 26
_cell_length_a 17.907218
_cell_length_b 9.592857
_cell_length_c 6.817214
_cell_angle_alpha 90.000000
_cell_angle_beta 128.362316
_cell_angle_gamma 90.000000
_cell_volume 918.238466
_symmetry_space_group_name_H-M "P 21/C"
_symmetry_group_IT_number 14
_symmetry_cell_setting 'monoclinic'
loop_
_space_group_symop_operation_xyz
x,y,z
-x,1/2+y,1/2-z
-x,-y,-z
x,1/2-y,1/2+z
loop_
_atom_site_type_symbol
_atom_site_label
_atom_site_fract_x
_atom_site_fract_y
_atom_site_fract_z
Si Si1 0.856135 0.908311 0.143886
Si Si2 0.160610 0.916536 0.246303
Si Si3 0.663236 0.937168 0.986562
Si Si4 0.940764 0.146968 0.551120
Si Si5 0.500000 0.000000 0.000000
Si Si6 0.506889 0.252296 0.336914
Si Si7 0.343305 0.747671 0.155283
O O1 0.948807 0.811854 0.283211
O O2 0.903190 0.044943 0.321600
O O3 0.765939 0.866794 0.128679
O O4 0.824614 0.955547 0.875107
O O5 0.121630 0.785224 0.059975
O O6 0.082551 0.935748 0.287966
O O7 0.254929 0.855502 0.503910
O O8 0.582397 0.840261 0.757978
O O9 0.614502 0.964001 0.117033
O O10 0.677695 0.087393 0.908708
O O11 0.485463 0.086265 0.763622
O O12 0.534674 0.192364 0.143174
O O13 0.625635 0.232380 0.549135
#
# Coordination Sequence:
#
# PCOD9250375 Si02
#       7
#     4   4   4   4   2   4   4
#     4  11  25  44  69 105 139 185 240 300 358 430
#     4  12  22  45  71 104 134 187 240 293 364 438
#     4  11  22  43  65  99 138 178 240 290 353 412
#     4  11  23  42  70 100 143 179 237 296 356 430
#     4  10  24  42  64  94 138 190 228 282 352 418
#     4  11  22  41  62  95 136 173 228 284 340 417
#     4  11  22  37  68  97 125 180 229 288 340 415
#
# _framework density 28.315083000000001
#
# number of rings (size 3 to 8) (size 9 to 14) (size 15 to 20)
#    0.000    0.923    4.615    2.769    2.154    0.000 
#    2.769    0.000    0.000    0.000    0.000    0.000 
#    0.000    0.000    0.000    0.000    0.000    0.000 
#
# Total GULP energy -144997.900386 kJ/mol
# GULP energy per Si atom -5576.842323 kJ/mol
# Density = 2.825064 g / cm^3
# Si number density = 28.315083 Si / 1000 Ang^3
#
#
#
# Elastic Constant Matrix: (Units=GPa)
#
#
# Indices 1 2 3 4 5 6 
#
# 1 182.6889 8.5222 78.0915 0.0000 32.6882 0.0000
# 2 8.5222 84.1279 39.8677 0.0000 12.2895 0.0000
# 3 78.0915 39.8677 159.5986 0.0000 30.9435 0.0000
# 4 0.0000 0.0000 0.0000 37.1868 0.0000 -2.0566
# 5 32.6882 12.2895 30.9435 0.0000 57.8892 0.0000
# 6 0.0000 0.0000 0.0000 -2.0566 0.0000 29.0079
#
#
#
# Elastic Compliance Matrix: (Units=1/GPa)
#
#
# Indices 1 2 3 4 5 6 
#
# 1 0.007330 0.001245 -0.003396 0.000000 -0.002588 0.000000
# 2 0.001245 0.013767 -0.003732 0.000000 -0.001631 0.000000
# 3 -0.003396 -0.003732 0.009298 0.000000 -0.002260 0.000000
# 4 0.000000 0.000000 0.000000 0.026997 0.000000 0.001914
# 5 -0.002588 -0.001631 -0.002260 0.000000 0.020290 0.000000
# 6 0.000000 0.000000 0.000000 0.001914 0.000000 0.034609
#
#
# Mechanical properties :
#
#
# Convention : Reuss Voigt Hill
#
# Bulk Modulus (GPa) = 53.67849 75.48646 64.58247
# Shear Modulus (GPa) = 38.38243 44.81239 41.59741
#
# Velocity S-wave (km/s) = 3.68577 3.98255 3.83703
# Velocity P-wave (km/s) = 6.09196 6.91845 6.51831
#
# Compressibility (1/GPa) = 0.01862944
#
# Stress axis : x y z
#
# Youngs Moduli (GPa) = 136.41738 72.63555 107.55251
#
# Poissons Ratio (x) = -0.09042 0.36524
# Poissons Ratio (y) = -0.16982 0.40139
# Poissons Ratio (z) = 0.46326 0.27108
#
# Static dielectric constant tensor:
#      x y z
#    x 2.488270 0.000000 -0.202300 
#    y 0.000000 -0.830990 0.000000 
#    z -0.202300 0.000000 2.442520 
# 
# From -- ./inp_files/18980.got.cif
#   From: 2010.05.17/outbox.cif.g08.bks.cpg/sg14_10_cif.got.tgz:18980.got - 2010.06.03 17:49:19.
