data_PCOD9250140
_publ_section_title
;
Structure prediction by ZEFSAII (Michael W. Deem and Ramdas Pophale) SiO2 
 PCOD9250140
Probable space group: P 21/C
;
_chemical_formula_sum "Si O2"
_cell_formula_units_Z 18
_cell_length_a 12.143444
_cell_length_b 5.085326
_cell_length_c 13.274582
_cell_angle_alpha 90.000000
_cell_angle_beta 58.851256
_cell_angle_gamma 90.000000
_cell_volume 701.564626
_symmetry_space_group_name_H-M "P 21/C"
_symmetry_group_IT_number 14
_symmetry_cell_setting 'monoclinic'
loop_
_space_group_symop_operation_xyz
x,y,z
-x,1/2+y,1/2-z
-x,-y,-z
x,1/2-y,1/2+z
loop_
_atom_site_type_symbol
_atom_site_label
_atom_site_fract_x
_atom_site_fract_y
_atom_site_fract_z
Si Si1 0.531399 0.884106 0.800921
Si Si2 0.000000 0.000000 0.000000
Si Si3 0.859261 0.738270 0.401568
Si Si4 0.222714 0.396527 0.259792
Si Si5 0.696265 0.281850 0.953895
O O1 0.500214 0.665434 0.730485
O O2 0.676552 0.833037 0.766849
O O3 0.437678 0.811260 0.938003
O O4 0.977088 0.777404 0.920966
O O5 0.849994 0.968405 0.105326
O O6 0.885599 0.815822 0.272130
O O7 0.795994 0.452788 0.422158
O O8 0.755346 0.960615 0.481393
O O9 0.302538 0.617518 0.161683
#
# Coordination Sequence:
#
# PCOD9250140 Si02
#       5
#     4   2   4   4   4
#     4  12  25  43  73 108 142 186 242 296 368 438
#     4  12  24  52  70 110 142 200 248 294 362 442
#     4  10  26  45  73 105 141 192 238 302 360 426
#     4  10  27  44  75 103 148 190 240 305 361 429
#     4  10  23  47  69 103 142 183 236 304 365 419
#
# _framework density 25.656938
#
# number of rings (size 3 to 8) (size 9 to 14) (size 15 to 20)
#    1.333    0.000    0.000    4.667    6.222    1.778 
#    4.000    0.000    0.000    0.000    0.000    0.000 
#    0.000    0.000    0.000    0.000    0.000    0.000 
#
# Total GULP energy -100221.992870 kJ/mol
# GULP energy per Si atom -5567.888493 kJ/mol
# Density = 2.559854 g / cm^3
# Si number density = 25.656938 Si / 1000 Ang^3
#
#
#
# Elastic Constant Matrix: (Units=GPa)
#
#
# Indices 1 2 3 4 5 6 
#
# 1 77.1885 25.4913 1.9428 0.0000 11.6168 0.0000
# 2 25.4913 88.1137 -0.9594 0.0000 13.9149 0.0000
# 3 1.9428 -0.9594 108.4866 0.0000 0.1587 0.0000
# 4 0.0000 0.0000 0.0000 16.5582 0.0000 6.8108
# 5 11.6168 13.9149 0.1587 0.0000 36.1189 0.0000
# 6 0.0000 0.0000 0.0000 6.8108 0.0000 47.6168
#
#
#
# Elastic Compliance Matrix: (Units=1/GPa)
#
#
# Indices 1 2 3 4 5 6 
#
# 1 0.014690 -0.003734 -0.000291 0.000000 -0.003285 0.000000
# 2 -0.003734 0.013035 0.000188 0.000000 -0.003821 0.000000
# 3 -0.000291 0.000188 0.009225 0.000000 -0.000019 0.000000
# 4 0.000000 0.000000 0.000000 0.064168 0.000000 -0.009178
# 5 -0.003285 -0.003821 -0.000019 0.000000 0.030215 0.000000
# 6 0.000000 0.000000 0.000000 -0.009178 0.000000 0.022314
#
#
# Mechanical properties :
#
#
# Convention : Reuss Voigt Hill
#
# Bulk Modulus (GPa) = 34.16005 36.30425 35.23215
# Shear Modulus (GPa) = 29.22594 36.54637 32.88616
#
# Velocity S-wave (km/s) = 3.37872 3.77825 3.58406
# Velocity P-wave (km/s) = 5.34454 5.76317 5.55780
#
# Compressibility (1/GPa) = 0.02927396
#
# Stress axis : x y z
#
# Youngs Moduli (GPa) = 68.07238 76.71752 108.40538
#
# Poissons Ratio (x) = 0.28649 0.03158
# Poissons Ratio (y) = 0.25420 -0.02035
# Poissons Ratio (z) = 0.01983 -0.01440
#
# Static dielectric constant tensor:
#      x y z
#    x 2.112990 0.000000 0.060890 
#    y 0.000000 1.929540 0.000000 
#    z 0.060890 0.000000 2.044970 
# 
# From -- ./inp_files/42426.got.cif
#   From: 2010.05.17/outbox.cif.g08.bks.cpg/sg14_22_cif.got.tgz:42426.got - 2010.06.03 17:49:19.
