data_PCOD9250792
_publ_section_title
;
Structure prediction by ZEFSAII (Michael W. Deem and Ramdas Pophale) SiO2 
 PCOD9250792
Probable space group: P 21/C
;
_chemical_formula_sum "Si O2"
_cell_formula_units_Z 20
_cell_length_a 11.679935
_cell_length_b 15.617795
_cell_length_c 14.217220
_cell_angle_alpha 90.000000
_cell_angle_beta 19.730111
_cell_angle_gamma 90.000000
_cell_volume 875.516604
_symmetry_space_group_name_H-M "P 21/C"
_symmetry_group_IT_number 14
_symmetry_cell_setting 'monoclinic'
loop_
_space_group_symop_operation_xyz
x,y,z
-x,1/2+y,1/2-z
-x,-y,-z
x,1/2-y,1/2+z
loop_
_atom_site_type_symbol
_atom_site_label
_atom_site_fract_x
_atom_site_fract_y
_atom_site_fract_z
Si Si1 0.511297 0.722230 0.156363
Si Si2 0.549384 0.518577 0.264337
Si Si3 0.257010 0.820044 0.044695
Si Si4 0.614892 0.472401 0.807863
Si Si5 0.247923 0.623487 0.756001
O O1 0.482203 0.724797 0.291865
O O2 0.420184 0.629422 0.183854
O O3 0.260287 0.793132 0.310834
O O4 0.905995 0.730462 0.824844
O O5 0.231788 0.583130 0.521924
O O6 0.565605 0.486203 0.144896
O O7 0.537263 0.447264 0.353781
O O8 0.886664 0.577046 0.018914
O O9 0.384159 0.842020 0.050862
O O10 0.000000 0.500000 0.500000
O O11 0.500000 0.500000 0.000000
#
# Coordination Sequence:
#
# PCOD9250792 Si02
#       5
#     4   4   4   4   4
#     4  11  26  42  70 102 140 182 232 286 348 413
#     4  10  24  46  73 104 140 185 240 284 360 417
#     4  11  22  47  65  97 147 174 223 295 339 415
#     4  11  23  44  69  95 143 183 224 279 344 420
#     4  11  24  45  76 104 138 185 234 300 348 417
#
# _framework density 22.843655999999999
#
# number of rings (size 3 to 8) (size 9 to 14) (size 15 to 20)
#    0.000    1.200    4.000    3.000    2.800    3.200 
#    0.000    0.000    0.000    0.000    0.000    0.000 
#    0.000    0.000    0.000    0.000    0.000    0.000 
#
# Total GULP energy -111612.347970 kJ/mol
# GULP energy per Si atom -5580.617398 kJ/mol
# Density = 2.279166 g / cm^3
# Si number density = 22.843656 Si / 1000 Ang^3
#
#
#
# Elastic Constant Matrix: (Units=GPa)
#
#
# Indices 1 2 3 4 5 6 
#
# 1 175.9635 36.8464 34.1581 0.0000 23.5313 0.0000
# 2 36.8464 44.8346 7.6436 0.0000 0.1060 0.0000
# 3 34.1581 7.6436 97.9045 0.0000 16.5904 0.0000
# 4 0.0000 0.0000 0.0000 22.3475 0.0000 -12.3388
# 5 23.5313 0.1060 16.5904 0.0000 36.7722 0.0000
# 6 0.0000 0.0000 0.0000 -12.3388 0.0000 42.5906
#
#
#
# Elastic Compliance Matrix: (Units=1/GPa)
#
#
# Indices 1 2 3 4 5 6 
#
# 1 0.007851 -0.006182 -0.001525 0.000000 -0.004318 0.000000
# 2 -0.006182 0.027494 -0.000700 0.000000 0.004193 0.000000
# 3 -0.001525 -0.000700 0.011515 0.000000 -0.004218 0.000000
# 4 0.000000 0.000000 0.000000 0.053268 0.000000 0.015432
# 5 -0.004318 0.004193 -0.004218 0.000000 0.031849 0.000000
# 6 0.000000 0.000000 0.000000 0.015432 0.000000 0.027950
#
#
# Mechanical properties :
#
#
# Convention : Reuss Voigt Hill
#
# Bulk Modulus (GPa) = 33.28143 52.88874 43.08509
# Shear Modulus (GPa) = 26.77274 36.34568 31.55921
#
# Velocity S-wave (km/s) = 3.42716 3.99314 3.72093
# Velocity P-wave (km/s) = 5.50104 6.66806 6.11246
#
# Compressibility (1/GPa) = 0.03004679
#
# Stress axis : x y z
#
# Youngs Moduli (GPa) = 127.37322 36.37130 86.84048
#
# Poissons Ratio (x) = 0.22485 0.13241
# Poissons Ratio (y) = 0.78742 0.06080
# Poissons Ratio (z) = 0.19421 0.02547
#
# Static dielectric constant tensor:
#      x y z
#    x 1.940220 0.000000 0.001300 
#    y 0.000000 1.871720 0.000000 
#    z 0.001300 0.000000 1.898900 
# 
# From -- ./inp_files/45258.got.cif
#   From: 2010.05.17/outbox.cif.g08.bks.cpg/sg14_23_cif.got.tgz:45258.got - 2010.06.03 17:49:19.
