data_PCOD9250603
_publ_section_title
;
Structure prediction by ZEFSAII (Michael W. Deem and Ramdas Pophale) SiO2 
 PCOD9250603
Probable space group: P 21/C
;
_chemical_formula_sum "Si O2"
_cell_formula_units_Z 32
_cell_length_a 14.324434
_cell_length_b 12.009824
_cell_length_c 8.386551
_cell_angle_alpha 90.000000
_cell_angle_beta 109.432148
_cell_angle_gamma 90.000000
_cell_volume 1360.585510
_symmetry_space_group_name_H-M "P 21/C"
_symmetry_group_IT_number 14
_symmetry_cell_setting 'monoclinic'
loop_
_space_group_symop_operation_xyz
x,y,z
-x,1/2+y,1/2-z
-x,-y,-z
x,1/2-y,1/2+z
loop_
_atom_site_type_symbol
_atom_site_label
_atom_site_fract_x
_atom_site_fract_y
_atom_site_fract_z
Si Si1 0.730506 0.134497 0.508264
Si Si2 0.937556 0.051170 0.620677
Si Si3 0.760715 0.130379 0.908420
Si Si4 0.455214 0.016936 0.650223
Si Si5 0.977392 0.369438 0.474073
Si Si6 0.335050 0.301821 0.233693
Si Si7 0.108714 0.345336 0.026467
Si Si8 0.358245 0.081308 0.085204
O O1 0.833633 0.092669 0.485796
O O2 0.738891 0.122575 0.705587
O O3 0.708791 0.261438 0.450452
O O4 0.642180 0.058529 0.395860
O O5 0.942948 0.133884 0.771709
O O6 0.045798 0.073216 0.606919
O O7 0.917927 0.919182 0.646381
O O8 0.876603 0.149695 0.012263
O O9 0.723562 0.015051 0.959887
O O10 0.537393 0.977254 0.822288
O O11 0.500000 0.000000 0.500000
O O12 0.417801 0.140383 0.670137
O O13 0.000000 0.500000 0.500000
O O14 0.060238 0.274719 0.526687
O O15 0.224543 0.335919 0.116185
O O16 0.341136 0.169456 0.218006
O O17 0.351211 0.348939 0.419255
#
# Coordination Sequence:
#
# PCOD9250603 Si02
#       8
#     4   4   4   4   4   4   4   4
#     4  11  24  47  73 107 147 193 245 315 377 447
#     4  10  24  44  69 104 143 192 245 305 370 455
#     4  11  26  45  73 110 152 194 255 309 375 458
#     4  12  26  52  79 108 146 198 253 321 391 452
#     4  11  25  41  69 104 148 195 245 301 374 452
#     4  12  29  49  79 109 156 202 258 322 383 465
#     4  11  24  45  72 105 149 199 247 304 381 451
#     4  12  29  50  77 115 152 205 262 318 387 454
#
# _framework density 23.519288
#
# number of rings (size 3 to 8) (size 9 to 14) (size 15 to 20)
#    0.000    0.750    3.750    1.875    8.750    1.000 
#    0.000    0.000    0.000    0.000    0.000    0.000 
#    0.000    0.000    0.000    0.000    0.000    0.000 
#
# Total GULP energy -178739.615314 kJ/mol
# GULP energy per Si atom -5585.612979 kJ/mol
# Density = 2.346576 g / cm^3
# Si number density = 23.519288 Si / 1000 Ang^3
#
#
#
# Elastic Constant Matrix: (Units=GPa)
#
#
# Indices 1 2 3 4 5 6 
#
# 1 109.5312 37.6256 20.5368 0.0000 20.4325 0.0000
# 2 37.6256 155.6864 13.1170 0.0000 7.4944 0.0000
# 3 20.5368 13.1170 40.1288 0.0000 2.4493 0.0000
# 4 0.0000 0.0000 0.0000 35.3549 0.0000 0.5319
# 5 20.4325 7.4944 2.4493 0.0000 28.3270 0.0000
# 6 0.0000 0.0000 0.0000 0.5319 0.0000 50.8709
#
#
#
# Elastic Compliance Matrix: (Units=1/GPa)
#
#
# Indices 1 2 3 4 5 6 
#
# 1 0.012296 -0.002163 -0.005106 0.000000 -0.007855 0.000000
# 2 -0.002163 0.007056 -0.001187 0.000000 -0.000204 0.000000
# 3 -0.005106 -0.001187 0.027824 0.000000 0.001591 0.000000
# 4 0.000000 0.000000 0.000000 0.028289 0.000000 -0.000296
# 5 -0.007855 -0.000204 0.001591 0.000000 0.040884 0.000000
# 6 0.000000 0.000000 0.000000 -0.000296 0.000000 0.019661
#
#
# Mechanical properties :
#
#
# Convention : Reuss Voigt Hill
#
# Bulk Modulus (GPa) = 33.04369 49.76724 41.40547
# Shear Modulus (GPa) = 30.67315 38.51502 34.59408
#
# Velocity S-wave (km/s) = 3.61525 4.05111 3.83937
# Velocity P-wave (km/s) = 5.61309 6.56415 6.10716
#
# Compressibility (1/GPa) = 0.03026296
#
# Stress axis : x y z
#
# Youngs Moduli (GPa) = 81.32977 141.72799 35.94058
#
# Poissons Ratio (x) = 0.30659 0.18351
# Poissons Ratio (y) = 0.17593 0.04266
# Poissons Ratio (z) = 0.41527 0.16821
#
# Static dielectric constant tensor:
#      x y z
#    x 1.990340 0.000000 -0.177640 
#    y 0.000000 1.942950 0.000000 
#    z -0.177640 0.000000 2.117280 
# 
# From -- ./inp_files/15860.got.cif
#   From: 2010.05.17/outbox.cif.g08.bks.cpg/sg14_8_cif.got.tgz:15860.got - 2010.06.03 17:49:19.
