data_PCOD9250190
_publ_section_title
;
Structure prediction by ZEFSAII (Michael W. Deem and Ramdas Pophale) SiO2 
 PCOD9250190
Probable space group: P 21/C
;
_chemical_formula_sum "Si O2"
_cell_formula_units_Z 24
_cell_length_a 8.722452
_cell_length_b 7.433088
_cell_length_c 19.425214
_cell_angle_alpha 90.000000
_cell_angle_beta 44.690957
_cell_angle_gamma 90.000000
_cell_volume 885.734356
_symmetry_space_group_name_H-M "P 21/C"
_symmetry_group_IT_number 14
_symmetry_cell_setting 'monoclinic'
loop_
_space_group_symop_operation_xyz
x,y,z
-x,1/2+y,1/2-z
-x,-y,-z
x,1/2-y,1/2+z
loop_
_atom_site_type_symbol
_atom_site_label
_atom_site_fract_x
_atom_site_fract_y
_atom_site_fract_z
Si Si1 0.172574 0.705307 0.473939
Si Si2 0.030742 0.927926 0.631636
Si Si3 0.864679 0.935995 0.169485
Si Si4 0.612448 0.367125 0.221017
Si Si5 0.480342 0.585235 0.598255
Si Si6 0.788948 0.707097 0.387656
O O1 0.263075 0.733535 0.369754
O O2 0.327809 0.559521 0.457187
O O3 0.935765 0.629263 0.569396
O O4 0.179022 0.889183 0.516357
O O5 0.795204 0.983218 0.676530
O O6 0.140826 0.083722 0.641621
O O7 0.981582 0.727864 0.675640
O O8 0.447434 0.816988 0.181353
O O9 0.993138 0.113542 0.150913
O O10 0.395225 0.424023 0.248873
O O11 0.576761 0.708321 0.506756
O O12 0.284937 0.445908 0.643375
#
# Coordination Sequence:
#
# PCOD9250190 Si02
#       6
#     4   4   4   4   4   4
#     4   9  23  44  68 108 145 181 245 307 354 432
#     4  10  24  43  70 106 139 188 240 301 359 431
#     4   9  24  44  72 105 146 185 247 300 359 434
#     4  12  23  42  75 106 146 189 244 298 364 431
#     4  10  24  45  71 103 144 193 242 296 371 434
#     4  10  23  48  71  99 146 197 233 302 370 424
#
# _framework density 27.096162
#
# number of rings (size 3 to 8) (size 9 to 14) (size 15 to 20)
#    1.000    1.000    0.000    1.500    7.000    3.333 
#    6.000    0.000    0.000    0.000    0.000    0.000 
#    0.000    0.000    0.000    0.000    0.000    0.000 
#
# Total GULP energy -133908.418371 kJ/mol
# GULP energy per Si atom -5579.517432 kJ/mol
# Density = 2.703449 g / cm^3
# Si number density = 27.096162 Si / 1000 Ang^3
#
#
#
# Elastic Constant Matrix: (Units=GPa)
#
#
# Indices 1 2 3 4 5 6 
#
# 1 92.2598 21.3101 29.4257 0.0000 -17.6372 0.0000
# 2 21.3101 108.1013 29.6603 0.0000 -3.6102 0.0000
# 3 29.4257 29.6603 125.4681 0.0000 -9.2617 0.0000
# 4 0.0000 0.0000 0.0000 44.9424 0.0000 14.6626
# 5 -17.6372 -3.6102 -9.2617 0.0000 30.4274 0.0000
# 6 0.0000 0.0000 0.0000 14.6626 0.0000 25.7140
#
#
#
# Elastic Compliance Matrix: (Units=1/GPa)
#
#
# Indices 1 2 3 4 5 6 
#
# 1 0.013248 -0.001786 -0.002183 0.000000 0.006803 0.000000
# 2 -0.001786 0.010139 -0.002011 0.000000 -0.000444 0.000000
# 3 -0.002183 -0.002011 0.009050 0.000000 0.001251 0.000000
# 4 0.000000 0.000000 0.000000 0.027336 0.000000 -0.015588
# 5 0.006803 -0.000444 0.001251 0.000000 0.037137 0.000000
# 6 0.000000 0.000000 0.000000 -0.015588 0.000000 0.047778
#
#
# Mechanical properties :
#
#
# Convention : Reuss Voigt Hill
#
# Bulk Modulus (GPa) = 48.83086 54.06907 51.44997
# Shear Modulus (GPa) = 30.58618 36.57896 33.58257
#
# Velocity S-wave (km/s) = 3.36341 3.67818 3.52431
# Velocity P-wave (km/s) = 5.75707 6.16737 5.96575
#
# Compressibility (1/GPa) = 0.02047885
#
# Stress axis : x y z
#
# Youngs Moduli (GPa) = 75.48265 98.62430 110.49980
#
# Poissons Ratio (x) = 0.17609 0.24120
# Poissons Ratio (y) = 0.13477 0.22221
# Poissons Ratio (z) = 0.16476 0.19833
#
# Static dielectric constant tensor:
#      x y z
#    x 2.117070 0.000000 0.082000 
#    y 0.000000 2.283900 0.000000 
#    z 0.082000 0.000000 2.235870 
# 
# From -- ./inp_files/64736.got.cif
#   From: 2010.05.17/outbox.cif.g08.bks.cpg/sg14_33_cif.got.tgz:64736.got - 2010.06.03 17:49:19.
