data_PCOD9250531
_publ_section_title
;
Structure prediction by ZEFSAII (Michael W. Deem and Ramdas Pophale) SiO2 
 PCOD9250531
Probable space group: P 21/C
;
_chemical_formula_sum "Si O2"
_cell_formula_units_Z 20
_cell_length_a 8.017160
_cell_length_b 5.241987
_cell_length_c 22.402798
_cell_angle_alpha 90.000000
_cell_angle_beta 129.746520
_cell_angle_gamma 90.000000
_cell_volume 723.898531
_symmetry_space_group_name_H-M "P 21/C"
_symmetry_group_IT_number 14
_symmetry_cell_setting 'monoclinic'
loop_
_space_group_symop_operation_xyz
x,y,z
-x,1/2+y,1/2-z
-x,-y,-z
x,1/2-y,1/2+z
loop_
_atom_site_type_symbol
_atom_site_label
_atom_site_fract_x
_atom_site_fract_y
_atom_site_fract_z
Si Si1 0.690963 0.972726 0.622817
Si Si2 0.436721 0.535037 0.268419
Si Si3 0.054283 0.207732 0.201145
Si Si4 0.720039 0.276174 0.433140
Si Si5 0.922457 0.659632 0.574365
O O1 0.830923 0.872514 0.711717
O O2 0.439371 0.942800 0.579380
O O3 0.761477 0.822575 0.579191
O O4 0.795788 0.251588 0.643591
O O5 0.493302 0.821636 0.264429
O O6 0.181704 0.468438 0.214993
O O7 0.562658 0.450107 0.356293
O O8 0.074496 0.005311 0.153406
O O9 0.804877 0.449887 0.506153
O O10 0.917012 0.193631 0.434770
#
# Coordination Sequence:
#
# PCOD9250531 Si02
#       5
#     4   4   4   4   4
#     4  11  23  43  65 102 134 190 235 311 355 450
#     4  11  23  44  70 106 140 191 245 301 359 448
#     4  11  23  39  72  97 143 186 247 298 369 434
#     4  10  24  43  70  99 143 188 236 303 375 431
#     4  11  22  47  64 102 142 184 241 302 368 446
#
# _framework density 27.628183
#
# number of rings (size 3 to 8) (size 9 to 14) (size 15 to 20)
#    0.000    1.200    4.000    1.800    0.000    0.800 
#    3.600    3.000    0.000    0.000    0.000    0.000 
#    0.000    0.000    0.000    0.000    0.000    0.000 
#
# Total GULP energy -112159.330925 kJ/mol
# GULP energy per Si atom -5607.966546 kJ/mol
# Density = 2.756530 g / cm^3
# Si number density = 27.628183 Si / 1000 Ang^3
#
#
#
# Elastic Constant Matrix: (Units=GPa)
#
#
# Indices 1 2 3 4 5 6 
#
# 1 165.8906 37.0105 37.1628 0.0000 -1.9900 0.0000
# 2 37.0105 43.0346 27.6165 0.0000 -6.8195 0.0000
# 3 37.1628 27.6165 140.5314 0.0000 -38.0990 0.0000
# 4 0.0000 0.0000 0.0000 47.8839 0.0000 -7.3602
# 5 -1.9900 -6.8195 -38.0990 0.0000 43.7942 0.0000
# 6 0.0000 0.0000 0.0000 -7.3602 0.0000 45.9280
#
#
#
# Elastic Compliance Matrix: (Units=1/GPa)
#
#
# Indices 1 2 3 4 5 6 
#
# 1 0.007640 -0.006005 -0.001308 0.000000 -0.001726 0.000000
# 2 -0.006005 0.031319 -0.004343 0.000000 0.000826 0.000000
# 3 -0.001308 -0.004343 0.010621 0.000000 0.008504 0.000000
# 4 0.000000 0.000000 0.000000 0.021411 0.000000 0.003431
# 5 -0.001726 0.000826 0.008504 0.000000 0.030282 0.000000
# 6 0.000000 0.000000 0.000000 0.003431 0.000000 0.022323
#
#
# Mechanical properties :
#
#
# Convention : Reuss Voigt Hill
#
# Bulk Modulus (GPa) = 38.06874 61.44848 49.75861
# Shear Modulus (GPa) = 32.12052 44.03235 38.07643
#
# Velocity S-wave (km/s) = 3.41339 3.99651 3.71640
# Velocity P-wave (km/s) = 5.41700 6.60194 6.03860
#
# Compressibility (1/GPa) = 0.02626827
#
# Stress axis : x y z
#
# Youngs Moduli (GPa) = 130.88878 31.92962 94.15558
#
# Poissons Ratio (x) = 0.19172 0.12319
# Poissons Ratio (y) = 0.78592 0.40890
# Poissons Ratio (z) = 0.17125 0.13867
#
# Static dielectric constant tensor:
#      x y z
#    x 2.357930 0.000000 0.003910 
#    y 0.000000 2.114410 0.000000 
#    z 0.003910 0.000000 2.066400 
# 
# From -- ./inp_files/53964.got.cif
#   From: 2010.05.17/outbox.cif.g08.bks.cpg/sg14_27_cif.got.tgz:53964.got - 2010.06.03 17:49:19.
