data_PCOD9250855
_publ_section_title
;
Structure prediction by ZEFSAII (Michael W. Deem and Ramdas Pophale) SiO2 
 PCOD9250855
Probable space group: P 21/C
;
_chemical_formula_sum "Si O2"
_cell_formula_units_Z 26
_cell_length_a 14.716429
_cell_length_b 9.877703
_cell_length_c 14.681058
_cell_angle_alpha 90.000000
_cell_angle_beta 29.379229
_cell_angle_gamma 90.000000
_cell_volume 1046.966001
_symmetry_space_group_name_H-M "P 21/C"
_symmetry_group_IT_number 14
_symmetry_cell_setting 'monoclinic'
loop_
_space_group_symop_operation_xyz
x,y,z
-x,1/2+y,1/2-z
-x,-y,-z
x,1/2-y,1/2+z
loop_
_atom_site_type_symbol
_atom_site_label
_atom_site_fract_x
_atom_site_fract_y
_atom_site_fract_z
Si Si1 0.961831 0.356835 0.582626
Si Si2 0.023528 0.564661 0.219278
Si Si3 0.576604 0.356398 0.150503
Si Si4 0.332544 0.928758 0.947651
Si Si5 0.548234 0.158382 0.462094
Si Si6 0.801668 0.663315 0.244062
Si Si7 0.500000 0.500000 0.500000
O O1 0.750336 0.317870 0.746210
O O2 0.000000 0.500000 0.500000
O O3 0.975858 0.373955 0.679266
O O4 0.101272 0.250648 0.417270
O O5 0.889161 0.434293 0.344705
O O6 0.924267 0.650795 0.226718
O O7 0.237980 0.552672 0.003532
O O8 0.609732 0.205083 0.158157
O O9 0.398745 0.438418 0.335952
O O10 0.556881 0.322694 0.062000
O O11 0.432186 0.952872 0.956956
O O12 0.398525 0.266146 0.556287
O O13 0.500000 0.000000 0.500000
O O14 0.723538 0.521580 0.277174
#
# Coordination Sequence:
#
# PCOD9250855 Si02
#       7
#     4   4   4   4   4   4   2
#     4  11  24  45  72 106 142 185 244 302 368 436
#     4  10  27  45  68 112 142 189 244 308 360 452
#     4  11  26  47  75 109 146 195 245 304 379 436
#     4  11  25  48  74 105 150 191 250 302 374 445
#     4  11  23  43  75 105 139 188 246 306 363 443
#     4  11  23  47  70 100 145 188 238 301 367 431
#     4  10  24  48  66 100 146 190 238 298 366 444
#
# _framework density 24.833662
#
# number of rings (size 3 to 8) (size 9 to 14) (size 15 to 20)
#    0.000    1.231    3.077    0.923    2.154    6.154 
#    2.769    2.308    0.000    0.000    0.000    0.000 
#    0.000    0.000    0.000    0.000    0.000    0.000 
#
# Total GULP energy -144945.106702 kJ/mol
# GULP energy per Si atom -5574.811796 kJ/mol
# Density = 2.477714 g / cm^3
# Si number density = 24.833662 Si / 1000 Ang^3
#
#
#
# Elastic Constant Matrix: (Units=GPa)
#
#
# Indices 1 2 3 4 5 6 
#
# 1 90.0038 -11.0235 1.9131 0.0000 -2.4274 0.0000
# 2 -11.0235 49.3870 7.8661 0.0000 -2.8392 0.0000
# 3 1.9131 7.8661 69.5204 0.0000 -13.8661 0.0000
# 4 0.0000 0.0000 0.0000 39.4255 0.0000 -8.9087
# 5 -2.4274 -2.8392 -13.8661 0.0000 41.9959 0.0000
# 6 0.0000 0.0000 0.0000 -8.9087 0.0000 24.7999
#
#
#
# Elastic Compliance Matrix: (Units=1/GPa)
#
#
# Indices 1 2 3 4 5 6 
#
# 1 0.011467 0.002676 -0.000482 0.000000 0.000685 0.000000
# 2 0.002676 0.021262 -0.002314 0.000000 0.000828 0.000000
# 3 -0.000482 -0.002314 0.015653 0.000000 0.004984 0.000000
# 4 0.000000 0.000000 0.000000 0.027605 0.000000 0.009916
# 5 0.000685 0.000828 0.004984 0.000000 0.025553 0.000000
# 6 0.000000 0.000000 0.000000 0.009916 0.000000 0.043885
#
#
# Mechanical properties :
#
#
# Convention : Reuss Voigt Hill
#
# Bulk Modulus (GPa) = 20.77212 22.93586 21.85399
# Shear Modulus (GPa) = 30.91895 35.25460 33.08677
#
# Velocity S-wave (km/s) = 3.53234 3.77188 3.65408
# Velocity P-wave (km/s) = 5.00192 5.31275 5.15968
#
# Compressibility (1/GPa) = 0.04814146
#
# Stress axis : x y z
#
# Youngs Moduli (GPa) = 87.20643 47.03301 63.88358
#
# Poissons Ratio (x) = -0.12584 0.03078
# Poissons Ratio (y) = -0.23333 0.14784
# Poissons Ratio (z) = 0.04201 0.10884
#
# Static dielectric constant tensor:
#      x y z
#    x 1.845070 0.000000 -0.017940 
#    y 0.000000 2.023990 0.000000 
#    z -0.017940 0.000000 1.952840 
# 
# From -- ./inp_files/47072.got.cif
#   From: 2010.05.17/outbox.cif.g08.bks.cpg/sg14_24_cif.got.tgz:47072.got - 2010.06.03 17:49:19.
