data_PCOD9250754
_publ_section_title
;
Structure prediction by ZEFSAII (Michael W. Deem and Ramdas Pophale) SiO2 
 PCOD9250754
Probable space group: P 21/C
;
_chemical_formula_sum "Si O2"
_cell_formula_units_Z 18
_cell_length_a 12.821512
_cell_length_b 15.470449
_cell_length_c 10.153669
_cell_angle_alpha 90.000000
_cell_angle_beta 158.443271
_cell_angle_gamma 90.000000
_cell_volume 739.998140
_symmetry_space_group_name_H-M "P 21/C"
_symmetry_group_IT_number 14
_symmetry_cell_setting 'monoclinic'
loop_
_space_group_symop_operation_xyz
x,y,z
-x,1/2+y,1/2-z
-x,-y,-z
x,1/2-y,1/2+z
loop_
_atom_site_type_symbol
_atom_site_label
_atom_site_fract_x
_atom_site_fract_y
_atom_site_fract_z
Si Si1 0.000000 0.500000 0.500000
Si Si2 0.279502 0.057260 0.817011
Si Si3 0.329299 0.400489 0.674024
Si Si4 0.871936 0.157086 0.940695
Si Si5 0.034092 0.275850 0.899468
O O1 0.092289 0.459823 0.461953
O O2 0.639301 0.410852 0.107308
O O3 0.373635 0.080204 0.074463
O O4 0.216069 0.144802 0.664579
O O5 0.000000 0.000000 0.500000
O O6 0.500000 0.000000 0.000000
O O7 0.134291 0.408093 0.727986
O O8 0.226786 0.302033 0.570885
O O9 0.882534 0.234809 0.849221
O O10 0.842640 0.191319 0.052838
#
# Coordination Sequence:
#
# PCOD9250754 Si02
#       5
#     2   4   4   4   4
#     4  10  24  46  68 110 144 192 264 314 388 464
#     4  12  30  52  81 117 163 208 268 331 403 476
#     4  11  26  47  78 111 152 211 262 327 399 482
#     4  11  25  44  75 104 156 197 268 314 403 462
#     4  11  26  47  73 113 153 204 260 328 395 479
#
# _framework density 24.324384999999999
#
# number of rings (size 3 to 8) (size 9 to 14) (size 15 to 20)
#    0.000    0.889    2.222    2.000   15.556    0.000 
#    0.000    0.000    0.000    0.000    0.000    0.000 
#    0.000    0.000    0.000    0.000    0.000    0.000 
#
# Total GULP energy -100402.146820 kJ/mol
# GULP energy per Si atom -5577.897046 kJ/mol
# Density = 2.426902 g / cm^3
# Si number density = 24.324385 Si / 1000 Ang^3
#
#
#
# Elastic Constant Matrix: (Units=GPa)
#
#
# Indices 1 2 3 4 5 6 
#
# 1 214.8200 89.7364 65.2909 0.0000 -22.4475 0.0000
# 2 89.7364 167.9510 36.9094 0.0000 -18.1292 0.0000
# 3 65.2909 36.9094 73.6281 0.0000 -6.4793 0.0000
# 4 0.0000 0.0000 0.0000 26.4223 0.0000 11.0758
# 5 -22.4475 -18.1292 -6.4793 0.0000 41.4757 0.0000
# 6 0.0000 0.0000 0.0000 11.0758 0.0000 47.0243
#
#
#
# Elastic Compliance Matrix: (Units=1/GPa)
#
#
# Indices 1 2 3 4 5 6 
#
# 1 0.007570 -0.002677 -0.005185 0.000000 0.002117 0.000000
# 2 -0.002677 0.007889 -0.001425 0.000000 0.001777 0.000000
# 3 -0.005185 -0.001425 0.018851 0.000000 -0.000484 0.000000
# 4 0.000000 0.000000 0.000000 0.041993 0.000000 -0.009891
# 5 0.002117 0.001777 -0.000484 0.000000 0.025958 0.000000
# 6 0.000000 0.000000 0.000000 -0.009891 0.000000 0.023595
#
#
# Mechanical properties :
#
#
# Convention : Reuss Voigt Hill
#
# Bulk Modulus (GPa) = 63.54121 93.36360 78.45240
# Shear Modulus (GPa) = 33.40560 40.61529 37.01045
#
# Velocity S-wave (km/s) = 3.70988 4.09067 3.90492
# Velocity P-wave (km/s) = 6.67309 7.79599 7.25629
#
# Compressibility (1/GPa) = 0.01573782
#
# Stress axis : x y z
#
# Youngs Moduli (GPa) = 132.09397 126.75405 53.04703
#
# Poissons Ratio (x) = 0.33930 0.27505
# Poissons Ratio (y) = 0.35360 0.07558
# Poissons Ratio (z) = 0.68490 0.18059
#
# Static dielectric constant tensor:
#      x y z
#    x 1.907710 0.000000 -0.139910 
#    y 0.000000 1.741200 0.000000 
#    z -0.139910 0.000000 1.466220 
# 
# From -- ./inp_files/29452.got.cif
#   From: 2010.05.17/outbox.cif.g08.bks.cpg/sg14_15_cif.got.tgz:29452.got - 2010.06.03 17:49:19.
