data_PCOD9250099
_publ_section_title
;
Structure prediction by ZEFSAII (Michael W. Deem and Ramdas Pophale) SiO2 
 PCOD9250099
Probable space group: P 21/C
;
_chemical_formula_sum "Si O2"
_cell_formula_units_Z 26
_cell_length_a 10.728880
_cell_length_b 7.254168
_cell_length_c 25.338950
_cell_angle_alpha 90.000000
_cell_angle_beta 35.291072
_cell_angle_gamma 90.000000
_cell_volume 1139.346613
_symmetry_space_group_name_H-M "P 21/C"
_symmetry_group_IT_number 14
_symmetry_cell_setting 'monoclinic'
loop_
_space_group_symop_operation_xyz
x,y,z
-x,1/2+y,1/2-z
-x,-y,-z
x,1/2-y,1/2+z
loop_
_atom_site_type_symbol
_atom_site_label
_atom_site_fract_x
_atom_site_fract_y
_atom_site_fract_z
Si Si1 0.608404 0.080715 0.270448
Si Si2 0.731639 0.786680 0.859391
Si Si3 0.638411 0.649800 0.246022
Si Si4 0.493587 0.390039 0.383104
Si Si5 0.944151 0.208839 0.347384
Si Si6 0.500000 0.500000 0.000000
Si Si7 0.087768 0.395195 0.592131
O O1 0.421685 0.133752 0.293985
O O2 0.590695 0.197239 0.329986
O O3 0.838688 0.137200 0.165670
O O4 0.608188 0.860447 0.275291
O O5 0.835731 0.793413 0.881437
O O6 0.916767 0.742551 0.753044
O O7 0.631893 0.985715 0.876450
O O8 0.541242 0.641408 0.934265
O O9 0.489150 0.517303 0.332518
O O10 0.883111 0.596390 0.176651
O O11 0.261177 0.351887 0.487901
O O12 0.729115 0.102402 0.408338
O O13 0.895220 0.391414 0.397274
#
# Coordination Sequence:
#
# PCOD9250099 Si02
#       7
#     4   4   4   4   4   2   4
#     4  11  24  46  76 100 148 196 239 304 376 426
#     4  11  25  42  69 106 147 191 242 298 374 448
#     4  10  23  46  72 103 145 192 247 302 364 440
#     4  11  24  46  69 104 146 187 244 307 358 444
#     4  10  24  44  67 107 142 188 240 303 367 439
#     4  12  24  42  74 102 150 194 238 308 370 442
#     4  11  25  43  68 106 141 190 241 300 368 440
#
# _framework density 22.820095999999999
#
# number of rings (size 3 to 8) (size 9 to 14) (size 15 to 20)
#    0.000    1.231    3.077    1.385    6.462    4.308 
#    0.000    0.769    0.000    0.000    0.000    0.000 
#    0.000    0.000    0.000    0.000    0.000    0.000 
#
# Total GULP energy -144911.748791 kJ/mol
# GULP energy per Si atom -5573.528800 kJ/mol
# Density = 2.276816 g / cm^3
# Si number density = 22.820096 Si / 1000 Ang^3
#
#
#
# Elastic Constant Matrix: (Units=GPa)
#
#
# Indices 1 2 3 4 5 6 
#
# 1 1668.5978 -476.5285 -267.4910 0.0000 -828.4569 0.0000
# 2 -476.5285 231.5445 101.5800 0.0000 256.0217 0.0000
# 3 -267.4910 101.5800 183.6973 0.0000 135.3405 0.0000
# 4 0.0000 0.0000 0.0000 73.0039 0.0000 15.8814
# 5 -828.4569 256.0217 135.3405 0.0000 446.6341 0.0000
# 6 0.0000 0.0000 0.0000 15.8814 0.0000 35.4145
#
#
#
# Elastic Compliance Matrix: (Units=1/GPa)
#
#
# Indices 1 2 3 4 5 6 
#
# 1 0.007693 -0.000108 0.000905 0.000000 0.014057 0.000000
# 2 -0.000108 0.012385 -0.002096 0.000000 -0.006664 0.000000
# 3 0.000905 -0.002096 0.007465 0.000000 0.000618 0.000000
# 4 0.000000 0.000000 0.000000 0.015179 0.000000 -0.006807
# 5 0.014057 -0.006664 0.000618 0.000000 0.031946 0.000000
# 6 0.000000 0.000000 0.000000 -0.006807 0.000000 0.031289
#
#
# Mechanical properties :
#
#
# Convention : Reuss Voigt Hill
#
# Bulk Modulus (GPa) = 40.08511 88.77341 64.42926
# Shear Modulus (GPa) = 42.78257 292.76245 167.77251
#
# Velocity S-wave (km/s) = 4.33457 11.33887 8.58366
# Velocity P-wave (km/s) = 6.53109 14.50560 11.24873
#
# Compressibility (1/GPa) = 0.02494692
#
# Stress axis : x y z
#
# Youngs Moduli (GPa) = 129.98971 80.74011 133.95484
#
# Poissons Ratio (x) = 0.00869 -0.12123
# Poissons Ratio (y) = 0.01400 0.28072
# Poissons Ratio (z) = -0.11764 0.16920
#
# Static dielectric constant tensor:
#      x y z
#    x 1.910310 0.000000 -0.048280 
#    y 0.000000 1.989170 0.000000 
#    z -0.048280 0.000000 1.850500 
# 
# From -- ./inp_files/77001.got.cif
#   From: 2010.05.17/outbox.cif.g08.bks.cpg/sg14_39_cif.got.tgz:77001.got - 2010.06.03 17:49:19.
