data_PCOD9250521
_publ_section_title
;
Structure prediction by ZEFSAII (Michael W. Deem and Ramdas Pophale) SiO2 
 PCOD9250521
Probable space group: P 21/C
;
_chemical_formula_sum "Si O2"
_cell_formula_units_Z 28
_cell_length_a 20.653938
_cell_length_b 10.053338
_cell_length_c 8.039264
_cell_angle_alpha 90.000000
_cell_angle_beta 43.243535
_cell_angle_gamma 90.000000
_cell_volume 1143.625731
_symmetry_space_group_name_H-M "P 21/C"
_symmetry_group_IT_number 14
_symmetry_cell_setting 'monoclinic'
loop_
_space_group_symop_operation_xyz
x,y,z
-x,1/2+y,1/2-z
-x,-y,-z
x,1/2-y,1/2+z
loop_
_atom_site_type_symbol
_atom_site_label
_atom_site_fract_x
_atom_site_fract_y
_atom_site_fract_z
Si Si1 0.836282 0.315862 0.858146
Si Si2 0.801887 0.676815 0.483001
Si Si3 0.606081 0.658627 0.037671
Si Si4 0.363415 0.609599 0.897805
Si Si5 0.920646 0.434443 0.383101
Si Si6 0.140830 0.063525 0.469281
Si Si7 0.477710 0.817365 0.491835
O O1 0.910412 0.377701 0.588761
O O2 0.869583 0.173584 0.860248
O O3 0.828056 0.419670 0.025568
O O4 0.736146 0.322921 0.952847
O O5 0.697932 0.679302 0.755031
O O6 0.867230 0.574199 0.464375
O O7 0.843858 0.824554 0.418396
O O8 0.804457 0.619307 0.292743
O O9 0.518876 0.613246 0.079819
O O10 0.634663 0.548591 0.119761
O O11 0.565165 0.786629 0.207020
O O12 0.438596 0.677816 0.636890
O O13 0.393423 0.631454 0.033762
O O14 0.030171 0.445141 0.133533
#
# Coordination Sequence:
#
# PCOD9250521 Si02
#       7
#     4   4   4   4   4   4   4
#     4  12  25  44  72 101 140 177 230 289 337 412
#     4  12  25  44  70 100 140 178 232 281 340 410
#     4  11  23  44  66  99 133 176 226 275 341 399
#     4  11  23  44  66 101 132 174 227 275 344 397
#     4  12  24  46  70 102 137 181 230 282 345 408
#     4  12  26  45  70 101 137 184 227 284 345 407
#     4  10  24  43  70  94 135 176 221 283 335 411
#
# _framework density 24.483535
#
# number of rings (size 3 to 8) (size 9 to 14) (size 15 to 20)
#    0.000    0.571    1.429    6.857    2.000    0.000 
#    5.143    0.000    0.000    0.000    0.000    0.000 
#    0.000    0.000    0.000    0.000    0.000    0.000 
#
# Total GULP energy -156860.826855 kJ/mol
# GULP energy per Si atom -5602.172388 kJ/mol
# Density = 2.442781 g / cm^3
# Si number density = 24.483535 Si / 1000 Ang^3
#
#
#
# Elastic Constant Matrix: (Units=GPa)
#
#
# Indices 1 2 3 4 5 6 
#
# 1 104.2837 36.1418 19.5289 0.0000 -17.9758 0.0000
# 2 36.1418 73.5535 -2.0288 0.0000 -15.4523 0.0000
# 3 19.5289 -2.0288 96.5820 0.0000 -7.2105 0.0000
# 4 0.0000 0.0000 0.0000 25.5532 0.0000 6.1890
# 5 -17.9758 -15.4523 -7.2105 0.0000 43.1028 0.0000
# 6 0.0000 0.0000 0.0000 6.1890 0.0000 43.9147
#
#
#
# Elastic Compliance Matrix: (Units=1/GPa)
#
#
# Indices 1 2 3 4 5 6 
#
# 1 0.012468 -0.005609 -0.002431 0.000000 0.002782 0.000000
# 2 -0.005609 0.017275 0.001807 0.000000 0.004156 0.000000
# 3 -0.002431 0.001807 0.010993 0.000000 0.001473 0.000000
# 4 0.000000 0.000000 0.000000 0.040517 0.000000 -0.005710
# 5 0.002782 0.004156 0.001473 0.000000 0.026097 0.000000
# 6 0.000000 0.000000 0.000000 -0.005710 0.000000 0.023576
#
#
# Mechanical properties :
#
#
# Convention : Reuss Voigt Hill
#
# Bulk Modulus (GPa) = 35.37273 42.41145 38.89209
# Shear Modulus (GPa) = 32.71926 37.23263 34.97594
#
# Velocity S-wave (km/s) = 3.65962 3.90387 3.78372
# Velocity P-wave (km/s) = 5.68647 6.13843 5.91677
#
# Compressibility (1/GPa) = 0.02827037
#
# Stress axis : x y z
#
# Youngs Moduli (GPa) = 80.20546 57.88858 90.96361
#
# Poissons Ratio (x) = 0.32469 0.22115
# Poissons Ratio (y) = 0.44987 -0.16440
# Poissons Ratio (z) = 0.19499 -0.10462
#
# Static dielectric constant tensor:
#      x y z
#    x 1.985280 0.000000 0.032850 
#    y 0.000000 1.965030 0.000000 
#    z 0.032850 0.000000 1.919430 
# 
# From -- ./inp_files/18921.got.cif
#   From: 2010.05.17/outbox.cif.g08.bks.cpg/sg14_10_cif.got.tgz:18921.got - 2010.06.03 17:49:19.
