data_PCOD9250517
_publ_section_title
;
Structure prediction by ZEFSAII (Michael W. Deem and Ramdas Pophale) SiO2 
 PCOD9250517
Probable space group: P 21/C
;
_chemical_formula_sum "Si O2"
_cell_formula_units_Z 28
_cell_length_a 8.449971
_cell_length_b 8.741865
_cell_length_c 21.872729
_cell_angle_alpha 90.000000
_cell_angle_beta 134.874089
_cell_angle_gamma 90.000000
_cell_volume 1144.984435
_symmetry_space_group_name_H-M "P 21/C"
_symmetry_group_IT_number 14
_symmetry_cell_setting 'monoclinic'
loop_
_space_group_symop_operation_xyz
x,y,z
-x,1/2+y,1/2-z
-x,-y,-z
x,1/2-y,1/2+z
loop_
_atom_site_type_symbol
_atom_site_label
_atom_site_fract_x
_atom_site_fract_y
_atom_site_fract_z
Si Si1 0.545913 0.307296 0.193844
Si Si2 0.228966 0.464700 0.431475
Si Si3 0.775298 0.573383 0.324735
Si Si4 0.202548 0.121890 0.406357
Si Si5 0.761925 0.459549 0.961431
Si Si6 0.575246 0.753258 0.656872
Si Si7 0.201629 0.948031 0.788304
O O1 0.678741 0.403247 0.281984
O O2 0.381996 0.175805 0.174525
O O3 0.406733 0.429734 0.119446
O O4 0.707283 0.223270 0.189754
O O5 0.500000 0.500000 0.500000
O O6 0.194368 0.286555 0.438365
O O7 0.135465 0.496920 0.337384
O O8 0.037047 0.560729 0.414838
O O9 0.729703 0.667422 0.249432
O O10 0.261326 0.996703 0.473178
O O11 0.345349 0.175044 0.386358
O O12 0.981177 0.055430 0.314294
O O13 0.683224 0.295702 0.915481
O O14 0.000000 0.500000 0.000000
O O15 0.613094 0.575036 0.674608
#
# Coordination Sequence:
#
# PCOD9250517 Si02
#       7
#     4   4   4   4   4   4   4
#     4  11  25  43  71 100 146 188 237 301 359 440
#     4  11  24  44  72 109 144 186 242 304 365 429
#     4  11  23  44  69 105 141 191 242 295 366 434
#     4  11  23  45  72 102 146 186 237 307 354 434
#     4  11  27  45  67 104 144 192 237 297 361 428
#     4  10  24  43  70 102 134 184 242 292 364 427
#     4  11  23  44  72 106 135 187 238 298 366 427
#
# _framework density 24.454481000000001
#
# number of rings (size 3 to 8) (size 9 to 14) (size 15 to 20)
#    0.000    1.143    2.857    2.143    6.000    3.429 
#    2.571    2.143    0.000    0.000    0.000    0.000 
#    0.000    0.000    0.000    0.000    0.000    0.000 
#
# Total GULP energy -156196.512552 kJ/mol
# GULP energy per Si atom -5578.446877 kJ/mol
# Density = 2.439882 g / cm^3
# Si number density = 24.454481 Si / 1000 Ang^3
#
#
#
# Elastic Constant Matrix: (Units=GPa)
#
#
# Indices 1 2 3 4 5 6 
#
# 1 35.5131 0.7128 6.3520 0.0000 0.0521 0.0000
# 2 0.7128 92.3856 31.4910 0.0000 8.3948 0.0000
# 3 6.3520 31.4910 119.6162 0.0000 14.9479 0.0000
# 4 0.0000 0.0000 0.0000 39.0238 0.0000 1.6590
# 5 0.0521 8.3948 14.9479 0.0000 27.5629 0.0000
# 6 0.0000 0.0000 0.0000 1.6590 0.0000 36.9929
#
#
#
# Elastic Compliance Matrix: (Units=1/GPa)
#
#
# Indices 1 2 3 4 5 6 
#
# 1 0.028453 0.000284 -0.001682 0.000000 0.000772 0.000000
# 2 0.000284 0.012005 -0.002916 0.000000 -0.002075 0.000000
# 3 -0.001682 -0.002916 0.009768 0.000000 -0.004406 0.000000
# 4 0.000000 0.000000 0.000000 0.025674 0.000000 -0.001151
# 5 0.000772 -0.002075 -0.004406 0.000000 0.039301 0.000000
# 6 0.000000 0.000000 0.000000 -0.001151 0.000000 0.027084
#
#
# Mechanical properties :
#
#
# Convention : Reuss Voigt Hill
#
# Bulk Modulus (GPa) = 24.04087 36.06963 30.05525
# Shear Modulus (GPa) = 30.34384 34.64654 32.49519
#
# Velocity S-wave (km/s) = 3.52636 3.76809 3.64923
# Velocity P-wave (km/s) = 5.14126 5.80630 5.48387
#
# Compressibility (1/GPa) = 0.04159583
#
# Stress axis : x y z
#
# Youngs Moduli (GPa) = 35.14613 83.30146 102.37819
#
# Poissons Ratio (x) = -0.02363 0.17221
# Poissons Ratio (y) = -0.00997 0.29855
# Poissons Ratio (z) = 0.05912 0.24292
#
# Static dielectric constant tensor:
#      x y z
#    x 2.160280 0.000000 0.114980 
#    y 0.000000 1.967390 0.000000 
#    z 0.114980 0.000000 1.997330 
# 
# From -- ./inp_files/76510.got.cif
#   From: 2010.05.17/outbox.cif.g08.bks.cpg/sg14_39_cif.got.tgz:76510.got - 2010.06.03 17:49:19.
