data_PCOD9250300
_publ_section_title
;
Structure prediction by ZEFSAII (Michael W. Deem and Ramdas Pophale) SiO2 
 PCOD9250300
Probable space group: P 21/C
;
_chemical_formula_sum "Si O2"
_cell_formula_units_Z 28
_cell_length_a 19.614574
_cell_length_b 5.020865
_cell_length_c 13.234518
_cell_angle_alpha 90.000000
_cell_angle_beta 46.546245
_cell_angle_gamma 90.000000
_cell_volume 946.150304
_symmetry_space_group_name_H-M "P 21/C"
_symmetry_group_IT_number 14
_symmetry_cell_setting 'monoclinic'
loop_
_space_group_symop_operation_xyz
x,y,z
-x,1/2+y,1/2-z
-x,-y,-z
x,1/2-y,1/2+z
loop_
_atom_site_type_symbol
_atom_site_label
_atom_site_fract_x
_atom_site_fract_y
_atom_site_fract_z
Si Si1 0.052387 0.695444 0.157033
Si Si2 0.541935 0.094112 0.344355
Si Si3 0.151395 0.267303 0.357784
Si Si4 0.810702 0.216245 0.813612
Si Si5 0.000000 0.500000 0.000000
Si Si6 0.500000 0.000000 0.000000
Si Si7 0.672525 0.617446 0.193975
Si Si8 0.390021 0.722722 0.928340
O O1 0.149572 0.765093 0.114152
O O2 0.977883 0.916690 0.264292
O O3 0.052478 0.672528 0.038550
O O4 0.453667 0.278828 0.474053
O O5 0.546412 0.129629 0.218554
O O6 0.635344 0.912038 0.255594
O O7 0.468394 0.811704 0.438841
O O8 0.184851 0.516112 0.258006
O O9 0.226197 0.141887 0.359133
O O10 0.128026 0.017796 0.302249
O O11 0.047487 0.273578 0.504868
O O12 0.701651 0.140292 0.933253
O O13 0.599552 0.089522 0.826540
O O14 0.657464 0.513379 0.094260
#
# Coordination Sequence:
#
# PCOD9250300 Si02
#       8
#     4   4   4   4   2   2   4   4
#     4  12  25  51  78 119 154 200 259 321 403 468
#     4  11  23  44  67 104 144 202 255 317 399 460
#     4  12  29  47  78 111 154 201 265 313 409 457
#     4  12  27  50  74 113 152 202 252 330 383 488
#     4  12  26  54  84 114 160 208 260 340 392 500
#     4  10  24  40  70  98 142 194 248 324 378 466
#     4  11  25  44  66 109 142 201 255 323 383 483
#     4  11  25  43  71  99 149 194 256 314 392 463
#
# _framework density 29.593606000000001
#
# number of rings (size 3 to 8) (size 9 to 14) (size 15 to 20)
#    0.000    0.571    4.286    2.143    8.000    2.286 
#    2.571    0.000    0.000    0.000    0.000    0.000 
#    0.000    0.000    0.000    0.000    0.000    0.000 
#
# Total GULP energy -155919.403328 kJ/mol
# GULP energy per Si atom -5568.550119 kJ/mol
# Density = 2.952625 g / cm^3
# Si number density = 29.593606 Si / 1000 Ang^3
#
#
#
# Elastic Constant Matrix: (Units=GPa)
#
#
# Indices 1 2 3 4 5 6 
#
# 1 229.9516 20.4159 26.3656 0.0000 -15.3633 0.0000
# 2 20.4159 163.1947 33.8386 0.0000 11.3323 0.0000
# 3 26.3656 33.8386 104.3373 0.0000 25.0771 0.0000
# 4 0.0000 0.0000 0.0000 53.6094 0.0000 5.7429
# 5 -15.3633 11.3323 25.0771 0.0000 53.6452 0.0000
# 6 0.0000 0.0000 0.0000 5.7429 0.0000 43.1997
#
#
#
# Elastic Compliance Matrix: (Units=1/GPa)
#
#
# Indices 1 2 3 4 5 6 
#
# 1 0.004712 -0.000413 -0.001579 0.000000 0.002175 0.000000
# 2 -0.000413 0.006615 -0.001889 0.000000 -0.000633 0.000000
# 3 -0.001579 -0.001889 0.011952 0.000000 -0.005640 0.000000
# 4 0.000000 0.000000 0.000000 0.018923 0.000000 -0.002516
# 5 0.002175 -0.000633 -0.005640 0.000000 0.022034 0.000000
# 6 0.000000 0.000000 0.000000 -0.002516 0.000000 0.023483
#
#
# Mechanical properties :
#
#
# Convention : Reuss Voigt Hill
#
# Bulk Modulus (GPa) = 64.45117 73.19153 68.82135
# Shear Modulus (GPa) = 49.67575 57.88179 53.77877
#
# Velocity S-wave (km/s) = 4.10151 4.42734 4.26754
# Velocity P-wave (km/s) = 6.65251 7.13590 6.89844
#
# Compressibility (1/GPa) = 0.01551562
#
# Stress axis : x y z
#
# Youngs Moduli (GPa) = 212.23241 151.17348 83.67048
#
# Poissons Ratio (x) = 0.06243 0.13215
# Poissons Ratio (y) = 0.08765 0.15805
# Poissons Ratio (z) = 0.33521 0.28556
#
# Static dielectric constant tensor:
#      x y z
#    x 2.310400 0.000000 -0.608980 
#    y 0.000000 1.667670 0.000000 
#    z -0.608980 0.000000 3.504640 
# 
# From -- ./inp_files/49667.got.cif
#   From: 2010.05.17/outbox.cif.g08.bks.cpg/sg14_25_cif.got.tgz:49667.got - 2010.06.03 17:49:19.
