data_PCOD9250153
_publ_section_title
;
Structure prediction by ZEFSAII (Michael W. Deem and Ramdas Pophale) SiO2 
 PCOD9250153
Probable space group: P 21/C
;
_chemical_formula_sum "Si O2"
_cell_formula_units_Z 30
_cell_length_a 5.175673
_cell_length_b 11.619166
_cell_length_c 20.847432
_cell_angle_alpha 90.000000
_cell_angle_beta 115.079036
_cell_angle_gamma 90.000000
_cell_volume 1135.508014
_symmetry_space_group_name_H-M "P 21/C"
_symmetry_group_IT_number 14
_symmetry_cell_setting 'monoclinic'
loop_
_space_group_symop_operation_xyz
x,y,z
-x,1/2+y,1/2-z
-x,-y,-z
x,1/2-y,1/2+z
loop_
_atom_site_type_symbol
_atom_site_label
_atom_site_fract_x
_atom_site_fract_y
_atom_site_fract_z
Si Si1 0.227807 0.213187 0.738851
Si Si2 0.011786 0.417572 0.326741
Si Si3 0.000000 0.000000 0.500000
Si Si4 0.704607 0.553518 0.190907
Si Si5 0.363160 0.693897 0.988734
Si Si6 0.187404 0.944694 0.964719
Si Si7 0.446006 0.674412 0.856831
Si Si8 0.044050 0.172061 0.388145
O O1 0.247339 0.116862 0.797326
O O2 0.367084 0.325300 0.786112
O O3 0.358582 0.205784 0.682194
O O4 0.881335 0.214840 0.691356
O O5 0.084265 0.516368 0.384136
O O6 0.941086 0.299196 0.356845
O O7 0.766702 0.470954 0.257351
O O8 0.043620 0.890587 0.556269
O O9 0.184729 0.923638 0.467121
O O10 0.516267 0.464661 0.130672
O O11 0.976249 0.585841 0.174804
O O12 0.185466 0.809489 0.977098
O O13 0.516041 0.715398 0.935393
O O14 0.614435 0.688620 0.066800
O O15 0.500000 0.000000 0.000000
O O16 0.000000 0.000000 0.000000
#
# Coordination Sequence:
#
# PCOD9250153 Si02
#       8
#     4   4   2   4   4   4   4   4
#     4  10  25  45  73 107 153 199 255 322 387 467
#     4  10  23  49  74 109 154 201 262 324 402 471
#     4  12  26  46  76 108 162 208 264 324 396 472
#     4  10  23  47  71 105 150 199 257 315 388 464
#     4  12  27  44  77 109 159 205 266 331 394 481
#     4  12  27  49  79 116 156 205 264 329 402 479
#     4  11  25  44  72 109 143 200 258 311 384 456
#     4  11  24  48  72 112 149 206 258 327 393 469
#
# _framework density 26.419892999999998
#
# number of rings (size 3 to 8) (size 9 to 14) (size 15 to 20)
#    0.000    1.067    2.667    2.000    1.867    6.400 
#   14.400    0.000    0.000    0.000    0.000    0.000 
#    0.000    0.000    0.000    0.000    0.000    0.000 
#
# Total GULP energy -167384.004892 kJ/mol
# GULP energy per Si atom -5579.466830 kJ/mol
# Density = 2.635976 g / cm^3
# Si number density = 26.419893 Si / 1000 Ang^3
#
#
#
# Elastic Constant Matrix: (Units=GPa)
#
#
# Indices 1 2 3 4 5 6 
#
# 1 134.4585 31.4671 33.8435 0.0000 -29.8930 0.0000
# 2 31.4671 145.4434 28.8205 0.0000 -7.0824 0.0000
# 3 33.8435 28.8205 92.1642 0.0000 -34.0239 0.0000
# 4 0.0000 0.0000 0.0000 63.6734 0.0000 -12.3225
# 5 -29.8930 -7.0824 -34.0239 0.0000 43.8226 0.0000
# 6 0.0000 0.0000 0.0000 -12.3225 0.0000 29.7475
#
#
#
# Elastic Compliance Matrix: (Units=1/GPa)
#
#
# Indices 1 2 3 4 5 6 
#
# 1 0.009216 -0.001549 -0.000941 0.000000 0.005306 0.000000
# 2 -0.001549 0.007612 -0.002449 0.000000 -0.001728 0.000000
# 3 -0.000941 -0.002449 0.016231 0.000000 0.011564 0.000000
# 4 0.000000 0.000000 0.000000 0.017074 0.000000 0.007073
# 5 0.005306 -0.001728 0.011564 0.000000 0.035137 0.000000
# 6 0.000000 0.000000 0.000000 0.007073 0.000000 0.036546
#
#
# Mechanical properties :
#
#
# Convention : Reuss Voigt Hill
#
# Bulk Modulus (GPa) = 43.14202 62.25871 52.70037
# Shear Modulus (GPa) = 35.86236 45.97769 40.92002
#
# Velocity S-wave (km/s) = 3.68829 4.17618 3.93979
# Velocity P-wave (km/s) = 5.87391 6.84618 6.37860
#
# Compressibility (1/GPa) = 0.02317926
#
# Stress axis : x y z
#
# Youngs Moduli (GPa) = 108.50423 131.37321 61.61160
#
# Poissons Ratio (x) = 0.20351 0.05799
# Poissons Ratio (y) = 0.16808 0.15092
# Poissons Ratio (z) = 0.10213 0.32180
#
# Static dielectric constant tensor:
#      x y z
#    x 0.330390 0.000000 -0.290320 
#    y 0.000000 2.287600 0.000000 
#    z -0.290320 0.000000 3.003950 
# 
# From -- ./inp_files/63570.got.cif
#   From: 2010.05.17/outbox.cif.g08.bks.cpg/sg14_32_cif.got.tgz:63570.got - 2010.06.03 17:49:19.
