data_PCOD9250304
_publ_section_title
;
Structure prediction by ZEFSAII (Michael W. Deem and Ramdas Pophale) SiO2 
 PCOD9250304
Probable space group: P 21/C
;
_chemical_formula_sum "Si O2"
_cell_formula_units_Z 20
_cell_length_a 5.178687
_cell_length_b 18.863797
_cell_length_c 10.865109
_cell_angle_alpha 90.000000
_cell_angle_beta 55.847075
_cell_angle_gamma 90.000000
_cell_volume 878.360844
_symmetry_space_group_name_H-M "P 21/C"
_symmetry_group_IT_number 14
_symmetry_cell_setting 'monoclinic'
loop_
_space_group_symop_operation_xyz
x,y,z
-x,1/2+y,1/2-z
-x,-y,-z
x,1/2-y,1/2+z
loop_
_atom_site_type_symbol
_atom_site_label
_atom_site_fract_x
_atom_site_fract_y
_atom_site_fract_z
Si Si1 0.271758 0.299648 0.925231
Si Si2 0.432493 0.345788 0.473852
Si Si3 0.633773 0.986862 0.102374
Si Si4 0.327564 0.461950 0.933067
Si Si5 0.778865 0.311960 0.599114
O O1 0.475391 0.237014 0.932302
O O2 0.286079 0.378477 0.972929
O O3 0.442016 0.303559 0.748919
O O4 0.933660 0.263268 0.021274
O O5 0.449689 0.402772 0.360550
O O6 0.698290 0.359040 0.502443
O O7 0.057735 0.346899 0.605752
O O8 0.499339 0.028653 0.255193
O O9 0.500000 0.000000 0.000000
O O10 0.000000 0.000000 0.000000
O O11 0.500000 0.500000 0.000000
O O12 0.000000 0.500000 0.000000
#
# Coordination Sequence:
#
# PCOD9250304 Si02
#       5
#     4   4   4   4   4
#     4  10  26  44  71  98 142 180 241 288 355 423
#     4  10  24  40  71  97 133 181 238 285 345 426
#     4  12  25  47  73 105 146 191 240 293 365 433
#     4  12  29  46  72 108 152 189 233 304 371 428
#     4  10  24  41  73  96 135 175 245 291 348 406
#
# _framework density 22.769683000000001
#
# number of rings (size 3 to 8) (size 9 to 14) (size 15 to 20)
#    1.200    0.000    0.000    4.800    8.400    0.000 
#    0.000    0.000    0.000    0.000    0.000    0.000 
#    0.000    0.000    0.000    0.000    0.000    0.000 
#
# Total GULP energy -111360.039957 kJ/mol
# GULP energy per Si atom -5568.001998 kJ/mol
# Density = 2.271786 g / cm^3
# Si number density = 22.769683 Si / 1000 Ang^3
#
#
#
# Elastic Constant Matrix: (Units=GPa)
#
#
# Indices 1 2 3 4 5 6 
#
# 1 158.7319 58.7714 17.4102 0.0000 18.5817 0.0000
# 2 58.7714 175.9408 28.6912 0.0000 -0.4330 0.0000
# 3 17.4102 28.6912 53.6891 0.0000 1.5441 0.0000
# 4 0.0000 0.0000 0.0000 28.3786 0.0000 -3.1174
# 5 18.5817 -0.4330 1.5441 0.0000 20.7009 0.0000
# 6 0.0000 0.0000 0.0000 -3.1174 0.0000 35.8225
#
#
#
# Elastic Compliance Matrix: (Units=1/GPa)
#
#
# Indices 1 2 3 4 5 6 
#
# 1 0.008242 -0.002596 -0.001073 0.000000 -0.007372 0.000000
# 2 -0.002596 0.007047 -0.003002 0.000000 0.002702 0.000000
# 3 -0.001073 -0.003002 0.020596 0.000000 -0.000636 0.000000
# 4 0.000000 0.000000 0.000000 0.035578 0.000000 0.003096
# 5 -0.007372 0.002702 -0.000636 0.000000 0.055029 0.000000
# 6 0.000000 0.000000 0.000000 0.003096 0.000000 0.028185
#
#
# Mechanical properties :
#
#
# Convention : Reuss Voigt Hill
#
# Bulk Modulus (GPa) = 44.36001 66.45638 55.40820
# Shear Modulus (GPa) = 28.48458 35.87968 32.18213
#
# Velocity S-wave (km/s) = 3.54077 3.97390 3.76357
# Velocity P-wave (km/s) = 6.02000 7.09264 6.57822
#
# Compressibility (1/GPa) = 0.02254283
#
# Stress axis : x y z
#
# Youngs Moduli (GPa) = 121.32991 141.90125 48.55264
#
# Poissons Ratio (x) = 0.36842 0.05211
# Poissons Ratio (y) = 0.31501 0.14574
# Poissons Ratio (z) = 0.13021 0.42595
#
# Static dielectric constant tensor:
#      x y z
#    x 1.829090 0.000000 0.030710 
#    y 0.000000 2.028350 0.000000 
#    z 0.030710 0.000000 1.927410 
# 
# From -- ./inp_files/21126.got.cif
#   From: 2010.05.17/outbox.cif.g08.bks.cpg/sg14_11_cif.got.tgz:21126.got - 2010.06.03 17:49:19.
