data_PCOD9250181
_publ_section_title
;
Structure prediction by ZEFSAII (Michael W. Deem and Ramdas Pophale) SiO2 
 PCOD9250181
Probable space group: P 21/C
;
_chemical_formula_sum "Si O2"
_cell_formula_units_Z 22
_cell_length_a 15.818030
_cell_length_b 7.755301
_cell_length_c 9.083147
_cell_angle_alpha 90.000000
_cell_angle_beta 51.895237
_cell_angle_gamma 90.000000
_cell_volume 876.794787
_symmetry_space_group_name_H-M "P 21/C"
_symmetry_group_IT_number 14
_symmetry_cell_setting 'monoclinic'
loop_
_space_group_symop_operation_xyz
x,y,z
-x,1/2+y,1/2-z
-x,-y,-z
x,1/2-y,1/2+z
loop_
_atom_site_type_symbol
_atom_site_label
_atom_site_fract_x
_atom_site_fract_y
_atom_site_fract_z
Si Si1 0.417978 0.398342 0.983105
Si Si2 0.425570 0.604782 0.690019
Si Si3 0.804539 0.285372 0.084612
Si Si4 0.192306 0.117461 0.881124
Si Si5 0.000000 0.500000 0.000000
Si Si6 0.108411 0.077843 0.670309
O O1 0.387898 0.502440 0.871910
O O2 0.491868 0.246854 0.842560
O O3 0.500000 0.500000 0.000000
O O4 0.309872 0.347901 0.184997
O O5 0.500000 0.500000 0.500000
O O6 0.317198 0.824441 0.233570
O O7 0.891903 0.379877 0.093647
O O8 0.828874 0.395909 0.909076
O O9 0.811315 0.080343 0.065841
O O10 0.103310 0.136423 0.845133
O O11 0.168966 0.263755 0.024875
O O12 0.992202 0.546794 0.828284
#
# Coordination Sequence:
#
# PCOD9250181 Si02
#       6
#     4   4   4   4   2   4
#     4  12  25  41  65 104 137 188 233 290 360 419
#     4  12  25  44  71  98 145 187 239 295 351 436
#     4  10  23  48  69 102 145 188 239 297 362 425
#     4  12  25  45  74 104 151 190 242 305 362 436
#     4   8  22  50  68 108 138 184 246 294 364 438
#     4  10  25  46  69 110 138 188 249 295 369 437
#
# _framework density 25.091391999999999
#
# number of rings (size 3 to 8) (size 9 to 14) (size 15 to 20)
#    1.091    0.000    3.636    2.182    2.545    3.636 
#    0.000    0.000    0.000    0.000    0.000    0.000 
#    0.000    0.000    0.000    0.000    0.000    0.000 
#
# Total GULP energy -122553.383953 kJ/mol
# GULP energy per Si atom -5570.608362 kJ/mol
# Density = 2.503428 g / cm^3
# Si number density = 25.091392 Si / 1000 Ang^3
#
#
#
# Elastic Constant Matrix: (Units=GPa)
#
#
# Indices 1 2 3 4 5 6 
#
# 1 118.9962 36.1825 27.3781 0.0000 -21.3609 0.0000
# 2 36.1825 122.4010 49.0879 0.0000 -10.4236 0.0000
# 3 27.3781 49.0879 84.0419 0.0000 -16.6717 0.0000
# 4 0.0000 0.0000 0.0000 23.1502 0.0000 8.3798
# 5 -21.3609 -10.4236 -16.6717 0.0000 48.4435 0.0000
# 6 0.0000 0.0000 0.0000 8.3798 0.0000 27.3528
#
#
#
# Elastic Compliance Matrix: (Units=1/GPa)
#
#
# Indices 1 2 3 4 5 6 
#
# 1 0.009979 -0.002124 -0.001318 0.000000 0.003490 0.000000
# 2 -0.002124 0.011122 -0.005920 0.000000 -0.000581 0.000000
# 3 -0.001318 -0.005920 0.016548 0.000000 0.003840 0.000000
# 4 0.000000 0.000000 0.000000 0.048584 0.000000 -0.014884
# 5 0.003490 -0.000581 0.003840 0.000000 0.023378 0.000000
# 6 0.000000 0.000000 0.000000 -0.014884 0.000000 0.041119
#
#
# Mechanical properties :
#
#
# Convention : Reuss Voigt Hill
#
# Bulk Modulus (GPa) = 52.83871 61.19292 57.01582
# Shear Modulus (GPa) = 28.44754 33.97533 31.21143
#
# Velocity S-wave (km/s) = 3.37078 3.68375 3.53074
# Velocity P-wave (km/s) = 6.02111 6.52183 6.27647
#
# Compressibility (1/GPa) = 0.01892552
#
# Stress axis : x y z
#
# Youngs Moduli (GPa) = 100.20884 89.90896 60.43209
#
# Poissons Ratio (x) = 0.19098 0.07964
# Poissons Ratio (y) = 0.21286 0.35774
# Poissons Ratio (z) = 0.13207 0.53223
#
# Static dielectric constant tensor:
#      x y z
#    x 1.352000 0.000000 0.635410 
#    y 0.000000 6.984450 0.000000 
#    z 0.635410 0.000000 1.235570 
# 
# From -- ./inp_files/17515.got.cif
#   From: 2010.05.17/outbox.cif.g08.bks.cpg/sg14_9_cif.got.tgz:17515.got - 2010.06.03 17:49:19.
