data_PCOD9250114
_publ_section_title
;
Structure prediction by ZEFSAII (Michael W. Deem and Ramdas Pophale) SiO2 
 PCOD9250114
Probable space group: P 21/C
;
_chemical_formula_sum "Si O2"
_cell_formula_units_Z 20
_cell_length_a 10.481116
_cell_length_b 7.620320
_cell_length_c 12.749966
_cell_angle_alpha 90.000000
_cell_angle_beta 133.666063
_cell_angle_gamma 90.000000
_cell_volume 736.637802
_symmetry_space_group_name_H-M "P 21/C"
_symmetry_group_IT_number 14
_symmetry_cell_setting 'monoclinic'
loop_
_space_group_symop_operation_xyz
x,y,z
-x,1/2+y,1/2-z
-x,-y,-z
x,1/2-y,1/2+z
loop_
_atom_site_type_symbol
_atom_site_label
_atom_site_fract_x
_atom_site_fract_y
_atom_site_fract_z
Si Si1 0.186242 0.660137 0.891117
Si Si2 0.533168 0.514330 0.177706
Si Si3 0.088500 0.339262 0.611825
Si Si4 0.566777 0.886622 0.937380
Si Si5 0.923187 0.785063 0.607023
O O1 0.497886 0.684572 0.881449
O O2 0.124696 0.734554 0.744380
O O3 0.382316 0.640387 0.044217
O O4 0.058015 0.767826 0.894362
O O5 0.718048 0.597492 0.246234
O O6 0.529705 0.522044 0.303068
O O7 0.883741 0.535913 0.140921
O O8 0.116284 0.193365 0.537695
O O9 0.000000 0.500000 0.500000
O O10 0.779384 0.857094 0.065760
O O11 0.500000 0.000000 0.000000
#
# Coordination Sequence:
#
# PCOD9250114 Si02
#       5
#     4   4   4   4   4
#     4  11  23  46  70 100 145 190 243 310 374 442
#     4  10  24  47  74 111 152 195 255 310 370 465
#     4  11  23  44  71 102 143 194 241 306 380 441
#     4  10  23  46  75 109 151 199 248 311 383 450
#     4  10  24  43  68 102 140 186 245 303 367 452
#
# _framework density 27.150383000000001
#
# number of rings (size 3 to 8) (size 9 to 14) (size 15 to 20)
#    0.000    1.600    0.000    3.000    0.000    9.600 
#    0.000   23.000    0.000    0.000    0.000    0.000 
#    0.000    0.000    0.000    0.000    0.000    0.000 
#
# Total GULP energy -112090.128188 kJ/mol
# GULP energy per Si atom -5604.506409 kJ/mol
# Density = 2.708859 g / cm^3
# Si number density = 27.150383 Si / 1000 Ang^3
#
#
#
# Elastic Constant Matrix: (Units=GPa)
#
#
# Indices 1 2 3 4 5 6 
#
# 1 163.1005 79.5225 81.2525 0.0000 10.1791 0.0000
# 2 79.5225 113.1278 93.5279 0.0000 4.4470 0.0000
# 3 81.2525 93.5279 195.8438 0.0000 44.0746 0.0000
# 4 0.0000 0.0000 0.0000 51.1889 0.0000 0.7357
# 5 10.1791 4.4470 44.0746 0.0000 69.7945 0.0000
# 6 0.0000 0.0000 0.0000 0.7357 0.0000 48.4466
#
#
#
# Elastic Compliance Matrix: (Units=1/GPa)
#
#
# Indices 1 2 3 4 5 6 
#
# 1 0.009513 -0.005731 -0.001142 0.000000 -0.000301 0.000000
# 2 -0.005731 0.019112 -0.007767 0.000000 0.004523 0.000000
# 3 -0.001142 -0.007767 0.010655 0.000000 -0.006067 0.000000
# 4 0.000000 0.000000 0.000000 0.019540 0.000000 -0.000297
# 5 -0.000301 0.004523 -0.006067 0.000000 0.017915 0.000000
# 6 0.000000 0.000000 0.000000 -0.000297 0.000000 0.020646
#
#
# Mechanical properties :
#
#
# Convention : Reuss Voigt Hill
#
# Bulk Modulus (GPa) = 100.01352 108.96422 104.48887
# Shear Modulus (GPa) = 38.46301 48.40395 43.43348
#
# Velocity S-wave (km/s) = 3.76795 4.22691 4.00401
# Velocity P-wave (km/s) = 7.47307 8.00269 7.74241
#
# Compressibility (1/GPa) = 0.00999865
#
# Stress axis : x y z
#
# Youngs Moduli (GPa) = 105.11570 52.32265 93.85462
#
# Poissons Ratio (x) = 0.29987 0.10720
# Poissons Ratio (y) = 0.60244 0.72901
# Poissons Ratio (z) = 0.12006 0.40641
#
# Static dielectric constant tensor:
#      x y z
#    x 2.238100 0.000000 -0.138530 
#    y 0.000000 2.139830 0.000000 
#    z -0.138530 0.000000 2.178510 
# 
# From -- ./inp_files/7837.got.cif
#   From: 2010.05.17/outbox.cif.g08.bks.cpg/sg14_4_cif.got.tgz:7837.got - 2010.06.03 17:49:19.
