data_PCOD9250498
_publ_section_title
;
Structure prediction by ZEFSAII (Michael W. Deem and Ramdas Pophale) SiO2 
 PCOD9250498
Probable space group: P 21/C
;
_chemical_formula_sum "Si O2"
_cell_formula_units_Z 22
_cell_length_a 22.060282
_cell_length_b 8.953177
_cell_length_c 13.476584
_cell_angle_alpha 90.000000
_cell_angle_beta 162.561770
_cell_angle_gamma 90.000000
_cell_volume 797.667857
_symmetry_space_group_name_H-M "P 21/C"
_symmetry_group_IT_number 14
_symmetry_cell_setting 'monoclinic'
loop_
_space_group_symop_operation_xyz
x,y,z
-x,1/2+y,1/2-z
-x,-y,-z
x,1/2-y,1/2+z
loop_
_atom_site_type_symbol
_atom_site_label
_atom_site_fract_x
_atom_site_fract_y
_atom_site_fract_z
Si Si1 0.073738 0.687519 0.718484
Si Si2 0.542224 0.489024 0.732593
Si Si3 0.657499 0.529194 0.112232
Si Si4 0.887187 0.272496 0.002936
Si Si5 0.000000 0.500000 0.000000
Si Si6 0.343688 0.206216 0.755612
O O1 0.155014 0.656845 0.956264
O O2 0.848759 0.619629 0.362893
O O3 0.245237 0.600549 0.925535
O O4 0.051850 0.860651 0.658240
O O5 0.563660 0.637333 0.699947
O O6 0.403579 0.386466 0.447132
O O7 0.484957 0.521053 0.757401
O O8 0.737093 0.365036 0.256934
O O9 0.609265 0.625971 0.134586
O O10 0.917778 0.391233 0.963995
O O11 0.107999 0.200917 0.363660
#
# Coordination Sequence:
#
# PCOD9250498 Si02
#       6
#     4   4   4   4   2   4
#     4  11  22  41  71 105 140 187 241 294 351 438
#     4  11  22  46  69 101 145 184 230 309 367 419
#     4  11  22  45  71  98 135 189 238 292 351 439
#     4  11  23  44  72 106 142 185 246 291 350 438
#     4  12  24  40  72 108 136 190 242 288 358 420
#     4  10  24  43  68 101 141 188 230 303 364 422
#
# _framework density 27.580404000000001
#
# number of rings (size 3 to 8) (size 9 to 14) (size 15 to 20)
#    0.000    1.091    3.636    3.818    2.545    0.000 
#   13.091    3.636    0.000    0.000    0.000    0.000 
#    0.000    0.000    0.000    0.000    0.000    0.000 
#
# Total GULP energy -122876.688172 kJ/mol
# GULP energy per Si atom -5585.304008 kJ/mol
# Density = 2.751763 g / cm^3
# Si number density = 27.580404 Si / 1000 Ang^3
#
#
#
# Elastic Constant Matrix: (Units=GPa)
#
#
# Indices 1 2 3 4 5 6 
#
# 1 104.2269 81.0884 16.2939 0.0000 -27.1659 0.0000
# 2 81.0884 231.5915 80.6299 0.0000 -6.8461 0.0000
# 3 16.2939 80.6299 97.1383 0.0000 -18.0350 0.0000
# 4 0.0000 0.0000 0.0000 44.5933 0.0000 -4.8782
# 5 -27.1659 -6.8461 -18.0350 0.0000 50.0273 0.0000
# 6 0.0000 0.0000 0.0000 -4.8782 0.0000 58.9479
#
#
#
# Elastic Compliance Matrix: (Units=1/GPa)
#
#
# Indices 1 2 3 4 5 6 
#
# 1 0.017403 -0.007650 0.005349 0.000000 0.010332 0.000000
# 2 -0.007650 0.009489 -0.007634 0.000000 -0.005608 0.000000
# 3 0.005349 -0.007634 0.017233 0.000000 0.008073 0.000000
# 4 0.000000 0.000000 0.000000 0.022630 0.000000 0.001873
# 5 0.010332 -0.005608 0.008073 0.000000 0.027742 0.000000
# 6 0.000000 0.000000 0.000000 0.001873 0.000000 0.017119
#
#
# Mechanical properties :
#
#
# Convention : Reuss Voigt Hill
#
# Bulk Modulus (GPa) = 41.22997 87.66457 64.44727
# Shear Modulus (GPa) = 35.82419 47.71000 41.76710
#
# Velocity S-wave (km/s) = 3.60794 4.16366 3.89572
# Velocity P-wave (km/s) = 5.68663 7.41410 6.60706
#
# Compressibility (1/GPa) = 0.02425420
#
# Stress axis : x y z
#
# Youngs Moduli (GPa) = 57.46110 105.38884 58.02917
#
# Poissons Ratio (x) = 0.80627 -0.31041
# Poissons Ratio (y) = 0.43960 0.44299
# Poissons Ratio (z) = -0.30738 0.80454
#
# Static dielectric constant tensor:
#      x y z
#    x 2.229350 0.000000 0.120870 
#    y 0.000000 2.046490 0.000000 
#    z 0.120870 0.000000 2.194790 
# 
# From -- ./inp_files/51879.got.cif
#   From: 2010.05.17/outbox.cif.g08.bks.cpg/sg14_26_cif.got.tgz:51879.got - 2010.06.03 17:49:19.
