data_PCOD9250840
_publ_section_title
;
Structure prediction by ZEFSAII (Michael W. Deem and Ramdas Pophale) SiO2 
 PCOD9250840
Probable space group: P 21/C
;
_chemical_formula_sum "Si O2"
_cell_formula_units_Z 28
_cell_length_a 8.758066
_cell_length_b 18.741323
_cell_length_c 8.554362
_cell_angle_alpha 90.000000
_cell_angle_beta 133.198539
_cell_angle_gamma 90.000000
_cell_volume 1023.564750
_symmetry_space_group_name_H-M "P 21/C"
_symmetry_group_IT_number 14
_symmetry_cell_setting 'monoclinic'
loop_
_space_group_symop_operation_xyz
x,y,z
-x,1/2+y,1/2-z
-x,-y,-z
x,1/2-y,1/2+z
loop_
_atom_site_type_symbol
_atom_site_label
_atom_site_fract_x
_atom_site_fract_y
_atom_site_fract_z
Si Si1 0.773012 0.963403 0.366121
Si Si2 0.334190 0.815827 0.073094
Si Si3 0.782635 0.755572 0.869144
Si Si4 0.121902 0.150377 0.772316
Si Si5 0.294785 0.831646 0.410576
Si Si6 0.929080 0.604564 0.292695
Si Si7 0.429562 0.044779 0.297800
O O1 0.741864 0.915359 0.190376
O O2 0.813292 0.918073 0.553081
O O3 0.564829 0.008550 0.256011
O O4 0.000000 0.000000 0.500000
O O5 0.569323 0.789532 0.190062
O O6 0.348922 0.821195 0.269623
O O7 0.229127 0.745233 0.928731
O O8 0.178479 0.883468 0.933222
O O9 0.940618 0.691836 0.932434
O O10 0.855267 0.818130 0.803131
O O11 0.782881 0.794104 0.036358
O O12 0.912345 0.121984 0.707587
O O13 0.475280 0.874991 0.622750
O O14 0.819798 0.554045 0.349974
O O15 0.500000 0.000000 0.500000
#
# Coordination Sequence:
#
# PCOD9250840 Si02
#       7
#     4   4   4   4   4   4   4
#     4  11  25  47  80 109 151 209 254 306 371 459
#     4  12  27  42  73 111 141 195 244 319 388 449
#     4  12  25  46  72 111 147 191 247 324 387 449
#     4  12  24  44  73 108 151 189 252 312 386 449
#     4  12  23  43  72 107 148 190 247 310 390 451
#     4  11  24  48  74 106 153 191 250 313 384 452
#     4  10  24  47  73 102 153 207 244 303 373 449
#
# _framework density 27.355377000000001
#
# number of rings (size 3 to 8) (size 9 to 14) (size 15 to 20)
#    0.000    0.571    5.714    1.714    6.000    0.000 
#    2.571    7.143    0.000    0.000    0.000    0.000 
#    0.000    0.000    0.000    0.000    0.000    0.000 
#
# Total GULP energy -156112.479428 kJ/mol
# GULP energy per Si atom -5575.445694 kJ/mol
# Density = 2.729312 g / cm^3
# Si number density = 27.355377 Si / 1000 Ang^3
#
#
#
# Elastic Constant Matrix: (Units=GPa)
#
#
# Indices 1 2 3 4 5 6 
#
# 1 122.6663 41.0488 32.7965 0.0000 -2.7508 0.0000
# 2 41.0488 73.2298 31.2908 0.0000 -5.5646 0.0000
# 3 32.7965 31.2908 81.2625 0.0000 6.0031 0.0000
# 4 0.0000 0.0000 0.0000 42.2867 0.0000 1.6472
# 5 -2.7508 -5.5646 6.0031 0.0000 45.8952 0.0000
# 6 0.0000 0.0000 0.0000 1.6472 0.0000 76.3948
#
#
#
# Elastic Compliance Matrix: (Units=1/GPa)
#
#
# Indices 1 2 3 4 5 6 
#
# 1 0.010398 -0.004784 -0.002380 0.000000 0.000354 0.000000
# 2 -0.004784 0.018919 -0.005556 0.000000 0.002734 0.000000
# 3 -0.002380 -0.005556 0.015617 0.000000 -0.002859 0.000000
# 4 0.000000 0.000000 0.000000 0.023668 0.000000 -0.000510
# 5 0.000354 0.002734 -0.002859 0.000000 0.022515 0.000000
# 6 0.000000 0.000000 0.000000 -0.000510 0.000000 0.013101
#
#
# Mechanical properties :
#
#
# Convention : Reuss Voigt Hill
#
# Bulk Modulus (GPa) = 51.30159 54.15897 52.73028
# Shear Modulus (GPa) = 36.72229 44.38351 40.55290
#
# Velocity S-wave (km/s) = 3.66787 4.03237 3.85443
# Velocity P-wave (km/s) = 6.06071 6.44370 6.25514
#
# Compressibility (1/GPa) = 0.01949257
#
# Stress axis : x y z
#
# Youngs Moduli (GPa) = 96.17646 52.85607 64.03252
#
# Poissons Ratio (x) = 0.25288 0.15241
# Poissons Ratio (y) = 0.46014 0.35577
# Poissons Ratio (z) = 0.22893 0.29367
#
# Static dielectric constant tensor:
#      x y z
#    x 2.229770 0.000000 0.108070 
#    y 0.000000 2.230730 0.000000 
#    z 0.108070 0.000000 2.207760 
# 
# From -- ./inp_files/10430.got.cif
#   From: 2010.05.17/outbox.cif.g08.bks.cpg/sg14_6_cif.got.tgz:10430.got - 2010.06.03 17:49:19.
