data_PCOD9250492
_publ_section_title
;
Structure prediction by ZEFSAII (Michael W. Deem and Ramdas Pophale) SiO2 
 PCOD9250492
Probable space group: P 21/C
;
_chemical_formula_sum "Si O2"
_cell_formula_units_Z 20
_cell_length_a 9.655546
_cell_length_b 5.025713
_cell_length_c 16.727016
_cell_angle_alpha 90.000000
_cell_angle_beta 99.233949
_cell_angle_gamma 90.000000
_cell_volume 801.176762
_symmetry_space_group_name_H-M "P 21/C"
_symmetry_group_IT_number 14
_symmetry_cell_setting 'monoclinic'
loop_
_space_group_symop_operation_xyz
x,y,z
-x,1/2+y,1/2-z
-x,-y,-z
x,1/2-y,1/2+z
loop_
_atom_site_type_symbol
_atom_site_label
_atom_site_fract_x
_atom_site_fract_y
_atom_site_fract_z
Si Si1 0.193768 0.326385 0.823386
Si Si2 0.595043 0.099841 0.777088
Si Si3 0.402451 0.244897 0.485465
Si Si4 0.213098 0.968874 0.065732
Si Si5 0.925099 0.165406 0.114729
O O1 0.274526 0.466187 0.758573
O O2 0.086739 0.538196 0.852738
O O3 0.123595 0.035837 0.819121
O O4 0.320046 0.275626 0.896245
O O5 0.477226 0.863072 0.767712
O O6 0.670796 0.171001 0.867933
O O7 0.500000 0.500000 0.500000
O O8 0.290025 0.261274 0.545626
O O9 0.500000 0.000000 0.500000
O O10 0.072794 0.051863 0.098489
O O11 0.170714 0.843081 0.975444
#
# Coordination Sequence:
#
# PCOD9250492 Si02
#       5
#     4   4   4   4   4
#     4  11  23  41  63  94 129 164 213 262 320 379
#     4  12  26  43  65  96 132 169 208 262 323 382
#     4  11  21  36  60  87 120 163 205 251 302 366
#     4  10  24  43  67  94 129 167 216 264 315 380
#     4  10  24  43  67  94 124 170 216 264 315 374
#
# _framework density 24.963280999999998
#
# number of rings (size 3 to 8) (size 9 to 14) (size 15 to 20)
#    0.000    1.200    0.000    6.000    0.000   15.200 
#    0.000    0.000    0.000    0.000    0.000    0.000 
#    0.000    0.000    0.000    0.000    0.000    0.000 
#
# Total GULP energy -111861.215657 kJ/mol
# GULP energy per Si atom -5593.060783 kJ/mol
# Density = 2.490646 g / cm^3
# Si number density = 24.963281 Si / 1000 Ang^3
#
#
#
# Elastic Constant Matrix: (Units=GPa)
#
#
# Indices 1 2 3 4 5 6 
#
# 1 76.6925 10.0395 34.5993 0.0000 3.1984 0.0000
# 2 10.0395 131.3410 13.3871 0.0000 12.8041 0.0000
# 3 34.5993 13.3871 104.4568 0.0000 31.5745 0.0000
# 4 0.0000 0.0000 0.0000 19.7891 0.0000 -9.2906
# 5 3.1984 12.8041 31.5745 0.0000 52.5102 0.0000
# 6 0.0000 0.0000 0.0000 -9.2906 0.0000 29.3261
#
#
#
# Elastic Compliance Matrix: (Units=1/GPa)
#
#
# Indices 1 2 3 4 5 6 
#
# 1 0.015720 -0.000871 -0.005952 0.000000 0.002834 0.000000
# 2 -0.000871 0.007871 -0.000191 0.000000 -0.001751 0.000000
# 3 -0.005952 -0.000191 0.013988 0.000000 -0.008002 0.000000
# 4 0.000000 0.000000 0.000000 0.059362 0.000000 0.018806
# 5 0.002834 -0.001751 -0.008002 0.000000 0.024110 0.000000
# 6 0.000000 0.000000 0.000000 0.018806 0.000000 0.040057
#
#
# Mechanical properties :
#
#
# Convention : Reuss Voigt Hill
#
# Bulk Modulus (GPa) = 42.46104 47.61578 45.03841
# Shear Modulus (GPa) = 27.32451 37.28938 32.30694
#
# Velocity S-wave (km/s) = 3.31205 3.86912 3.60137
# Velocity P-wave (km/s) = 5.62783 6.25107 5.94762
#
# Compressibility (1/GPa) = 0.02355100
#
# Stress axis : x y z
#
# Youngs Moduli (GPa) = 63.61274 127.05604 71.48973
#
# Poissons Ratio (x) = 0.11069 0.42550
# Poissons Ratio (y) = 0.05542 0.01363
# Poissons Ratio (z) = 0.37862 0.02423
#
# Static dielectric constant tensor:
#      x y z
#    x 2.010440 0.000000 -0.047530 
#    y 0.000000 1.937640 0.000000 
#    z -0.047530 0.000000 2.057620 
# 
# From -- ./inp_files/54031.got.cif
#   From: 2010.05.17/outbox.cif.g08.bks.cpg/sg14_28_cif.got.tgz:54031.got - 2010.06.03 17:49:19.
