data_PCOD9250549
_publ_section_title
;
Structure prediction by ZEFSAII (Michael W. Deem and Ramdas Pophale) SiO2 
 PCOD9250549
Probable space group: P 21/C
;
_chemical_formula_sum "Si O2"
_cell_formula_units_Z 16
_cell_length_a 7.501952
_cell_length_b 12.323892
_cell_length_c 11.343479
_cell_angle_alpha 90.000000
_cell_angle_beta 141.333466
_cell_angle_gamma 90.000000
_cell_volume 655.239721
_symmetry_space_group_name_H-M "P 21/C"
_symmetry_group_IT_number 14
_symmetry_cell_setting 'monoclinic'
loop_
_space_group_symop_operation_xyz
x,y,z
-x,1/2+y,1/2-z
-x,-y,-z
x,1/2-y,1/2+z
loop_
_atom_site_type_symbol
_atom_site_label
_atom_site_fract_x
_atom_site_fract_y
_atom_site_fract_z
Si Si1 0.942328 0.596447 0.634064
Si Si2 0.191699 0.736532 0.931673
Si Si3 0.561911 0.546763 0.220158
Si Si4 0.308768 0.114161 0.751886
O O1 0.193576 0.517614 0.722573
O O2 0.705546 0.596912 0.411446
O O3 0.804438 0.558673 0.686811
O O4 0.069210 0.714544 0.737574
O O5 0.408878 0.637200 0.064985
O O6 0.373380 0.840855 0.057407
O O7 0.920171 0.712253 0.874711
O O8 0.332469 0.461123 0.151644
#
# Coordination Sequence:
#
# PCOD9250549 Si02
#       4
#     4   4   4   4
#     4   9  24  37  68  91 128 169 208 280 310 387
#     4  10  24  44  63 100 134 169 217 270 319 387
#     4  11  21  46  68  96 126 176 222 260 328 376
#     4  10  24  44  63 100 134 169 217 270 319 387
#
# _framework density 24.418545999999999
#
# number of rings (size 3 to 8) (size 9 to 14) (size 15 to 20)
#    1.500    0.500    0.000    2.250    7.000    2.000 
#    0.000    0.000    0.000    0.000    0.000    0.000 
#    0.000    0.000    0.000    0.000    0.000    0.000 
#
# Total GULP energy -89384.018069 kJ/mol
# GULP energy per Si atom -5586.501129 kJ/mol
# Density = 2.436297 g / cm^3
# Si number density = 24.418546 Si / 1000 Ang^3
#
#
#
# Elastic Constant Matrix: (Units=GPa)
#
#
# Indices 1 2 3 4 5 6 
#
# 1 105.8068 5.0260 -1.6249 0.0000 4.8160 0.0000
# 2 5.0260 19.3134 -1.2156 0.0000 -5.1029 0.0000
# 3 -1.6249 -1.2156 66.7707 0.0000 6.3064 0.0000
# 4 0.0000 0.0000 0.0000 17.3568 0.0000 -9.5980
# 5 4.8160 -5.1029 6.3064 0.0000 36.1090 0.0000
# 6 0.0000 0.0000 0.0000 -9.5980 0.0000 23.4060
#
#
#
# Elastic Compliance Matrix: (Units=1/GPa)
#
#
# Indices 1 2 3 4 5 6 
#
# 1 0.009678 -0.002964 0.000349 0.000000 -0.001771 0.000000
# 2 -0.002964 0.054698 0.000159 0.000000 0.008098 0.000000
# 3 0.000349 0.000159 0.015242 0.000000 -0.002686 0.000000
# 4 0.000000 0.000000 0.000000 0.074510 0.000000 0.030554
# 5 -0.001771 0.008098 -0.002686 0.000000 0.029544 0.000000
# 6 0.000000 0.000000 0.000000 0.030554 0.000000 0.055253
#
#
# Mechanical properties :
#
#
# Convention : Reuss Voigt Hill
#
# Bulk Modulus (GPa) = 13.38605 21.80687 17.59646
# Shear Modulus (GPa) = 18.60535 28.02139 23.31337
#
# Velocity S-wave (km/s) = 2.76331 3.39122 3.09324
# Velocity P-wave (km/s) = 3.95917 4.92785 4.46983
#
# Compressibility (1/GPa) = 0.07470462
#
# Stress axis : x y z
#
# Youngs Moduli (GPa) = 103.32766 18.28205 65.60952
#
# Poissons Ratio (x) = 0.05420 -0.02288
# Poissons Ratio (y) = 0.30630 -0.01042
# Poissons Ratio (z) = -0.03604 -0.00290
#
# Static dielectric constant tensor:
#      x y z
#    x 1.924640 0.000000 0.028080 
#    y 0.000000 2.017500 0.000000 
#    z 0.028080 0.000000 1.957690 
# 
# From -- ./inp_files/5071.got.cif
#   From: 2010.05.17/outbox.cif.g08.bks.cpg/sg14_3_cif.got.tgz:5071.got - 2010.06.03 17:49:19.
