data_PCOD9250784
_publ_section_title
;
Structure prediction by ZEFSAII (Michael W. Deem and Ramdas Pophale) SiO2 
 PCOD9250784
Probable space group: P 21/C
;
_chemical_formula_sum "Si O2"
_cell_formula_units_Z 30
_cell_length_a 5.233317
_cell_length_b 9.839490
_cell_length_c 23.364818
_cell_angle_alpha 90.000000
_cell_angle_beta 72.446531
_cell_angle_gamma 90.000000
_cell_volume 1147.105970
_symmetry_space_group_name_H-M "P 21/C"
_symmetry_group_IT_number 14
_symmetry_cell_setting 'monoclinic'
loop_
_space_group_symop_operation_xyz
x,y,z
-x,1/2+y,1/2-z
-x,-y,-z
x,1/2-y,1/2+z
loop_
_atom_site_type_symbol
_atom_site_label
_atom_site_fract_x
_atom_site_fract_y
_atom_site_fract_z
Si Si1 0.453279 0.301332 0.286326
Si Si2 0.220672 0.651292 0.317200
Si Si3 0.875782 0.293501 0.987552
Si Si4 0.419871 0.913563 0.916160
Si Si5 0.988349 0.953465 0.250915
Si Si6 0.500000 0.000000 0.500000
Si Si7 0.476844 0.220903 0.917223
Si Si8 0.190347 0.345980 0.119957
O O1 0.518124 0.184657 0.236504
O O2 0.172687 0.362050 0.284717
O O3 0.477382 0.254179 0.349807
O O4 0.710508 0.401305 0.261882
O O5 0.277206 0.552276 0.365710
O O6 0.026904 0.596869 0.280538
O O7 0.108025 0.782753 0.357683
O O8 0.692818 0.298686 0.941301
O O9 0.186650 0.272478 0.956620
O O10 0.782742 0.157499 0.026813
O O11 0.739992 0.426319 0.023420
O O12 0.637025 0.794963 0.890517
O O13 0.521941 0.061122 0.927696
O O14 0.819624 0.936430 0.321270
O O15 0.276220 0.076560 0.557634
#
# Coordination Sequence:
#
# PCOD9250784 Si02
#       8
#     4   4   4   4   4   2   4   4
#     4  11  24  43  68 103 141 178 240 287 372 418
#     4  11  24  42  72 101 142 189 238 297 364 439
#     4  11  28  46  71 103 141 190 245 297 367 430
#     4  11  23  43  72 100 143 186 238 300 363 437
#     4  11  23  44  69 105 140 190 237 299 355 450
#     4  10  26  54  72 104 148 202 246 314 362 460
#     4  12  25  46  70 109 140 185 240 307 357 438
#     4  10  24  46  72 106 145 199 245 301 382 439
#
# _framework density 26.152767000000001
#
# number of rings (size 3 to 8) (size 9 to 14) (size 15 to 20)
#    0.000    1.067    2.667    2.400    7.467    0.533 
#    7.200    0.000    0.000    0.000    0.000    0.000 
#    0.000    0.000    0.000    0.000    0.000    0.000 
#
# Total GULP energy -167295.745188 kJ/mol
# GULP energy per Si atom -5576.524840 kJ/mol
# Density = 2.609324 g / cm^3
# Si number density = 26.152767 Si / 1000 Ang^3
#
#
#
# Elastic Constant Matrix: (Units=GPa)
#
#
# Indices 1 2 3 4 5 6 
#
# 1 126.5458 -2.2074 8.0625 0.0000 -8.1093 0.0000
# 2 -2.2074 146.9559 54.4915 0.0000 16.4948 0.0000
# 3 8.0625 54.4915 148.2713 0.0000 2.2374 0.0000
# 4 0.0000 0.0000 0.0000 48.1537 0.0000 5.6817
# 5 -8.1093 16.4948 2.2374 0.0000 48.5400 0.0000
# 6 0.0000 0.0000 0.0000 5.6817 0.0000 39.4795
#
#
#
# Elastic Compliance Matrix: (Units=1/GPa)
#
#
# Indices 1 2 3 4 5 6 
#
# 1 0.008022 0.000165 -0.000517 0.000000 0.001308 0.000000
# 2 0.000165 0.008209 -0.002986 0.000000 -0.002624 0.000000
# 3 -0.000517 -0.002986 0.007861 0.000000 0.000566 0.000000
# 4 0.000000 0.000000 0.000000 0.021126 0.000000 -0.003040
# 5 0.001308 -0.002624 0.000566 0.000000 0.021686 0.000000
# 6 0.000000 0.000000 0.000000 -0.003040 0.000000 0.025767
#
#
# Mechanical properties :
#
#
# Convention : Reuss Voigt Hill
#
# Bulk Modulus (GPa) = 57.41514 60.27404 58.84459
# Shear Modulus (GPa) = 47.55013 51.32972 49.43992
#
# Velocity S-wave (km/s) = 4.26862 4.43503 4.35262
# Velocity P-wave (km/s) = 6.80414 7.02303 6.91445
#
# Compressibility (1/GPa) = 0.01741701
#
# Stress axis : x y z
#
# Youngs Moduli (GPa) = 124.65897 121.81514 127.20271
#
# Poissons Ratio (x) = -0.02013 0.06572
# Poissons Ratio (y) = -0.02060 0.37987
# Poissons Ratio (z) = 0.06441 0.36378
#
# Static dielectric constant tensor:
#      x y z
#    x 2.105900 0.000000 0.003290 
#    y 0.000000 2.130040 0.000000 
#    z 0.003290 0.000000 2.019580 
# 
# From -- ./inp_files/71246.got.cif
#   From: 2010.05.17/outbox.cif.g08.bks.cpg/sg14_36_cif.got.tgz:71246.got - 2010.06.03 17:49:19.
