data_PCOD9250988
_publ_section_title
;
Structure prediction by ZEFSAII (Michael W. Deem and Ramdas Pophale) SiO2 
 PCOD9250988
Probable space group: P 21/C
;
_chemical_formula_sum "Si O2"
_cell_formula_units_Z 24
_cell_length_a 23.444783
_cell_length_b 4.797093
_cell_length_c 22.853071
_cell_angle_alpha 90.000000
_cell_angle_beta 158.769758
_cell_angle_gamma 90.000000
_cell_volume 930.716437
_symmetry_space_group_name_H-M "P 21/C"
_symmetry_group_IT_number 14
_symmetry_cell_setting 'monoclinic'
loop_
_space_group_symop_operation_xyz
x,y,z
-x,1/2+y,1/2-z
-x,-y,-z
x,1/2-y,1/2+z
loop_
_atom_site_type_symbol
_atom_site_label
_atom_site_fract_x
_atom_site_fract_y
_atom_site_fract_z
Si Si1 0.909799 0.051932 0.816358
Si Si2 0.076734 0.854598 0.792366
Si Si3 0.418150 0.166038 0.531698
Si Si4 0.567016 0.180613 0.341838
Si Si5 0.556357 0.652212 0.612692
Si Si6 0.861181 0.312325 0.891964
O O1 0.946911 0.267707 0.798864
O O2 0.767938 0.868389 0.654720
O O3 0.825928 0.151940 0.797251
O O4 0.064057 0.887381 0.987000
O O5 0.969359 0.664428 0.732613
O O6 0.256731 0.793112 0.982196
O O7 0.472753 0.019428 0.642319
O O8 0.521339 0.977793 0.584793
O O9 0.449696 0.490794 0.557538
O O10 0.451458 0.442728 0.225358
O O11 0.500000 0.500000 0.500000
O O12 0.730276 0.529925 0.787823
O O13 0.000000 0.500000 0.000000
#
# Coordination Sequence:
#
# PCOD9250988 Si02
#       6
#     4   4   4   4   4   4
#     4  10  25  44  66  96 137 178 220 276 342 394
#     4  11  26  46  72  99 135 182 230 282 339 408
#     4  11  25  44  68  97 131 178 218 274 333 396
#     4  11  24  46  69  99 136 173 227 285 338 394
#     4  12  24  41  68  97 134 172 224 265 328 405
#     4  11  25  42  66  98 140 175 219 276 336 407
#
# _framework density 25.786587000000001
#
# number of rings (size 3 to 8) (size 9 to 14) (size 15 to 20)
#    0.000    1.000    1.667    3.500    7.000    6.667 
#    0.000    0.000    0.000    0.000    0.000    0.000 
#    0.000    0.000    0.000    0.000    0.000    0.000 
#
# Total GULP energy -134249.550139 kJ/mol
# GULP energy per Si atom -5593.731256 kJ/mol
# Density = 2.572790 g / cm^3
# Si number density = 25.786587 Si / 1000 Ang^3
#
#
#
# Elastic Constant Matrix: (Units=GPa)
#
#
# Indices 1 2 3 4 5 6 
#
# 1 95.2681 7.0487 21.1953 0.0000 -18.0466 0.0000
# 2 7.0487 111.6839 14.1547 0.0000 -7.0941 0.0000
# 3 21.1953 14.1547 79.7194 0.0000 -4.4602 0.0000
# 4 0.0000 0.0000 0.0000 23.0865 0.0000 20.2031
# 5 -18.0466 -7.0941 -4.4602 0.0000 38.5880 0.0000
# 6 0.0000 0.0000 0.0000 20.2031 0.0000 43.5983
#
#
#
# Elastic Compliance Matrix: (Units=1/GPa)
#
#
# Indices 1 2 3 4 5 6 
#
# 1 0.012163 -0.000058 -0.002925 0.000000 0.005340 0.000000
# 2 -0.000058 0.009248 -0.001543 0.000000 0.001495 0.000000
# 3 -0.002925 -0.001543 0.013591 0.000000 -0.000081 0.000000
# 4 0.000000 0.000000 0.000000 0.072862 0.000000 -0.033764
# 5 0.005340 0.001495 -0.000081 0.000000 0.028678 0.000000
# 6 0.000000 0.000000 0.000000 -0.033764 0.000000 0.038582
#
#
# Mechanical properties :
#
#
# Convention : Reuss Voigt Hill
#
# Bulk Modulus (GPa) = 38.53428 41.27431 39.90429
# Shear Modulus (GPa) = 25.93010 37.33940 31.63475
#
# Velocity S-wave (km/s) = 3.17451 3.80941 3.50636
# Velocity P-wave (km/s) = 5.33035 5.94892 5.64811
#
# Compressibility (1/GPa) = 0.02595092
#
# Stress axis : x y z
#
# Youngs Moduli (GPa) = 82.21522 108.13147 73.57753
#
# Poissons Ratio (x) = 0.00625 0.21520
# Poissons Ratio (y) = 0.00475 0.11353
# Poissons Ratio (z) = 0.24047 0.16685
#
# Static dielectric constant tensor:
#      x y z
#    x 2.649420 0.000000 -0.207830 
#    y 0.000000 2.094390 0.000000 
#    z -0.207830 0.000000 2.072100 
# 
# From -- ./inp_files/74822.got.cif
#   From: 2010.05.17/outbox.cif.g08.bks.cpg/sg14_38_cif.got.tgz:74822.got - 2010.06.03 17:49:19.
