data_PCOD9250077
_publ_section_title
;
Structure prediction by ZEFSAII (Michael W. Deem and Ramdas Pophale) SiO2 
 PCOD9250077
Probable space group: P 21/C
;
_chemical_formula_sum "Si O2"
_cell_formula_units_Z 30
_cell_length_a 27.894755
_cell_length_b 7.381977
_cell_length_c 9.431316
_cell_angle_alpha 90.000000
_cell_angle_beta 38.004236
_cell_angle_gamma 90.000000
_cell_volume 1195.778134
_symmetry_space_group_name_H-M "P 21/C"
_symmetry_group_IT_number 14
_symmetry_cell_setting 'monoclinic'
loop_
_space_group_symop_operation_xyz
x,y,z
-x,1/2+y,1/2-z
-x,-y,-z
x,1/2-y,1/2+z
loop_
_atom_site_type_symbol
_atom_site_label
_atom_site_fract_x
_atom_site_fract_y
_atom_site_fract_z
Si Si1 0.369551 0.052152 0.590742
Si Si2 0.148792 0.416548 0.198317
Si Si3 0.695832 0.058363 0.546773
Si Si4 0.926327 0.854935 0.835054
Si Si5 0.757229 0.050113 0.889735
Si Si6 0.500000 0.000000 0.500000
Si Si7 0.094588 0.678532 0.818674
Si Si8 0.638399 0.955706 0.954940
O O1 0.358339 0.011975 0.451583
O O2 0.383324 0.267598 0.568466
O O3 0.290366 0.003986 0.858148
O O4 0.443549 0.964846 0.492580
O O5 0.090116 0.359642 0.460893
O O6 0.131931 0.280231 0.110563
O O7 0.130984 0.625696 0.200621
O O8 0.234526 0.422858 0.069718
O O9 0.649306 0.092982 0.800420
O O10 0.733888 0.243694 0.406775
O O11 0.012920 0.798438 0.588061
O O12 0.915107 0.056875 0.798405
O O13 0.847221 0.062191 0.717393
O O14 0.720423 0.937693 0.847224
O O15 0.577040 0.007601 0.216700
#
# Coordination Sequence:
#
# PCOD9250077 Si02
#       8
#     4   4   4   4   4   2   4   4
#     4  11  24  45  72 106 142 185 246 291 363 440
#     4  11  27  46  71 110 149 199 260 327 381 466
#     4  11  24  42  71 105 138 190 237 298 371 431
#     4  11  26  45  73 104 147 212 251 326 397 451
#     4  10  23  46  69  99 143 185 240 304 360 437
#     4  10  26  46  68 102 148 180 222 302 354 438
#     4  10  25  46  69 104 152 197 259 317 385 458
#     4  11  25  44  73 107 138 189 239 298 362 440
#
# _framework density 25.088266000000001
#
# number of rings (size 3 to 8) (size 9 to 14) (size 15 to 20)
#    0.000    1.333    0.000    3.600    9.333    9.067 
#    0.000    0.000    0.000    0.000    0.000    0.000 
#    0.000    0.000    0.000    0.000    0.000    0.000 
#
# Total GULP energy -167697.610712 kJ/mol
# GULP energy per Si atom -5589.920357 kJ/mol
# Density = 2.503116 g / cm^3
# Si number density = 25.088266 Si / 1000 Ang^3
#
#
#
# Elastic Constant Matrix: (Units=GPa)
#
#
# Indices 1 2 3 4 5 6 
#
# 1 130.8952 13.8576 51.3403 0.0000 -8.1902 0.0000
# 2 13.8576 63.7955 3.5154 0.0000 -2.2246 0.0000
# 3 51.3403 3.5154 95.6026 0.0000 -4.5084 0.0000
# 4 0.0000 0.0000 0.0000 8.0063 0.0000 21.6060
# 5 -8.1902 -2.2246 -4.5084 0.0000 47.0471 0.0000
# 6 0.0000 0.0000 0.0000 21.6060 0.0000 -5.0720
#
#
#
# Elastic Compliance Matrix: (Units=1/GPa)
#
#
# Indices 1 2 3 4 5 6 
#
# 1 0.009955 -0.001835 -0.005224 0.000000 0.001146 0.000000
# 2 -0.001835 0.016067 0.000417 0.000000 0.000480 0.000000
# 3 -0.005224 0.000417 0.013268 0.000000 0.000382 0.000000
# 4 0.000000 0.000000 0.000000 0.009996 0.000000 0.042580
# 5 0.001146 0.000480 0.000382 0.000000 0.021514 0.000000
# 6 0.000000 0.000000 0.000000 0.042580 0.000000 -0.015778
#
#
# Mechanical properties :
#
#
# Convention : Reuss Voigt Hill
#
# Bulk Modulus (GPa) = 38.45190 47.52442 42.98816
# Shear Modulus (GPa) = 64.95671 24.76827 44.86249
#
# Velocity S-wave (km/s) = 5.09387 3.14545 4.23328
# Velocity P-wave (km/s) = 7.06800 5.67238 6.40829
#
# Compressibility (1/GPa) = 0.02600652
#
# Stress axis : x y z
#
# Youngs Moduli (GPa) = 100.45473 62.23801 75.36803
#
# Poissons Ratio (x) = 0.11418 0.39375
# Poissons Ratio (y) = 0.18429 -0.03143
# Poissons Ratio (z) = 0.52481 -0.02595
#
# Static dielectric constant tensor:
#      x y z
#    x 1.942410 0.000000 -0.005690 
#    y 0.000000 1.994630 0.000000 
#    z -0.005690 0.000000 1.952520 
# 
# From -- ./inp_files/19744.got.cif
#   From: 2010.05.17/outbox.cif.g08.bks.cpg/sg14_10_cif.got.tgz:19744.got - 2010.06.03 17:49:19.
