data_PCOD9250751
_publ_section_title
;
Structure prediction by ZEFSAII (Michael W. Deem and Ramdas Pophale) SiO2 
 PCOD9250751
Probable space group: P 21/C
;
_chemical_formula_sum "Si O2"
_cell_formula_units_Z 30
_cell_length_a 6.581824
_cell_length_b 10.356345
_cell_length_c 21.282490
_cell_angle_alpha 90.000000
_cell_angle_beta 115.244751
_cell_angle_gamma 90.000000
_cell_volume 1312.142519
_symmetry_space_group_name_H-M "P 21/C"
_symmetry_group_IT_number 14
_symmetry_cell_setting 'monoclinic'
loop_
_space_group_symop_operation_xyz
x,y,z
-x,1/2+y,1/2-z
-x,-y,-z
x,1/2-y,1/2+z
loop_
_atom_site_type_symbol
_atom_site_label
_atom_site_fract_x
_atom_site_fract_y
_atom_site_fract_z
Si Si1 0.355363 0.422152 0.402287
Si Si2 0.287222 0.702669 0.051836
Si Si3 0.365831 0.022538 0.173296
Si Si4 0.500000 0.000000 0.500000
Si Si5 0.835499 0.109051 0.635016
Si Si6 0.231982 0.578348 0.180765
Si Si7 0.901209 0.327800 0.285321
Si Si8 0.093837 0.637776 0.430143
O O1 0.490577 0.290065 0.434120
O O2 0.511891 0.504174 0.376754
O O3 0.250422 0.510458 0.443786
O O4 0.142855 0.385101 0.331841
O O5 0.298203 0.578150 0.008986
O O6 0.260740 0.649008 0.117859
O O7 0.095782 0.801064 0.000366
O O8 0.537008 0.065474 0.250183
O O9 0.149489 0.109135 0.130358
O O10 0.266897 0.887378 0.185333
O O11 0.358591 0.985088 0.415190
O O12 0.819172 0.129233 0.707001
O O13 0.804569 0.249880 0.600060
O O14 0.083324 0.050343 0.653862
O O15 0.087335 0.675064 0.205190
#
# Coordination Sequence:
#
# PCOD9250751 Si02
#       8
#     4   4   4   2   4   4   4   4
#     4  11  22  47  71 101 137 183 236 286 355 417
#     4  11  24  47  70 104 141 188 236 286 362 427
#     4  11  24  43  68 101 136 178 234 294 346 413
#     4  10  24  46  68 102 144 190 226 296 358 424
#     4  11  24  45  67 103 144 183 234 291 358 425
#     4  12  25  43  74 101 138 189 235 292 352 433
#     4  11  24  42  68 103 132 180 235 291 344 417
#     4  10  26  44  69 102 143 180 234 294 351 422
#
# _framework density 22.86337
#
# number of rings (size 3 to 8) (size 9 to 14) (size 15 to 20)
#    0.000    1.067    2.667    2.800    5.600    2.667 
#   14.400    0.000    0.000    0.000    0.000    0.000 
#    0.000    0.000    0.000    0.000    0.000    0.000 
#
# Total GULP energy -167109.972805 kJ/mol
# GULP energy per Si atom -5570.332427 kJ/mol
# Density = 2.281133 g / cm^3
# Si number density = 22.863370 Si / 1000 Ang^3
#
#
#
# Elastic Constant Matrix: (Units=GPa)
#
#
# Indices 1 2 3 4 5 6 
#
# 1 42.6863 9.1703 3.1445 0.0000 0.2532 0.0000
# 2 9.1703 49.4978 7.1446 0.0000 -5.9784 0.0000
# 3 3.1445 7.1446 84.6421 0.0000 -1.4617 0.0000
# 4 0.0000 0.0000 0.0000 24.3677 0.0000 5.9137
# 5 0.2532 -5.9784 -1.4617 0.0000 31.9570 0.0000
# 6 0.0000 0.0000 0.0000 5.9137 0.0000 29.5352
#
#
#
# Elastic Compliance Matrix: (Units=1/GPa)
#
#
# Indices 1 2 3 4 5 6 
#
# 1 0.024458 -0.004583 -0.000540 0.000000 -0.001076 0.000000
# 2 -0.004583 0.021770 -0.001598 0.000000 0.004036 0.000000
# 3 -0.000540 -0.001598 0.011974 0.000000 0.000253 0.000000
# 4 0.000000 0.000000 0.000000 0.043134 0.000000 -0.008636
# 5 -0.001076 0.004036 0.000253 0.000000 0.032067 0.000000
# 6 0.000000 0.000000 0.000000 -0.008636 0.000000 0.035587
#
#
# Mechanical properties :
#
#
# Convention : Reuss Voigt Hill
#
# Bulk Modulus (GPa) = 22.34180 23.97168 23.15674
# Shear Modulus (GPa) = 25.33549 27.66308 26.49929
#
# Velocity S-wave (km/s) = 3.33246 3.48218 3.40814
# Velocity P-wave (km/s) = 4.95986 5.16478 5.06335
#
# Compressibility (1/GPa) = 0.04475915
#
# Stress axis : x y z
#
# Youngs Moduli (GPa) = 40.88720 45.93455 83.51602
#
# Poissons Ratio (x) = 0.21052 0.04513
# Poissons Ratio (y) = 0.18739 0.13343
# Poissons Ratio (z) = 0.02209 0.07339
#
# Static dielectric constant tensor:
#      x y z
#    x 1.829570 0.000000 0.013100 
#    y 0.000000 1.863370 0.000000 
#    z 0.013100 0.000000 1.935700 
# 
# From -- ./inp_files/63584.got.cif
#   From: 2010.05.17/outbox.cif.g08.bks.cpg/sg14_32_cif.got.tgz:63584.got - 2010.06.03 17:49:19.
