data_PCOD9250746
_publ_section_title
;
Structure prediction by ZEFSAII (Michael W. Deem and Ramdas Pophale) SiO2 
 PCOD9250746
Probable space group: P 21/C
;
_chemical_formula_sum "Si O2"
_cell_formula_units_Z 16
_cell_length_a 4.954782
_cell_length_b 15.065975
_cell_length_c 8.378836
_cell_angle_alpha 90.000000
_cell_angle_beta 106.691712
_cell_angle_gamma 90.000000
_cell_volume 599.113849
_symmetry_space_group_name_H-M "P 21/C"
_symmetry_group_IT_number 14
_symmetry_cell_setting 'monoclinic'
loop_
_space_group_symop_operation_xyz
x,y,z
-x,1/2+y,1/2-z
-x,-y,-z
x,1/2-y,1/2+z
loop_
_atom_site_type_symbol
_atom_site_label
_atom_site_fract_x
_atom_site_fract_y
_atom_site_fract_z
Si Si1 0.254173 0.423630 0.634950
Si Si2 0.890923 0.862669 0.565608
Si Si3 0.720799 0.923752 0.213077
Si Si4 0.555645 0.268579 0.838789
O O1 0.064198 0.417838 0.762533
O O2 0.133535 0.430930 0.436206
O O3 0.491197 0.498823 0.694021
O O4 0.416601 0.328596 0.675576
O O5 0.909610 0.913187 0.402748
O O6 0.576541 0.824939 0.536499
O O7 0.112545 0.782691 0.606770
O O8 0.550210 0.830583 0.177944
#
# Coordination Sequence:
#
# PCOD9250746 Si02
#       4
#     4   4   4   4
#     4   9  24  45  70 110 135 181 238 275 355 416
#     4  10  24  47  66 101 140 182 232 279 349 407
#     4  11  21  47  72 103 143 184 224 299 336 412
#     4  10  24  46  67 101 142 180 232 282 342 414
#
# _framework density 26.706105999999998
#
# number of rings (size 3 to 8) (size 9 to 14) (size 15 to 20)
#    1.500    0.500    0.000    2.250    0.000    5.000 
#    9.000    2.500    0.000    0.000    0.000    0.000 
#    0.000    0.000    0.000    0.000    0.000    0.000 
#
# Total GULP energy -89511.948044 kJ/mol
# GULP energy per Si atom -5594.496753 kJ/mol
# Density = 2.664532 g / cm^3
# Si number density = 26.706106 Si / 1000 Ang^3
#
#
#
# Elastic Constant Matrix: (Units=GPa)
#
#
# Indices 1 2 3 4 5 6 
#
# 1 109.8917 19.0942 47.0012 0.0000 -16.3455 0.0000
# 2 19.0942 137.4379 49.5941 0.0000 -24.7689 0.0000
# 3 47.0012 49.5941 199.9576 0.0000 -47.5200 0.0000
# 4 0.0000 0.0000 0.0000 44.5860 0.0000 0.7797
# 5 -16.3455 -24.7689 -47.5200 0.0000 35.8636 0.0000
# 6 0.0000 0.0000 0.0000 0.7797 0.0000 43.5610
#
#
#
# Elastic Compliance Matrix: (Units=1/GPa)
#
#
# Indices 1 2 3 4 5 6 
#
# 1 0.010249 -0.000407 -0.001846 0.000000 0.001944 0.000000
# 2 -0.000407 0.008471 -0.000962 0.000000 0.004390 0.000000
# 3 -0.001846 -0.000962 0.007759 0.000000 0.008775 0.000000
# 4 0.000000 0.000000 0.000000 0.022436 0.000000 -0.000402
# 5 0.001944 0.004390 0.008775 0.000000 0.043428 0.000000
# 6 0.000000 0.000000 0.000000 -0.000402 0.000000 0.022963
#
#
# Mechanical properties :
#
#
# Convention : Reuss Voigt Hill
#
# Bulk Modulus (GPa) = 49.87982 75.40736 62.64359
# Shear Modulus (GPa) = 38.93456 46.90864 42.92160
#
# Velocity S-wave (km/s) = 3.82237 4.19558 4.01332
# Velocity P-wave (km/s) = 6.18050 7.19499 6.70695
#
# Compressibility (1/GPa) = 0.02004819
#
# Stress axis : x y z
#
# Youngs Moduli (GPa) = 97.56669 118.05121 128.88282
#
# Poissons Ratio (x) = 0.04810 0.23794
# Poissons Ratio (y) = 0.03975 0.12397
# Poissons Ratio (z) = 0.18013 0.11355
#
# Static dielectric constant tensor:
#      x y z
#    x 2.017790 0.000000 -0.061080 
#    y 0.000000 2.061610 0.000000 
#    z -0.061080 0.000000 2.126700 
# 
# From -- ./inp_files/5007.got.cif
#   From: 2010.05.17/outbox.cif.g08.bks.cpg/sg14_3_cif.got.tgz:5007.got - 2010.06.03 17:49:19.
