data_PCOD9250866
_publ_section_title
;
Structure prediction by ZEFSAII (Michael W. Deem and Ramdas Pophale) SiO2 
 PCOD9250866
Probable space group: P 21/C
;
_chemical_formula_sum "Si O2"
_cell_formula_units_Z 18
_cell_length_a 18.917929
_cell_length_b 4.561928
_cell_length_c 8.371251
_cell_angle_alpha 90.000000
_cell_angle_beta 65.002902
_cell_angle_gamma 90.000000
_cell_volume 654.784439
_symmetry_space_group_name_H-M "P 21/C"
_symmetry_group_IT_number 14
_symmetry_cell_setting 'monoclinic'
loop_
_space_group_symop_operation_xyz
x,y,z
-x,1/2+y,1/2-z
-x,-y,-z
x,1/2-y,1/2+z
loop_
_atom_site_type_symbol
_atom_site_label
_atom_site_fract_x
_atom_site_fract_y
_atom_site_fract_z
Si Si1 0.554789 0.914951 0.203790
Si Si2 0.334654 0.458283 0.131850
Si Si3 0.220104 0.527150 0.741990
Si Si4 0.000000 0.500000 0.500000
Si Si5 0.882069 0.629495 0.891389
O O1 0.494094 0.675004 0.330477
O O2 0.606786 0.068514 0.288821
O O3 0.612314 0.722439 0.041464
O O4 0.275175 0.709076 0.132392
O O5 0.278660 0.212814 0.258738
O O6 0.173807 0.357967 0.647161
O O7 0.162432 0.589163 0.944785
O O8 0.932445 0.472240 0.707752
O O9 0.941907 0.705732 0.450008
#
# Coordination Sequence:
#
# PCOD9250866 Si02
#       5
#     4   4   4   2   4
#     4  12  25  46  74 107 148 196 248 308 374 445
#     4  12  26  47  73 108 150 195 248 307 374 448
#     4  11  26  47  75 112 151 197 252 313 379 452
#     4  10  24  48  72 108 150 200 252 314 378 452
#     4  10  25  46  76 111 152 198 252 314 382 451
#
# _framework density 27.489962999999999
#
# number of rings (size 3 to 8) (size 9 to 14) (size 15 to 20)
#    0.000    0.889    0.000    5.333    0.000   16.000 
#    0.000    2.222    0.000    0.000    0.000    0.000 
#    0.000    0.000    0.000    0.000    0.000    0.000 
#
# Total GULP energy -100483.463643 kJ/mol
# GULP energy per Si atom -5582.414647 kJ/mol
# Density = 2.742739 g / cm^3
# Si number density = 27.489963 Si / 1000 Ang^3
#
#
#
# Elastic Constant Matrix: (Units=GPa)
#
#
# Indices 1 2 3 4 5 6 
#
# 1 146.1847 51.3341 36.0713 0.0000 -7.2606 0.0000
# 2 51.3341 102.0958 24.3868 0.0000 -24.3905 0.0000
# 3 36.0713 24.3868 173.1895 0.0000 -33.4065 0.0000
# 4 0.0000 0.0000 0.0000 26.3005 0.0000 3.8006
# 5 -7.2606 -24.3905 -33.4065 0.0000 35.0225 0.0000
# 6 0.0000 0.0000 0.0000 3.8006 0.0000 18.4234
#
#
#
# Elastic Compliance Matrix: (Units=1/GPa)
#
#
# Indices 1 2 3 4 5 6 
#
# 1 0.008791 -0.004757 -0.001775 0.000000 -0.003183 0.000000
# 2 -0.004757 0.014324 0.000867 0.000000 0.009817 0.000000
# 3 -0.001775 0.000867 0.007435 0.000000 0.007328 0.000000
# 4 0.000000 0.000000 0.000000 0.039190 0.000000 -0.008085
# 5 -0.003183 0.009817 0.007328 0.000000 0.041720 0.000000
# 6 0.000000 0.000000 0.000000 -0.008085 0.000000 0.055947
#
#
# Mechanical properties :
#
#
# Convention : Reuss Voigt Hill
#
# Bulk Modulus (GPa) = 52.02522 71.67272 61.84897
# Shear Modulus (GPa) = 27.00609 36.59447 31.80028
#
# Velocity S-wave (km/s) = 3.13772 3.65251 3.40486
# Velocity P-wave (km/s) = 5.66510 6.62697 6.16482
#
# Compressibility (1/GPa) = 0.01922145
#
# Stress axis : x y z
#
# Youngs Moduli (GPa) = 113.75401 69.81063 134.49643
#
# Poissons Ratio (x) = 0.33206 0.23876
# Poissons Ratio (y) = 0.54108 -0.11664
# Poissons Ratio (z) = 0.20194 -0.06054
#
# Static dielectric constant tensor:
#      x y z
#    x 2.091070 0.000000 -0.030260 
#    y 0.000000 2.138680 0.000000 
#    z -0.030260 0.000000 2.108450 
# 
# From -- ./inp_files/17123.got.cif
#   From: 2010.05.17/outbox.cif.g08.bks.cpg/sg14_9_cif.got.tgz:17123.got - 2010.06.03 17:49:19.
