data_PCOD9250602
_publ_section_title
;
Structure prediction by ZEFSAII (Michael W. Deem and Ramdas Pophale) SiO2 
 PCOD9250602
Probable space group: P 21/C
;
_chemical_formula_sum "Si O2"
_cell_formula_units_Z 28
_cell_length_a 9.635163
_cell_length_b 12.143605
_cell_length_c 18.109929
_cell_angle_alpha 90.000000
_cell_angle_beta 146.576219
_cell_angle_gamma 90.000000
_cell_volume 1167.182656
_symmetry_space_group_name_H-M "P 21/C"
_symmetry_group_IT_number 14
_symmetry_cell_setting 'monoclinic'
loop_
_space_group_symop_operation_xyz
x,y,z
-x,1/2+y,1/2-z
-x,-y,-z
x,1/2-y,1/2+z
loop_
_atom_site_type_symbol
_atom_site_label
_atom_site_fract_x
_atom_site_fract_y
_atom_site_fract_z
Si Si1 0.711245 0.808223 0.285968
Si Si2 0.538972 0.517930 0.603730
Si Si3 0.716465 0.218968 0.307884
Si Si4 0.257189 0.098095 0.288891
Si Si5 0.786972 0.444137 0.965437
Si Si6 0.020692 0.101232 0.340156
Si Si7 0.964110 0.570390 0.557199
O O1 0.525226 0.867809 0.143539
O O2 0.537352 0.777295 0.278369
O O3 0.824335 0.700230 0.297894
O O4 0.944706 0.884315 0.410774
O O5 0.500000 0.500000 0.500000
O O6 0.838307 0.499389 0.740985
O O7 0.326688 0.439937 0.546921
O O8 0.704008 0.101896 0.347720
O O9 0.806006 0.189954 0.265175
O O10 0.933683 0.309628 0.419545
O O11 0.558301 0.096027 0.414675
O O12 0.182221 0.120491 0.339784
O O13 0.132495 0.988845 0.196641
O O14 0.828996 0.565474 0.019448
O O15 0.000000 0.500000 0.500000
#
# Coordination Sequence:
#
# PCOD9250602 Si02
#       7
#     4   4   4   4   4   4   4
#     4  10  24  44  68  99 136 181 224 274 343 404
#     4  11  24  45  70  96 139 176 223 285 339 402
#     4  11  25  41  69 101 131 179 227 277 337 407
#     4  11  25  43  70 101 136 180 224 282 343 404
#     4  10  24  46  68  96 139 178 225 279 343 405
#     4  11  25  44  67 101 136 178 223 284 343 404
#     4  12  25  45  69 100 134 176 229 279 334 403
#
# _framework density 23.989388999999999
#
# number of rings (size 3 to 8) (size 9 to 14) (size 15 to 20)
#    0.000    1.143    2.857    1.714   10.000    1.143 
#    0.000    0.000    0.000    0.000    0.000    0.000 
#    0.000    0.000    0.000    0.000    0.000    0.000 
#
# Total GULP energy -155960.583628 kJ/mol
# GULP energy per Si atom -5570.020844 kJ/mol
# Density = 2.393479 g / cm^3
# Si number density = 23.989389 Si / 1000 Ang^3
#
#
#
# Elastic Constant Matrix: (Units=GPa)
#
#
# Indices 1 2 3 4 5 6 
#
# 1 244.6251 26.2256 42.3971 0.0000 16.3107 0.0000
# 2 26.2256 50.3084 9.3130 0.0000 -5.5686 0.0000
# 3 42.3971 9.3130 75.2338 0.0000 -1.2630 0.0000
# 4 0.0000 0.0000 0.0000 22.5990 0.0000 10.9021
# 5 16.3107 -5.5686 -1.2630 0.0000 37.0884 0.0000
# 6 0.0000 0.0000 0.0000 10.9021 0.0000 25.4327
#
#
#
# Elastic Compliance Matrix: (Units=1/GPa)
#
#
# Indices 1 2 3 4 5 6 
#
# 1 0.004962 -0.002407 -0.002542 0.000000 -0.002630 0.000000
# 2 -0.002407 0.021844 -0.001275 0.000000 0.004295 0.000000
# 3 -0.002542 -0.001275 0.014907 0.000000 0.001434 0.000000
# 4 0.000000 0.000000 0.000000 0.055786 0.000000 -0.023914
# 5 -0.002630 0.004295 0.001434 0.000000 0.028813 0.000000
# 6 0.000000 0.000000 0.000000 -0.023914 0.000000 0.049570
#
#
# Mechanical properties :
#
#
# Convention : Reuss Voigt Hill
#
# Bulk Modulus (GPa) = 34.17350 58.44874 46.31112
# Shear Modulus (GPa) = 25.24159 36.50612 30.87385
#
# Velocity S-wave (km/s) = 3.24728 3.90521 3.59134
# Velocity P-wave (km/s) = 5.32315 6.68966 6.04514
#
# Compressibility (1/GPa) = 0.02926244
#
# Stress axis : x y z
#
# Youngs Moduli (GPa) = 201.53327 45.77971 67.08435
#
# Poissons Ratio (x) = 0.11020 0.17056
# Poissons Ratio (y) = 0.48512 0.08556
# Poissons Ratio (z) = 0.51238 0.05839
#
# Static dielectric constant tensor:
#      x y z
#    x 1.894410 0.000000 -0.049980 
#    y 0.000000 2.167910 0.000000 
#    z -0.049980 0.000000 2.068450 
# 
# From -- ./inp_files/55963.got.cif
#   From: 2010.05.17/outbox.cif.g08.bks.cpg/sg14_28_cif.got.tgz:55963.got - 2010.06.03 17:49:19.
