data_PCOD9250210
_publ_section_title
;
Structure prediction by ZEFSAII (Michael W. Deem and Ramdas Pophale) SiO2 
 PCOD9250210
Probable space group: P 21/C
;
_chemical_formula_sum "Si O2"
_cell_formula_units_Z 22
_cell_length_a 20.360980
_cell_length_b 7.677784
_cell_length_c 13.869488
_cell_angle_alpha 90.000000
_cell_angle_beta 161.097916
_cell_angle_gamma 90.000000
_cell_volume 702.385332
_symmetry_space_group_name_H-M "P 21/C"
_symmetry_group_IT_number 14
_symmetry_cell_setting 'monoclinic'
loop_
_space_group_symop_operation_xyz
x,y,z
-x,1/2+y,1/2-z
-x,-y,-z
x,1/2-y,1/2+z
loop_
_atom_site_type_symbol
_atom_site_label
_atom_site_fract_x
_atom_site_fract_y
_atom_site_fract_z
Si Si1 0.800665 0.822377 0.029052
Si Si2 0.819627 0.316563 0.213643
Si Si3 0.789167 0.162437 0.897147
Si Si4 0.865204 0.618294 0.966023
Si Si5 0.500000 0.000000 0.000000
Si Si6 0.429947 0.029139 0.121363
O O1 0.681404 0.646437 0.798400
O O2 0.655697 0.832595 0.921267
O O3 0.992716 0.946714 0.346222
O O4 0.723365 0.977126 0.848121
O O5 0.830840 0.356300 0.341997
O O6 0.034497 0.265882 0.465702
O O7 0.681109 0.147030 0.003322
O O8 0.005530 0.199762 0.251721
O O9 0.651866 0.325214 0.731415
O O10 0.653826 0.554784 0.605157
O O11 0.673079 0.037812 0.465326
#
# Coordination Sequence:
#
# PCOD9250210 Si02
#       6
#     4   4   4   4   2   4
#     4  10  23  49  73 114 157 195 270 314 406 450
#     4  12  28  48  78 113 167 203 274 317 400 458
#     4  10  25  47  79 111 155 217 257 335 381 480
#     4  10  26  49  77 116 150 209 260 331 394 476
#     4  12  28  46  78 110 150 204 272 316 398 458
#     4  12  28  46  74 117 155 213 259 330 382 480
#
# _framework density 31.321836000000001
#
# number of rings (size 3 to 8) (size 9 to 14) (size 15 to 20)
#    1.091    0.000    1.818    2.182    7.636    4.364 
#    0.000    0.000    0.000    0.000    0.000    0.000 
#    0.000    0.000    0.000    0.000    0.000    0.000 
#
# Total GULP energy -123070.903016 kJ/mol
# GULP energy per Si atom -5594.131955 kJ/mol
# Density = 3.125055 g / cm^3
# Si number density = 31.321836 Si / 1000 Ang^3
#
#
#
# Elastic Constant Matrix: (Units=GPa)
#
#
# Indices 1 2 3 4 5 6 
#
# 1 208.7591 91.1474 89.0944 0.0000 -15.5949 0.0000
# 2 91.1474 281.2917 80.7964 0.0000 7.1356 0.0000
# 3 89.0944 80.7964 246.6879 0.0000 43.6928 0.0000
# 4 0.0000 0.0000 0.0000 82.1506 0.0000 4.8949
# 5 -15.5949 7.1356 43.6928 0.0000 103.3380 0.0000
# 6 0.0000 0.0000 0.0000 4.8949 0.0000 74.7951
#
#
#
# Elastic Compliance Matrix: (Units=1/GPa)
#
#
# Indices 1 2 3 4 5 6 
#
# 1 0.006566 -0.001539 -0.002228 0.000000 0.002039 0.000000
# 2 -0.001539 0.004293 -0.000818 0.000000 -0.000183 0.000000
# 3 -0.002228 -0.000818 0.005595 0.000000 -0.002645 0.000000
# 4 0.000000 0.000000 0.000000 0.012220 0.000000 -0.000800
# 5 0.002039 -0.000183 -0.002645 0.000000 0.011116 0.000000
# 6 0.000000 0.000000 0.000000 -0.000800 0.000000 0.013422
#
#
# Mechanical properties :
#
#
# Convention : Reuss Voigt Hill
#
# Bulk Modulus (GPa) = 137.30395 139.86833 138.58614
# Shear Modulus (GPa) = 77.14776 83.77012 80.45894
#
# Velocity S-wave (km/s) = 4.96831 5.17716 5.07381
# Velocity P-wave (km/s) = 8.76606 8.97159 8.86942
#
# Compressibility (1/GPa) = 0.00728311
#
# Stress axis : x y z
#
# Youngs Moduli (GPa) = 152.30990 232.91982 178.73353
#
# Poissons Ratio (x) = 0.35849 0.39828
# Poissons Ratio (y) = 0.23442 0.14619
# Poissons Ratio (z) = 0.33939 0.19050
#
# Static dielectric constant tensor:
#      x y z
#    x 2.447880 0.000000 0.041060 
#    y 0.000000 2.398050 0.000000 
#    z 0.041060 0.000000 2.524960 
# 
# From -- ./inp_files/28031.got.cif
#   From: 2010.05.17/outbox.cif.g08.bks.cpg/sg14_15_cif.got.tgz:28031.got - 2010.06.03 17:49:19.
