data_PCOD9250343
_publ_section_title
;
Structure prediction by ZEFSAII (Michael W. Deem and Ramdas Pophale) SiO2 
 PCOD9250343
Probable space group: P 21/C
;
_chemical_formula_sum "Si O2"
_cell_formula_units_Z 24
_cell_length_a 9.954426
_cell_length_b 11.963697
_cell_length_c 9.939530
_cell_angle_alpha 90.000000
_cell_angle_beta 126.924475
_cell_angle_gamma 90.000000
_cell_volume 946.295748
_symmetry_space_group_name_H-M "P 21/C"
_symmetry_group_IT_number 14
_symmetry_cell_setting 'monoclinic'
loop_
_space_group_symop_operation_xyz
x,y,z
-x,1/2+y,1/2-z
-x,-y,-z
x,1/2-y,1/2+z
loop_
_atom_site_type_symbol
_atom_site_label
_atom_site_fract_x
_atom_site_fract_y
_atom_site_fract_z
Si Si1 0.425506 0.781303 0.078160
Si Si2 0.058607 0.198281 0.824751
Si Si3 0.691899 0.401057 0.144744
Si Si4 0.194081 0.352540 0.125467
Si Si5 0.327043 0.926718 0.659025
Si Si6 0.687967 0.506757 0.433769
O O1 0.609027 0.816394 0.241240
O O2 0.321804 0.704734 0.123180
O O3 0.315646 0.890941 0.987203
O O4 0.442922 0.698104 0.962323
O O5 0.095783 0.204695 0.689053
O O6 0.869340 0.161868 0.738017
O O7 0.114148 0.306484 0.941204
O O8 0.174411 0.095990 0.946563
O O9 0.694411 0.469385 0.282009
O O10 0.666104 0.472711 0.992788
O O11 0.195567 0.487413 0.142443
O O12 0.503757 0.941276 0.839062
#
# Coordination Sequence:
#
# PCOD9250343 Si02
#       6
#     4   4   4   4   4   4
#     4   9  23  42  69  98 130 180 224 277 322 400
#     4  12  27  42  66 105 134 182 213 284 338 394
#     4  10  24  41  69  95 138 170 226 274 337 390
#     4  11  26  43  71  95 144 171 230 271 330 406
#     4   9  22  44  66  99 127 183 219 278 328 387
#     4  11  22  42  70  97 132 176 229 272 327 406
#
# _framework density 25.362051000000001
#
# number of rings (size 3 to 8) (size 9 to 14) (size 15 to 20)
#    1.000    0.667    1.667    1.000    9.333    6.000 
#    0.000    0.000    0.000    0.000    0.000    0.000 
#    0.000    0.000    0.000    0.000    0.000    0.000 
#
# Total GULP energy -134165.058258 kJ/mol
# GULP energy per Si atom -5590.210761 kJ/mol
# Density = 2.530433 g / cm^3
# Si number density = 25.362051 Si / 1000 Ang^3
#
#
#
# Elastic Constant Matrix: (Units=GPa)
#
#
# Indices 1 2 3 4 5 6 
#
# 1 65.8436 10.9473 21.2887 0.0000 1.1477 0.0000
# 2 10.9473 105.8889 9.2993 0.0000 12.3473 0.0000
# 3 21.2887 9.2993 50.3125 0.0000 -0.0206 0.0000
# 4 0.0000 0.0000 0.0000 40.2341 0.0000 -15.4414
# 5 1.1477 12.3473 -0.0206 0.0000 52.0776 0.0000
# 6 0.0000 0.0000 0.0000 -15.4414 0.0000 27.3121
#
#
#
# Elastic Compliance Matrix: (Units=1/GPa)
#
#
# Indices 1 2 3 4 5 6 
#
# 1 0.017743 -0.001181 -0.007289 0.000000 -0.000114 0.000000
# 2 -0.001181 0.009956 -0.001341 0.000000 -0.002335 0.000000
# 3 -0.007289 -0.001341 0.023208 0.000000 0.000488 0.000000
# 4 0.000000 0.000000 0.000000 0.031742 0.000000 0.017946
# 5 -0.000114 -0.002335 0.000488 0.000000 0.019758 0.000000
# 6 0.000000 0.000000 0.000000 0.017946 0.000000 0.046760
#
#
# Mechanical properties :
#
#
# Convention : Reuss Voigt Hill
#
# Bulk Modulus (GPa) = 31.96552 33.90175 32.93363
# Shear Modulus (GPa) = 27.89898 35.95874 31.92886
#
# Velocity S-wave (km/s) = 3.32027 3.76948 3.55198
# Velocity P-wave (km/s) = 5.22780 5.68695 5.46220
#
# Compressibility (1/GPa) = 0.03128371
#
# Stress axis : x y z
#
# Youngs Moduli (GPa) = 56.36162 100.44153 43.08822
#
# Poissons Ratio (x) = 0.11861 0.31408
# Poissons Ratio (y) = 0.06656 0.05780
# Poissons Ratio (z) = 0.41083 0.13474
#
# Static dielectric constant tensor:
#      x y z
#    x 2.024400 0.000000 -0.080660 
#    y 0.000000 2.037820 0.000000 
#    z -0.080660 0.000000 2.010750 
# 
# From -- ./inp_files/29200.got.cif
#   From: 2010.05.17/outbox.cif.g08.bks.cpg/sg14_15_cif.got.tgz:29200.got - 2010.06.03 17:49:19.
