data_PCOD9250212
_publ_section_title
;
Structure prediction by ZEFSAII (Michael W. Deem and Ramdas Pophale) SiO2 
 PCOD9250212
Probable space group: P 21/C
;
_chemical_formula_sum "Si O2"
_cell_formula_units_Z 22
_cell_length_a 8.654574
_cell_length_b 16.657576
_cell_length_c 8.723715
_cell_angle_alpha 90.000000
_cell_angle_beta 132.820001
_cell_angle_gamma 90.000000
_cell_volume 922.475259
_symmetry_space_group_name_H-M "P 21/C"
_symmetry_group_IT_number 14
_symmetry_cell_setting 'monoclinic'
loop_
_space_group_symop_operation_xyz
x,y,z
-x,1/2+y,1/2-z
-x,-y,-z
x,1/2-y,1/2+z
loop_
_atom_site_type_symbol
_atom_site_label
_atom_site_fract_x
_atom_site_fract_y
_atom_site_fract_z
Si Si1 0.575368 0.581176 0.633223
Si Si2 0.228150 0.838455 0.118856
Si Si3 0.000000 0.000000 0.500000
Si Si4 0.861923 0.018815 0.753826
Si Si5 0.750200 0.848411 0.687688
Si Si6 0.557959 0.716335 0.366913
O O1 0.500000 0.500000 0.500000
O O2 0.387981 0.615029 0.613646
O O3 0.603228 0.648029 0.520870
O O4 0.787191 0.556639 0.863341
O O5 0.220613 0.891941 0.267916
O O6 0.319964 0.749896 0.209790
O O7 0.997173 0.836501 0.890460
O O8 0.985695 0.015943 0.678152
O O9 0.706153 0.942974 0.646756
O O10 0.000000 0.000000 0.000000
O O11 0.691713 0.794332 0.504090
O O12 0.620983 0.813792 0.743480
#
# Coordination Sequence:
#
# PCOD9250212 Si02
#       6
#     4   4   2   4   4   4
#     4  12  26  46  74 113 148 199 264 316 382 473
#     4  11  25  47  75 108 152 199 248 319 386 448
#     4  12  26  48  82 108 148 202 254 318 400 444
#     4  10  23  49  77 111 147 201 255 319 379 466
#     4  11  25  45  70 103 156 192 252 315 376 454
#     4  12  26  45  69 111 150 199 254 310 388 457
#
# _framework density 23.848877999999999
#
# number of rings (size 3 to 8) (size 9 to 14) (size 15 to 20)
#    0.000    0.727    1.818    6.545    2.545    5.818 
#    0.000    0.000    0.000    0.000    0.000    0.000 
#    0.000    0.000    0.000    0.000    0.000    0.000 
#
# Total GULP energy -122669.330378 kJ/mol
# GULP energy per Si atom -5575.878654 kJ/mol
# Density = 2.379460 g / cm^3
# Si number density = 23.848878 Si / 1000 Ang^3
#
#
#
# Elastic Constant Matrix: (Units=GPa)
#
#
# Indices 1 2 3 4 5 6 
#
# 1 101.3065 28.7264 47.3738 0.0000 -25.4788 0.0000
# 2 28.7264 94.0804 17.5649 0.0000 -2.0840 0.0000
# 3 47.3738 17.5649 75.5645 0.0000 -1.8442 0.0000
# 4 0.0000 0.0000 0.0000 52.2566 0.0000 0.3544
# 5 -25.4788 -2.0840 -1.8442 0.0000 55.5874 0.0000
# 6 0.0000 0.0000 0.0000 0.3544 0.0000 43.4476
#
#
#
# Elastic Compliance Matrix: (Units=1/GPa)
#
#
# Indices 1 2 3 4 5 6 
#
# 1 0.017317 -0.003271 -0.009914 0.000000 0.007486 0.000000
# 2 -0.003271 0.011735 -0.000704 0.000000 -0.001083 0.000000
# 3 -0.009914 -0.000704 0.019517 0.000000 -0.003923 0.000000
# 4 0.000000 0.000000 0.000000 0.019137 0.000000 -0.000156
# 5 0.007486 -0.001083 -0.003923 0.000000 0.021250 0.000000
# 6 0.000000 0.000000 0.000000 -0.000156 0.000000 0.023017
#
#
# Mechanical properties :
#
#
# Convention : Reuss Voigt Hill
#
# Bulk Modulus (GPa) = 48.09357 50.92018 49.50687
# Shear Modulus (GPa) = 34.08745 42.07741 38.08243
#
# Velocity S-wave (km/s) = 3.78472 4.20496 4.00036
# Velocity P-wave (km/s) = 6.26966 6.70620 6.49160
#
# Compressibility (1/GPa) = 0.02079280
#
# Stress axis : x y z
#
# Youngs Moduli (GPa) = 57.74628 85.21274 51.23808
#
# Poissons Ratio (x) = 0.27872 0.50796
# Poissons Ratio (y) = 0.18888 0.03605
# Poissons Ratio (z) = 0.57248 0.05996
#
# Static dielectric constant tensor:
#      x y z
#    x 1.900260 0.000000 0.047200 
#    y 0.000000 2.025940 0.000000 
#    z 0.047200 0.000000 1.951060 
# 
# From -- ./inp_files/9574.got.cif
#   From: 2010.05.17/outbox.cif.g08.bks.cpg/sg14_5_cif.got.tgz:9574.got - 2010.06.03 17:49:19.
