data_PCOD9250846
_publ_section_title
;
Structure prediction by ZEFSAII (Michael W. Deem and Ramdas Pophale) SiO2 
 PCOD9250846
Probable space group: P 21/C
;
_chemical_formula_sum "Si O2"
_cell_formula_units_Z 24
_cell_length_a 7.176490
_cell_length_b 24.878198
_cell_length_c 5.280650
_cell_angle_alpha 90.000000
_cell_angle_beta 84.540971
_cell_angle_gamma 90.000000
_cell_volume 938.521349
_symmetry_space_group_name_H-M "P 21/C"
_symmetry_group_IT_number 14
_symmetry_cell_setting 'monoclinic'
loop_
_space_group_symop_operation_xyz
x,y,z
-x,1/2+y,1/2-z
-x,-y,-z
x,1/2-y,1/2+z
loop_
_atom_site_type_symbol
_atom_site_label
_atom_site_fract_x
_atom_site_fract_y
_atom_site_fract_z
Si Si1 0.268898 0.961614 0.987435
Si Si2 0.544089 0.235613 0.754938
Si Si3 0.942299 0.106026 0.339395
Si Si4 0.546691 0.385859 0.173177
Si Si5 0.254034 0.034961 0.490415
Si Si6 0.132300 0.280246 0.823662
O O1 0.421165 0.919296 0.072320
O O2 0.263065 0.002439 0.225132
O O3 0.096635 0.923565 0.923221
O O4 0.289435 0.995709 0.725290
O O5 0.653968 0.252932 0.494177
O O6 0.484712 0.173973 0.747362
O O7 0.359876 0.273654 0.789886
O O8 0.060510 0.159856 0.291223
O O9 0.744452 0.117858 0.499811
O O10 0.055147 0.064402 0.500771
O O11 0.403851 0.418026 0.015651
O O12 0.071886 0.241707 0.603430
#
# Coordination Sequence:
#
# PCOD9250846 Si02
#       6
#     4   4   4   4   4   4
#     4  12  28  50  74 118 154 200 254 312 370 448
#     4  10  24  47  74 105 144 191 249 306 374 442
#     4  12  29  48  80 114 152 200 257 308 376 453
#     4  12  29  48  80 114 152 200 257 308 376 453
#     4  12  28  50  78 108 162 204 244 310 378 446
#     4  10  24  47  74 105 144 191 249 306 374 442
#
# _framework density 25.572137999999999
#
# number of rings (size 3 to 8) (size 9 to 14) (size 15 to 20)
#    0.000    0.667    1.667    4.000    9.333    4.000 
#    0.000    0.000    0.000    0.000    0.000    0.000 
#    0.000    0.000    0.000    0.000    0.000    0.000 
#
# Total GULP energy -134448.505571 kJ/mol
# GULP energy per Si atom -5602.021065 kJ/mol
# Density = 2.551393 g / cm^3
# Si number density = 25.572138 Si / 1000 Ang^3
#
#
#
# Elastic Constant Matrix: (Units=GPa)
#
#
# Indices 1 2 3 4 5 6 
#
# 1 117.4643 21.4914 23.1527 0.0000 16.1284 0.0000
# 2 21.4914 131.5965 42.7842 0.0000 12.0352 0.0000
# 3 23.1527 42.7842 172.9905 0.0000 34.0948 0.0000
# 4 0.0000 0.0000 0.0000 23.5725 0.0000 -3.3694
# 5 16.1284 12.0352 34.0948 0.0000 31.0837 0.0000
# 6 0.0000 0.0000 0.0000 -3.3694 0.0000 32.9674
#
#
#
# Elastic Compliance Matrix: (Units=1/GPa)
#
#
# Indices 1 2 3 4 5 6 
#
# 1 0.009325 -0.001088 -0.000138 0.000000 -0.004266 0.000000
# 2 -0.001088 0.008427 -0.001795 0.000000 -0.000730 0.000000
# 3 -0.000138 -0.001795 0.007772 0.000000 -0.007758 0.000000
# 4 0.000000 0.000000 0.000000 0.043051 0.000000 0.004400
# 5 -0.004266 -0.000730 -0.007758 0.000000 0.043177 0.000000
# 6 0.000000 0.000000 0.000000 0.004400 0.000000 0.030783
#
#
# Mechanical properties :
#
#
# Convention : Reuss Voigt Hill
#
# Bulk Modulus (GPa) = 51.32808 66.32309 58.82558
# Shear Modulus (GPa) = 32.24329 39.83293 36.03811
#
# Velocity S-wave (km/s) = 3.55473 3.95101 3.75810
# Velocity P-wave (km/s) = 6.07977 6.84149 6.47185
#
# Compressibility (1/GPa) = 0.01948251
#
# Stress axis : x y z
#
# Youngs Moduli (GPa) = 107.23609 118.66786 128.66455
#
# Poissons Ratio (x) = 0.12909 0.01779
# Poissons Ratio (y) = 0.11666 0.23092
# Poissons Ratio (z) = 0.01483 0.21298
#
# Static dielectric constant tensor:
#      x y z
#    x 2.047140 0.000000 -0.049520 
#    y 0.000000 1.963760 0.000000 
#    z -0.049520 0.000000 2.111800 
# 
# From -- ./inp_files/2670.got.cif
#   From: 2010.05.17/outbox.cif.g08.bks.cpg/sg14_2_cif.got.tgz:2670.got - 2010.06.03 17:49:19.
