data_PCOD9250753
_publ_section_title
;
Structure prediction by ZEFSAII (Michael W. Deem and Ramdas Pophale) SiO2 
 PCOD9250753
Probable space group: P 21/C
;
_chemical_formula_sum "Si O2"
_cell_formula_units_Z 26
_cell_length_a 16.916005
_cell_length_b 7.226779
_cell_length_c 17.543729
_cell_angle_alpha 90.000000
_cell_angle_beta 32.341505
_cell_angle_gamma 90.000000
_cell_volume 1147.332947
_symmetry_space_group_name_H-M "P 21/C"
_symmetry_group_IT_number 14
_symmetry_cell_setting 'monoclinic'
loop_
_space_group_symop_operation_xyz
x,y,z
-x,1/2+y,1/2-z
-x,-y,-z
x,1/2-y,1/2+z
loop_
_atom_site_type_symbol
_atom_site_label
_atom_site_fract_x
_atom_site_fract_y
_atom_site_fract_z
Si Si1 0.500000 0.500000 0.000000
Si Si2 0.908055 0.229980 0.755766
Si Si3 0.632098 0.506323 0.731263
Si Si4 0.968971 0.063318 0.940079
Si Si5 0.597764 0.107907 0.981651
Si Si6 0.422654 0.426835 0.768443
Si Si7 0.121217 0.598854 0.055958
O O1 0.390038 0.550629 0.162870
O O2 0.440912 0.676325 0.998224
O O3 0.773488 0.109101 0.832091
O O4 0.866606 0.286422 0.875466
O O5 0.941279 0.422269 0.685889
O O6 0.050468 0.099251 0.634207
O O7 0.793625 0.451614 0.570798
O O8 0.501545 0.422405 0.785904
O O9 0.454454 0.975037 0.894894
O O10 0.990534 0.280059 0.905075
O O11 0.000000 0.000000 0.000000
O O12 0.500000 0.000000 0.000000
O O13 0.628478 0.725595 0.717289
O O14 0.280169 0.557566 0.889378
#
# Coordination Sequence:
#
# PCOD9250753 Si02
#       7
#     2   4   4   4   4   4   4
#     4  10  24  46  68 104 150 182 246 292 370 434
#     4  12  26  50  74 110 149 200 250 305 380 450
#     4  11  23  46  71 109 142 198 245 301 370 435
#     4  12  27  45  75 108 151 195 248 309 377 442
#     4  11  27  46  73 107 144 192 246 306 370 438
#     4  11  25  44  77 106 148 191 251 304 362 446
#     4  12  26  49  75 108 151 197 251 307 369 451
#
# _framework density 22.661252000000001
#
# number of rings (size 3 to 8) (size 9 to 14) (size 15 to 20)
#    0.000    0.615    3.077    4.615    6.462    4.308 
#    0.000    0.000    0.000    0.000    0.000    0.000 
#    0.000    0.000    0.000    0.000    0.000    0.000 
#
# Total GULP energy -144839.095994 kJ/mol
# GULP energy per Si atom -5570.734461 kJ/mol
# Density = 2.260967 g / cm^3
# Si number density = 22.661252 Si / 1000 Ang^3
#
#
#
# Elastic Constant Matrix: (Units=GPa)
#
#
# Indices 1 2 3 4 5 6 
#
# 1 68.7779 27.3838 36.0683 0.0000 13.6502 0.0000
# 2 27.3838 84.0763 39.7597 0.0000 5.4830 0.0000
# 3 36.0683 39.7597 134.8336 0.0000 10.0807 0.0000
# 4 0.0000 0.0000 0.0000 12.9345 0.0000 -2.3035
# 5 13.6502 5.4830 10.0807 0.0000 43.5517 0.0000
# 6 0.0000 0.0000 0.0000 -2.3035 0.0000 31.5310
#
#
#
# Elastic Compliance Matrix: (Units=1/GPa)
#
#
# Indices 1 2 3 4 5 6 
#
# 1 0.018963 -0.004230 -0.003481 0.000000 -0.004605 0.000000
# 2 -0.004230 0.014793 -0.003247 0.000000 0.000215 0.000000
# 3 -0.003481 -0.003247 0.009355 0.000000 -0.000666 0.000000
# 4 0.000000 0.000000 0.000000 0.078332 0.000000 0.005723
# 5 -0.004605 0.000215 -0.000666 0.000000 0.024532 0.000000
# 6 0.000000 0.000000 0.000000 0.005723 0.000000 0.032133
#
#
# Mechanical properties :
#
#
# Convention : Reuss Voigt Hill
#
# Bulk Modulus (GPa) = 47.17914 54.90126 51.04020
# Shear Modulus (GPa) = 24.14431 29.90184 27.02307
#
# Velocity S-wave (km/s) = 3.26766 3.63645 3.45698
# Velocity P-wave (km/s) = 5.92463 6.47389 6.20534
#
# Compressibility (1/GPa) = 0.02119581
#
# Stress axis : x y z
#
# Youngs Moduli (GPa) = 52.73370 67.59966 106.89581
#
# Poissons Ratio (x) = 0.28593 0.37212
# Poissons Ratio (y) = 0.22305 0.34706
# Poissons Ratio (z) = 0.18357 0.21948
#
# Static dielectric constant tensor:
#      x y z
#    x 1.813050 0.000000 0.013420 
#    y 0.000000 1.947230 0.000000 
#    z 0.013420 0.000000 1.895100 
# 
# From -- ./inp_files/69585.got.cif
#   From: 2010.05.17/outbox.cif.g08.bks.cpg/sg14_35_cif.got.tgz:69585.got - 2010.06.03 17:49:19.
