data_PCOD9250216
_publ_section_title
;
Structure prediction by ZEFSAII (Michael W. Deem and Ramdas Pophale) SiO2 
 PCOD9250216
Probable space group: P 21/C
;
_chemical_formula_sum "Si O2"
_cell_formula_units_Z 28
_cell_length_a 13.207888
_cell_length_b 8.543622
_cell_length_c 12.280192
_cell_angle_alpha 90.000000
_cell_angle_beta 55.263444
_cell_angle_gamma 90.000000
_cell_volume 1138.771204
_symmetry_space_group_name_H-M "P 21/C"
_symmetry_group_IT_number 14
_symmetry_cell_setting 'monoclinic'
loop_
_space_group_symop_operation_xyz
x,y,z
-x,1/2+y,1/2-z
-x,-y,-z
x,1/2-y,1/2+z
loop_
_atom_site_type_symbol
_atom_site_label
_atom_site_fract_x
_atom_site_fract_y
_atom_site_fract_z
Si Si1 0.873206 0.577327 0.042769
Si Si2 0.647533 0.307108 0.908202
Si Si3 0.908530 0.560908 0.460740
Si Si4 0.473577 0.027363 0.674134
Si Si5 0.356497 0.493074 0.461433
Si Si6 0.129364 0.984654 0.690646
Si Si7 0.280788 0.268402 0.690016
O O1 0.776316 0.595936 0.199732
O O2 0.891322 0.756363 0.993662
O O3 0.839280 0.485122 0.955152
O O4 0.000000 0.500000 0.000000
O O5 0.576892 0.365072 0.844640
O O6 0.626422 0.136813 0.967556
O O7 0.791204 0.345753 0.804716
O O8 0.594843 0.425614 0.033895
O O9 0.772482 0.488410 0.527726
O O10 0.000000 0.500000 0.500000
O O11 0.985998 0.534945 0.303081
O O12 0.378048 0.164342 0.696889
O O13 0.466747 0.017026 0.807485
O O14 0.338766 0.341167 0.546411
O O15 0.176194 0.145616 0.716484
#
# Coordination Sequence:
#
# PCOD9250216 Si02
#       7
#     4   4   4   4   4   4   4
#     4  12  26  40  65  99 132 181 223 278 334 411
#     4  10  26  43  73  99 133 181 232 278 341 412
#     4  12  24  43  67  95 139 177 225 282 336 408
#     4  10  23  50  67 101 142 174 228 295 340 399
#     4  12  25  43  74 100 132 185 229 279 348 406
#     4  11  24  43  64  96 137 177 216 281 337 405
#     4  11  22  45  66  97 137 179 220 283 348 397
#
# _framework density 24.587906
#
# number of rings (size 3 to 8) (size 9 to 14) (size 15 to 20)
#    0.000    0.857    4.286    1.714    6.000    6.286 
#    0.000    0.000    0.000    0.000    0.000    0.000 
#    0.000    0.000    0.000    0.000    0.000    0.000 
#
# Total GULP energy -156826.311063 kJ/mol
# GULP energy per Si atom -5600.939681 kJ/mol
# Density = 2.453194 g / cm^3
# Si number density = 24.587906 Si / 1000 Ang^3
#
#
#
# Elastic Constant Matrix: (Units=GPa)
#
#
# Indices 1 2 3 4 5 6 
#
# 1 72.9326 3.2288 3.9870 0.0000 -5.4439 0.0000
# 2 3.2288 66.0235 3.4686 0.0000 11.6140 0.0000
# 3 3.9870 3.4686 127.2282 0.0000 6.3573 0.0000
# 4 0.0000 0.0000 0.0000 45.0694 0.0000 1.2187
# 5 -5.4439 11.6140 6.3573 0.0000 30.4022 0.0000
# 6 0.0000 0.0000 0.0000 1.2187 0.0000 32.9247
#
#
#
# Elastic Compliance Matrix: (Units=1/GPa)
#
#
# Indices 1 2 3 4 5 6 
#
# 1 0.014025 -0.001199 -0.000561 0.000000 0.003087 0.000000
# 2 -0.001199 0.016342 -0.000086 0.000000 -0.006440 0.000000
# 3 -0.000561 -0.000086 0.007966 0.000000 -0.001733 0.000000
# 4 0.000000 0.000000 0.000000 0.022210 0.000000 -0.000822
# 5 0.003087 -0.006440 -0.001733 0.000000 0.036268 0.000000
# 6 0.000000 0.000000 0.000000 -0.000822 0.000000 0.030403
#
#
# Mechanical properties :
#
#
# Convention : Reuss Voigt Hill
#
# Bulk Modulus (GPa) = 28.86783 31.95035 30.40909
# Shear Modulus (GPa) = 35.09885 38.71259 36.90572
#
# Velocity S-wave (km/s) = 3.78231 3.97225 3.87844
# Velocity P-wave (km/s) = 5.55343 5.83617 5.69655
#
# Compressibility (1/GPa) = 0.03464063
#
# Stress axis : x y z
#
# Youngs Moduli (GPa) = 71.29885 61.19165 125.52660
#
# Poissons Ratio (x) = 0.07340 0.07043
# Poissons Ratio (y) = 0.08552 0.01082
# Poissons Ratio (z) = 0.04000 0.00527
#
# Static dielectric constant tensor:
#      x y z
#    x 1.961560 0.000000 0.017760 
#    y 0.000000 1.898150 0.000000 
#    z 0.017760 0.000000 1.967980 
# 
# From -- ./inp_files/31451.got.cif
#   From: 2010.05.17/outbox.cif.g08.bks.cpg/sg14_16_cif.got.tgz:31451.got - 2010.06.03 17:49:19.
