data_PCOD9250520
_publ_section_title
;
Structure prediction by ZEFSAII (Michael W. Deem and Ramdas Pophale) SiO2 
 PCOD9250520
Probable space group: P 21/C
;
_chemical_formula_sum "Si O2"
_cell_formula_units_Z 22
_cell_length_a 6.347927
_cell_length_b 16.300493
_cell_length_c 7.585542
_cell_angle_alpha 90.000000
_cell_angle_beta 86.468499
_cell_angle_gamma 90.000000
_cell_volume 783.418472
_symmetry_space_group_name_H-M "P 21/C"
_symmetry_group_IT_number 14
_symmetry_cell_setting 'monoclinic'
loop_
_space_group_symop_operation_xyz
x,y,z
-x,1/2+y,1/2-z
-x,-y,-z
x,1/2-y,1/2+z
loop_
_atom_site_type_symbol
_atom_site_label
_atom_site_fract_x
_atom_site_fract_y
_atom_site_fract_z
Si Si1 0.221903 0.513688 0.750769
Si Si2 0.320678 0.302216 0.996867
Si Si3 0.500000 0.500000 0.500000
Si Si4 0.291114 0.679319 0.558940
Si Si5 0.995403 0.702311 0.270343
Si Si6 0.729758 0.970287 0.347175
O O1 0.281164 0.450092 0.592422
O O2 0.340696 0.587602 0.624257
O O3 0.280791 0.510103 0.955053
O O4 0.973549 0.529664 0.775537
O O5 0.189328 0.233213 0.098647
O O6 0.359673 0.378122 0.121703
O O7 0.138192 0.340646 0.876621
O O8 0.813349 0.167146 0.126962
O O9 0.399937 0.513367 0.299419
O O10 0.469030 0.750877 0.563513
O O11 0.103893 0.715827 0.685945
#
# Coordination Sequence:
#
# PCOD9250520 Si02
#       6
#     4   4   2   4   4   4
#     4  11  27  51  80 117 167 217 277 340 424 499
#     4  11  24  45  78 111 162 212 276 346 417 494
#     4  12  28  46  82 124 154 214 270 336 416 512
#     4  11  24  45  78 112 158 211 279 348 411 497
#     4  10  24  43  70 115 148 209 267 347 407 482
#     4  11  27  53  82 119 168 223 272 346 422 511
#
# _framework density 28.082052999999998
#
# number of rings (size 3 to 8) (size 9 to 14) (size 15 to 20)
#    0.000    1.091    1.818    2.182    5.091    7.273 
#    0.000    0.000    0.000    0.000    0.000    0.000 
#    0.000    0.000    0.000    0.000    0.000    0.000 
#
# Total GULP energy -122573.772558 kJ/mol
# GULP energy per Si atom -5571.535116 kJ/mol
# Density = 2.801814 g / cm^3
# Si number density = 28.082053 Si / 1000 Ang^3
#
#
#
# Elastic Constant Matrix: (Units=GPa)
#
#
# Indices 1 2 3 4 5 6 
#
# 1 138.4263 26.7956 85.0761 0.0000 -14.9643 0.0000
# 2 26.7956 86.0048 43.5082 0.0000 13.5971 0.0000
# 3 85.0761 43.5082 203.9272 0.0000 11.8992 0.0000
# 4 0.0000 0.0000 0.0000 46.0578 0.0000 -0.7344
# 5 -14.9643 13.5971 11.8992 0.0000 88.0435 0.0000
# 6 0.0000 0.0000 0.0000 -0.7344 0.0000 28.8098
#
#
#
# Elastic Compliance Matrix: (Units=1/GPa)
#
#
# Indices 1 2 3 4 5 6 
#
# 1 0.010338 -0.001533 -0.004135 0.000000 0.002553 0.000000
# 2 -0.001533 0.013504 -0.002121 0.000000 -0.002059 0.000000
# 3 -0.004135 -0.002121 0.007160 0.000000 -0.001343 0.000000
# 4 0.000000 0.000000 0.000000 0.021721 0.000000 0.000554
# 5 0.002553 -0.002059 -0.001343 0.000000 0.012291 0.000000
# 6 0.000000 0.000000 0.000000 0.000554 0.000000 0.034724
#
#
# Mechanical properties :
#
#
# Convention : Reuss Voigt Hill
#
# Bulk Modulus (GPa) = 64.83716 82.12423 73.48070
# Shear Modulus (GPa) = 41.50872 50.78079 46.14475
#
# Velocity S-wave (km/s) = 3.84881 4.25702 4.05805
# Velocity P-wave (km/s) = 6.54902 7.31238 6.94120
#
# Compressibility (1/GPa) = 0.01542325
#
# Stress axis : x y z
#
# Youngs Moduli (GPa) = 96.73123 74.05473 139.67138
#
# Poissons Ratio (x) = 0.11350 0.57751
# Poissons Ratio (y) = 0.14826 0.29630
# Poissons Ratio (z) = 0.39996 0.15710
#
# Static dielectric constant tensor:
#      x y z
#    x 2.377100 0.000000 -0.080720 
#    y 0.000000 2.472090 0.000000 
#    z -0.080720 0.000000 2.356090 
# 
# From -- ./inp_files/6377.got.cif
#   From: 2010.05.17/outbox.cif.g08.bks.cpg/sg14_4_cif.got.tgz:6377.got - 2010.06.03 17:49:19.
