data_PCOD9250559
_publ_section_title
;
Structure prediction by ZEFSAII (Michael W. Deem and Ramdas Pophale) SiO2 
 PCOD9250559
Probable space group: P 21/C
;
_chemical_formula_sum "Si O2"
_cell_formula_units_Z 18
_cell_length_a 11.757219
_cell_length_b 7.565972
_cell_length_c 8.882632
_cell_angle_alpha 90.000000
_cell_angle_beta 56.476262
_cell_angle_gamma 90.000000
_cell_volume 658.716361
_symmetry_space_group_name_H-M "P 21/C"
_symmetry_group_IT_number 14
_symmetry_cell_setting 'monoclinic'
loop_
_space_group_symop_operation_xyz
x,y,z
-x,1/2+y,1/2-z
-x,-y,-z
x,1/2-y,1/2+z
loop_
_atom_site_type_symbol
_atom_site_label
_atom_site_fract_x
_atom_site_fract_y
_atom_site_fract_z
Si Si1 0.650983 0.784331 0.404712
Si Si2 0.618807 0.138822 0.227985
Si Si3 0.925443 0.588615 0.778683
Si Si4 0.097116 0.758265 0.387698
Si Si5 0.500000 0.500000 0.500000
O O1 0.506657 0.752570 0.602148
O O2 0.782331 0.812724 0.410396
O O3 0.643645 0.597884 0.329817
O O4 0.633318 0.955705 0.312465
O O5 0.755100 0.251710 0.145444
O O6 0.586057 0.091069 0.082242
O O7 0.893590 0.393279 0.747503
O O8 0.991313 0.683574 0.586547
O O9 0.028934 0.587789 0.840956
#
# Coordination Sequence:
#
# PCOD9250559 Si02
#       5
#     4   4   4   4   2
#     4  10  24  44  65  99 132 176 222 281 331 406
#     4  10  24  45  65  98 137 173 227 274 339 400
#     4  10  24  44  68  95 140 175 224 276 342 399
#     4  10  24  44  67  99 136 179 222 282 335 407
#     4  12  24  38  74  98 128 176 224 280 330 394
#
# _framework density 27.325876000000001
#
# number of rings (size 3 to 8) (size 9 to 14) (size 15 to 20)
#    0.000    1.778    0.000    1.333   15.556    0.889 
#    4.000    0.000    0.000    0.000    0.000    0.000 
#    0.000    0.000    0.000    0.000    0.000    0.000 
#
# Total GULP energy -100466.331502 kJ/mol
# GULP energy per Si atom -5581.462861 kJ/mol
# Density = 2.726368 g / cm^3
# Si number density = 27.325876 Si / 1000 Ang^3
#
#
#
# Elastic Constant Matrix: (Units=GPa)
#
#
# Indices 1 2 3 4 5 6 
#
# 1 235.6469 46.8264 73.3538 0.0000 11.7175 0.0000
# 2 46.8264 90.1202 21.9777 0.0000 8.0193 0.0000
# 3 73.3538 21.9777 106.3317 0.0000 -2.4603 0.0000
# 4 0.0000 0.0000 0.0000 36.4449 0.0000 17.3733
# 5 11.7175 8.0193 -2.4603 0.0000 42.3895 0.0000
# 6 0.0000 0.0000 0.0000 17.3733 0.0000 26.7735
#
#
#
# Elastic Compliance Matrix: (Units=1/GPa)
#
#
# Indices 1 2 3 4 5 6 
#
# 1 0.005855 -0.002022 -0.003655 0.000000 -0.001448 0.000000
# 2 -0.002022 0.012623 -0.001258 0.000000 -0.001902 0.000000
# 3 -0.003655 -0.001258 0.012231 0.000000 0.001958 0.000000
# 4 0.000000 0.000000 0.000000 0.039728 0.000000 -0.025779
# 5 -0.001448 -0.001902 0.001958 0.000000 0.024465 0.000000
# 6 0.000000 0.000000 0.000000 -0.025779 0.000000 0.054078
#
#
# Mechanical properties :
#
#
# Convention : Reuss Voigt Hill
#
# Bulk Modulus (GPa) = 59.38468 79.60162 69.49315
# Shear Modulus (GPa) = 29.68008 40.45099 35.06554
#
# Velocity S-wave (km/s) = 3.29926 3.85166 3.58611
# Velocity P-wave (km/s) = 6.02434 6.99815 6.52943
#
# Compressibility (1/GPa) = 0.01683936
#
# Stress axis : x y z
#
# Youngs Moduli (GPa) = 170.78943 79.21996 81.75850
#
# Poissons Ratio (x) = 0.16020 0.29881
# Poissons Ratio (y) = 0.34537 0.10286
# Poissons Ratio (z) = 0.62420 0.09966
#
# Static dielectric constant tensor:
#      x y z
#    x 1.986310 0.000000 -0.301470 
#    y 0.000000 0.722770 0.000000 
#    z -0.301470 0.000000 1.646200 
# 
# From -- ./inp_files/11576.got.cif
#   From: 2010.05.17/outbox.cif.g08.bks.cpg/sg14_6_cif.got.tgz:11576.got - 2010.06.03 17:49:19.
