data_PCOD9250659
_publ_section_title
;
Structure prediction by ZEFSAII (Michael W. Deem and Ramdas Pophale) SiO2 
 PCOD9250659
Probable space group: P 21/C
;
_chemical_formula_sum "Si O2"
_cell_formula_units_Z 20
_cell_length_a 4.989757
_cell_length_b 7.412198
_cell_length_c 22.339637
_cell_angle_alpha 90.000000
_cell_angle_beta 61.472383
_cell_angle_gamma 90.000000
_cell_volume 725.917558
_symmetry_space_group_name_H-M "P 21/C"
_symmetry_group_IT_number 14
_symmetry_cell_setting 'monoclinic'
loop_
_space_group_symop_operation_xyz
x,y,z
-x,1/2+y,1/2-z
-x,-y,-z
x,1/2-y,1/2+z
loop_
_atom_site_type_symbol
_atom_site_label
_atom_site_fract_x
_atom_site_fract_y
_atom_site_fract_z
Si Si1 0.676466 0.258515 0.545208
Si Si2 0.804662 0.003001 0.704950
Si Si3 0.491623 0.597571 0.118828
Si Si4 0.072575 0.418689 0.410087
Si Si5 0.085854 0.381238 0.677239
O O1 0.671894 0.045309 0.557793
O O2 0.776650 0.318450 0.468699
O O3 0.348406 0.320517 0.603370
O O4 0.893999 0.383894 0.563216
O O5 0.132784 0.926229 0.647276
O O6 0.857140 0.215446 0.707557
O O7 0.560559 0.969448 0.679468
O O8 0.765598 0.923069 0.775014
O O9 0.644852 0.793160 0.100399
O O10 0.068712 0.450941 0.339620
#
# Coordination Sequence:
#
# PCOD9250659 Si02
#       5
#     4   4   4   4   4
#     4  10  24  45  66 103 136 179 231 282 339 416
#     4  11  26  43  71  99 143 177 234 284 342 414
#     4  11  25  46  68 106 134 183 226 286 344 408
#     4  11  23  43  73  95 139 182 226 283 347 404
#     4  11  24  43  67 101 138 181 232 285 344 409
#
# _framework density 27.551337
#
# number of rings (size 3 to 8) (size 9 to 14) (size 15 to 20)
#    0.000    1.200    2.000    2.400    8.400    0.000 
#    0.000    3.000    0.000    0.000    0.000    0.000 
#    0.000    0.000    0.000    0.000    0.000    0.000 
#
# Total GULP energy -112276.311308 kJ/mol
# GULP energy per Si atom -5613.815565 kJ/mol
# Density = 2.748863 g / cm^3
# Si number density = 27.551337 Si / 1000 Ang^3
#
#
#
# Elastic Constant Matrix: (Units=GPa)
#
#
# Indices 1 2 3 4 5 6 
#
# 1 47.5128 5.0263 19.0522 0.0000 0.7397 0.0000
# 2 5.0263 106.2854 18.9537 0.0000 -2.8574 0.0000
# 3 19.0522 18.9537 91.5228 0.0000 3.2034 0.0000
# 4 0.0000 0.0000 0.0000 55.2117 0.0000 -1.5485
# 5 0.7397 -2.8574 3.2034 0.0000 45.7680 0.0000
# 6 0.0000 0.0000 0.0000 -1.5485 0.0000 40.4030
#
#
#
# Elastic Compliance Matrix: (Units=1/GPa)
#
#
# Indices 1 2 3 4 5 6 
#
# 1 0.022970 -0.000244 -0.004729 0.000000 -0.000055 0.000000
# 2 -0.000244 0.009798 -0.002005 0.000000 0.000756 0.000000
# 3 -0.004729 -0.002005 0.012358 0.000000 -0.000914 0.000000
# 4 0.000000 0.000000 0.000000 0.018132 0.000000 0.000695
# 5 -0.000055 0.000756 -0.000914 0.000000 0.021961 0.000000
# 6 0.000000 0.000000 0.000000 0.000695 0.000000 0.024777
#
#
# Mechanical properties :
#
#
# Convention : Reuss Voigt Hill
#
# Bulk Modulus (GPa) = 32.08268 36.82060 34.45164
# Shear Modulus (GPa) = 37.21836 41.76244 39.49040
#
# Velocity S-wave (km/s) = 3.67941 3.89756 3.79005
# Velocity P-wave (km/s) = 5.45167 5.80069 5.62888
#
# Compressibility (1/GPa) = 0.03116946
#
# Stress axis : x y z
#
# Youngs Moduli (GPa) = 43.53504 102.06158 80.92045
#
# Poissons Ratio (x) = 0.02495 0.38268
# Poissons Ratio (y) = 0.01064 0.16222
# Poissons Ratio (z) = 0.20588 0.20460
#
# Static dielectric constant tensor:
#      x y z
#    x 2.113110 0.000000 -0.019330 
#    y 0.000000 2.148100 0.000000 
#    z -0.019330 0.000000 2.143350 
# 
# From -- ./inp_files/52683.got.cif
#   From: 2010.05.17/outbox.cif.g08.bks.cpg/sg14_27_cif.got.tgz:52683.got - 2010.06.03 17:49:19.
