data_PCOD9250681
_publ_section_title
;
Structure prediction by ZEFSAII (Michael W. Deem and Ramdas Pophale) SiO2 
 PCOD9250681
Probable space group: P 21/C
;
_chemical_formula_sum "Si O2"
_cell_formula_units_Z 16
_cell_length_a 11.606511
_cell_length_b 10.226515
_cell_length_c 7.280697
_cell_angle_alpha 90.000000
_cell_angle_beta 44.089081
_cell_angle_gamma 90.000000
_cell_volume 601.273003
_symmetry_space_group_name_H-M "P 21/C"
_symmetry_group_IT_number 14
_symmetry_cell_setting 'monoclinic'
loop_
_space_group_symop_operation_xyz
x,y,z
-x,1/2+y,1/2-z
-x,-y,-z
x,1/2-y,1/2+z
loop_
_atom_site_type_symbol
_atom_site_label
_atom_site_fract_x
_atom_site_fract_y
_atom_site_fract_z
Si Si1 0.171948 0.964331 0.461642
Si Si2 0.342601 0.113101 0.566914
Si Si3 0.023144 0.285459 0.266851
Si Si4 0.305904 0.588544 0.406600
O O1 0.924486 0.896876 0.441582
O O2 0.038478 0.861197 0.694592
O O3 0.309861 0.996852 0.456743
O O4 0.257195 0.924174 0.174573
O O5 0.183515 0.202806 0.713080
O O6 0.523518 0.167468 0.316976
O O7 0.337222 0.050911 0.774091
O O8 0.846540 0.346988 0.528449
#
# Coordination Sequence:
#
# PCOD9250681 Si02
#       4
#     4   4   4   4
#     4  10  24  46  72 106 152 191 241 303 362 436
#     4   9  24  44  71 108 138 191 253 294 361 446
#     4  10  24  45  69 109 148 189 241 299 361 441
#     4  11  21  46  74 101 144 197 239 310 358 425
#
# _framework density 26.610208
#
# number of rings (size 3 to 8) (size 9 to 14) (size 15 to 20)
#    1.500    0.500    0.000    2.250    3.500    0.000 
#    9.000    0.000    0.000    0.000    0.000    0.000 
#    0.000    0.000    0.000    0.000    0.000    0.000 
#
# Total GULP energy -89335.112580 kJ/mol
# GULP energy per Si atom -5583.444536 kJ/mol
# Density = 2.654964 g / cm^3
# Si number density = 26.610208 Si / 1000 Ang^3
#
#
#
# Elastic Constant Matrix: (Units=GPa)
#
#
# Indices 1 2 3 4 5 6 
#
# 1 134.8460 32.7667 77.0906 0.0000 -35.9550 0.0000
# 2 32.7667 121.0611 68.6505 0.0000 -1.0062 0.0000
# 3 77.0906 68.6505 172.2794 0.0000 -23.5172 0.0000
# 4 0.0000 0.0000 0.0000 25.6201 0.0000 -1.8082
# 5 -35.9550 -1.0062 -23.5172 0.0000 65.9090 0.0000
# 6 0.0000 0.0000 0.0000 -1.8082 0.0000 8.2703
#
#
#
# Elastic Compliance Matrix: (Units=1/GPa)
#
#
# Indices 1 2 3 4 5 6 
#
# 1 0.011146 -0.000655 -0.004098 0.000000 0.004609 0.000000
# 2 -0.000655 0.010839 -0.004260 0.000000 -0.001712 0.000000
# 3 -0.004098 -0.004260 0.009483 0.000000 0.001083 0.000000
# 4 0.000000 0.000000 0.000000 0.039643 0.000000 0.008667
# 5 0.004609 -0.001712 0.001083 0.000000 0.018047 0.000000
# 6 0.000000 0.000000 0.000000 0.008667 0.000000 0.122810
#
#
# Mechanical properties :
#
#
# Convention : Reuss Voigt Hill
#
# Bulk Modulus (GPa) = 74.38188 87.24468 80.81328
# Shear Modulus (GPa) = 21.32423 36.60514 28.96468
#
# Velocity S-wave (km/s) = 2.83389 3.71294 3.30279
# Velocity P-wave (km/s) = 6.22262 7.15811 6.70670
#
# Compressibility (1/GPa) = 0.01344414
#
# Stress axis : x y z
#
# Youngs Moduli (GPa) = 89.71475 92.26021 105.44690
#
# Poissons Ratio (x) = 0.06043 0.43209
# Poissons Ratio (y) = 0.05876 0.44917
# Poissons Ratio (z) = 0.36762 0.39300
#
# Static dielectric constant tensor:
#      x y z
#    x 2.158200 0.000000 0.017160 
#    y 0.000000 2.155940 0.000000 
#    z 0.017160 0.000000 2.068060 
# 
# From -- ./inp_files/12013.got.cif
#   From: 2010.05.17/outbox.cif.g08.bks.cpg/sg14_7_cif.got.tgz:12013.got - 2010.06.03 17:49:19.
