data_PCOD9250313
_publ_section_title
;
Structure prediction by ZEFSAII (Michael W. Deem and Ramdas Pophale) SiO2 
 PCOD9250313
Probable space group: P 21/C
;
_chemical_formula_sum "Si O2"
_cell_formula_units_Z 20
_cell_length_a 11.648707
_cell_length_b 5.192981
_cell_length_c 28.290898
_cell_angle_alpha 90.000000
_cell_angle_beta 26.186749
_cell_angle_gamma 90.000000
_cell_volume 755.219980
_symmetry_space_group_name_H-M "P 21/C"
_symmetry_group_IT_number 14
_symmetry_cell_setting 'monoclinic'
loop_
_space_group_symop_operation_xyz
x,y,z
-x,1/2+y,1/2-z
-x,-y,-z
x,1/2-y,1/2+z
loop_
_atom_site_type_symbol
_atom_site_label
_atom_site_fract_x
_atom_site_fract_y
_atom_site_fract_z
Si Si1 0.855471 0.635536 0.784130
Si Si2 0.793348 0.054715 0.014128
Si Si3 0.351766 0.660155 0.325304
Si Si4 0.536224 0.748296 0.029778
Si Si5 0.114442 0.661560 0.107673
O O1 0.590634 0.506429 0.898632
O O2 0.049638 0.401603 0.727151
O O3 0.870384 0.711339 0.723763
O O4 0.672454 0.126366 0.108851
O O5 0.582294 0.933907 0.056396
O O6 0.899781 0.285074 0.942122
O O7 0.044925 0.870591 0.925689
O O8 0.516421 0.423180 0.241734
O O9 0.343411 0.793106 0.056632
O O10 0.816995 0.637450 0.909923
#
# Coordination Sequence:
#
# PCOD9250313 Si02
#       5
#     4   4   4   4   4
#     4  10  24  41  63 102 155 202 242 284 352 441
#     4  11  27  47  83 108 146 199 254 307 385 439
#     4  11  30  56  79 110 146 192 260 325 375 437
#     4  10  24  44  72 109 159 196 243 298 371 453
#     4  10  24  42  71 110 154 193 240 299 365 455
#
# _framework density 26.48235
#
# number of rings (size 3 to 8) (size 9 to 14) (size 15 to 20)
#    0.000    1.600    0.000    0.600   22.400    1.600 
#    7.200    0.000    0.000    0.000    0.000    0.000 
#    0.000    0.000    0.000    0.000    0.000    0.000 
#
# Total GULP energy -111686.786695 kJ/mol
# GULP energy per Si atom -5584.339335 kJ/mol
# Density = 2.642207 g / cm^3
# Si number density = 26.482350 Si / 1000 Ang^3
#
#
#
# Elastic Constant Matrix: (Units=GPa)
#
#
# Indices 1 2 3 4 5 6 
#
# 1 166.0870 46.9271 61.3955 0.0000 32.5893 0.0000
# 2 46.9271 98.7046 36.2473 0.0000 14.5629 0.0000
# 3 61.3955 36.2473 118.4534 0.0001 27.9123 0.0000
# 4 0.0000 0.0000 0.0001 39.8771 0.0000 -14.7036
# 5 32.5893 14.5629 27.9123 0.0000 66.5698 0.0000
# 6 0.0000 0.0000 0.0000 -14.7036 0.0000 21.7064
#
#
#
# Elastic Compliance Matrix: (Units=1/GPa)
#
#
# Indices 1 2 3 4 5 6 
#
# 1 0.008276 -0.002504 -0.002994 0.000000 -0.002249 0.000000
# 2 -0.002504 0.012251 -0.002340 0.000000 -0.000473 0.000000
# 3 -0.002994 -0.002340 0.011367 0.000000 -0.002789 0.000000
# 4 0.000000 0.000000 0.000000 0.033426 0.000000 0.022642
# 5 -0.002249 -0.000473 -0.002789 0.000000 0.017396 0.000000
# 6 0.000000 0.000000 0.000000 0.022642 0.000000 0.061407
#
#
# Mechanical properties :
#
#
# Convention : Reuss Voigt Hill
#
# Bulk Modulus (GPa) = 61.65245 74.70943 68.18094
# Shear Modulus (GPa) = 30.26609 41.54234 35.90421
#
# Velocity S-wave (km/s) = 3.38432 3.96495 3.68608
# Velocity P-wave (km/s) = 6.21310 7.01665 6.62707
#
# Compressibility (1/GPa) = 0.01621996
#
# Stress axis : x y z
#
# Youngs Moduli (GPa) = 120.82866 81.62923 87.97558
#
# Poissons Ratio (x) = 0.20437 0.26337
# Poissons Ratio (y) = 0.30251 0.20582
# Poissons Ratio (z) = 0.36171 0.19097
#
# Static dielectric constant tensor:
#      x y z
#    x 2.046610 0.000000 -0.023660 
#    y 0.000000 2.176320 0.000000 
#    z -0.023660 0.000000 2.324690 
# 
# From -- ./inp_files/79757.got.cif
#   From: 2010.05.17/outbox.cif.g08.bks.cpg/sg14_40_cif.got.tgz:79757.got - 2010.06.03 17:49:19.
