data_PCOD9250772
_publ_section_title
;
Structure prediction by ZEFSAII (Michael W. Deem and Ramdas Pophale) SiO2 
 PCOD9250772
Probable space group: P 21/C
;
_chemical_formula_sum "Si O2"
_cell_formula_units_Z 20
_cell_length_a 9.434029
_cell_length_b 7.804919
_cell_length_c 10.950782
_cell_angle_alpha 90.000000
_cell_angle_beta 78.964117
_cell_angle_gamma 90.000000
_cell_volume 791.415150
_symmetry_space_group_name_H-M "P 21/C"
_symmetry_group_IT_number 14
_symmetry_cell_setting 'monoclinic'
loop_
_space_group_symop_operation_xyz
x,y,z
-x,1/2+y,1/2-z
-x,-y,-z
x,1/2-y,1/2+z
loop_
_atom_site_type_symbol
_atom_site_label
_atom_site_fract_x
_atom_site_fract_y
_atom_site_fract_z
Si Si1 0.399154 0.892963 0.108248
Si Si2 0.722927 0.611634 0.904333
Si Si3 0.965279 0.692382 0.465742
Si Si4 0.448757 0.032521 0.350961
Si Si5 0.893869 0.202057 0.317719
O O1 0.483515 0.717009 0.129566
O O2 0.236566 0.824955 0.114694
O O3 0.391019 0.011681 0.227468
O O4 0.500000 0.000000 0.000000
O O5 0.574399 0.607344 0.854532
O O6 0.833131 0.490845 0.814978
O O7 0.802495 0.777351 0.942806
O O8 0.678177 0.505721 0.032519
O O9 0.056233 0.743820 0.328894
O O10 0.993869 0.795879 0.587325
O O11 0.000000 0.500000 0.500000
#
# Coordination Sequence:
#
# PCOD9250772 Si02
#       5
#     4   4   4   4   4
#     4  11  27  44  74 108 148 197 263 322 394 468
#     4  10  24  46  71 104 149 197 251 312 392 445
#     4  12  27  46  76 111 151 202 255 321 391 482
#     4  10  25  45  76 105 152 199 257 325 385 465
#     4  11  26  47  74 107 154 199 257 320 397 472
#
# _framework density 25.271184999999999
#
# number of rings (size 3 to 8) (size 9 to 14) (size 15 to 20)
#    0.000    1.200    0.000    3.000   16.800    3.200 
#    0.000    0.000    0.000    0.000    0.000    0.000 
#    0.000    0.000    0.000    0.000    0.000    0.000 
#
# Total GULP energy -111761.546079 kJ/mol
# GULP energy per Si atom -5588.077304 kJ/mol
# Density = 2.521367 g / cm^3
# Si number density = 25.271185 Si / 1000 Ang^3
#
#
#
# Elastic Constant Matrix: (Units=GPa)
#
#
# Indices 1 2 3 4 5 6 
#
# 1 100.5831 38.6483 22.7811 0.0000 6.6072 0.0000
# 2 38.6483 112.3062 5.5200 0.0000 4.1664 0.0000
# 3 22.7811 5.5200 132.3737 0.0000 6.7165 0.0000
# 4 0.0000 0.0000 0.0000 45.3302 0.0000 10.5349
# 5 6.6072 4.1664 6.7165 0.0000 27.7669 0.0000
# 6 0.0000 0.0000 0.0000 10.5349 0.0000 36.2472
#
#
#
# Elastic Compliance Matrix: (Units=1/GPa)
#
#
# Indices 1 2 3 4 5 6 
#
# 1 0.011997 -0.003972 -0.001807 0.000000 -0.001822 0.000000
# 2 -0.003972 0.010282 0.000289 0.000000 -0.000667 0.000000
# 3 -0.001807 0.000289 0.007931 0.000000 -0.001532 0.000000
# 4 0.000000 0.000000 0.000000 0.023658 0.000000 -0.006876
# 5 -0.001822 -0.000667 -0.001532 0.000000 0.036918 0.000000
# 6 0.000000 0.000000 0.000000 -0.006876 0.000000 0.029587
#
#
# Mechanical properties :
#
#
# Convention : Reuss Voigt Hill
#
# Bulk Modulus (GPa) = 52.00295 53.24019 52.62157
# Shear Modulus (GPa) = 36.29408 40.42311 38.35859
#
# Velocity S-wave (km/s) = 3.79381 4.00381 3.90022
# Velocity P-wave (km/s) = 6.30978 6.51822 6.41485
#
# Compressibility (1/GPa) = 0.01922968
#
# Stress axis : x y z
#
# Youngs Moduli (GPa) = 83.35289 97.25937 126.08807
#
# Poissons Ratio (x) = 0.38634 0.22779
# Poissons Ratio (y) = 0.33110 -0.03640
# Poissons Ratio (z) = 0.15059 -0.02808
#
# Static dielectric constant tensor:
#      x y z
#    x 2.021160 0.000000 -0.053170 
#    y 0.000000 2.108890 0.000000 
#    z -0.053170 0.000000 1.979620 
# 
# From -- ./inp_files/23029.got.cif
#   From: 2010.05.17/outbox.cif.g08.bks.cpg/sg14_12_cif.got.tgz:23029.got - 2010.06.03 17:49:19.
