data_PCOD9250361
_publ_section_title
;
Structure prediction by ZEFSAII (Michael W. Deem and Ramdas Pophale) SiO2 
 PCOD9250361
Probable space group: P 21/C
;
_chemical_formula_sum "Si O2"
_cell_formula_units_Z 20
_cell_length_a 11.526446
_cell_length_b 12.528082
_cell_length_c 10.159988
_cell_angle_alpha 90.000000
_cell_angle_beta 36.916113
_cell_angle_gamma 90.000000
_cell_volume 881.233778
_symmetry_space_group_name_H-M "P 21/C"
_symmetry_group_IT_number 14
_symmetry_cell_setting 'monoclinic'
loop_
_space_group_symop_operation_xyz
x,y,z
-x,1/2+y,1/2-z
-x,-y,-z
x,1/2-y,1/2+z
loop_
_atom_site_type_symbol
_atom_site_label
_atom_site_fract_x
_atom_site_fract_y
_atom_site_fract_z
Si Si1 0.719507 0.215794 0.590922
Si Si2 0.264284 0.336675 0.507332
Si Si3 0.247067 0.493326 0.876499
Si Si4 0.667485 0.427407 0.494096
Si Si5 0.947757 0.787404 0.528224
O O1 0.490172 0.196134 0.807046
O O2 0.797064 0.094964 0.491508
O O3 0.750845 0.314751 0.465108
O O4 0.841477 0.246013 0.610787
O O5 0.252205 0.465044 0.513336
O O6 0.174598 0.294832 0.725227
O O7 0.152654 0.288233 0.485386
O O8 0.439573 0.428699 0.739523
O O9 0.311250 0.548179 0.680170
O O10 0.079776 0.407512 0.006079
#
# Coordination Sequence:
#
# PCOD9250361 Si02
#       5
#     4   4   4   4   4
#     4  11  22  37  68  88 121 170 210 254 314 375
#     4  10  24  42  61  93 131 160 210 267 307 374
#     4   9  19  39  62  88 127 164 212 253 310 382
#     4   9  19  39  62  88 127 165 199 267 320 356
#     4  11  23  41  65  94 124 169 213 257 315 377
#
# _framework density 22.695454000000002
#
# number of rings (size 3 to 8) (size 9 to 14) (size 15 to 20)
#    0.000    2.000    2.000    1.800    2.800    0.800 
#    0.000    3.000    0.000    0.000    0.000    0.000 
#    0.000    0.000    0.000    0.000    0.000    0.000 
#
# Total GULP energy -111681.833334 kJ/mol
# GULP energy per Si atom -5584.091667 kJ/mol
# Density = 2.264380 g / cm^3
# Si number density = 22.695454 Si / 1000 Ang^3
#
#
#
# Elastic Constant Matrix: (Units=GPa)
#
#
# Indices 1 2 3 4 5 6 
#
# 1 119.0274 48.6662 21.1244 0.0000 -18.5419 0.0000
# 2 48.6662 116.4936 14.7028 0.0000 12.2391 0.0000
# 3 21.1244 14.7028 57.4403 0.0000 -13.7239 0.0000
# 4 0.0000 0.0000 0.0000 27.5725 0.0000 1.8560
# 5 -18.5419 12.2391 -13.7239 0.0000 34.3733 0.0000
# 6 0.0000 0.0000 0.0000 1.8560 0.0000 61.2522
#
#
#
# Elastic Compliance Matrix: (Units=1/GPa)
#
#
# Indices 1 2 3 4 5 6 
#
# 1 0.012278 -0.005872 -0.001029 0.000000 0.008303 0.000000
# 2 -0.005872 0.012355 -0.003107 0.000000 -0.008807 0.000000
# 3 -0.001029 -0.003107 0.020688 0.000000 0.008811 0.000000
# 4 0.000000 0.000000 0.000000 0.036342 0.000000 -0.001101
# 5 0.008303 -0.008807 0.008811 0.000000 0.040225 0.000000
# 6 0.000000 0.000000 0.000000 -0.001101 0.000000 0.016359
#
#
# Mechanical properties :
#
#
# Convention : Reuss Voigt Hill
#
# Bulk Modulus (GPa) = 39.51652 51.32758 45.42205
# Shear Modulus (GPa) = 29.99427 38.53747 34.26587
#
# Velocity S-wave (km/s) = 3.63932 4.12518 3.88985
# Velocity P-wave (km/s) = 5.92529 6.73457 6.34285
#
# Compressibility (1/GPa) = 0.02530587
#
# Stress axis : x y z
#
# Youngs Moduli (GPa) = 81.44467 80.94125 48.33663
#
# Poissons Ratio (x) = 0.47528 0.04972
# Poissons Ratio (y) = 0.47823 0.15019
# Poissons Ratio (z) = 0.08378 0.25149
#
# Static dielectric constant tensor:
#      x y z
#    x 1.841460 0.000000 -0.035660 
#    y 0.000000 1.878550 0.000000 
#    z -0.035660 0.000000 1.952490 
# 
# From -- ./inp_files/23723.got.cif
#   From: 2010.05.17/outbox.cif.g08.bks.cpg/sg14_12_cif.got.tgz:23723.got - 2010.06.03 17:49:19.
