data_PCOD9250974
_publ_section_title
;
Structure prediction by ZEFSAII (Michael W. Deem and Ramdas Pophale) SiO2 
 PCOD9250974
Probable space group: P 21/C
;
_chemical_formula_sum "Si O2"
_cell_formula_units_Z 32
_cell_length_a 11.400014
_cell_length_b 13.799454
_cell_length_c 15.395460
_cell_angle_alpha 90.000000
_cell_angle_beta 34.848112
_cell_angle_gamma 90.000000
_cell_volume 1383.892624
_symmetry_space_group_name_H-M "P 21/C"
_symmetry_group_IT_number 14
_symmetry_cell_setting 'monoclinic'
loop_
_space_group_symop_operation_xyz
x,y,z
-x,1/2+y,1/2-z
-x,-y,-z
x,1/2-y,1/2+z
loop_
_atom_site_type_symbol
_atom_site_label
_atom_site_fract_x
_atom_site_fract_y
_atom_site_fract_z
Si Si1 0.019069 0.558794 0.578559
Si Si2 0.743865 0.260400 0.611896
Si Si3 0.632740 0.438052 0.127046
Si Si4 0.014781 0.717617 0.883387
Si Si5 0.273561 0.392311 0.455808
Si Si6 0.673599 0.581799 0.394737
Si Si7 0.343932 0.128280 0.285864
Si Si8 0.089034 0.040438 0.671719
O O1 0.073808 0.667688 0.524619
O O2 0.217081 0.505192 0.499343
O O3 0.000000 0.500000 0.500000
O O4 0.867438 0.547260 0.751573
O O5 0.760553 0.160223 0.550512
O O6 0.535432 0.318860 0.716858
O O7 0.772401 0.231576 0.695427
O O8 0.408115 0.393186 0.286490
O O9 0.663694 0.513005 0.187969
O O10 0.706909 0.502326 0.001405
O O11 0.990767 0.644612 0.816964
O O12 0.926090 0.825169 0.924311
O O13 0.860439 0.670080 0.047120
O O14 0.367311 0.361999 0.490586
O O15 0.500000 0.500000 0.500000
O O16 0.651057 0.641282 0.320008
O O17 0.902402 0.533568 0.260335
#
# Coordination Sequence:
#
# PCOD9250974 Si02
#       8
#     4   4   4   4   4   4   4   4
#     4  11  23  45  68  97 142 189 231 293 368 429
#     4  12  23  40  73  99 137 194 231 287 367 427
#     4  11  22  43  68 101 138 180 242 293 353 428
#     4  11  24  40  67 103 140 180 238 293 353 426
#     4  11  22  42  68  95 141 180 231 295 352 424
#     4  11  21  40  66  96 130 183 235 290 346 422
#     4  11  22  41  66  98 140 181 232 298 350 413
#     4  10  25  43  69 102 141 185 242 302 353 435
#
# _framework density 23.123180999999999
#
# number of rings (size 3 to 8) (size 9 to 14) (size 15 to 20)
#    0.000    1.000    5.000    2.250    0.000    5.000 
#    0.000    0.625    0.000    0.000    0.000    0.000 
#    0.000    0.000    0.000    0.000    0.000    0.000 
#
# Total GULP energy -178339.103592 kJ/mol
# GULP energy per Si atom -5573.096987 kJ/mol
# Density = 2.307055 g / cm^3
# Si number density = 23.123181 Si / 1000 Ang^3
#
#
#
# Elastic Constant Matrix: (Units=GPa)
#
#
# Indices 1 2 3 4 5 6 
#
# 1 96.9194 15.3487 36.8911 0.0000 24.8187 0.0000
# 2 15.3487 118.0480 8.6094 0.0000 6.7523 0.0000
# 3 36.8911 8.6094 92.8269 0.0000 23.2161 0.0000
# 4 0.0000 0.0000 0.0000 28.4244 0.0000 -2.8453
# 5 24.8187 6.7523 23.2161 0.0000 34.8391 0.0000
# 6 0.0000 0.0000 0.0000 -2.8453 0.0000 10.2723
#
#
#
# Elastic Compliance Matrix: (Units=1/GPa)
#
#
# Indices 1 2 3 4 5 6 
#
# 1 0.013677 -0.001110 -0.003539 0.000000 -0.007169 0.000000
# 2 -0.001110 0.008672 -0.000169 0.000000 -0.000778 0.000000
# 3 -0.003539 -0.000169 0.013867 0.000000 -0.006687 0.000000
# 4 0.000000 0.000000 0.000000 0.036184 0.000000 0.010023
# 5 -0.007169 -0.000778 -0.006687 0.000000 0.038417 0.000000
# 6 0.000000 0.000000 0.000000 0.010023 0.000000 0.100125
#
#
# Mechanical properties :
#
#
# Convention : Reuss Voigt Hill
#
# Bulk Modulus (GPa) = 37.62207 47.72143 42.67175
# Shear Modulus (GPa) = 21.79224 31.17016 26.48120
#
# Velocity S-wave (km/s) = 3.07325 3.67550 3.38779
# Velocity P-wave (km/s) = 5.37576 6.22054 5.81351
#
# Compressibility (1/GPa) = 0.02658015
#
# Stress axis : x y z
#
# Youngs Moduli (GPa) = 73.11675 115.31047 72.11163
#
# Poissons Ratio (x) = 0.12800 0.25523
# Poissons Ratio (y) = 0.08116 0.01216
# Poissons Ratio (z) = 0.25879 0.01945
#
# Static dielectric constant tensor:
#      x y z
#    x 1.988260 0.000000 -0.041810 
#    y 0.000000 1.867330 0.000000 
#    z -0.041810 0.000000 1.963360 
# 
# From -- ./inp_files/45077.got.cif
#   From: 2010.05.17/outbox.cif.g08.bks.cpg/sg14_23_cif.got.tgz:45077.got - 2010.06.03 17:49:19.
