data_PCOD9250383
_publ_section_title
;
Structure prediction by ZEFSAII (Michael W. Deem and Ramdas Pophale) SiO2 
 PCOD9250383
Probable space group: P 21/C
;
_chemical_formula_sum "Si O2"
_cell_formula_units_Z 24
_cell_length_a 15.507298
_cell_length_b 14.156129
_cell_length_c 11.959958
_cell_angle_alpha 90.000000
_cell_angle_beta 25.439955
_cell_angle_gamma 90.000000
_cell_volume 1127.818343
_symmetry_space_group_name_H-M "P 21/C"
_symmetry_group_IT_number 14
_symmetry_cell_setting 'monoclinic'
loop_
_space_group_symop_operation_xyz
x,y,z
-x,1/2+y,1/2-z
-x,-y,-z
x,1/2-y,1/2+z
loop_
_atom_site_type_symbol
_atom_site_label
_atom_site_fract_x
_atom_site_fract_y
_atom_site_fract_z
Si Si1 0.769187 0.471878 0.766169
Si Si2 0.545048 0.647548 0.429201
Si Si3 0.945129 0.526236 0.937125
Si Si4 0.289288 0.672763 0.508556
Si Si5 0.482994 0.148215 0.477015
Si Si6 0.743687 0.384920 0.026746
O O1 0.695574 0.379231 0.785532
O O2 0.000000 0.500000 0.500000
O O3 0.661671 0.560757 0.836055
O O4 0.696869 0.452240 0.977112
O O5 0.729544 0.578914 0.189327
O O6 0.380524 0.651236 0.523481
O O7 0.609753 0.756430 0.366944
O O8 0.436189 0.621855 0.673101
O O9 0.923620 0.433502 0.885329
O O10 0.000000 0.500000 0.000000
O O11 0.111173 0.598708 0.697872
O O12 0.467439 0.658732 0.211067
O O13 0.218402 0.780555 0.568313
#
# Coordination Sequence:
#
# PCOD9250383 Si02
#       6
#     4   4   4   4   4   4
#     4  11  23  42  69  98 138 174 230 279 344 411
#     4  11  24  46  69  98 137 180 229 287 344 412
#     4  12  26  44  72 103 138 182 235 282 346 416
#     4  11  24  47  69  97 142 172 233 283 343 412
#     4  10  24  42  65  98 133 182 221 285 347 404
#     4  11  24  46  71 100 138 179 225 288 343 410
#
# _framework density 21.280021000000001
#
# number of rings (size 3 to 8) (size 9 to 14) (size 15 to 20)
#    0.000    1.000    3.333    2.500    4.667    0.000 
#    9.000    0.000    0.000    0.000    0.000    0.000 
#    0.000    0.000    0.000    0.000    0.000    0.000 
#
# Total GULP energy -134088.470155 kJ/mol
# GULP energy per Si atom -5587.019590 kJ/mol
# Density = 2.123159 g / cm^3
# Si number density = 21.280021 Si / 1000 Ang^3
#
#
#
# Elastic Constant Matrix: (Units=GPa)
#
#
# Indices 1 2 3 4 5 6 
#
# 1 87.8905 19.3219 11.7020 0.0000 4.4036 0.0000
# 2 19.3219 108.1907 19.6387 0.0000 -21.5461 0.0000
# 3 11.7020 19.6387 48.2552 0.0000 -10.5989 0.0000
# 4 0.0000 0.0000 0.0000 28.0153 0.0000 0.1625
# 5 4.4036 -21.5461 -10.5989 0.0000 31.8839 0.0000
# 6 0.0000 0.0000 0.0000 0.1625 0.0000 40.1592
#
#
#
# Elastic Compliance Matrix: (Units=1/GPa)
#
#
# Indices 1 2 3 4 5 6 
#
# 1 0.012569 -0.002597 -0.002975 0.000000 -0.004480 0.000000
# 2 -0.002597 0.011629 -0.002479 0.000000 0.007393 0.000000
# 3 -0.002975 -0.002479 0.023923 0.000000 0.006688 0.000000
# 4 0.000000 0.000000 0.000000 0.035696 0.000000 -0.000144
# 5 -0.004480 0.007393 0.006688 0.000000 0.039202 0.000000
# 6 0.000000 0.000000 0.000000 -0.000144 0.000000 0.024901
#
#
# Mechanical properties :
#
#
# Convention : Reuss Voigt Hill
#
# Bulk Modulus (GPa) = 31.23202 38.40686 34.81944
# Shear Modulus (GPa) = 28.62130 32.92326 30.77228
#
# Velocity S-wave (km/s) = 3.67138 3.93764 3.80684
# Velocity P-wave (km/s) = 5.71670 6.22582 5.97668
#
# Compressibility (1/GPa) = 0.03201843
#
# Stress axis : x y z
#
# Youngs Moduli (GPa) = 79.55905 85.99146 41.80156
#
# Poissons Ratio (x) = 0.22331 0.12437
# Poissons Ratio (y) = 0.20661 0.10363
# Poissons Ratio (z) = 0.23670 0.21319
#
# Static dielectric constant tensor:
#      x y z
#    x 1.782320 0.000000 0.000430 
#    y 0.000000 1.814070 0.000000 
#    z 0.000430 0.000000 1.749230 
# 
# From -- ./inp_files/32517.got.cif
#   From: 2010.05.17/outbox.cif.g08.bks.cpg/sg14_17_cif.got.tgz:32517.got - 2010.06.03 17:49:19.
