data_PCOD9250332
_publ_section_title
;
Structure prediction by ZEFSAII (Michael W. Deem and Ramdas Pophale) SiO2 
 PCOD9250332
Probable space group: P 21/C
;
_chemical_formula_sum "Si O2"
_cell_formula_units_Z 26
_cell_length_a 5.103208
_cell_length_b 14.151702
_cell_length_c 16.044214
_cell_angle_alpha 90.000000
_cell_angle_beta 63.168805
_cell_angle_gamma 90.000000
_cell_volume 1033.953127
_symmetry_space_group_name_H-M "P 21/C"
_symmetry_group_IT_number 14
_symmetry_cell_setting 'monoclinic'
loop_
_space_group_symop_operation_xyz
x,y,z
-x,1/2+y,1/2-z
-x,-y,-z
x,1/2-y,1/2+z
loop_
_atom_site_type_symbol
_atom_site_label
_atom_site_fract_x
_atom_site_fract_y
_atom_site_fract_z
Si Si1 0.823572 0.317129 0.713050
Si Si2 0.371074 0.924644 0.606168
Si Si3 0.362816 0.197033 0.701157
Si Si4 0.353755 0.749903 0.997842
Si Si5 0.931722 0.600703 0.619281
Si Si6 0.782549 0.580914 0.457390
Si Si7 0.000000 0.500000 0.000000
O O1 0.811517 0.393858 0.787090
O O2 0.511307 0.268855 0.744740
O O3 0.067242 0.238631 0.702164
O O4 0.916224 0.367473 0.613986
O O5 0.464729 0.824590 0.549471
O O6 0.676286 0.973627 0.584707
O O7 0.169811 0.978236 0.567374
O O8 0.614093 0.191622 0.593155
O O9 0.262144 0.108867 0.770679
O O10 0.551581 0.842810 0.958976
O O11 0.059455 0.795422 0.077602
O O12 0.186463 0.521554 0.588308
O O13 0.767641 0.571943 0.558496
#
# Coordination Sequence:
#
# PCOD9250332 Si02
#       7
#     4   4   4   4   4   4   2
#     4  11  22  43  66  98 130 187 222 285 336 419
#     4  11  23  43  72  92 144 176 231 284 356 404
#     4  11  24  40  68 100 132 178 239 269 347 409
#     4  11  23  42  71 100 137 186 229 290 346 433
#     4  11  22  43  67 102 137 188 222 297 336 420
#     4  10  24  41  68 101 144 177 237 282 354 406
#     4  10  26  42  62 104 126 184 226 286 338 414
#
# _framework density 25.146208999999999
#
# number of rings (size 3 to 8) (size 9 to 14) (size 15 to 20)
#    0.000    1.231    3.077    2.308    2.154    2.462 
#    0.000    0.000    0.000    0.000    0.000    0.000 
#    0.000    0.000    0.000    0.000    0.000    0.000 
#
# Total GULP energy -144761.655726 kJ/mol
# GULP energy per Si atom -5567.755989 kJ/mol
# Density = 2.508897 g / cm^3
# Si number density = 25.146209 Si / 1000 Ang^3
#
#
#
# Elastic Constant Matrix: (Units=GPa)
#
#
# Indices 1 2 3 4 5 6 
#
# 1 140.9868 21.5613 5.2803 0.0000 6.6442 0.0000
# 2 21.5613 85.6867 17.4055 0.0000 -4.3541 0.0000
# 3 5.2803 17.4055 86.9432 0.0000 1.8738 0.0000
# 4 0.0000 0.0000 0.0000 43.0430 0.0000 -2.1563
# 5 6.6442 -4.3541 1.8738 0.0000 26.0070 0.0000
# 6 0.0000 0.0000 0.0000 -2.1563 0.0000 10.7611
#
#
#
# Elastic Compliance Matrix: (Units=1/GPa)
#
#
# Indices 1 2 3 4 5 6 
#
# 1 0.007505 -0.002002 -0.000007 0.000000 -0.002252 0.000000
# 2 -0.002002 0.012828 -0.002508 0.000000 0.002840 0.000000
# 3 -0.000007 -0.002508 0.012032 0.000000 -0.001285 0.000000
# 4 0.000000 0.000000 0.000000 0.023468 0.000000 0.004703
# 5 -0.002252 0.002840 -0.001285 0.000000 0.039595 0.000000
# 6 0.000000 0.000000 0.000000 0.004703 0.000000 0.093870
#
#
# Mechanical properties :
#
#
# Convention : Reuss Voigt Hill
#
# Bulk Modulus (GPa) = 42.85741 44.67899 43.76820
# Shear Modulus (GPa) = 24.25926 33.92019 29.08973
#
# Velocity S-wave (km/s) = 3.10938 3.67675 3.40490
# Velocity P-wave (km/s) = 5.47460 5.98589 5.73595
#
# Compressibility (1/GPa) = 0.02333319
#
# Stress axis : x y z
#
# Youngs Moduli (GPa) = 133.23811 77.95579 83.11260
#
# Poissons Ratio (x) = 0.15604 0.00055
# Poissons Ratio (y) = 0.26670 0.20842
# Poissons Ratio (z) = 0.00087 0.19549
#
# Static dielectric constant tensor:
#      x y z
#    x 1.999240 0.000000 -0.025120 
#    y 0.000000 2.118120 0.000000 
#    z -0.025120 0.000000 2.005700 
# 
# From -- ./inp_files/53153.got.cif
#   From: 2010.05.17/outbox.cif.g08.bks.cpg/sg14_27_cif.got.tgz:53153.got - 2010.06.03 17:49:19.
