data_PCOD9250389
_publ_section_title
;
Structure prediction by ZEFSAII (Michael W. Deem and Ramdas Pophale) SiO2 
 PCOD9250389
Probable space group: P 21/C
;
_chemical_formula_sum "Si O2"
_cell_formula_units_Z 24
_cell_length_a 7.396251
_cell_length_b 24.066200
_cell_length_c 8.875309
_cell_angle_alpha 90.000000
_cell_angle_beta 49.035724
_cell_angle_gamma 90.000000
_cell_volume 1192.937657
_symmetry_space_group_name_H-M "P 21/C"
_symmetry_group_IT_number 14
_symmetry_cell_setting 'monoclinic'
loop_
_space_group_symop_operation_xyz
x,y,z
-x,1/2+y,1/2-z
-x,-y,-z
x,1/2-y,1/2+z
loop_
_atom_site_type_symbol
_atom_site_label
_atom_site_fract_x
_atom_site_fract_y
_atom_site_fract_z
Si Si1 0.589315 0.924396 0.064717
Si Si2 0.884598 0.003883 0.727072
Si Si3 0.339133 0.054899 0.622005
Si Si4 0.275533 0.170914 0.525340
Si Si5 0.498912 0.254021 0.155123
Si Si6 0.277632 0.821041 0.206715
O O1 0.641358 0.927976 0.214046
O O2 0.487204 0.865779 0.069615
O O3 0.361141 0.963613 0.161111
O O4 0.811170 0.946052 0.845334
O O5 0.000000 0.000000 0.500000
O O6 0.070127 0.035763 0.731615
O O7 0.394078 0.110202 0.492139
O O8 0.500000 0.000000 0.500000
O O9 0.375707 0.208195 0.332117
O O10 0.319806 0.209218 0.649849
O O11 0.994587 0.159202 0.652382
O O12 0.657991 0.294306 0.169641
O O13 0.679257 0.224204 0.943870
#
# Coordination Sequence:
#
# PCOD9250389 Si02
#       6
#     4   4   4   4   4   4
#     4  11  24  41  65  93 129 171 218 261 330 389
#     4  11  24  43  65  91 129 174 215 267 319 391
#     4  12  24  43  66  98 137 174 219 272 333 395
#     4  11  23  43  67  95 133 168 218 274 328 388
#     4  10  24  42  66  97 125 170 221 269 330 392
#     4  11  22  42  66  94 128 168 215 273 329 388
#
# _framework density 20.118404000000002
#
# number of rings (size 3 to 8) (size 9 to 14) (size 15 to 20)
#    0.000    1.000    5.000    1.500    2.333    0.000 
#    3.000    1.667    0.000    0.000    0.000    0.000 
#    0.000    0.000    0.000    0.000    0.000    0.000 
#
# Total GULP energy -133947.679835 kJ/mol
# GULP energy per Si atom -5581.153326 kJ/mol
# Density = 2.007261 g / cm^3
# Si number density = 20.118404 Si / 1000 Ang^3
#
#
#
# Elastic Constant Matrix: (Units=GPa)
#
#
# Indices 1 2 3 4 5 6 
#
# 1 100.4318 6.1463 17.6209 0.0000 4.1275 0.0000
# 2 6.1463 66.5778 1.1043 0.0000 -1.3540 0.0000
# 3 17.6209 1.1043 39.3368 0.0000 4.3688 0.0000
# 4 0.0000 0.0000 0.0000 20.2832 0.0000 -4.7821
# 5 4.1275 -1.3540 4.3688 0.0000 21.9508 0.0000
# 6 0.0000 0.0000 0.0000 -4.7821 0.0000 34.7765
#
#
#
# Elastic Compliance Matrix: (Units=1/GPa)
#
#
# Indices 1 2 3 4 5 6 
#
# 1 0.010892 -0.000951 -0.004723 0.000000 -0.001167 0.000000
# 2 -0.000951 0.015133 -0.000125 0.000000 0.001137 0.000000
# 3 -0.004723 -0.000125 0.028063 0.000000 -0.004705 0.000000
# 4 0.000000 0.000000 0.000000 0.050954 0.000000 0.007007
# 5 -0.001167 0.001137 -0.004705 0.000000 0.046782 0.000000
# 6 0.000000 0.000000 0.000000 0.007007 0.000000 0.029719
#
#
# Mechanical properties :
#
#
# Convention : Reuss Voigt Hill
#
# Bulk Modulus (GPa) = 23.53478 28.45440 25.99459
# Shear Modulus (GPa) = 24.11921 27.50041 25.80981
#
# Velocity S-wave (km/s) = 3.46622 3.70121 3.58564
# Velocity P-wave (km/s) = 5.26717 5.69556 5.48555
#
# Compressibility (1/GPa) = 0.04249030
#
# Stress axis : x y z
#
# Youngs Moduli (GPa) = 91.81258 66.08074 35.63404
#
# Poissons Ratio (x) = 0.06284 0.16829
# Poissons Ratio (y) = 0.08730 0.00446
# Poissons Ratio (z) = 0.43360 0.00827
#
# Static dielectric constant tensor:
#      x y z
#    x 1.698400 0.000000 0.016440 
#    y 0.000000 1.733280 0.000000 
#    z 0.016440 0.000000 1.714240 
# 
# From -- ./inp_files/10139.got.cif
#   From: 2010.05.17/outbox.cif.g08.bks.cpg/sg14_6_cif.got.tgz:10139.got - 2010.06.03 17:49:19.
