data_PCOD9250857
_publ_section_title
;
Structure prediction by ZEFSAII (Michael W. Deem and Ramdas Pophale) SiO2 
 PCOD9250857
Probable space group: P 21/C
;
_chemical_formula_sum "Si O2"
_cell_formula_units_Z 28
_cell_length_a 13.935751
_cell_length_b 9.117338
_cell_length_c 10.190261
_cell_angle_alpha 90.000000
_cell_angle_beta 66.804843
_cell_angle_gamma 90.000000
_cell_volume 1190.087619
_symmetry_space_group_name_H-M "P 21/C"
_symmetry_group_IT_number 14
_symmetry_cell_setting 'monoclinic'
loop_
_space_group_symop_operation_xyz
x,y,z
-x,1/2+y,1/2-z
-x,-y,-z
x,1/2-y,1/2+z
loop_
_atom_site_type_symbol
_atom_site_label
_atom_site_fract_x
_atom_site_fract_y
_atom_site_fract_z
Si Si1 0.797170 0.851536 0.233621
Si Si2 0.342927 0.594281 0.128567
Si Si3 0.545143 0.949671 0.672011
Si Si4 0.323441 0.314702 0.466642
Si Si5 0.099074 0.899490 0.301223
Si Si6 0.981869 0.201553 0.376179
Si Si7 0.335570 0.559676 0.648102
O O1 0.731148 0.765125 0.379930
O O2 0.915896 0.804121 0.176369
O O3 0.767141 0.020133 0.278211
O O4 0.754469 0.813024 0.113128
O O5 0.427955 0.528407 0.184963
O O6 0.347001 0.767262 0.133949
O O7 0.382121 0.545027 0.964534
O O8 0.576659 0.781074 0.626757
O O9 0.582211 0.989569 0.796353
O O10 0.346347 0.476906 0.504871
O O11 0.093645 0.784689 0.184344
O O12 0.064378 0.820678 0.453972
O O13 0.215423 0.962178 0.257845
O O14 0.023237 0.038846 0.315106
#
# Coordination Sequence:
#
# PCOD9250857 Si02
#       7
#     4   4   4   4   4   4   4
#     4  11  23  46  71 103 140 191 233 291 363 428
#     4  10  27  42  73 104 143 184 237 293 359 429
#     4  10  24  48  67 103 142 189 234 293 355 436
#     4  11  22  43  74  98 140 189 234 284 362 425
#     4  11  27  45  72 109 140 191 238 301 355 428
#     4  11  25  47  74 102 146 189 244 295 360 426
#     4  12  26  45  72 106 145 180 245 299 357 424
#
# _framework density 23.527678999999999
#
# number of rings (size 3 to 8) (size 9 to 14) (size 15 to 20)
#    0.000    1.143    2.857    0.857    8.000    4.571 
#    0.000    0.000    0.000    0.000    0.000    0.000 
#    0.000    0.000    0.000    0.000    0.000    0.000 
#
# Total GULP energy -156859.994298 kJ/mol
# GULP energy per Si atom -5602.142654 kJ/mol
# Density = 2.347413 g / cm^3
# Si number density = 23.527679 Si / 1000 Ang^3
#
#
#
# Elastic Constant Matrix: (Units=GPa)
#
#
# Indices 1 2 3 4 5 6 
#
# 1 89.2993 19.8785 32.6526 0.0000 9.6986 0.0000
# 2 19.8785 118.4859 37.1547 0.0000 4.8543 0.0000
# 3 32.6526 37.1547 76.8319 0.0000 18.5822 0.0000
# 4 0.0000 0.0000 0.0000 18.1471 0.0000 -10.2228
# 5 9.6986 4.8543 18.5822 0.0000 41.3485 0.0000
# 6 0.0000 0.0000 0.0000 -10.2228 0.0000 27.4010
#
#
#
# Elastic Compliance Matrix: (Units=1/GPa)
#
#
# Indices 1 2 3 4 5 6 
#
# 1 0.013307 -0.000571 -0.005206 0.000000 -0.000714 0.000000
# 2 -0.000571 0.010019 -0.004881 0.000000 0.001151 0.000000
# 3 -0.005206 -0.004881 0.019246 0.000000 -0.006855 0.000000
# 4 0.000000 0.000000 0.000000 0.069768 0.000000 0.026029
# 5 -0.000714 0.001151 -0.006855 0.000000 0.027298 0.000000
# 6 0.000000 0.000000 0.000000 0.026029 0.000000 0.046206
#
#
# Mechanical properties :
#
#
# Convention : Reuss Voigt Hill
#
# Bulk Modulus (GPa) = 47.04534 51.55429 49.29981
# Shear Modulus (GPa) = 23.33771 30.37472 26.85621
#
# Velocity S-wave (km/s) = 3.15290 3.59698 3.38223
# Velocity P-wave (km/s) = 5.77005 6.26185 6.02097
#
# Compressibility (1/GPa) = 0.02125609
#
# Stress axis : x y z
#
# Youngs Moduli (GPa) = 75.15032 99.81093 51.95774
#
# Poissons Ratio (x) = 0.05695 0.27052
# Poissons Ratio (y) = 0.04288 0.25360
# Poissons Ratio (z) = 0.39127 0.48717
#
# Static dielectric constant tensor:
#      x y z
#    x 1.837140 0.000000 -0.086920 
#    y 0.000000 1.909680 0.000000 
#    z -0.086920 0.000000 1.538070 
# 
# From -- ./inp_files/31724.got.cif
#   From: 2010.05.17/outbox.cif.g08.bks.cpg/sg14_16_cif.got.tgz:31724.got - 2010.06.03 17:49:19.
