data_PCOD9250867
_publ_section_title
;
Structure prediction by ZEFSAII (Michael W. Deem and Ramdas Pophale) SiO2 
 PCOD9250867
Probable space group: P 21/C
;
_chemical_formula_sum "Si O2"
_cell_formula_units_Z 24
_cell_length_a 14.773980
_cell_length_b 7.786193
_cell_length_c 8.893473
_cell_angle_alpha 90.000000
_cell_angle_beta 114.645177
_cell_angle_gamma 90.000000
_cell_volume 929.851925
_symmetry_space_group_name_H-M "P 21/C"
_symmetry_group_IT_number 14
_symmetry_cell_setting 'monoclinic'
loop_
_space_group_symop_operation_xyz
x,y,z
-x,1/2+y,1/2-z
-x,-y,-z
x,1/2-y,1/2+z
loop_
_atom_site_type_symbol
_atom_site_label
_atom_site_fract_x
_atom_site_fract_y
_atom_site_fract_z
Si Si1 0.667039 0.474991 0.613420
Si Si2 0.090802 0.987704 0.338714
Si Si3 0.598551 0.355810 0.893626
Si Si4 0.819696 0.737728 0.770972
Si Si5 0.961516 0.282778 0.930768
Si Si6 0.616825 0.661033 0.145593
O O1 0.639308 0.404004 0.759257
O O2 0.643165 0.325726 0.480011
O O3 0.779265 0.550916 0.696344
O O4 0.606740 0.654153 0.555407
O O5 0.107944 0.857779 0.487360
O O6 0.079283 0.882917 0.178597
O O7 0.168576 0.137795 0.364956
O O8 0.988992 0.080915 0.319231
O O9 0.478618 0.350127 0.815650
O O10 0.620574 0.502610 0.033403
O O11 0.725927 0.818738 0.795437
O O12 0.928346 0.743238 0.919944
#
# Coordination Sequence:
#
# PCOD9250867 Si02
#       6
#     4   4   4   4   4   4
#     4  10  26  45  78 110 156 197 257 316 369 456
#     4  11  24  47  77 109 150 197 248 321 389 460
#     4  11  23  48  74 116 147 216 242 305 399 440
#     4  10  24  48  72 108 153 198 250 324 366 449
#     4  11  24  47  77 110 147 201 251 308 402 458
#     4   9  25  44  74 108 163 192 254 310 368 463
#
# _framework density 25.810562999999998
#
# number of rings (size 3 to 8) (size 9 to 14) (size 15 to 20)
#    1.000    0.667    1.667    1.000    7.000    1.333 
#    9.000    0.000    0.000    0.000    0.000    0.000 
#    0.000    0.000    0.000    0.000    0.000    0.000 
#
# Total GULP energy -134246.258664 kJ/mol
# GULP energy per Si atom -5593.594111 kJ/mol
# Density = 2.575182 g / cm^3
# Si number density = 25.810563 Si / 1000 Ang^3
#
#
#
# Elastic Constant Matrix: (Units=GPa)
#
#
# Indices 1 2 3 4 5 6 
#
# 1 131.4319 34.9393 47.8144 0.0000 -5.1611 0.0000
# 2 34.9393 150.7545 50.1709 0.0000 -10.2944 0.0000
# 3 47.8144 50.1709 92.4060 0.0000 -1.6116 0.0000
# 4 0.0000 0.0000 0.0000 33.2134 0.0000 -13.4029
# 5 -5.1611 -10.2944 -1.6116 0.0000 23.1201 0.0000
# 6 0.0000 0.0000 0.0000 -13.4029 0.0000 52.7006
#
#
#
# Elastic Compliance Matrix: (Units=1/GPa)
#
#
# Indices 1 2 3 4 5 6 
#
# 1 0.009484 -0.000572 -0.004570 0.000000 0.001544 0.000000
# 2 -0.000572 0.008391 -0.004202 0.000000 0.003315 0.000000
# 3 -0.004570 -0.004202 0.015436 0.000000 -0.001815 0.000000
# 4 0.000000 0.000000 0.000000 0.033552 0.000000 0.008533
# 5 0.001544 0.003315 -0.001815 0.000000 0.044947 0.000000
# 6 0.000000 0.000000 0.000000 0.008533 0.000000 0.021145
#
#
# Mechanical properties :
#
#
# Convention : Reuss Voigt Hill
#
# Bulk Modulus (GPa) = 68.38363 71.16020 69.77191
# Shear Modulus (GPa) = 31.94573 37.91802 34.93187
#
# Velocity S-wave (km/s) = 3.52191 3.83703 3.68284
# Velocity P-wave (km/s) = 6.56433 6.87462 6.72127
#
# Compressibility (1/GPa) = 0.01462338
#
# Stress axis : x y z
#
# Youngs Moduli (GPa) = 105.44520 119.18100 64.78283
#
# Poissons Ratio (x) = 0.06813 0.29605
# Poissons Ratio (y) = 0.06028 0.27222
# Poissons Ratio (z) = 0.48187 0.50079
#
# Static dielectric constant tensor:
#      x y z
#    x 2.062790 0.000000 0.020720 
#    y 0.000000 2.076460 0.000000 
#    z 0.020720 0.000000 2.050720 
# 
# From -- ./inp_files/15117.got.cif
#   From: 2010.05.17/outbox.cif.g08.bks.cpg/sg14_8_cif.got.tgz:15117.got - 2010.06.03 17:49:19.
