data_PCOD9250222
_publ_section_title
;
Structure prediction by ZEFSAII (Michael W. Deem and Ramdas Pophale) SiO2 
 PCOD9250222
Probable space group: P 21/C
;
_chemical_formula_sum "Si O2"
_cell_formula_units_Z 16
_cell_length_a 9.521862
_cell_length_b 9.216516
_cell_length_c 9.775927
_cell_angle_alpha 90.000000
_cell_angle_beta 45.578786
_cell_angle_gamma 90.000000
_cell_volume 612.737861
_symmetry_space_group_name_H-M "P 21/C"
_symmetry_group_IT_number 14
_symmetry_cell_setting 'monoclinic'
loop_
_space_group_symop_operation_xyz
x,y,z
-x,1/2+y,1/2-z
-x,-y,-z
x,1/2-y,1/2+z
loop_
_atom_site_type_symbol
_atom_site_label
_atom_site_fract_x
_atom_site_fract_y
_atom_site_fract_z
Si Si1 0.683717 0.700208 0.158583
Si Si2 0.661292 0.102484 0.564520
Si Si3 0.964838 0.555582 0.372053
Si Si4 0.275097 0.959958 0.190918
O O1 0.517448 0.793140 0.347009
O O2 0.815290 0.809928 0.984852
O O3 0.808650 0.608984 0.183521
O O4 0.596886 0.566467 0.129384
O O5 0.721825 0.144629 0.680313
O O6 0.834888 0.097806 0.339118
O O7 0.854740 0.435527 0.352852
O O8 0.000000 0.500000 0.500000
O O9 0.500000 0.000000 0.000000
#
# Coordination Sequence:
#
# PCOD9250222 Si02
#       4
#     4   4   4   4
#     4  10  25  48  78 111 154 196 256 310 383 453
#     4  10  25  49  82 106 160 197 255 312 384 448
#     4  12  26  46  74 115 149 202 255 310 378 457
#     4  10  23  51  77 107 158 198 251 316 381 449
#
# _framework density 26.112310999999998
#
# number of rings (size 3 to 8) (size 9 to 14) (size 15 to 20)
#    1.500    0.000    2.500    0.750    3.500    5.000 
#    4.500    0.000    0.000    0.000    0.000    0.000 
#    0.000    0.000    0.000    0.000    0.000    0.000 
#
# Total GULP energy -89539.373332 kJ/mol
# GULP energy per Si atom -5596.210833 kJ/mol
# Density = 2.605288 g / cm^3
# Si number density = 26.112311 Si / 1000 Ang^3
#
#
#
# Elastic Constant Matrix: (Units=GPa)
#
#
# Indices 1 2 3 4 5 6 
#
# 1 89.8181 18.4255 28.5915 0.0000 28.3790 0.0000
# 2 18.4255 107.2412 16.2725 0.0000 -5.6114 0.0000
# 3 28.5915 16.2725 162.8277 0.0000 -9.1124 0.0000
# 4 0.0000 0.0000 0.0000 41.5920 0.0000 -5.3315
# 5 28.3790 -5.6114 -9.1124 0.0000 56.9894 0.0000
# 6 0.0000 0.0000 0.0000 -5.3315 0.0000 24.0528
#
#
#
# Elastic Compliance Matrix: (Units=1/GPa)
#
#
# Indices 1 2 3 4 5 6 
#
# 1 0.015201 -0.002610 -0.002872 0.000000 -0.008286 0.000000
# 2 -0.002610 0.009952 -0.000412 0.000000 0.002213 0.000000
# 3 -0.002872 -0.000412 0.006826 0.000000 0.002481 0.000000
# 4 0.000000 0.000000 0.000000 0.024746 0.000000 0.005485
# 5 -0.008286 0.002213 0.002481 0.000000 0.022288 0.000000
# 6 0.000000 0.000000 0.000000 0.005485 0.000000 0.042791
#
#
# Mechanical properties :
#
#
# Convention : Reuss Voigt Hill
#
# Bulk Modulus (GPa) = 49.52853 54.05176 51.79015
# Shear Modulus (GPa) = 35.63228 44.30001 39.96615
#
# Velocity S-wave (km/s) = 3.69803 4.12335 3.91647
# Velocity P-wave (km/s) = 6.10267 6.58893 6.35046
#
# Compressibility (1/GPa) = 0.02019038
#
# Stress axis : x y z
#
# Youngs Moduli (GPa) = 65.78397 100.48711 146.50158
#
# Poissons Ratio (x) = 0.26222 0.42078
# Poissons Ratio (y) = 0.17167 0.06042
# Poissons Ratio (z) = 0.18894 0.04144
#
# Static dielectric constant tensor:
#      x y z
#    x 2.137310 0.000000 0.072080 
#    y 0.000000 2.053850 0.000000 
#    z 0.072080 0.000000 2.084200 
# 
# From -- ./inp_files/7785.got.cif
#   From: 2010.05.17/outbox.cif.g08.bks.cpg/sg14_4_cif.got.tgz:7785.got - 2010.06.03 17:49:19.
