data_PCOD9250327
_publ_section_title
;
Structure prediction by ZEFSAII (Michael W. Deem and Ramdas Pophale) SiO2 
 PCOD9250327
Probable space group: P 21/C
;
_chemical_formula_sum "Si O2"
_cell_formula_units_Z 28
_cell_length_a 5.496365
_cell_length_b 8.627801
_cell_length_c 26.535248
_cell_angle_alpha 90.000000
_cell_angle_beta 94.497238
_cell_angle_gamma 90.000000
_cell_volume 1254.468124
_symmetry_space_group_name_H-M "P 21/C"
_symmetry_group_IT_number 14
_symmetry_cell_setting 'monoclinic'
loop_
_space_group_symop_operation_xyz
x,y,z
-x,1/2+y,1/2-z
-x,-y,-z
x,1/2-y,1/2+z
loop_
_atom_site_type_symbol
_atom_site_label
_atom_site_fract_x
_atom_site_fract_y
_atom_site_fract_z
Si Si1 0.671141 0.766192 0.887681
Si Si2 0.254035 0.397378 0.003876
Si Si3 0.842949 0.383568 0.150360
Si Si4 0.873423 0.780615 0.600984
Si Si5 0.738409 0.095681 0.849174
Si Si6 0.707423 0.836729 0.202971
Si Si7 0.033554 0.454912 0.746582
O O1 0.714865 0.698015 0.944185
O O2 0.412852 0.700077 0.863880
O O3 0.911916 0.707136 0.861541
O O4 0.650654 0.951343 0.881434
O O5 0.500000 0.500000 0.000000
O O6 0.229066 0.279904 0.956370
O O7 0.000000 0.500000 0.000000
O O8 0.846350 0.543700 0.119004
O O9 0.862316 0.434547 0.208339
O O10 0.763431 0.673075 0.643530
O O11 0.148512 0.720025 0.610664
O O12 0.574523 0.196334 0.807742
O O13 0.883088 0.002415 0.807692
O O14 0.869948 0.709429 0.233271
O O15 0.749417 0.997849 0.233417
#
# Coordination Sequence:
#
# PCOD9250327 Si02
#       7
#     4   4   4   4   4   4   4
#     4  12  26  46  72 108 142 183 242 301 351 427
#     4  12  24  46  77 105 133 187 244 298 356 429
#     4  11  25  44  74 101 142 188 241 292 348 426
#     4  10  24  45  68 102 143 178 243 291 367 416
#     4  11  27  41  70 102 151 183 236 298 364 423
#     4  10  24  43  64  99 141 185 234 288 350 428
#     4  10  24  41  66  97 137 192 232 280 350 422
#
# _framework density 22.320215999999999
#
# number of rings (size 3 to 8) (size 9 to 14) (size 15 to 20)
#    0.000    1.143    2.857    0.857   16.000    1.714 
#    0.000    0.714    0.000    0.000    0.000    0.000 
#    0.000    0.000    0.000    0.000    0.000    0.000 
#
# Total GULP energy -155903.491682 kJ/mol
# GULP energy per Si atom -5567.981846 kJ/mol
# Density = 2.226941 g / cm^3
# Si number density = 22.320216 Si / 1000 Ang^3
#
#
#
# Elastic Constant Matrix: (Units=GPa)
#
#
# Indices 1 2 3 4 5 6 
#
# 1 70.7947 -25.7023 46.3921 0.0000 29.7628 0.0000
# 2 -25.7023 -210.2994 98.7266 0.0000 49.0979 0.0000
# 3 46.3921 98.7266 117.7856 0.0000 -3.3779 0.0000
# 4 0.0000 0.0000 0.0000 79.6573 0.0000 -61.6793
# 5 29.7628 49.0979 -3.3779 0.0000 27.2581 0.0000
# 6 0.0000 0.0000 0.0000 -61.6793 0.0000 95.4873
#
#
#
# Elastic Compliance Matrix: (Units=1/GPa)
#
#
# Indices 1 2 3 4 5 6 
#
# 1 0.017812 -0.005631 -0.002572 0.000000 -0.009625 0.000000
# 2 -0.005631 -0.000769 0.003089 0.000000 0.007916 0.000000
# 3 -0.002572 0.003089 0.006859 0.000000 -0.001906 0.000000
# 4 0.000000 0.000000 0.000000 0.025116 0.000000 0.016223
# 5 -0.009625 0.007916 -0.001906 0.000000 0.032701 0.000000
# 6 0.000000 0.000000 0.000000 0.016223 0.000000 0.020952
#
#
# Mechanical properties :
#
#
# Convention : Reuss Voigt Hill
#
# Bulk Modulus (GPa) = 73.12511 24.12377 48.62444
# Shear Modulus (GPa) = 42.56876 31.07148 36.82012
#
# Velocity S-wave (km/s) = 4.37187 3.73510 4.06597
# Velocity P-wave (km/s) = 7.63658 5.42520 6.62382
#
# Compressibility (1/GPa) = 0.01367519
#
# Stress axis : x y z
#
# Youngs Moduli (GPa) = 56.14068 -1301.17459 145.79583
#
# Poissons Ratio (x) = -7.32731 0.37494
# Poissons Ratio (y) = 0.31615 -0.45039
# Poissons Ratio (z) = 0.14438 4.01958
#
# Static dielectric constant tensor:
#      x y z
#    x 2.586020 0.000000 -0.006050 
#    y 0.000000 1.906380 0.000000 
#    z -0.006050 0.000000 1.779810 
# 
# From -- ./inp_files/78724.got.cif
#   From: 2010.05.17/outbox.cif.g08.bks.cpg/sg14_40_cif.got.tgz:78724.got - 2010.06.03 17:49:19.
