data_PCOD9250328
_publ_section_title
;
Structure prediction by ZEFSAII (Michael W. Deem and Ramdas Pophale) SiO2 
 PCOD9250328
Probable space group: P 21/C
;
_chemical_formula_sum "Si O2"
_cell_formula_units_Z 18
_cell_length_a 20.355424
_cell_length_b 4.940144
_cell_length_c 8.018771
_cell_angle_alpha 90.000000
_cell_angle_beta 54.101082
_cell_angle_gamma 90.000000
_cell_volume 653.191995
_symmetry_space_group_name_H-M "P 21/C"
_symmetry_group_IT_number 14
_symmetry_cell_setting 'monoclinic'
loop_
_space_group_symop_operation_xyz
x,y,z
-x,1/2+y,1/2-z
-x,-y,-z
x,1/2-y,1/2+z
loop_
_atom_site_type_symbol
_atom_site_label
_atom_site_fract_x
_atom_site_fract_y
_atom_site_fract_z
Si Si1 0.000000 0.500000 0.000000
Si Si2 0.121421 0.883467 0.613824
Si Si3 0.226611 0.488329 0.240516
Si Si4 0.442897 0.528251 0.338187
Si Si5 0.335731 0.121016 0.293341
O O1 0.067914 0.669084 0.795175
O O2 0.937043 0.524305 0.930062
O O3 0.191676 0.719164 0.411776
O O4 0.155271 0.070775 0.713437
O O5 0.260763 0.249974 0.302631
O O6 0.301632 0.542203 0.002575
O O7 0.484825 0.811257 0.236950
O O8 0.388364 0.375587 0.281586
O O9 0.388810 0.541539 0.583843
#
# Coordination Sequence:
#
# PCOD9250328 Si02
#       5
#     2   4   4   4   4
#     4  10  24  42  66  96 126 176 224 284 350 424
#     4  10  24  43  67  96 136 180 232 290 358 426
#     4  10  24  43  64  98 135 180 228 290 354 430
#     4  11  24  44  71 105 144 190 244 304 365 436
#     4  10  24  41  67 100 140 186 238 296 366 432
#
# _framework density 27.556984
#
# number of rings (size 3 to 8) (size 9 to 14) (size 15 to 20)
#    0.000    1.778    0.000    1.333    0.000   23.111 
#    0.000    0.000    0.000    0.000    0.000    0.000 
#    0.000    0.000    0.000    0.000    0.000    0.000 
#
# Total GULP energy -100497.465703 kJ/mol
# GULP energy per Si atom -5583.192539 kJ/mol
# Density = 2.749426 g / cm^3
# Si number density = 27.556984 Si / 1000 Ang^3
#
#
#
# Elastic Constant Matrix: (Units=GPa)
#
#
# Indices 1 2 3 4 5 6 
#
# 1 219.0713 61.9368 36.3392 0.0000 27.0400 0.0000
# 2 61.9368 78.5948 57.4398 0.0000 -8.3138 0.0000
# 3 36.3392 57.4398 186.1532 0.0000 -5.2034 0.0000
# 4 0.0000 0.0000 0.0000 2.6240 0.0000 20.5957
# 5 27.0400 -8.3138 -5.2034 0.0000 41.8310 0.0000
# 6 0.0000 0.0000 0.0000 20.5957 0.0000 29.9813
#
#
#
# Elastic Compliance Matrix: (Units=1/GPa)
#
#
# Indices 1 2 3 4 5 6 
#
# 1 0.007039 -0.006503 0.000471 0.000000 -0.005784 0.000000
# 2 -0.006503 0.022733 -0.005520 0.000000 0.008035 0.000000
# 3 0.000471 -0.005520 0.006968 0.000000 -0.000535 0.000000
# 4 0.000000 0.000000 0.000000 -0.086774 0.000000 0.059609
# 5 -0.005784 0.008035 -0.000535 0.000000 0.029175 0.000000
# 6 0.000000 0.000000 0.000000 0.059609 0.000000 -0.007595
#
#
# Mechanical properties :
#
#
# Convention : Reuss Voigt Hill
#
# Bulk Modulus (GPa) = 73.34106 88.36122 80.85114
# Shear Modulus (GPa) = -6229.76630 36.76083 -3096.50273
#
# Velocity S-wave (km/s) = -47.59824 3.65635 -33.55759
# Velocity P-wave (km/s) = 54.71854 7.06822 38.36769
#
# Compressibility (1/GPa) = 0.01363493
#
# Stress axis : x y z
#
# Youngs Moduli (GPa) = 142.06231 43.98938 143.50406
#
# Poissons Ratio (x) = 0.28607 -0.06757
# Poissons Ratio (y) = 0.92386 0.79220
# Poissons Ratio (z) = -0.06689 0.24284
#
# Static dielectric constant tensor:
#      x y z
#    x 2.187680 0.000000 -0.069510 
#    y 0.000000 2.139450 0.000000 
#    z -0.069510 0.000000 2.096690 
# 
# From -- ./inp_files/17164.got.cif
#   From: 2010.05.17/outbox.cif.g08.bks.cpg/sg14_9_cif.got.tgz:17164.got - 2010.06.03 17:49:19.
