data_PCOD9250568
_publ_section_title
;
Structure prediction by ZEFSAII (Michael W. Deem and Ramdas Pophale) SiO2 
 PCOD9250568
Probable space group: P 21/C
;
_chemical_formula_sum "Si O2"
_cell_formula_units_Z 32
_cell_length_a 10.502057
_cell_length_b 15.952844
_cell_length_c 15.566027
_cell_angle_alpha 90.000000
_cell_angle_beta 146.718100
_cell_angle_gamma 90.000000
_cell_volume 1431.105765
_symmetry_space_group_name_H-M "P 21/C"
_symmetry_group_IT_number 14
_symmetry_cell_setting 'monoclinic'
loop_
_space_group_symop_operation_xyz
x,y,z
-x,1/2+y,1/2-z
-x,-y,-z
x,1/2-y,1/2+z
loop_
_atom_site_type_symbol
_atom_site_label
_atom_site_fract_x
_atom_site_fract_y
_atom_site_fract_z
Si Si1 0.090253 0.534216 0.437707
Si Si2 0.367331 0.372553 0.558484
Si Si3 0.677440 0.171288 0.399186
Si Si4 0.548388 0.140684 0.792724
Si Si5 0.890982 0.936249 0.368419
Si Si6 0.593761 0.578893 0.106617
Si Si7 0.204325 0.579080 0.311017
Si Si8 0.234557 0.313401 0.953865
O O1 0.177503 0.440076 0.478233
O O2 0.225726 0.583220 0.588134
O O3 0.180179 0.576364 0.399196
O O4 0.818439 0.548474 0.285437
O O5 0.536636 0.358543 0.735546
O O6 0.540264 0.403567 0.580937
O O7 0.246731 0.286351 0.463408
O O8 0.625952 0.269925 0.374963
O O9 0.945103 0.144924 0.541770
O O10 0.585000 0.119895 0.428599
O O11 0.411098 0.155717 0.627072
O O12 0.363835 0.091407 0.747268
O O13 0.000000 0.000000 0.500000
O O14 0.880745 0.990265 0.275774
O O15 0.500000 0.500000 0.000000
O O16 0.677197 0.648579 0.085725
O O17 0.021465 0.649007 0.174687
#
# Coordination Sequence:
#
# PCOD9250568 Si02
#       8
#     4   4   4   4   4   4   4   4
#     4  11  25  43  68 100 132 171 229 281 334 395
#     4  11  23  42  68 101 130 171 230 288 328 396
#     4  11  25  42  67 103 135 182 226 268 347 400
#     4  11  24  42  70 103 131 170 229 290 325 397
#     4  12  21  42  75  91 132 180 226 277 331 406
#     4  11  27  47  66  95 142 186 215 271 352 420
#     4  11  22  42  68  98 126 177 229 274 339 401
#     4  10  24  44  66  93 138 176 221 271 349 400
#
# _framework density 22.360332
#
# number of rings (size 3 to 8) (size 9 to 14) (size 15 to 20)
#    0.000    1.000    3.750    1.875    5.250    1.500 
#    6.750    0.000    0.000    0.000    0.000    0.000 
#    0.000    0.000    0.000    0.000    0.000    0.000 
#
# Total GULP energy -179229.920019 kJ/mol
# GULP energy per Si atom -5600.935001 kJ/mol
# Density = 2.230944 g / cm^3
# Si number density = 22.360332 Si / 1000 Ang^3
#
#
#
# Elastic Constant Matrix: (Units=GPa)
#
#
# Indices 1 2 3 4 5 6 
#
# 1 53.6964 0.8575 0.9010 0.0000 -6.5336 0.0000
# 2 0.8575 113.7129 45.1012 0.0000 -1.1971 0.0000
# 3 0.9010 45.1012 96.8608 0.0000 18.0636 0.0000
# 4 0.0000 0.0000 0.0000 40.8036 0.0000 5.0379
# 5 -6.5336 -1.1971 18.0636 0.0000 25.5385 0.0000
# 6 0.0000 0.0000 0.0000 5.0379 0.0000 28.1301
#
#
#
# Elastic Compliance Matrix: (Units=1/GPa)
#
#
# Indices 1 2 3 4 5 6 
#
# 1 0.019382 0.000540 -0.001568 0.000000 0.006093 0.000000
# 2 0.000540 0.011308 -0.006215 0.000000 0.005064 0.000000
# 3 -0.001568 -0.006215 0.015392 0.000000 -0.011579 0.000000
# 4 0.000000 0.000000 0.000000 0.025062 0.000000 -0.004488
# 5 0.006093 0.005064 -0.011579 0.000000 0.049143 0.000000
# 6 0.000000 0.000000 0.000000 -0.004488 0.000000 0.036353
#
#
# Mechanical properties :
#
#
# Convention : Reuss Voigt Hill
#
# Bulk Modulus (GPa) = 31.64898 39.77661 35.71279
# Shear Modulus (GPa) = 27.52421 33.38848 30.45634
#
# Velocity S-wave (km/s) = 3.51228 3.86839 3.69463
# Velocity P-wave (km/s) = 5.53470 6.14655 5.84863
#
# Compressibility (1/GPa) = 0.03159659
#
# Stress axis : x y z
#
# Youngs Moduli (GPa) = 51.59347 88.43064 64.96904
#
# Poissons Ratio (x) = -0.04774 0.10187
# Poissons Ratio (y) = -0.02785 0.40378
# Poissons Ratio (z) = 0.08090 0.54959
#
# Static dielectric constant tensor:
#      x y z
#    x 1.809200 0.000000 -0.032360 
#    y 0.000000 1.797790 0.000000 
#    z -0.032360 0.000000 1.809670 
# 
# From -- ./inp_files/57949.got.cif
#   From: 2010.05.17/outbox.cif.g08.bks.cpg/sg14_29_cif.got.tgz:57949.got - 2010.06.03 17:49:19.
