data_PCOD9250758
_publ_section_title
;
Structure prediction by ZEFSAII (Michael W. Deem and Ramdas Pophale) SiO2 
 PCOD9250758
Probable space group: P 21/C
;
_chemical_formula_sum "Si O2"
_cell_formula_units_Z 32
_cell_length_a 8.559251
_cell_length_b 10.234951
_cell_length_c 18.592865
_cell_angle_alpha 90.000000
_cell_angle_beta 122.010306
_cell_angle_gamma 90.000000
_cell_volume 1381.145733
_symmetry_space_group_name_H-M "P 21/C"
_symmetry_group_IT_number 14
_symmetry_cell_setting 'monoclinic'
loop_
_space_group_symop_operation_xyz
x,y,z
-x,1/2+y,1/2-z
-x,-y,-z
x,1/2-y,1/2+z
loop_
_atom_site_type_symbol
_atom_site_label
_atom_site_fract_x
_atom_site_fract_y
_atom_site_fract_z
Si Si1 0.131580 0.733390 0.933653
Si Si2 0.279784 0.284989 0.994861
Si Si3 0.076556 0.624217 0.561933
Si Si4 0.818245 0.085376 0.263896
Si Si5 0.602446 0.412937 0.582983
Si Si6 0.749604 0.615349 0.860438
Si Si7 0.762462 0.515736 0.131437
Si Si8 0.336343 0.630476 0.752978
O O1 0.216525 0.850272 0.908313
O O2 0.222562 0.603555 0.922158
O O3 0.912848 0.709563 0.873074
O O4 0.159840 0.774729 0.023490
O O5 0.452520 0.199083 0.061738
O O6 0.237850 0.382584 0.050394
O O7 0.320560 0.362689 0.932164
O O8 0.098721 0.194897 0.943787
O O9 0.226203 0.581412 0.656689
O O10 0.000000 0.500000 0.500000
O O11 0.784804 0.025064 0.334063
O O12 0.028442 0.054606 0.297218
O O13 0.229726 0.737622 0.249628
O O14 0.676241 0.020192 0.173016
O O15 0.500000 0.500000 0.500000
O O16 0.547981 0.660996 0.788113
O O17 0.665853 0.467597 0.180050
#
# Coordination Sequence:
#
# PCOD9250758 Si02
#       8
#     4   4   4   4   4   4   4   4
#     4  10  24  46  69 101 141 196 235 305 372 432
#     4  11  24  47  70 107 141 195 244 299 380 455
#     4  11  26  43  71 104 148 192 244 305 378 441
#     4  11  25  47  67 108 145 186 248 302 368 442
#     4  12  26  46  73 105 153 191 249 309 373 451
#     4  10  25  44  74  99 146 190 244 304 363 441
#     4  11  25  46  77 101 148 192 245 309 370 446
#     4  12  25  47  72 108 147 194 245 312 365 449
#
# _framework density 23.169170000000001
#
# number of rings (size 3 to 8) (size 9 to 14) (size 15 to 20)
#    0.000    1.000    3.750    0.750    8.750    3.500 
#    0.000    0.000    0.000    0.000    0.000    0.000 
#    0.000    0.000    0.000    0.000    0.000    0.000 
#
# Total GULP energy -179058.565433 kJ/mol
# GULP energy per Si atom -5595.580170 kJ/mol
# Density = 2.311644 g / cm^3
# Si number density = 23.169170 Si / 1000 Ang^3
#
#
#
# Elastic Constant Matrix: (Units=GPa)
#
#
# Indices 1 2 3 4 5 6 
#
# 1 85.9788 4.5133 29.2098 0.0000 3.2862 0.0000
# 2 4.5133 45.4966 22.3836 0.0000 -8.9711 0.0000
# 3 29.2098 22.3836 118.0298 0.0000 2.8779 0.0000
# 4 0.0000 0.0000 0.0000 36.6344 0.0000 -5.0338
# 5 3.2862 -8.9711 2.8779 0.0000 29.7553 0.0000
# 6 0.0000 0.0000 0.0000 -5.0338 0.0000 20.7456
#
#
#
# Elastic Compliance Matrix: (Units=1/GPa)
#
#
# Indices 1 2 3 4 5 6 
#
# 1 0.012735 0.000067 -0.003138 0.000000 -0.001083 0.000000
# 2 0.000067 0.026178 -0.005186 0.000000 0.008387 0.000000
# 3 -0.003138 -0.005186 0.010286 0.000000 -0.002212 0.000000
# 4 0.000000 0.000000 0.000000 0.028238 0.000000 0.006852
# 5 -0.001083 0.008387 -0.002212 0.000000 0.036470 0.000000
# 6 0.000000 0.000000 0.000000 0.006852 0.000000 0.049866
#
#
# Mechanical properties :
#
#
# Convention : Reuss Voigt Hill
#
# Bulk Modulus (GPa) = 30.59403 40.19095 35.39249
# Shear Modulus (GPa) = 26.15329 30.32029 28.23679
#
# Velocity S-wave (km/s) = 3.36340 3.62145 3.49481
# Velocity P-wave (km/s) = 5.32133 5.90516 5.62083
#
# Compressibility (1/GPa) = 0.03268611
#
# Stress axis : x y z
#
# Youngs Moduli (GPa) = 78.52576 38.20010 97.21640
#
# Poissons Ratio (x) = -0.00256 0.30505
# Poissons Ratio (y) = -0.00526 0.50412
# Poissons Ratio (z) = 0.24640 0.19809
#
# Static dielectric constant tensor:
#      x y z
#    x 1.875770 0.000000 -0.033930 
#    y 0.000000 1.896400 0.000000 
#    z -0.033930 0.000000 1.877070 
# 
# From -- ./inp_files/65744.got.cif
#   From: 2010.05.17/outbox.cif.g08.bks.cpg/sg14_33_cif.got.tgz:65744.got - 2010.06.03 17:49:19.
