data_PCOD9250916
_publ_section_title
;
Structure prediction by ZEFSAII (Michael W. Deem and Ramdas Pophale) SiO2 
 PCOD9250916
Probable space group: P 21/C
;
_chemical_formula_sum "Si O2"
_cell_formula_units_Z 24
_cell_length_a 4.959910
_cell_length_b 13.341404
_cell_length_c 13.568728
_cell_angle_alpha 90.000000
_cell_angle_beta 71.108668
_cell_angle_gamma 90.000000
_cell_volume 849.507621
_symmetry_space_group_name_H-M "P 21/C"
_symmetry_group_IT_number 14
_symmetry_cell_setting 'monoclinic'
loop_
_space_group_symop_operation_xyz
x,y,z
-x,1/2+y,1/2-z
-x,-y,-z
x,1/2-y,1/2+z
loop_
_atom_site_type_symbol
_atom_site_label
_atom_site_fract_x
_atom_site_fract_y
_atom_site_fract_z
Si Si1 0.034684 0.658768 0.984456
Si Si2 0.163309 0.433923 0.173101
Si Si3 0.274368 0.448735 0.673819
Si Si4 0.278234 0.188706 0.850230
Si Si5 0.750010 0.188344 0.204594
Si Si6 0.000000 0.000000 0.000000
Si Si7 0.500000 0.000000 0.500000
O O1 0.176269 0.733265 0.890246
O O2 0.247232 0.575448 0.991172
O O3 0.787254 0.605101 0.946443
O O4 0.920006 0.723455 0.086309
O O5 0.228523 0.353586 0.246927
O O6 0.849779 0.473980 0.231224
O O7 0.389618 0.521447 0.134883
O O8 0.578428 0.400361 0.664371
O O9 0.048917 0.357477 0.702097
O O10 0.196102 0.499476 0.578460
O O11 0.579275 0.246941 0.805072
O O12 0.204185 0.094789 0.930054
#
# Coordination Sequence:
#
# PCOD9250916 Si02
#       7
#     4   4   4   4   4   2   2
#     4  12  27  51  80 116 168 212 275 342 415 493
#     4  11  27  50  75 121 158 220 269 344 410 489
#     4  11  27  50  81 115 160 214 277 334 415 485
#     4  11  25  51  79 118 162 216 272 338 409 500
#     4  12  26  51  78 119 160 215 270 343 404 494
#     4  10  24  50  80 114 160 216 272 342 402 492
#     4  12  26  46  78 114 156 210 272 334 408 488
#
# _framework density 28.251657000000002
#
# number of rings (size 3 to 8) (size 9 to 14) (size 15 to 20)
#    0.000    0.667    3.333    2.500    4.667    0.667 
#    6.000    0.000    0.000    0.000    0.000    0.000 
#    0.000    0.000    0.000    0.000    0.000    0.000 
#
# Total GULP energy -133772.759148 kJ/mol
# GULP energy per Si atom -5573.864964 kJ/mol
# Density = 2.818736 g / cm^3
# Si number density = 28.251657 Si / 1000 Ang^3
#
#
#
# Elastic Constant Matrix: (Units=GPa)
#
#
# Indices 1 2 3 4 5 6 
#
# 1 116.2527 24.1898 10.9514 0.0000 23.8211 0.0000
# 2 24.1898 99.5975 7.1076 0.0000 15.2807 0.0000
# 3 10.9514 7.1076 98.8979 0.0000 31.4452 0.0000
# 4 0.0000 0.0000 0.0000 78.6849 0.0000 -7.5404
# 5 23.8211 15.2807 31.4452 0.0000 41.3601 0.0000
# 6 0.0000 0.0000 0.0000 -7.5404 0.0000 63.5528
#
#
#
# Elastic Compliance Matrix: (Units=1/GPa)
#
#
# Indices 1 2 3 4 5 6 
#
# 1 0.010054 -0.001605 0.000863 0.000000 -0.005854 0.000000
# 2 -0.001605 0.010931 0.000504 0.000000 -0.003497 0.000000
# 3 0.000863 0.000504 0.013448 0.000000 -0.010907 0.000000
# 4 0.000000 0.000000 0.000000 0.012855 0.000000 0.001525
# 5 -0.005854 -0.003497 -0.010907 0.000000 0.037134 0.000000
# 6 0.000000 0.000000 0.000000 0.001525 0.000000 0.015916
#
#
# Mechanical properties :
#
#
# Convention : Reuss Voigt Hill
#
# Bulk Modulus (GPa) = 29.44913 44.36066 36.90489
# Shear Modulus (GPa) = 44.58995 54.88617 49.73806
#
# Velocity S-wave (km/s) = 3.97711 4.41246 4.20043
# Velocity P-wave (km/s) = 5.61572 6.45722 6.05112
#
# Compressibility (1/GPa) = 0.03395687
#
# Stress axis : x y z
#
# Youngs Moduli (GPa) = 99.46109 91.48379 74.36206
#
# Poissons Ratio (x) = 0.14687 -0.06420
# Poissons Ratio (y) = 0.15967 -0.03749
# Poissons Ratio (z) = -0.08587 -0.04612
#
# Static dielectric constant tensor:
#      x y z
#    x 2.321440 0.000000 -0.075290 
#    y 0.000000 2.438730 0.000000 
#    z -0.075290 0.000000 2.437550 
# 
# From -- ./inp_files/37281.got.cif
#   From: 2010.05.17/outbox.cif.g08.bks.cpg/sg14_19_cif.got.tgz:37281.got - 2010.06.03 17:49:19.
