data_PCOD9250354
_publ_section_title
;
Structure prediction by ZEFSAII (Michael W. Deem and Ramdas Pophale) SiO2 
 PCOD9250354
Probable space group: P 21/C
;
_chemical_formula_sum "Si O2"
_cell_formula_units_Z 22
_cell_length_a 6.327520
_cell_length_b 16.947337
_cell_length_c 7.891705
_cell_angle_alpha 90.000000
_cell_angle_beta 89.894319
_cell_angle_gamma 90.000000
_cell_volume 846.262498
_symmetry_space_group_name_H-M "P 21/C"
_symmetry_group_IT_number 14
_symmetry_cell_setting 'monoclinic'
loop_
_space_group_symop_operation_xyz
x,y,z
-x,1/2+y,1/2-z
-x,-y,-z
x,1/2-y,1/2+z
loop_
_atom_site_type_symbol
_atom_site_label
_atom_site_fract_x
_atom_site_fract_y
_atom_site_fract_z
Si Si1 0.463589 0.304897 0.730929
Si Si2 0.500000 0.500000 0.500000
Si Si3 0.235229 0.000752 0.649809
Si Si4 0.905863 0.677248 0.797583
Si Si5 0.220881 0.037443 0.283868
Si Si6 0.213682 0.720406 0.526877
O O1 0.331280 0.377388 0.797478
O O2 0.646588 0.276138 0.853680
O O3 0.597628 0.329121 0.563221
O O4 0.300599 0.233177 0.705077
O O5 0.601799 0.496614 0.696038
O O6 0.729721 0.506377 0.404526
O O7 0.284748 0.984723 0.450052
O O8 0.161469 0.091612 0.647138
O O9 0.030119 0.950381 0.697110
O O10 0.032426 0.671558 0.620526
O O11 0.079287 0.721033 0.910840
#
# Coordination Sequence:
#
# PCOD9250354 Si02
#       6
#     4   2   4   4   4   4
#     4  11  24  45  71 109 144 196 248 315 378 448
#     4  12  28  46  76 108 146 198 252 302 372 456
#     4  11  27  50  74 109 152 202 250 314 380 449
#     4  11  24  45  73 106 150 191 250 319 372 450
#     4  11  27  48  74 105 155 198 253 311 376 449
#     4  10  24  41  72 107 143 194 251 307 385 444
#
# _framework density 25.996663999999999
#
# number of rings (size 3 to 8) (size 9 to 14) (size 15 to 20)
#    0.000    1.091    0.000    4.364    7.636    8.727 
#    0.000    0.000    0.000    0.000    0.000    0.000 
#    0.000    0.000    0.000    0.000    0.000    0.000 
#
# Total GULP energy -122712.273297 kJ/mol
# GULP energy per Si atom -5577.830604 kJ/mol
# Density = 2.593749 g / cm^3
# Si number density = 25.996664 Si / 1000 Ang^3
#
#
#
# Elastic Constant Matrix: (Units=GPa)
#
#
# Indices 1 2 3 4 5 6 
#
# 1 120.1798 31.4614 34.4771 0.0000 8.6361 0.0000
# 2 31.4614 77.5035 22.9834 0.0000 -15.7377 0.0000
# 3 34.4771 22.9834 161.8723 0.0000 -34.1233 0.0000
# 4 0.0000 0.0000 0.0000 22.6626 0.0000 -11.7758
# 5 8.6361 -15.7377 -34.1233 0.0000 72.7273 0.0000
# 6 0.0000 0.0000 0.0000 -11.7758 0.0000 43.3886
#
#
#
# Elastic Compliance Matrix: (Units=1/GPa)
#
#
# Indices 1 2 3 4 5 6 
#
# 1 0.010288 -0.004149 -0.002274 0.000000 -0.003186 0.000000
# 2 -0.004149 0.015480 -0.000560 0.000000 0.003580 0.000000
# 3 -0.002274 -0.000560 0.007516 0.000000 0.003676 0.000000
# 4 0.000000 0.000000 0.000000 0.051370 0.000000 0.013942
# 5 -0.003186 0.003580 0.003676 0.000000 0.016628 0.000000
# 6 0.000000 0.000000 0.000000 0.013942 0.000000 0.026831
#
#
# Mechanical properties :
#
#
# Convention : Reuss Voigt Hill
#
# Bulk Modulus (GPa) = 51.76169 59.71104 55.73636
# Shear Modulus (GPa) = 33.66590 45.79797 39.73193
#
# Velocity S-wave (km/s) = 3.60253 4.20180 3.91365
# Velocity P-wave (km/s) = 6.10396 6.82340 6.47368
#
# Compressibility (1/GPa) = 0.01931931
#
# Stress axis : x y z
#
# Youngs Moduli (GPa) = 97.19709 64.60040 133.04440
#
# Poissons Ratio (x) = 0.26804 0.30253
# Poissons Ratio (y) = 0.40328 0.07444
# Poissons Ratio (z) = 0.22102 0.03614
#
# Static dielectric constant tensor:
#      x y z
#    x 2.060280 0.000000 -0.047850 
#    y 0.000000 2.049960 0.000000 
#    z -0.047850 0.000000 2.190790 
# 
# From -- ./inp_files/5950.got.cif
#   From: 2010.05.17/outbox.cif.g08.bks.cpg/sg14_3_cif.got.tgz:5950.got - 2010.06.03 17:49:19.
