data_PCOD9250265
_publ_section_title
;
Structure prediction by ZEFSAII (Michael W. Deem and Ramdas Pophale) SiO2 
 PCOD9250265
Probable space group: P 21/C
;
_chemical_formula_sum "Si O2"
_cell_formula_units_Z 20
_cell_length_a 10.018744
_cell_length_b 8.611573
_cell_length_c 9.047741
_cell_angle_alpha 90.000000
_cell_angle_beta 110.261123
_cell_angle_gamma 90.000000
_cell_volume 732.312137
_symmetry_space_group_name_H-M "P 21/C"
_symmetry_group_IT_number 14
_symmetry_cell_setting 'monoclinic'
loop_
_space_group_symop_operation_xyz
x,y,z
-x,1/2+y,1/2-z
-x,-y,-z
x,1/2-y,1/2+z
loop_
_atom_site_type_symbol
_atom_site_label
_atom_site_fract_x
_atom_site_fract_y
_atom_site_fract_z
Si Si1 0.996590 0.203722 0.142301
Si Si2 0.830276 0.407544 0.310787
Si Si3 0.602982 0.802221 0.026600
Si Si4 0.598386 0.304901 0.791935
Si Si5 0.226904 0.087238 0.637110
O O1 0.070833 0.342641 0.080051
O O2 0.916453 0.284368 0.245356
O O3 0.122778 0.078790 0.223786
O O4 0.886284 0.108735 0.999862
O O5 0.666747 0.353742 0.253376
O O6 0.496966 0.886715 0.870834
O O7 0.682062 0.687486 0.943577
O O8 0.499151 0.721939 0.104934
O O9 0.718708 0.886233 0.173012
O O10 0.733198 0.411536 0.883315
#
# Coordination Sequence:
#
# PCOD9250265 Si02
#       5
#     4   4   4   4   4
#     4  11  25  43  64  92 125 162 206 256 309 365
#     4  11  25  43  64  92 125 162 206 256 309 365
#     4  10  24  40  62  94 128 162 204 252 306 364
#     4  11  23  41  65  92 125 164 206 253 305 364
#     4  11  23  41  65  92 125 164 206 253 305 364
#
# _framework density 27.310756999999999
#
# number of rings (size 3 to 8) (size 9 to 14) (size 15 to 20)
#    0.000    1.200    0.000    4.800    0.000   19.200 
#    0.000    0.000    0.000    0.000    0.000    0.000 
#    0.000    0.000    0.000    0.000    0.000    0.000 
#
# Total GULP energy -112128.397065 kJ/mol
# GULP energy per Si atom -5606.419853 kJ/mol
# Density = 2.724860 g / cm^3
# Si number density = 27.310757 Si / 1000 Ang^3
#
#
#
# Elastic Constant Matrix: (Units=GPa)
#
#
# Indices 1 2 3 4 5 6 
#
# 1 113.4083 13.6917 40.2188 0.0000 -35.8295 0.0000
# 2 13.6917 73.0125 13.0670 0.0000 -18.6492 0.0000
# 3 40.2188 13.0670 115.6929 0.0000 -15.0137 0.0000
# 4 0.0000 0.0000 0.0000 33.7988 0.0000 -7.4035
# 5 -35.8295 -18.6492 -15.0137 0.0000 60.3843 0.0000
# 6 0.0000 0.0000 0.0000 -7.4035 0.0000 60.6456
#
#
#
# Elastic Compliance Matrix: (Units=1/GPa)
#
#
# Indices 1 2 3 4 5 6 
#
# 1 0.011992 -0.000048 -0.003350 0.000000 0.006267 0.000000
# 2 -0.000048 0.015011 -0.001117 0.000000 0.004330 0.000000
# 3 -0.003350 -0.001117 0.009953 0.000000 0.000142 0.000000
# 4 0.000000 0.000000 0.000000 0.030400 0.000000 0.003711
# 5 0.006267 0.004330 0.000142 0.000000 0.021652 0.000000
# 6 0.000000 0.000000 0.000000 0.003711 0.000000 0.016942
#
#
# Mechanical properties :
#
#
# Convention : Reuss Voigt Hill
#
# Bulk Modulus (GPa) = 35.80962 48.45207 42.13084
# Shear Modulus (GPa) = 40.22916 46.64148 43.43532
#
# Velocity S-wave (km/s) = 3.84215 4.13704 3.99232
# Velocity P-wave (km/s) = 5.72915 6.37179 6.05900
#
# Compressibility (1/GPa) = 0.02792546
#
# Stress axis : x y z
#
# Youngs Moduli (GPa) = 83.39140 66.61725 100.47556
#
# Poissons Ratio (x) = 0.00322 0.33658
# Poissons Ratio (y) = 0.00403 0.11221
# Poissons Ratio (z) = 0.27935 0.07440
#
# Static dielectric constant tensor:
#      x y z
#    x 2.061180 0.000000 0.061550 
#    y 0.000000 2.162630 0.000000 
#    z 0.061550 0.000000 2.071710 
# 
# From -- ./inp_files/11769.got.cif
#   From: 2010.05.17/outbox.cif.g08.bks.cpg/sg14_6_cif.got.tgz:11769.got - 2010.06.03 17:49:19.
