data_PCOD9250381
_publ_section_title
;
Structure prediction by ZEFSAII (Michael W. Deem and Ramdas Pophale) SiO2 
 PCOD9250381
Probable space group: P 21/C
;
_chemical_formula_sum "Si O2"
_cell_formula_units_Z 20
_cell_length_a 9.281684
_cell_length_b 19.324090
_cell_length_c 5.151396
_cell_angle_alpha 90.000000
_cell_angle_beta 109.321421
_cell_angle_gamma 90.000000
_cell_volume 871.915268
_symmetry_space_group_name_H-M "P 21/C"
_symmetry_group_IT_number 14
_symmetry_cell_setting 'monoclinic'
loop_
_space_group_symop_operation_xyz
x,y,z
-x,1/2+y,1/2-z
-x,-y,-z
x,1/2-y,1/2+z
loop_
_atom_site_type_symbol
_atom_site_label
_atom_site_fract_x
_atom_site_fract_y
_atom_site_fract_z
Si Si1 0.836057 0.200995 0.497890
Si Si2 0.576466 0.703363 0.664522
Si Si3 0.867525 0.891995 0.351758
Si Si4 0.586545 0.105331 0.579209
Si Si5 0.264041 0.040911 0.229699
O O1 0.844497 0.241979 0.232297
O O2 0.684911 0.156939 0.464756
O O3 0.972514 0.145440 0.591696
O O4 0.561588 0.740153 0.382411
O O5 0.742618 0.669240 0.779704
O O6 0.458942 0.643977 0.681327
O O7 0.846149 0.932770 0.607340
O O8 0.816120 0.942087 0.088323
O O9 0.425480 0.082581 0.354041
O O10 0.685997 0.037859 0.700762
#
# Coordination Sequence:
#
# PCOD9250381 Si02
#       5
#     4   4   4   4   4
#     4  12  26  43  65  96 131 165 207 266 320 373
#     4  11  21  36  60  87 120 163 204 250 308 372
#     4  11  23  42  65  91 126 169 215 257 313 380
#     4  10  24  42  65  96 130 163 214 265 316 370
#     4  10  24  43  67  93 125 171 214 259 309 380
#
# _framework density 22.938006000000001
#
# number of rings (size 3 to 8) (size 9 to 14) (size 15 to 20)
#    0.000    1.200    0.000    6.000    0.000   15.200 
#    0.000    0.000    0.000    0.000    0.000    0.000 
#    0.000    0.000    0.000    0.000    0.000    0.000 
#
# Total GULP energy -112115.578917 kJ/mol
# GULP energy per Si atom -5605.778946 kJ/mol
# Density = 2.288580 g / cm^3
# Si number density = 22.938006 Si / 1000 Ang^3
#
#
#
# Elastic Constant Matrix: (Units=GPa)
#
#
# Indices 1 2 3 4 5 6 
#
# 1 -66.4591 -157.4441 60.1687 0.0000 -21.8990 0.0000
# 2 -157.4441 -118.6338 36.2370 0.0000 -9.4468 0.0000
# 3 60.1687 36.2370 43.0862 0.0000 -16.1946 0.0000
# 4 0.0000 0.0000 0.0000 -3.9291 0.0000 12.4910
# 5 -21.8990 -9.4468 -16.1946 0.0000 19.5953 0.0000
# 6 0.0000 0.0000 0.0000 12.4910 0.0000 29.5249
#
#
#
# Elastic Compliance Matrix: (Units=1/GPa)
#
#
# Indices 1 2 3 4 5 6 
#
# 1 0.007252 -0.010043 -0.000660 0.000000 0.002718 0.000000
# 2 -0.010043 0.007258 0.007278 0.000000 -0.001710 0.000000
# 3 -0.000660 0.007278 0.027636 0.000000 0.025611 0.000000
# 4 0.000000 0.000000 0.000000 -0.108535 0.000000 0.045917
# 5 0.002718 -0.001710 0.025611 0.000000 0.074413 0.000000
# 6 0.000000 0.000000 0.000000 0.045917 0.000000 0.014444
#
#
# Mechanical properties :
#
#
# Convention : Reuss Voigt Hill
#
# Bulk Modulus (GPa) = 28.33121 -29.34261 -0.50570
# Shear Modulus (GPa) = 121.70180 3.64030 62.67105
#
# Velocity S-wave (km/s) = 7.29191 1.26114 5.23271
# Velocity P-wave (km/s) = 9.12546 3.27098 6.02390
#
# Compressibility (1/GPa) = 0.03529676
#
# Stress axis : x y z
#
# Youngs Moduli (GPa) = 137.88438 137.77330 36.18450
#
# Poissons Ratio (x) = 1.38366 0.02387
# Poissons Ratio (y) = 1.38477 -0.26334
# Poissons Ratio (z) = 0.09095 -1.00265
#
# Static dielectric constant tensor:
#      x y z
#    x 1.835310 0.000000 0.012480 
#    y 0.000000 1.863750 0.000000 
#    z 0.012480 0.000000 1.831090 
# 
# From -- ./inp_files/1194.got.cif
#   From: 2010.05.17/outbox.cif.g08.bks.cpg/sg14_1_cif.got.tgz:1194.got - 2010.06.03 17:49:19.
