data_PCOD9250924
_publ_section_title
;
Structure prediction by ZEFSAII (Michael W. Deem and Ramdas Pophale) SiO2 
 PCOD9250924
Probable space group: P 21/C
;
_chemical_formula_sum "Si O2"
_cell_formula_units_Z 24
_cell_length_a 5.556260
_cell_length_b 12.510586
_cell_length_c 12.296678
_cell_angle_alpha 90.000000
_cell_angle_beta 63.377279
_cell_angle_gamma 90.000000
_cell_volume 764.142169
_symmetry_space_group_name_H-M "P 21/C"
_symmetry_group_IT_number 14
_symmetry_cell_setting 'monoclinic'
loop_
_space_group_symop_operation_xyz
x,y,z
-x,1/2+y,1/2-z
-x,-y,-z
x,1/2-y,1/2+z
loop_
_atom_site_type_symbol
_atom_site_label
_atom_site_fract_x
_atom_site_fract_y
_atom_site_fract_z
Si Si1 0.177157 0.549211 0.396372
Si Si2 0.677157 0.450789 0.896372
Si Si3 0.000000 0.000000 0.500000
Si Si4 0.500000 0.000000 0.000000
Si Si5 0.749999 0.632770 0.250000
Si Si6 0.473613 0.721469 0.628002
Si Si7 0.026386 0.778531 0.371998
O O1 0.250001 0.531655 0.250000
O O2 0.134591 0.514503 0.542085
O O3 0.526176 0.554927 0.355654
O O4 0.129941 0.677146 0.416980
O O5 0.629941 0.322854 0.916981
O O6 0.634592 0.485498 0.042084
O O7 0.026176 0.445073 0.855653
O O8 0.047089 0.121733 0.542891
O O9 0.547091 0.878268 0.042891
O O10 0.657879 0.716250 0.177414
O O11 0.842119 0.716250 0.322587
O O12 0.249999 0.674408 0.750000
#
# Coordination Sequence:
#
# PCOD9250924 Si02
#       7
#     4   4   2   2   4   4   4
#     4  11  25  46  80 117 159 214 279 340 412 500
#     4  11  25  46  80 117 159 214 279 340 412 500
#     4  12  26  46  84 116 162 220 276 342 416 498
#     4  12  26  46  84 116 162 220 276 342 416 498
#     4  10  24  52  76 114 174 220 272 346 418 494
#     4  10  25  50  77 117 167 219 278 340 414 500
#     4  10  25  50  77 117 167 219 278 340 414 500
#
# _framework density 31.407768999999998
#
# number of rings (size 3 to 8) (size 9 to 14) (size 15 to 20)
#    0.000    1.333    0.000    3.000    2.333   10.667 
#    9.000    0.000    0.000    0.000    0.000    0.000 
#    0.000    0.000    0.000    0.000    0.000    0.667 
#
# Total GULP energy -133765.182405 kJ/mol
# GULP energy per Si atom -5573.549267 kJ/mol
# Density = 3.133628 g / cm^3
# Si number density = 31.407769 Si / 1000 Ang^3
#
#
#
# Elastic Constant Matrix: (Units=GPa)
#
#
# Indices 1 2 3 4 5 6 
#
# 1 187.1445 94.0526 153.4093 0.0000 21.8581 0.0000
# 2 94.0526 286.4097 164.9451 0.0000 -7.0145 0.0000
# 3 153.4093 164.9451 338.4518 0.0000 -24.4306 0.0000
# 4 0.0000 0.0000 0.0000 90.6497 0.0000 9.8902
# 5 21.8581 -7.0145 -24.4306 0.0000 124.7666 0.0000
# 6 0.0000 0.0000 0.0000 9.8902 0.0000 -0.3963
#
#
#
# Elastic Compliance Matrix: (Units=1/GPa)
#
#
# Indices 1 2 3 4 5 6 
#
# 1 0.009326 -0.000815 -0.004008 0.000000 -0.002465 0.000000
# 2 -0.000815 0.004930 -0.002032 0.000000 0.000022 0.000000
# 3 -0.004008 -0.002032 0.005887 0.000000 0.001741 0.000000
# 4 0.000000 0.000000 0.000000 0.002963 0.000000 0.073952
# 5 -0.002465 0.000022 0.001741 0.000000 0.008789 0.000000
# 6 0.000000 0.000000 0.000000 0.073952 0.000000 -0.677811
#
#
# Mechanical properties :
#
#
# Convention : Reuss Voigt Hill
#
# Bulk Modulus (GPa) = 155.41884 181.86891 168.64388
# Shear Modulus (GPa) = -7.93573 69.64392 30.85410
#
# Velocity S-wave (km/s) = -1.59128 4.71405 3.13768
# Velocity P-wave (km/s) = 6.79819 9.36275 8.18158
#
# Compressibility (1/GPa) = 0.00643423
#
# Stress axis : x y z
#
# Youngs Moduli (GPa) = 107.22186 202.85771 169.85999
#
# Poissons Ratio (x) = 0.16526 0.68084
# Poissons Ratio (y) = 0.08735 0.34509
# Poissons Ratio (z) = 0.42977 0.41212
#
# Static dielectric constant tensor:
#      x y z
#    x 3.573620 0.000000 0.160860 
#    y 0.000000 2.050750 0.000000 
#    z 0.160860 0.000000 2.584140 
# 
# From -- ./inp_files/37195.got.cif
#   From: 2010.05.17/outbox.cif.g08.bks.cpg/sg14_19_cif.got.tgz:37195.got - 2010.06.03 17:49:19.
