data_PCOD9250618
_publ_section_title
;
Structure prediction by ZEFSAII (Michael W. Deem and Ramdas Pophale) SiO2 
 PCOD9250618
Probable space group: P 21/C
;
_chemical_formula_sum "Si O2"
_cell_formula_units_Z 24
_cell_length_a 9.434467
_cell_length_b 14.711155
_cell_length_c 13.717944
_cell_angle_alpha 90.000000
_cell_angle_beta 29.926776
_cell_angle_gamma 90.000000
_cell_volume 949.861780
_symmetry_space_group_name_H-M "P 21/C"
_symmetry_group_IT_number 14
_symmetry_cell_setting 'monoclinic'
loop_
_space_group_symop_operation_xyz
x,y,z
-x,1/2+y,1/2-z
-x,-y,-z
x,1/2-y,1/2+z
loop_
_atom_site_type_symbol
_atom_site_label
_atom_site_fract_x
_atom_site_fract_y
_atom_site_fract_z
Si Si1 0.284121 0.017646 0.891139
Si Si2 0.759478 0.289613 0.963426
Si Si3 0.622484 0.243879 0.344678
Si Si4 0.888230 0.478123 0.958816
Si Si5 0.763745 0.728273 0.585227
Si Si6 0.212849 0.894623 0.116816
O O1 0.552355 0.004934 0.661640
O O2 0.326877 0.954942 0.960248
O O3 0.268868 0.123412 0.926719
O O4 0.000000 0.000000 0.000000
O O5 0.920089 0.370916 0.919381
O O6 0.459373 0.264382 0.193729
O O7 0.966844 0.461246 0.209196
O O8 0.926053 0.194184 0.853060
O O9 0.368841 0.217212 0.426271
O O10 0.693401 0.178328 0.392244
O O11 0.904369 0.250817 0.108732
O O12 0.588857 0.339102 0.424434
O O13 0.000000 0.500000 0.000000
#
# Coordination Sequence:
#
# PCOD9250618 Si02
#       6
#     4   4   4   4   4   4
#     4  11  27  46  71 105 153 192 243 305 378 442
#     4   9  24  44  70 113 145 190 250 306 366 446
#     4  10  25  40  72 103 141 189 246 303 364 442
#     4  11  24  48  78 111 149 198 254 309 368 450
#     4  11  24  46  70 103 145 192 242 306 367 440
#     4  10  24  44  70 110 144 196 240 308 374 435
#
# _framework density 25.266836000000001
#
# number of rings (size 3 to 8) (size 9 to 14) (size 15 to 20)
#    1.000    0.667    0.000    3.000    4.667    8.667 
#    0.000    0.000    0.000    0.000    0.000    0.000 
#    0.000    0.000    0.000    0.000    0.000    0.000 
#
# Total GULP energy -134208.989193 kJ/mol
# GULP energy per Si atom -5592.041216 kJ/mol
# Density = 2.520933 g / cm^3
# Si number density = 25.266836 Si / 1000 Ang^3
#
#
#
# Elastic Constant Matrix: (Units=GPa)
#
#
# Indices 1 2 3 4 5 6 
#
# 1 59.2462 26.3396 20.7890 0.0000 13.8769 0.0000
# 2 26.3396 134.3158 18.0780 0.0000 28.6488 0.0000
# 3 20.7890 18.0780 96.9137 0.0000 21.1737 0.0000
# 4 0.0000 0.0000 0.0000 37.2463 0.0000 14.0014
# 5 13.8769 28.6488 21.1737 0.0000 46.5648 0.0000
# 6 0.0000 0.0000 0.0000 14.0014 0.0000 40.9426
#
#
#
# Elastic Compliance Matrix: (Units=1/GPa)
#
#
# Indices 1 2 3 4 5 6 
#
# 1 0.019906 -0.002901 -0.003134 0.000000 -0.002722 0.000000
# 2 -0.002901 0.009014 -0.000040 0.000000 -0.004663 0.000000
# 3 -0.003134 -0.000040 0.011979 0.000000 -0.004488 0.000000
# 4 0.000000 0.000000 0.000000 0.030809 0.000000 -0.010536
# 5 -0.002722 -0.004663 -0.004488 0.000000 0.027196 0.000000
# 6 0.000000 0.000000 0.000000 -0.010536 0.000000 0.028027
#
#
# Mechanical properties :
#
#
# Convention : Reuss Voigt Hill
#
# Bulk Modulus (GPa) = 34.78559 46.76542 40.77551
# Shear Modulus (GPa) = 33.63264 39.96870 36.80067
#
# Velocity S-wave (km/s) = 3.65238 3.98158 3.82053
# Velocity P-wave (km/s) = 5.61994 6.29969 5.96950
#
# Compressibility (1/GPa) = 0.02874753
#
# Stress axis : x y z
#
# Youngs Moduli (GPa) = 50.23661 110.93776 83.48041
#
# Poissons Ratio (x) = 0.32184 0.26164
# Poissons Ratio (y) = 0.14574 0.00337
# Poissons Ratio (z) = 0.15745 0.00448
#
# Static dielectric constant tensor:
#      x y z
#    x 2.266160 0.000000 -0.405290 
#    y 0.000000 2.028410 0.000000 
#    z -0.405290 0.000000 2.640590 
# 
# From -- ./inp_files/58131.got.cif
#   From: 2010.05.17/outbox.cif.g08.bks.cpg/sg14_30_cif.got.tgz:58131.got - 2010.06.03 17:49:19.
