data_PCOD9250955
_publ_section_title
;
Structure prediction by ZEFSAII (Michael W. Deem and Ramdas Pophale) SiO2 
 PCOD9250955
Probable space group: P 21/C
;
_chemical_formula_sum "Si O2"
_cell_formula_units_Z 20
_cell_length_a 5.171864
_cell_length_b 16.044171
_cell_length_c 9.183166
_cell_angle_alpha 90.000000
_cell_angle_beta 106.184437
_cell_angle_gamma 90.000000
_cell_volume 731.804610
_symmetry_space_group_name_H-M "P 21/C"
_symmetry_group_IT_number 14
_symmetry_cell_setting 'monoclinic'
loop_
_space_group_symop_operation_xyz
x,y,z
-x,1/2+y,1/2-z
-x,-y,-z
x,1/2-y,1/2+z
loop_
_atom_site_type_symbol
_atom_site_label
_atom_site_fract_x
_atom_site_fract_y
_atom_site_fract_z
Si Si1 0.514834 0.830548 0.843159
Si Si2 0.644728 0.511224 0.700752
Si Si3 0.773391 0.732890 0.109046
Si Si4 0.118678 0.891792 0.546828
Si Si5 0.860620 0.390222 0.291415
O O1 0.509599 0.928815 0.880199
O O2 0.743631 0.792419 0.773418
O O3 0.272855 0.832311 0.688908
O O4 0.518268 0.774626 0.986015
O O5 0.771010 0.479753 0.876027
O O6 0.915645 0.536480 0.659929
O O7 0.424471 0.582489 0.689066
O O8 0.985005 0.809181 0.126435
O O9 0.826168 0.645328 0.035830
O O10 0.174888 0.880962 0.387660
#
# Coordination Sequence:
#
# PCOD9250955 Si02
#       5
#     4   4   4   4   4
#     4  10  27  44  71 101 151 186 249 293 373 420
#     4  10  26  46  73 109 147 192 241 303 360 441
#     4  12  25  46  71 109 143 198 241 308 356 442
#     4  10  25  42  71 103 145 191 243 291 356 436
#     4  12  25  46  78 106 146 193 246 296 371 426
#
# _framework density 27.329699999999999
#
# number of rings (size 3 to 8) (size 9 to 14) (size 15 to 20)
#    1.200    0.000    2.000    2.400    8.400    1.600 
#    0.000    0.000    0.000    0.000    0.000    0.000 
#    0.000    0.000    0.000    0.000    0.000    0.000 
#
# Total GULP energy -111666.035668 kJ/mol
# GULP energy per Si atom -5583.301783 kJ/mol
# Density = 2.726750 g / cm^3
# Si number density = 27.329700 Si / 1000 Ang^3
#
#
#
# Elastic Constant Matrix: (Units=GPa)
#
#
# Indices 1 2 3 4 5 6 
#
# 1 89.3903 39.5034 25.7335 0.0000 -2.7734 0.0000
# 2 39.5034 151.6811 31.4780 0.0000 -0.0855 0.0000
# 3 25.7335 31.4780 130.8304 0.0000 3.7398 0.0000
# 4 0.0000 0.0000 0.0000 26.7707 0.0000 0.2862
# 5 -2.7734 -0.0855 3.7398 0.0000 40.8773 0.0000
# 6 0.0000 0.0000 0.0000 0.2862 0.0000 56.6557
#
#
#
# Elastic Compliance Matrix: (Units=1/GPa)
#
#
# Indices 1 2 3 4 5 6 
#
# 1 0.013095 -0.003020 -0.001879 0.000000 0.001054 0.000000
# 2 -0.003020 0.007637 -0.001241 0.000000 -0.000075 0.000000
# 3 -0.001879 -0.001241 0.008337 0.000000 -0.000893 0.000000
# 4 0.000000 0.000000 0.000000 0.037356 0.000000 -0.000189
# 5 0.001054 -0.000075 -0.000893 0.000000 0.024617 0.000000
# 6 0.000000 0.000000 0.000000 -0.000189 0.000000 0.017651
#
#
# Mechanical properties :
#
#
# Convention : Reuss Voigt Hill
#
# Bulk Modulus (GPa) = 59.56492 62.81462 61.18977
# Shear Modulus (GPa) = 39.50367 43.20652 41.35510
#
# Velocity S-wave (km/s) = 3.80603 3.98041 3.89420
# Velocity P-wave (km/s) = 6.41535 6.64521 6.53129
#
# Compressibility (1/GPa) = 0.01678841
#
# Stress axis : x y z
#
# Youngs Moduli (GPa) = 76.36416 130.94448 119.94286
#
# Poissons Ratio (x) = 0.39544 0.22541
# Poissons Ratio (y) = 0.23061 0.14888
# Poissons Ratio (z) = 0.14351 0.16254
#
# Static dielectric constant tensor:
#      x y z
#    x 2.319290 0.000000 0.092020 
#    y 0.000000 2.161030 0.000000 
#    z 0.092020 0.000000 2.179160 
# 
# From -- ./inp_files/21072.got.cif
#   From: 2010.05.17/outbox.cif.g08.bks.cpg/sg14_11_cif.got.tgz:21072.got - 2010.06.03 17:49:19.
