data_PCOD9250920
_publ_section_title
;
Structure prediction by ZEFSAII (Michael W. Deem and Ramdas Pophale) SiO2 
 PCOD9250920
Probable space group: P 21/C
;
_chemical_formula_sum "Si O2"
_cell_formula_units_Z 24
_cell_length_a 20.954930
_cell_length_b 5.069645
_cell_length_c 11.863713
_cell_angle_alpha 90.000000
_cell_angle_beta 36.892335
_cell_angle_gamma 90.000000
_cell_volume 756.592995
_symmetry_space_group_name_H-M "P 21/C"
_symmetry_group_IT_number 14
_symmetry_cell_setting 'monoclinic'
loop_
_space_group_symop_operation_xyz
x,y,z
-x,1/2+y,1/2-z
-x,-y,-z
x,1/2-y,1/2+z
loop_
_atom_site_type_symbol
_atom_site_label
_atom_site_fract_x
_atom_site_fract_y
_atom_site_fract_z
Si Si1 0.385933 0.578659 0.613326
Si Si2 0.740043 0.615248 0.818975
Si Si3 0.478065 0.400390 0.208584
Si Si4 0.736587 0.201084 0.017153
Si Si5 0.076687 0.517077 0.611900
Si Si6 0.955327 0.725879 0.610429
O O1 0.500000 0.500000 0.500000
O O2 0.338720 0.356865 0.598138
O O3 0.304555 0.595868 0.829716
O O4 0.423577 0.871020 0.517893
O O5 0.803839 0.556674 0.613240
O O6 0.828832 0.741232 0.779837
O O7 0.517317 0.611949 0.243960
O O8 0.728919 0.341784 0.905552
O O9 0.361462 0.490330 0.337789
O O10 0.859587 0.168470 0.874975
O O11 0.030259 0.468376 0.540794
O O12 0.981109 0.777710 0.728871
O O13 0.000000 0.000000 0.500000
#
# Coordination Sequence:
#
# PCOD9250920 Si02
#       6
#     4   4   4   4   4   4
#     4  12  29  54  88 127 185 239 312 372 446 537
#     4  11  27  51  92 134 175 234 300 376 457 537
#     4  12  31  52  87 123 181 242 306 370 450 528
#     4  12  29  52  87 133 180 240 301 373 455 534
#     4  11  25  51  85 127 179 226 301 366 455 548
#     4  10  24  50  84 126 173 225 284 366 451 535
#
# _framework density 31.721152
#
# number of rings (size 3 to 8) (size 9 to 14) (size 15 to 20)
#    0.000    0.667    0.000    4.500   11.667    0.000 
#    3.000   12.500    0.000    0.000    0.000    0.000 
#    0.000    0.000    0.000    0.000    0.000    0.000 
#
# Total GULP energy -134199.949233 kJ/mol
# GULP energy per Si atom -5591.664551 kJ/mol
# Density = 3.164895 g / cm^3
# Si number density = 31.721152 Si / 1000 Ang^3
#
#
#
# Elastic Constant Matrix: (Units=GPa)
#
#
# Indices 1 2 3 4 5 6 
#
# 1 215.0540 84.9417 101.1001 0.0000 -44.2828 0.0000
# 2 84.9417 226.5992 90.3469 0.0000 -25.7308 0.0000
# 3 101.1001 90.3469 215.5447 0.0000 -6.5746 0.0000
# 4 0.0000 0.0000 0.0000 75.5338 0.0000 0.8722
# 5 -44.2828 -25.7308 -6.5746 0.0000 102.6366 0.0000
# 6 0.0000 0.0000 0.0000 0.8722 0.0000 85.5764
#
#
#
# Elastic Compliance Matrix: (Units=1/GPa)
#
#
# Indices 1 2 3 4 5 6 
#
# 1 0.006896 -0.001252 -0.002634 0.000000 0.002493 0.000000
# 2 -0.001252 0.005675 -0.001768 0.000000 0.000769 0.000000
# 3 -0.002634 -0.001768 0.006580 0.000000 -0.001158 0.000000
# 4 0.000000 0.000000 0.000000 0.013241 0.000000 -0.000135
# 5 0.002493 0.000769 -0.001158 0.000000 0.010937 0.000000
# 6 0.000000 0.000000 0.000000 -0.000135 0.000000 0.011687
#
#
# Mechanical properties :
#
#
# Convention : Reuss Voigt Hill
#
# Bulk Modulus (GPa) = 127.48625 134.44170 130.96398
# Shear Modulus (GPa) = 72.52976 78.13664 75.33320
#
# Velocity S-wave (km/s) = 4.78690 4.96848 4.87854
# Velocity P-wave (km/s) = 8.41603 8.68267 8.55039
#
# Compressibility (1/GPa) = 0.00784398
#
# Stress axis : x y z
#
# Youngs Moduli (GPa) = 145.01427 176.22534 151.96521
#
# Poissons Ratio (x) = 0.22060 0.40024
# Poissons Ratio (y) = 0.18153 0.26866
# Poissons Ratio (z) = 0.38193 0.31155
#
# Static dielectric constant tensor:
#      x y z
#    x 3.719880 0.000000 -0.088440 
#    y 0.000000 3.750350 0.000000 
#    z -0.088440 0.000000 2.706610 
# 
# From -- ./inp_files/69481.got.cif
#   From: 2010.05.17/outbox.cif.g08.bks.cpg/sg14_35_cif.got.tgz:69481.got - 2010.06.03 17:49:19.
