data_PCOD9250462
_publ_section_title
;
Structure prediction by ZEFSAII (Michael W. Deem and Ramdas Pophale) SiO2 
 PCOD9250462
Probable space group: P 21/C
;
_chemical_formula_sum "Si O2"
_cell_formula_units_Z 32
_cell_length_a 12.001905
_cell_length_b 17.098636
_cell_length_c 14.192739
_cell_angle_alpha 90.000000
_cell_angle_beta 31.337046
_cell_angle_gamma 90.000000
_cell_volume 1514.749794
_symmetry_space_group_name_H-M "P 21/C"
_symmetry_group_IT_number 14
_symmetry_cell_setting 'monoclinic'
loop_
_space_group_symop_operation_xyz
x,y,z
-x,1/2+y,1/2-z
-x,-y,-z
x,1/2-y,1/2+z
loop_
_atom_site_type_symbol
_atom_site_label
_atom_site_fract_x
_atom_site_fract_y
_atom_site_fract_z
Si Si1 0.525112 0.752228 0.694163
Si Si2 0.659694 0.941583 0.332283
Si Si3 0.141327 0.970338 0.484762
Si Si4 0.045687 0.961741 0.194539
Si Si5 0.916675 0.210461 0.437345
Si Si6 0.371428 0.069902 0.862871
Si Si7 0.660636 0.189039 0.993555
Si Si8 0.627521 0.724589 0.918821
O O1 0.611599 0.664329 0.647224
O O2 0.637172 0.788716 0.523342
O O3 0.269097 0.742887 0.859693
O O4 0.519619 0.803203 0.793373
O O5 0.678729 0.956828 0.207760
O O6 0.563826 0.854819 0.413711
O O7 0.884549 0.943422 0.225164
O O8 0.500000 0.000000 0.500000
O O9 0.075136 0.881703 0.558436
O O10 0.394752 0.964957 0.280715
O O11 0.000000 0.000000 0.500000
O O12 0.090603 0.021394 0.613590
O O13 0.207304 0.889913 0.094940
O O14 0.190611 0.036077 0.061637
O O15 0.821550 0.240382 0.406036
O O16 0.144167 0.249253 0.284778
O O17 0.541827 0.207670 0.982937
#
# Coordination Sequence:
#
# PCOD9250462 Si02
#       8
#     4   4   4   4   4   4   4   4
#     4   9  22  44  64  93 129 173 219 265 333 394
#     4  12  24  45  69  99 137 177 227 277 341 406
#     4  11  25  44  70 100 138 180 227 279 340 403
#     4  12  26  43  70 105 132 177 232 279 335 413
#     4   9  22  46  60  96 133 168 224 267 327 404
#     4  11  24  47  68  97 139 177 221 282 343 398
#     4  10  24  43  63 100 133 164 230 270 326 407
#     4  12  22  45  69  91 136 176 215 283 336 391
#
# _framework density 21.125601
#
# number of rings (size 3 to 8) (size 9 to 14) (size 15 to 20)
#    0.750    0.500    3.750    1.125    7.000    0.500 
#    4.500    0.000    0.000    0.000    0.000    0.000 
#    0.000    0.000    0.000    0.000    0.000    0.000 
#
# Total GULP energy -178672.036219 kJ/mol
# GULP energy per Si atom -5583.501132 kJ/mol
# Density = 2.107752 g / cm^3
# Si number density = 21.125601 Si / 1000 Ang^3
#
#
#
# Elastic Constant Matrix: (Units=GPa)
#
#
# Indices 1 2 3 4 5 6 
#
# 1 55.8936 -20.2502 -0.2144 0.0000 0.5594 0.0000
# 2 -20.2502 39.9561 8.1879 0.0000 -8.8781 0.0000
# 3 -0.2144 8.1879 52.7476 0.0000 -3.4071 0.0000
# 4 0.0000 0.0000 0.0000 18.9310 0.0000 -11.1471
# 5 0.5594 -8.8781 -3.4071 0.0000 25.9186 0.0000
# 6 0.0000 0.0000 0.0000 -11.1471 0.0000 24.1162
#
#
#
# Elastic Compliance Matrix: (Units=1/GPa)
#
#
# Indices 1 2 3 4 5 6 
#
# 1 0.022363 0.012458 -0.001612 0.000000 0.003573 0.000000
# 2 0.012458 0.034739 -0.004630 0.000000 0.011022 0.000000
# 3 -0.001612 -0.004630 0.019738 0.000000 0.001043 0.000000
# 4 0.000000 0.000000 0.000000 0.072577 0.000000 0.033547
# 5 0.003573 0.011022 0.001043 0.000000 0.042418 0.000000
# 6 0.000000 0.000000 0.000000 0.033547 0.000000 0.056972
#
#
# Mechanical properties :
#
#
# Convention : Reuss Voigt Hill
#
# Bulk Modulus (GPa) = 11.20182 13.78264 12.49223
# Shear Modulus (GPa) = 18.78767 24.51809 21.65288
#
# Velocity S-wave (km/s) = 2.98540 3.41043 3.20497
# Velocity P-wave (km/s) = 4.14699 4.69536 4.42967
#
# Compressibility (1/GPa) = 0.08927122
#
# Stress axis : x y z
#
# Youngs Moduli (GPa) = 44.71742 28.78599 50.66437
#
# Poissons Ratio (x) = -0.35861 0.08168
# Poissons Ratio (y) = -0.55708 0.23457
# Poissons Ratio (z) = 0.07209 0.13328
#
# Static dielectric constant tensor:
#      x y z
#    x 1.770590 0.000000 0.008140 
#    y 0.000000 1.773580 0.000000 
#    z 0.008140 0.000000 1.761460 
# 
# From -- ./inp_files/45446.got.cif
#   From: 2010.05.17/outbox.cif.g08.bks.cpg/sg14_23_cif.got.tgz:45446.got - 2010.06.03 17:49:19.
