data_PCOD9250823
_publ_section_title
;
Structure prediction by ZEFSAII (Michael W. Deem and Ramdas Pophale) SiO2 
 PCOD9250823
Probable space group: P 21/C
;
_chemical_formula_sum "Si O2"
_cell_formula_units_Z 28
_cell_length_a 14.196352
_cell_length_b 7.659992
_cell_length_c 22.923755
_cell_angle_alpha 90.000000
_cell_angle_beta 149.111468
_cell_angle_gamma 90.000000
_cell_volume 1279.737492
_symmetry_space_group_name_H-M "P 21/C"
_symmetry_group_IT_number 14
_symmetry_cell_setting 'monoclinic'
loop_
_space_group_symop_operation_xyz
x,y,z
-x,1/2+y,1/2-z
-x,-y,-z
x,1/2-y,1/2+z
loop_
_atom_site_type_symbol
_atom_site_label
_atom_site_fract_x
_atom_site_fract_y
_atom_site_fract_z
Si Si1 0.423285 0.240698 0.427364
Si Si2 0.895081 0.908676 0.060955
Si Si3 0.967741 0.905037 0.759645
Si Si4 0.148572 0.622351 0.142282
Si Si5 0.499969 0.898340 0.905366
Si Si6 0.230761 0.610549 0.934383
Si Si7 0.097556 0.704976 0.985514
O O1 0.210709 0.192098 0.310487
O O2 0.465649 0.296262 0.516144
O O3 0.464666 0.403803 0.407502
O O4 0.565205 0.093623 0.481104
O O5 0.982023 0.746481 0.074050
O O6 0.680348 0.888197 0.961013
O O7 0.990601 0.935107 0.174964
O O8 0.931119 0.090878 0.045155
O O9 0.145962 0.785990 0.860136
O O10 0.907795 0.966245 0.664076
O O11 0.321288 0.658380 0.275042
O O12 0.186745 0.673485 0.095643
O O13 0.082019 0.420485 0.110102
O O14 0.219398 0.633400 0.996833
#
# Coordination Sequence:
#
# PCOD9250823 Si02
#       7
#     4   4   4   4   4   4   4
#     4  11  23  40  65  98 139 166 220 276 341 396
#     4  11  23  47  69  99 136 174 226 272 341 397
#     4  11  23  38  65  99 129 180 206 280 338 400
#     4  11  25  46  71  96 135 181 227 277 331 395
#     4  11  23  42  67 103 133 174 221 280 332 401
#     4  11  23  40  64  96 135 168 223 267 340 399
#     4  10  24  47  67  97 135 181 225 276 331 393
#
# _framework density 21.879487999999998
#
# number of rings (size 3 to 8) (size 9 to 14) (size 15 to 20)
#    0.000    1.143    2.857    4.286    8.000    0.000 
#    5.143    0.000    0.000    0.000    0.000    0.000 
#    0.000    0.000    0.000    0.000    0.000    0.000 
#
# Total GULP energy -156640.454822 kJ/mol
# GULP energy per Si atom -5594.301958 kJ/mol
# Density = 2.182969 g / cm^3
# Si number density = 21.879488 Si / 1000 Ang^3
#
#
#
# Elastic Constant Matrix: (Units=GPa)
#
#
# Indices 1 2 3 4 5 6 
#
# 1 87.6342 35.0479 20.1166 0.0000 -5.5118 0.0000
# 2 35.0479 78.1453 13.4174 0.0000 2.3660 0.0000
# 3 20.1166 13.4174 65.0245 0.0000 7.0128 0.0000
# 4 0.0000 0.0000 0.0000 25.0992 0.0000 1.7058
# 5 -5.5118 2.3660 7.0128 0.0000 30.5251 0.0000
# 6 0.0000 0.0000 0.0000 1.7058 0.0000 32.5541
#
#
#
# Elastic Compliance Matrix: (Units=1/GPa)
#
#
# Indices 1 2 3 4 5 6 
#
# 1 0.015023 -0.006208 -0.003806 0.000000 0.004068 0.000000
# 2 -0.006208 0.015837 -0.001122 0.000000 -0.002091 0.000000
# 3 -0.003806 -0.001122 0.017281 0.000000 -0.004570 0.000000
# 4 0.000000 0.000000 0.000000 0.039984 0.000000 -0.002095
# 5 0.004068 -0.002091 -0.004570 0.000000 0.034706 0.000000
# 6 0.000000 0.000000 0.000000 -0.002095 0.000000 0.030828
#
#
# Mechanical properties :
#
#
# Convention : Reuss Voigt Hill
#
# Bulk Modulus (GPa) = 38.65436 40.88530 39.76983
# Shear Modulus (GPa) = 27.09256 28.45049 27.77152
#
# Velocity S-wave (km/s) = 3.52271 3.60992 3.56658
# Velocity P-wave (km/s) = 5.85246 6.00853 5.93101
#
# Compressibility (1/GPa) = 0.02587030
#
# Stress axis : x y z
#
# Youngs Moduli (GPa) = 66.56403 63.14456 57.86859
#
# Poissons Ratio (x) = 0.39197 0.22022
# Poissons Ratio (y) = 0.41320 0.06492
# Poissons Ratio (z) = 0.25331 0.07084
#
# Static dielectric constant tensor:
#      x y z
#    x 1.778080 0.000000 -0.004490 
#    y 0.000000 1.883690 0.000000 
#    z -0.004490 0.000000 1.744180 
# 
# From -- ./inp_files/73654.got.cif
#   From: 2010.05.17/outbox.cif.g08.bks.cpg/sg14_37_cif.got.tgz:73654.got - 2010.06.03 17:49:19.
