data_PCOD9250511
_publ_section_title
;
Structure prediction by ZEFSAII (Michael W. Deem and Ramdas Pophale) SiO2 
 PCOD9250511
Probable space group: P 21/C
;
_chemical_formula_sum "Si O2"
_cell_formula_units_Z 26
_cell_length_a 24.266021
_cell_length_b 4.616144
_cell_length_c 8.631804
_cell_angle_alpha 90.000000
_cell_angle_beta 103.754018
_cell_angle_gamma 90.000000
_cell_volume 939.170046
_symmetry_space_group_name_H-M "P 21/C"
_symmetry_group_IT_number 14
_symmetry_cell_setting 'monoclinic'
loop_
_space_group_symop_operation_xyz
x,y,z
-x,1/2+y,1/2-z
-x,-y,-z
x,1/2-y,1/2+z
loop_
_atom_site_type_symbol
_atom_site_label
_atom_site_fract_x
_atom_site_fract_y
_atom_site_fract_z
Si Si1 0.262035 0.039003 0.337304
Si Si2 0.659778 0.048014 0.075881
Si Si3 0.413801 0.193621 0.703687
Si Si4 0.500000 0.500000 0.000000
Si Si5 0.037986 0.518148 0.806240
Si Si6 0.112921 0.211028 0.089389
Si Si7 0.188644 0.711854 0.056134
O O1 0.319052 0.872398 0.426423
O O2 0.239374 0.900632 0.163885
O O3 0.213287 0.955909 0.425728
O O4 0.282850 0.366117 0.348470
O O5 0.618303 0.006135 0.193657
O O6 0.629529 0.917669 0.905254
O O7 0.461505 0.355725 0.836019
O O8 0.446354 0.033216 0.587098
O O9 0.088940 0.447894 0.723407
O O10 0.017546 0.845243 0.789404
O O11 0.060667 0.387908 0.980874
O O12 0.161170 0.456034 0.141972
O O13 0.139752 0.954064 0.003128
#
# Coordination Sequence:
#
# PCOD9250511 Si02
#       7
#     4   4   4   2   4   4   4
#     4  12  24  43  67  98 134 177 225 279 344 412
#     4  11  24  43  69 100 138 181 231 286 348 420
#     4  10  24  43  69 104 142 187 237 294 356 424
#     4  10  24  44  68 102 144 188 240 296 360 428
#     4  12  24  42  64  91 126 168 216 270 332 400
#     4  12  24  42  64  94 128 168 218 272 334 402
#     4  12  24  41  65  94 130 171 219 276 338 406
#
# _framework density 27.68402
#
# number of rings (size 3 to 8) (size 9 to 14) (size 15 to 20)
#    0.000    0.615    0.000    8.308    0.000    7.385 
#    0.000    0.000    0.000    0.000    0.000    0.000 
#    0.000    0.000    0.000    0.000    0.000    0.000 
#
# Total GULP energy -145586.778750 kJ/mol
# GULP energy per Si atom -5599.491490 kJ/mol
# Density = 2.762101 g / cm^3
# Si number density = 27.684020 Si / 1000 Ang^3
#
#
#
# Elastic Constant Matrix: (Units=GPa)
#
#
# Indices 1 2 3 4 5 6 
#
# 1 143.2609 28.5021 26.5993 0.0000 9.2483 0.0000
# 2 28.5021 102.9898 8.6835 0.0000 6.8673 0.0000
# 3 26.5993 8.6835 55.2094 0.0000 -17.6334 0.0000
# 4 0.0000 0.0000 0.0000 34.4816 0.0000 8.1155
# 5 9.2483 6.8673 -17.6334 0.0000 49.6402 0.0000
# 6 0.0000 0.0000 0.0000 8.1155 0.0000 48.6408
#
#
#
# Elastic Compliance Matrix: (Units=1/GPa)
#
#
# Indices 1 2 3 4 5 6 
#
# 1 0.008397 -0.001724 -0.004735 0.000000 -0.003008 0.000000
# 2 -0.001724 0.010403 -0.001312 0.000000 -0.001584 0.000000
# 3 -0.004735 -0.001312 0.023620 0.000000 0.009454 0.000000
# 4 0.000000 0.000000 0.000000 0.030186 0.000000 -0.005036
# 5 -0.003008 -0.001584 0.009454 0.000000 0.024283 0.000000
# 6 0.000000 0.000000 0.000000 -0.005036 0.000000 0.021399
#
#
# Mechanical properties :
#
#
# Convention : Reuss Voigt Hill
#
# Bulk Modulus (GPa) = 37.20418 47.67001 42.43710
# Shear Modulus (GPa) = 35.01700 42.39753 38.70726
#
# Velocity S-wave (km/s) = 3.56038 3.91766 3.74328
# Velocity P-wave (km/s) = 5.51087 6.14172 5.83483
#
# Compressibility (1/GPa) = 0.02687870
#
# Stress axis : x y z
#
# Youngs Moduli (GPa) = 119.09658 96.12624 42.33735
#
# Poissons Ratio (x) = 0.16572 0.20046
# Poissons Ratio (y) = 0.20532 0.05553
# Poissons Ratio (z) = 0.56391 0.12607
#
# Static dielectric constant tensor:
#      x y z
#    x 2.095170 0.000000 0.016520 
#    y 0.000000 2.094400 0.000000 
#    z 0.016520 0.000000 2.113450 
# 
# From -- ./inp_files/19605.got.cif
#   From: 2010.05.17/outbox.cif.g08.bks.cpg/sg14_10_cif.got.tgz:19605.got - 2010.06.03 17:49:19.
