data_PCOD9250220
_publ_section_title
;
Structure prediction by ZEFSAII (Michael W. Deem and Ramdas Pophale) SiO2 
 PCOD9250220
Probable space group: P 21/C
;
_chemical_formula_sum "Si O2"
_cell_formula_units_Z 32
_cell_length_a 22.395775
_cell_length_b 9.184254
_cell_length_c 13.712179
_cell_angle_alpha 90.000000
_cell_angle_beta 30.259175
_cell_angle_gamma 90.000000
_cell_volume 1421.253067
_symmetry_space_group_name_H-M "P 21/C"
_symmetry_group_IT_number 14
_symmetry_cell_setting 'monoclinic'
loop_
_space_group_symop_operation_xyz
x,y,z
-x,1/2+y,1/2-z
-x,-y,-z
x,1/2-y,1/2+z
loop_
_atom_site_type_symbol
_atom_site_label
_atom_site_fract_x
_atom_site_fract_y
_atom_site_fract_z
Si Si1 0.753821 0.636942 0.044494
Si Si2 0.485685 0.885435 0.661510
Si Si3 0.872266 0.113886 0.742262
Si Si4 0.282863 0.547302 0.728209
Si Si5 0.960439 0.789667 0.653632
Si Si6 0.177085 0.695775 0.476770
Si Si7 0.685357 0.564373 0.737097
Si Si8 0.473603 0.547336 0.698807
O O1 0.789797 0.558498 0.095907
O O2 0.646248 0.538363 0.157958
O O3 0.706650 0.794183 0.143166
O O4 0.855382 0.675495 0.823067
O O5 0.397794 0.955665 0.707257
O O6 0.455878 0.719597 0.727499
O O7 0.484605 0.986433 0.756706
O O8 0.616784 0.890559 0.430493
O O9 0.778654 0.070767 0.789748
O O10 0.824570 0.196385 0.904100
O O11 0.971406 0.209369 0.546361
O O12 0.918693 0.958097 0.716069
O O13 0.415646 0.489008 0.528227
O O14 0.278379 0.702908 0.787192
O O15 0.056505 0.757829 0.601826
O O16 0.198195 0.531233 0.410573
#
# Coordination Sequence:
#
# PCOD9250220 Si02
#       8
#     4   4   4   4   4   4   4   4
#     4  12  25  44  71 108 146 193 248 304 371 440
#     4  11  26  44  71 104 147 191 245 301 370 447
#     4  10  23  50  76 102 145 201 244 305 386 436
#     4  11  26  44  78 104 149 195 247 313 376 451
#     4  10  25  43  75 106 140 194 246 305 366 449
#     4  11  24  46  75 107 142 193 251 307 374 440
#     4  11  24  45  71 101 147 195 240 310 359 444
#     4  12  26  46  71 112 146 195 245 306 378 452
#
# _framework density 22.515343000000001
#
# number of rings (size 3 to 8) (size 9 to 14) (size 15 to 20)
#    0.000    1.000    2.500    2.625   12.250    0.000 
#    2.250    0.625    0.000    0.000    0.000    0.000 
#    0.000    0.000    0.000    0.000    0.000    0.000 
#
# Total GULP energy -178963.897255 kJ/mol
# GULP energy per Si atom -5592.621789 kJ/mol
# Density = 2.246410 g / cm^3
# Si number density = 22.515343 Si / 1000 Ang^3
#
#
#
# Elastic Constant Matrix: (Units=GPa)
#
#
# Indices 1 2 3 4 5 6 
#
# 1 95.9446 60.3010 40.6283 0.0000 1.1516 0.0000
# 2 60.3010 150.6265 34.8389 0.0000 0.1381 0.0000
# 3 40.6283 34.8389 92.2083 0.0000 14.9491 0.0000
# 4 0.0000 0.0000 0.0000 40.6376 0.0000 3.7517
# 5 1.1516 0.1381 14.9491 0.0000 20.3640 0.0000
# 6 0.0000 0.0000 0.0000 3.7517 0.0000 41.3164
#
#
#
# Elastic Compliance Matrix: (Units=1/GPa)
#
#
# Indices 1 2 3 4 5 6 
#
# 1 0.015975 -0.005092 -0.005646 0.000000 0.003276 0.000000
# 2 -0.005092 0.008989 -0.001350 0.000000 0.001218 0.000000
# 3 -0.005646 -0.001350 0.015652 0.000000 -0.011162 0.000000
# 4 0.000000 0.000000 0.000000 0.024816 0.000000 -0.002253
# 5 0.003276 0.001218 -0.011162 0.000000 0.057107 0.000000
# 6 0.000000 0.000000 0.000000 -0.002253 0.000000 0.024408
#
#
# Mechanical properties :
#
#
# Convention : Reuss Voigt Hill
#
# Bulk Modulus (GPa) = 60.82846 67.81286 64.32066
# Shear Modulus (GPa) = 28.31230 33.99768 31.15499
#
# Velocity S-wave (km/s) = 3.54993 3.89006 3.72388
# Velocity P-wave (km/s) = 6.62403 7.09652 6.86434
#
# Compressibility (1/GPa) = 0.01643967
#
# Stress axis : x y z
#
# Youngs Moduli (GPa) = 62.59938 111.25091 63.88894
#
# Poissons Ratio (x) = 0.56653 0.36069
# Poissons Ratio (y) = 0.31878 0.08624
# Poissons Ratio (z) = 0.35341 0.15017
#
# Static dielectric constant tensor:
#      x y z
#    x 1.840000 0.000000 -0.017220 
#    y 0.000000 1.809780 0.000000 
#    z -0.017220 0.000000 1.913130 
# 
# From -- ./inp_files/51350.got.cif
#   From: 2010.05.17/outbox.cif.g08.bks.cpg/sg14_26_cif.got.tgz:51350.got - 2010.06.03 17:49:19.
