data_PCOD9250243
_publ_section_title
;
Structure prediction by ZEFSAII (Michael W. Deem and Ramdas Pophale) SiO2 
 PCOD9250243
Probable space group: P 21/C
;
_chemical_formula_sum "Si O2"
_cell_formula_units_Z 28
_cell_length_a 14.975295
_cell_length_b 8.641159
_cell_length_c 9.551676
_cell_angle_alpha 90.000000
_cell_angle_beta 73.013846
_cell_angle_gamma 90.000000
_cell_volume 1182.103093
_symmetry_space_group_name_H-M "P 21/C"
_symmetry_group_IT_number 14
_symmetry_cell_setting 'monoclinic'
loop_
_space_group_symop_operation_xyz
x,y,z
-x,1/2+y,1/2-z
-x,-y,-z
x,1/2-y,1/2+z
loop_
_atom_site_type_symbol
_atom_site_label
_atom_site_fract_x
_atom_site_fract_y
_atom_site_fract_z
Si Si1 0.630578 0.279375 0.883252
Si Si2 0.669135 0.915219 0.185587
Si Si3 0.687123 0.448058 0.122675
Si Si4 0.862574 0.975074 0.152443
Si Si5 0.875188 0.535475 0.948185
Si Si6 0.975384 0.256508 0.496094
Si Si7 0.588023 0.778596 0.495647
O O1 0.648116 0.419596 0.765380
O O2 0.652969 0.127311 0.782354
O O3 0.522331 0.285209 0.975362
O O4 0.688316 0.315786 0.998692
O O5 0.779094 0.912230 0.096531
O O6 0.638948 0.797426 0.323486
O O7 0.613011 0.873288 0.072690
O O8 0.622522 0.579715 0.080537
O O9 0.791292 0.517199 0.095761
O O10 0.824591 0.948974 0.324539
O O11 0.959154 0.881868 0.107016
O O12 0.891194 0.150133 0.105604
O O13 0.950802 0.667486 0.939815
O O14 0.933071 0.376182 0.919364
#
# Coordination Sequence:
#
# PCOD9250243 Si02
#       7
#     4   4   4   4   4   4   4
#     4  11  22  41  63  92 127 166 213 262 318 373
#     4  11  23  40  65  93 126 169 209 265 313 376
#     4  11  23  40  65  93 126 169 209 265 313 376
#     4  11  21  41  61  91 124 160 209 256 316 372
#     4  11  21  41  61  91 124 160 209 256 316 372
#     4  10  24  38  64  90 124 162 202 262 314 382
#     4  11  22  41  63  92 127 166 213 262 318 373
#
# _framework density 23.686598
#
# number of rings (size 3 to 8) (size 9 to 14) (size 15 to 20)
#    0.000    1.143    2.857    6.000    0.000    1.143 
#    0.000    2.857    0.000    0.000    0.000    0.000 
#    0.000    0.000    0.000    0.000    0.000    0.000 
#
# Total GULP energy -156513.281739 kJ/mol
# GULP energy per Si atom -5589.760062 kJ/mol
# Density = 2.363269 g / cm^3
# Si number density = 23.686598 Si / 1000 Ang^3
#
#
#
# Elastic Constant Matrix: (Units=GPa)
#
#
# Indices 1 2 3 4 5 6 
#
# 1 85.3145 0.1291 6.8241 0.0000 -17.8320 0.0000
# 2 0.1291 54.9631 22.4576 0.0000 1.7000 0.0000
# 3 6.8241 22.4576 70.8002 0.0000 -6.1252 0.0000
# 4 0.0000 0.0000 0.0000 32.8505 0.0000 -1.2589
# 5 -17.8320 1.7000 -6.1252 0.0000 36.5645 0.0000
# 6 0.0000 0.0000 0.0000 -1.2589 0.0000 32.5689
#
#
#
# Elastic Compliance Matrix: (Units=1/GPa)
#
#
# Indices 1 2 3 4 5 6 
#
# 1 0.013088 0.000081 -0.000746 0.000000 0.006254 0.000000
# 2 0.000081 0.021066 -0.006871 0.000000 -0.002091 0.000000
# 3 -0.000746 -0.006871 0.016612 0.000000 0.002739 0.000000
# 4 0.000000 0.000000 0.000000 0.030486 0.000000 0.001178
# 5 0.006254 -0.002091 0.002739 0.000000 0.030955 0.000000
# 6 0.000000 0.000000 0.000000 0.001178 0.000000 0.030750
#
#
# Mechanical properties :
#
#
# Convention : Reuss Voigt Hill
#
# Bulk Modulus (GPa) = 28.01571 29.98881 29.00226
# Shear Modulus (GPa) = 29.42434 32.50791 30.96613
#
# Velocity S-wave (km/s) = 3.52836 3.70864 3.61962
# Velocity P-wave (km/s) = 5.33408 5.57017 5.45340
#
# Compressibility (1/GPa) = 0.03569426
#
# Stress axis : x y z
#
# Youngs Moduli (GPa) = 76.40521 47.47021 60.19591
#
# Poissons Ratio (x) = -0.00383 0.04491
# Poissons Ratio (y) = -0.00616 0.41359
# Poissons Ratio (z) = 0.05700 0.32615
#
# Static dielectric constant tensor:
#      x y z
#    x 1.842780 0.000000 -0.003650 
#    y 0.000000 1.957450 0.000000 
#    z -0.003650 0.000000 1.904030 
# 
# From -- ./inp_files/31531.got.cif
#   From: 2010.05.17/outbox.cif.g08.bks.cpg/sg14_16_cif.got.tgz:31531.got - 2010.06.03 17:49:19.
