data_PCOD9250122
_publ_section_title
;
Structure prediction by ZEFSAII (Michael W. Deem and Ramdas Pophale) SiO2 
 PCOD9250122
Probable space group: P 21/C
;
_chemical_formula_sum "Si O2"
_cell_formula_units_Z 22
_cell_length_a 14.984116
_cell_length_b 9.074114
_cell_length_c 8.703452
_cell_angle_alpha 90.000000
_cell_angle_beta 138.564064
_cell_angle_gamma 90.000000
_cell_volume 783.144643
_symmetry_space_group_name_H-M "P 21/C"
_symmetry_group_IT_number 14
_symmetry_cell_setting 'monoclinic'
loop_
_space_group_symop_operation_xyz
x,y,z
-x,1/2+y,1/2-z
-x,-y,-z
x,1/2-y,1/2+z
loop_
_atom_site_type_symbol
_atom_site_label
_atom_site_fract_x
_atom_site_fract_y
_atom_site_fract_z
Si Si1 0.550841 0.506758 0.388286
Si Si2 0.107910 0.526585 0.500514
Si Si3 0.315346 0.810930 0.451272
Si Si4 0.160759 0.511190 0.979901
Si Si5 0.788918 0.796979 0.084006
Si Si6 0.000000 0.500000 0.000000
O O1 0.500000 0.500000 0.500000
O O2 0.607810 0.343193 0.430480
O O3 0.430885 0.564270 0.125097
O O4 0.661488 0.635291 0.505517
O O5 0.224276 0.639638 0.689658
O O6 0.187498 0.383569 0.546282
O O7 0.000000 0.500000 0.500000
O O8 0.000884 0.544012 0.218446
O O9 0.206277 0.851540 0.442261
O O10 0.227005 0.371077 0.988123
O O11 0.154389 0.554144 0.147966
O O12 0.926665 0.830348 0.354505
#
# Coordination Sequence:
#
# PCOD9250122 Si02
#       6
#     4   4   4   4   4   2
#     4  12  29  51  77 108 151 207 262 313 377 451
#     4   9  23  44  74 111 148 193 247 307 385 449
#     4  11  26  52  75 106 154 201 261 314 380 449
#     4  10  23  46  77 114 152 197 249 314 386 454
#     4  11  25  43  75 111 148 201 249 314 376 451
#     4  10  24  42  72 112 160 184 242 306 378 458
#
# _framework density 28.091871999999999
#
# number of rings (size 3 to 8) (size 9 to 14) (size 15 to 20)
#    0.000    1.455    0.000    2.182   10.182    8.000 
#    3.273    0.000    0.000    0.000    0.000    0.000 
#    0.000    0.000    0.000    0.000    0.000    0.000 
#
# Total GULP energy -122598.510477 kJ/mol
# GULP energy per Si atom -5572.659567 kJ/mol
# Density = 2.802793 g / cm^3
# Si number density = 28.091872 Si / 1000 Ang^3
#
#
#
# Elastic Constant Matrix: (Units=GPa)
#
#
# Indices 1 2 3 4 5 6 
#
# 1 205.8688 92.3138 23.4212 0.0000 -4.2147 0.0000
# 2 92.3138 217.8430 77.1243 0.0000 4.5269 0.0000
# 3 23.4212 77.1243 175.2858 0.0000 28.0193 0.0000
# 4 0.0000 0.0000 0.0000 38.1664 0.0000 6.3670
# 5 -4.2147 4.5269 28.0193 0.0000 37.8531 0.0000
# 6 0.0000 0.0000 0.0000 6.3670 0.0000 62.8976
#
#
#
# Elastic Compliance Matrix: (Units=1/GPa)
#
#
# Indices 1 2 3 4 5 6 
#
# 1 0.006040 -0.002659 0.000232 0.000000 0.000819 0.000000
# 2 -0.002659 0.006662 -0.002724 0.000000 0.000923 0.000000
# 3 0.000232 -0.002724 0.007731 0.000000 -0.005371 0.000000
# 4 0.000000 0.000000 0.000000 0.026651 0.000000 -0.002698
# 5 0.000819 0.000923 -0.005371 0.000000 0.030374 0.000000
# 6 0.000000 0.000000 0.000000 -0.002698 0.000000 0.016172
#
#
# Mechanical properties :
#
#
# Convention : Reuss Voigt Hill
#
# Bulk Modulus (GPa) = 98.69520 109.41291 104.05406
# Shear Modulus (GPa) = 46.59450 54.85930 50.72690
#
# Velocity S-wave (km/s) = 4.07707 4.42390 4.25402
# Velocity P-wave (km/s) = 7.57447 8.07015 7.82624
#
# Compressibility (1/GPa) = 0.01013220
#
# Stress axis : x y z
#
# Youngs Moduli (GPa) = 165.56273 150.10110 129.35064
#
# Poissons Ratio (x) = 0.39906 -0.02999
# Poissons Ratio (y) = 0.44017 0.35231
# Poissons Ratio (z) = -0.03838 0.40882
#
# Static dielectric constant tensor:
#      x y z
#    x 2.473640 0.000000 -0.274500 
#    y 0.000000 2.393680 0.000000 
#    z -0.274500 0.000000 2.688330 
# 
# From -- ./inp_files/31425.got.cif
#   From: 2010.05.17/outbox.cif.g08.bks.cpg/sg14_16_cif.got.tgz:31425.got - 2010.06.03 17:49:19.
