data_PCOD9250830
_publ_section_title
;
Structure prediction by ZEFSAII (Michael W. Deem and Ramdas Pophale) SiO2 
 PCOD9250830
Probable space group: P 21/C
;
_chemical_formula_sum "Si O2"
_cell_formula_units_Z 32
_cell_length_a 11.505944
_cell_length_b 8.347349
_cell_length_c 29.200651
_cell_angle_alpha 90.000000
_cell_angle_beta 28.603402
_cell_angle_gamma 90.000000
_cell_volume 1342.661991
_symmetry_space_group_name_H-M "P 21/C"
_symmetry_group_IT_number 14
_symmetry_cell_setting 'monoclinic'
loop_
_space_group_symop_operation_xyz
x,y,z
-x,1/2+y,1/2-z
-x,-y,-z
x,1/2-y,1/2+z
loop_
_atom_site_type_symbol
_atom_site_label
_atom_site_fract_x
_atom_site_fract_y
_atom_site_fract_z
Si Si1 0.085164 0.730101 0.826774
Si Si2 0.660986 0.083289 0.333104
Si Si3 0.185414 0.148353 0.436647
Si Si4 0.846920 0.389500 0.606258
Si Si5 0.531499 0.254825 0.065290
Si Si6 0.086514 0.234093 0.876894
Si Si7 0.378071 0.414947 0.705469
Si Si8 0.528606 0.679168 0.011419
O O1 0.123831 0.866183 0.774918
O O2 0.204018 0.769448 0.834384
O O3 0.216042 0.572241 0.763201
O O4 0.803090 0.699862 0.932976
O O5 0.422371 0.111316 0.384116
O O6 0.643504 0.191142 0.385074
O O7 0.636984 0.904030 0.360996
O O8 0.236269 0.183240 0.365972
O O9 0.047305 0.302106 0.505608
O O10 0.000000 0.000000 0.500000
O O11 0.931048 0.548965 0.603341
O O12 0.615845 0.425708 0.654930
O O13 0.465088 0.119715 0.124353
O O14 0.507794 0.211301 0.020357
O O15 0.813996 0.302733 0.972946
O O16 0.216987 0.273703 0.784251
O O17 0.500000 0.500000 0.000000
#
# Coordination Sequence:
#
# PCOD9250830 Si02
#       8
#     4   4   4   4   4   4   4   4
#     4  12  26  43  72 100 136 181 228 285 348 406
#     4  11  22  44  69  97 136 177 224 285 340 415
#     4  12  21  39  71  99 137 178 218 274 354 413
#     4  12  24  41  67 101 140 174 226 274 350 425
#     4  11  25  44  67  97 132 179 231 280 343 402
#     4  12  25  42  67  98 141 178 220 286 345 415
#     4  12  24  43  66 101 138 175 225 285 346 416
#     4  10  24  47  70  96 132 182 235 281 339 403
#
# _framework density 23.83325
#
# number of rings (size 3 to 8) (size 9 to 14) (size 15 to 20)
#    0.000    0.500    3.750    5.625    1.750    3.000 
#    0.000    2.500    0.000    0.000    0.000    0.000 
#    0.000    0.000    0.000    0.000    0.000    0.000 
#
# Total GULP energy -179201.097342 kJ/mol
# GULP energy per Si atom -5600.034292 kJ/mol
# Density = 2.377900 g / cm^3
# Si number density = 23.833250 Si / 1000 Ang^3
#
#
#
# Elastic Constant Matrix: (Units=GPa)
#
#
# Indices 1 2 3 4 5 6 
#
# 1 84.1161 -1.0302 2.1105 0.0000 34.7760 0.0000
# 2 -1.0302 47.8667 -0.6265 0.0000 -3.8764 0.0000
# 3 2.1105 -0.6265 61.3330 0.0000 18.9336 0.0000
# 4 0.0000 0.0000 0.0000 23.9723 0.0000 1.9524
# 5 34.7760 -3.8764 18.9336 0.0000 35.4720 0.0000
# 6 0.0000 0.0000 0.0000 1.9524 0.0000 16.3775
#
#
#
# Elastic Compliance Matrix: (Units=1/GPa)
#
#
# Indices 1 2 3 4 5 6 
#
# 1 0.022463 -0.001532 0.007257 0.000000 -0.026063 0.000000
# 2 -0.001532 0.021200 -0.001089 0.000000 0.004400 0.000000
# 3 0.007257 -0.001089 0.021882 0.000000 -0.018914 0.000000
# 4 0.000000 0.000000 0.000000 0.042124 0.000000 -0.005022
# 5 -0.026063 0.004400 -0.018914 0.000000 0.064319 0.000000
# 6 0.000000 0.000000 0.000000 -0.005022 0.000000 0.061658
#
#
# Mechanical properties :
#
#
# Convention : Reuss Voigt Hill
#
# Bulk Modulus (GPa) = 13.36595 21.58036 17.47316
# Shear Modulus (GPa) = 20.05504 28.02181 24.03843
#
# Velocity S-wave (km/s) = 2.90396 3.43263 3.17931
# Velocity P-wave (km/s) = 4.10661 4.97845 4.56340
#
# Compressibility (1/GPa) = 0.07481696
#
# Stress axis : x y z
#
# Youngs Moduli (GPa) = 44.51831 47.16874 45.69909
#
# Poissons Ratio (x) = 0.07227 -0.33164
# Poissons Ratio (y) = 0.06821 0.04977
# Poissons Ratio (z) = -0.32307 0.05137
#
# Static dielectric constant tensor:
#      x y z
#    x 1.900860 0.000000 0.007660 
#    y 0.000000 1.968690 0.000000 
#    z 0.007660 0.000000 1.881250 
# 
# From -- ./inp_files/79999.got.cif
#   From: 2010.05.17/outbox.cif.g08.bks.cpg/sg14_40_cif.got.tgz:79999.got - 2010.06.03 17:49:19.
