data_PCOD9250176
_publ_section_title
;
Structure prediction by ZEFSAII (Michael W. Deem and Ramdas Pophale) SiO2 
 PCOD9250176
Probable space group: P 21/C
;
_chemical_formula_sum "Si O2"
_cell_formula_units_Z 32
_cell_length_a 12.245401
_cell_length_b 8.819315
_cell_length_c 11.037023
_cell_angle_alpha 90.000000
_cell_angle_beta 82.500742
_cell_angle_gamma 90.000000
_cell_volume 1181.759549
_symmetry_space_group_name_H-M "P 21/C"
_symmetry_group_IT_number 14
_symmetry_cell_setting 'monoclinic'
loop_
_space_group_symop_operation_xyz
x,y,z
-x,1/2+y,1/2-z
-x,-y,-z
x,1/2-y,1/2+z
loop_
_atom_site_type_symbol
_atom_site_label
_atom_site_fract_x
_atom_site_fract_y
_atom_site_fract_z
Si Si1 0.356782 0.945702 0.769876
Si Si2 0.281984 0.383341 0.650368
Si Si3 0.804871 0.083659 0.010214
Si Si4 0.230786 0.584882 0.049764
Si Si5 0.335839 0.184432 0.413289
Si Si6 0.991108 0.232025 0.615219
Si Si7 0.029734 0.390717 0.861209
Si Si8 0.548582 0.356952 0.305434
O O1 0.286299 0.997241 0.894533
O O2 0.281624 0.962710 0.667384
O O3 0.382111 0.767297 0.775769
O O4 0.465818 0.042377 0.739085
O O5 0.179106 0.480358 0.609726
O O6 0.296985 0.259472 0.544775
O O7 0.285587 0.305634 0.782387
O O8 0.378542 0.512784 0.640895
O O9 0.906878 0.138712 0.077850
O O10 0.751058 0.238759 0.973881
O O11 0.100139 0.580738 0.094231
O O12 0.297099 0.488725 0.942165
O O13 0.461943 0.247642 0.389826
O O14 0.036097 0.286344 0.739994
O O15 0.063712 0.197520 0.481476
O O16 0.931304 0.067334 0.648443
#
# Coordination Sequence:
#
# PCOD9250176 Si02
#       8
#     4   4   4   4   4   4   4   4
#     4  12  24  44  66 107 145 203 253 308 366 432
#     4  12  26  48  69 105 146 200 254 311 371 433
#     4  11  24  43  74 102 146 193 252 300 375 444
#     4  11  25  43  74 103 148 195 249 305 369 444
#     4  12  27  46  69 105 148 196 253 314 363 434
#     4  10  23  47  80 112 153 190 242 310 375 456
#     4  10  23  48  78 119 151 194 245 304 381 457
#     4  12  25  43  69 100 151 200 259 309 367 430
#
# _framework density 27.078264000000001
#
# number of rings (size 3 to 8) (size 9 to 14) (size 15 to 20)
#    0.000    0.750    5.000    1.875    0.000    2.000 
#    2.250   15.000    0.000    0.000    0.000    0.000 
#    0.000    0.000    0.000    0.000    0.000    0.000 
#
# Total GULP energy -178656.710432 kJ/mol
# GULP energy per Si atom -5583.022201 kJ/mol
# Density = 2.701663 g / cm^3
# Si number density = 27.078264 Si / 1000 Ang^3
#
#
#
# Elastic Constant Matrix: (Units=GPa)
#
#
# Indices 1 2 3 4 5 6 
#
# 1 55.3486 8.7638 31.3068 0.0000 -7.2518 0.0000
# 2 8.7638 123.0808 55.9388 0.0000 -19.6296 0.0000
# 3 31.3068 55.9388 198.4732 0.0000 -3.0889 0.0000
# 4 0.0000 0.0000 0.0000 67.2186 0.0000 14.0872
# 5 -7.2518 -19.6296 -3.0889 0.0000 21.3799 0.0000
# 6 0.0000 0.0000 0.0000 14.0872 0.0000 34.7426
#
#
#
# Elastic Compliance Matrix: (Units=1/GPa)
#
#
# Indices 1 2 3 4 5 6 
#
# 1 0.020891 0.001382 -0.003563 0.000000 0.007840 0.000000
# 2 0.001382 0.011102 -0.003188 0.000000 0.010202 0.000000
# 3 -0.003563 -0.003188 0.006449 0.000000 -0.003204 0.000000
# 4 0.000000 0.000000 0.000000 0.016258 0.000000 -0.006592
# 5 0.007840 0.010202 -0.003204 0.000000 0.058336 0.000000
# 6 0.000000 0.000000 0.000000 -0.006592 0.000000 0.031456
#
#
# Mechanical properties :
#
#
# Convention : Reuss Voigt Hill
#
# Bulk Modulus (GPa) = 36.09527 63.21348 49.65437
# Shear Modulus (GPa) = 30.40139 43.39443 36.89791
#
# Velocity S-wave (km/s) = 3.35434 4.00754 3.69540
# Velocity P-wave (km/s) = 5.32551 6.69397 6.04856
#
# Compressibility (1/GPa) = 0.02770446
#
# Stress axis : x y z
#
# Youngs Moduli (GPa) = 47.86761 90.07014 155.05707
#
# Poissons Ratio (x) = -0.12449 0.55244
# Poissons Ratio (y) = -0.06616 0.49439
# Poissons Ratio (z) = 0.17054 0.28718
#
# Static dielectric constant tensor:
#      x y z
#    x 2.195880 0.000000 -0.032710 
#    y 0.000000 2.216650 0.000000 
#    z -0.032710 0.000000 2.087470 
# 
# From -- ./inp_files/31844.got.cif
#   From: 2010.05.17/outbox.cif.g08.bks.cpg/sg14_16_cif.got.tgz:31844.got - 2010.06.03 17:49:19.
