data_PCOD9250888
_publ_section_title
;
Structure prediction by ZEFSAII (Michael W. Deem and Ramdas Pophale) SiO2 
 PCOD9250888
Probable space group: P 21/C
;
_chemical_formula_sum "Si O2"
_cell_formula_units_Z 18
_cell_length_a 7.294385
_cell_length_b 10.342693
_cell_length_c 8.751580
_cell_angle_alpha 90.000000
_cell_angle_beta 73.000913
_cell_angle_gamma 90.000000
_cell_volume 631.403833
_symmetry_space_group_name_H-M "P 21/C"
_symmetry_group_IT_number 14
_symmetry_cell_setting 'monoclinic'
loop_
_space_group_symop_operation_xyz
x,y,z
-x,1/2+y,1/2-z
-x,-y,-z
x,1/2-y,1/2+z
loop_
_atom_site_type_symbol
_atom_site_label
_atom_site_fract_x
_atom_site_fract_y
_atom_site_fract_z
Si Si1 0.223989 0.979475 0.987049
Si Si2 0.402836 0.417842 0.159713
Si Si3 0.000000 0.500000 0.000000
Si Si4 0.888055 0.701965 0.290663
Si Si5 0.270063 0.811253 0.265243
O O1 0.361200 0.987081 0.809410
O O2 0.251588 0.111638 0.078092
O O3 0.266545 0.863214 0.092383
O O4 0.000000 0.000000 0.000000
O O5 0.196346 0.349212 0.176324
O O6 0.524115 0.302051 0.207934
O O7 0.500000 0.500000 0.000000
O O8 0.072736 0.366125 0.880557
O O9 0.181094 0.575701 0.889779
O O10 0.103750 0.706061 0.306666
#
# Coordination Sequence:
#
# PCOD9250888 Si02
#       5
#     4   4   2   4   4
#     4  11  25  52  76 111 167 211 270 340 410 499
#     4  12  27  49  81 123 161 211 278 344 419 510
#     4  10  24  48  78 120 160 222 282 346 416 504
#     4  11  25  50  81 113 168 214 274 345 424 495
#     4  11  24  46  79 113 162 215 271 339 420 492
#
# _framework density 28.507904
#
# number of rings (size 3 to 8) (size 9 to 14) (size 15 to 20)
#    0.000    0.889    2.222    3.333    3.111    3.556 
#    8.000    1.111    0.000    0.000    0.000    0.000 
#    0.000    0.000    0.000    0.000    0.000    0.000 
#
# Total GULP energy -100284.843947 kJ/mol
# GULP energy per Si atom -5571.380219 kJ/mol
# Density = 2.844302 g / cm^3
# Si number density = 28.507904 Si / 1000 Ang^3
#
#
#
# Elastic Constant Matrix: (Units=GPa)
#
#
# Indices 1 2 3 4 5 6 
#
# 1 137.4421 18.6309 51.3972 0.0000 22.6903 0.0000
# 2 18.6309 110.8727 47.0800 0.0000 -12.7741 0.0000
# 3 51.3972 47.0800 232.8862 0.0000 -46.2152 0.0000
# 4 0.0000 0.0000 0.0000 46.3672 0.0000 -15.9982
# 5 22.6903 -12.7741 -46.2152 0.0000 47.7084 0.0000
# 6 0.0000 0.0000 0.0000 -15.9982 0.0000 46.9545
#
#
#
# Elastic Compliance Matrix: (Units=1/GPa)
#
#
# Indices 1 2 3 4 5 6 
#
# 1 0.010331 -0.001142 -0.003819 0.000000 -0.008919 0.000000
# 2 -0.001142 0.010022 -0.001404 0.000000 0.001867 0.000000
# 3 -0.003819 -0.001404 0.007064 0.000000 0.008284 0.000000
# 4 0.000000 0.000000 0.000000 0.024440 0.000000 0.008327
# 5 -0.008919 0.001867 0.008284 0.000000 0.033727 0.000000
# 6 0.000000 0.000000 0.000000 0.008327 0.000000 0.024134
#
#
# Mechanical properties :
#
#
# Convention : Reuss Voigt Hill
#
# Bulk Modulus (GPa) = 68.07937 79.49080 73.78508
# Shear Modulus (GPa) = 39.26340 52.47887 45.87114
#
# Velocity S-wave (km/s) = 3.71520 4.29517 4.01567
# Velocity P-wave (km/s) = 6.50664 7.24861 6.88762
#
# Compressibility (1/GPa) = 0.01468874
#
# Stress axis : x y z
#
# Youngs Moduli (GPa) = 96.79432 99.77696 141.55344
#
# Poissons Ratio (x) = 0.11393 0.54061
# Poissons Ratio (y) = 0.11053 0.19869
# Poissons Ratio (z) = 0.36967 0.14005
#
# Static dielectric constant tensor:
#      x y z
#    x 2.097940 0.000000 0.072080 
#    y 0.000000 2.296490 0.000000 
#    z 0.072080 0.000000 2.254150 
# 
# From -- ./inp_files/7622.got.cif
#   From: 2010.05.17/outbox.cif.g08.bks.cpg/sg14_4_cif.got.tgz:7622.got - 2010.06.03 17:49:19.
