data_PCOD9250045
_publ_section_title
;
Structure prediction by ZEFSAII (Michael W. Deem and Ramdas Pophale) SiO2 
 PCOD9250045
Probable space group: P 21/C
;
_chemical_formula_sum "Si O2"
_cell_formula_units_Z 32
_cell_length_a 21.086064
_cell_length_b 7.994197
_cell_length_c 11.314987
_cell_angle_alpha 90.000000
_cell_angle_beta 129.495204
_cell_angle_gamma 90.000000
_cell_volume 1471.839473
_symmetry_space_group_name_H-M "P 21/C"
_symmetry_group_IT_number 14
_symmetry_cell_setting 'monoclinic'
loop_
_space_group_symop_operation_xyz
x,y,z
-x,1/2+y,1/2-z
-x,-y,-z
x,1/2-y,1/2+z
loop_
_atom_site_type_symbol
_atom_site_label
_atom_site_fract_x
_atom_site_fract_y
_atom_site_fract_z
Si Si1 0.431498 0.896770 0.771173
Si Si2 0.134398 0.360496 0.698953
Si Si3 0.872176 0.506855 0.556910
Si Si4 0.758109 0.131475 0.094471
Si Si5 0.000938 0.744278 0.818565
Si Si6 0.127828 0.994216 0.582279
Si Si7 0.255446 0.495575 0.021865
Si Si8 0.580291 0.348047 0.471853
O O1 0.351270 0.018117 0.666971
O O2 0.433835 0.786806 0.652269
O O3 0.512996 0.007957 0.875232
O O4 0.423344 0.801819 0.890573
O O5 0.142677 0.482942 0.598927
O O6 0.121012 0.170805 0.639673
O O7 0.215695 0.381575 0.873287
O O8 0.049553 0.386411 0.669562
O O9 0.788332 0.496763 0.529882
O O10 0.924130 0.341957 0.651724
O O11 0.930001 0.662853 0.656305
O O12 0.750769 0.312736 0.028451
O O13 0.828731 0.130438 0.275654
O O14 0.672389 0.088140 0.054364
O O15 0.044838 0.592252 0.939457
O O16 0.193086 0.023063 0.555862
#
# Coordination Sequence:
#
# PCOD9250045 Si02
#       8
#     4   4   4   4   4   4   4   4
#     4  10  23  45  74 106 141 180 228 281 350 413
#     4  12  26  41  63  95 136 171 232 285 344 399
#     4  12  25  42  63  95 126 183 225 284 338 406
#     4  11  24  43  69  92 132 179 223 273 342 403
#     4  12  25  41  64  91 134 176 232 282 340 398
#     4  12  24  43  64  95 131 176 222 285 332 403
#     4  11  24  45  68  96 132 176 222 276 337 410
#     4  10  23  46  73 106 142 180 227 285 344 423
#
# _framework density 21.741499999999998
#
# number of rings (size 3 to 8) (size 9 to 14) (size 15 to 20)
#    0.000    0.750    3.750    3.750    1.750    2.500 
#    0.000    0.000    0.000    0.000    0.000    0.000 
#    0.000    0.000    0.000    0.000    0.000    0.000 
#
# Total GULP energy -178710.431553 kJ/mol
# GULP energy per Si atom -5584.700986 kJ/mol
# Density = 2.169202 g / cm^3
# Si number density = 21.741500 Si / 1000 Ang^3
#
#
#
# Elastic Constant Matrix: (Units=GPa)
#
#
# Indices 1 2 3 4 5 6 
#
# 1 125.8924 27.4414 38.6776 0.0000 -5.4164 0.0000
# 2 27.4414 36.5409 21.4706 0.0000 3.4217 0.0000
# 3 38.6776 21.4706 99.9480 0.0000 -9.2880 0.0000
# 4 0.0000 0.0000 0.0000 40.7868 0.0000 -4.9187
# 5 -5.4164 3.4217 -9.2880 0.0000 28.0013 0.0000
# 6 0.0000 0.0000 0.0000 -4.9187 0.0000 23.0246
#
#
#
# Elastic Compliance Matrix: (Units=1/GPa)
#
#
# Indices 1 2 3 4 5 6 
#
# 1 0.010154 -0.006418 -0.002368 0.000000 0.001963 0.000000
# 2 -0.006418 0.036474 -0.006068 0.000000 -0.007711 0.000000
# 3 -0.002368 -0.006068 0.012641 0.000000 0.004477 0.000000
# 4 0.000000 0.000000 0.000000 0.025166 0.000000 0.005376
# 5 0.001963 -0.007711 0.004477 0.000000 0.038519 0.000000
# 6 0.000000 0.000000 0.000000 0.005376 0.000000 0.044580
#
#
# Mechanical properties :
#
#
# Convention : Reuss Voigt Hill
#
# Bulk Modulus (GPa) = 33.82901 48.61785 41.22343
# Shear Modulus (GPa) = 24.14318 30.01533 27.07925
#
# Velocity S-wave (km/s) = 3.33598 3.71961 3.53301
# Velocity P-wave (km/s) = 5.51650 6.39200 5.97032
#
# Compressibility (1/GPa) = 0.02956043
#
# Stress axis : x y z
#
# Youngs Moduli (GPa) = 98.48039 27.41688 79.10585
#
# Poissons Ratio (x) = 0.17596 0.18736
# Poissons Ratio (y) = 0.63203 0.48004
# Poissons Ratio (z) = 0.23324 0.16637
#
# Static dielectric constant tensor:
#      x y z
#    x 1.825890 0.000000 -0.064480 
#    y 0.000000 1.803230 0.000000 
#    z -0.064480 0.000000 1.825060 
# 
# From -- ./inp_files/34978.got.cif
#   From: 2010.05.17/outbox.cif.g08.bks.cpg/sg14_18_cif.got.tgz:34978.got - 2010.06.03 17:49:19.
