data_PCOD9250590
_publ_section_title
;
Structure prediction by ZEFSAII (Michael W. Deem and Ramdas Pophale) SiO2 
 PCOD9250590
Probable space group: P 21/C
;
_chemical_formula_sum "Si O2"
_cell_formula_units_Z 26
_cell_length_a 15.762349
_cell_length_b 11.680179
_cell_length_c 15.159586
_cell_angle_alpha 90.000000
_cell_angle_beta 161.713279
_cell_angle_gamma 90.000000
_cell_volume 875.734637
_symmetry_space_group_name_H-M "P 21/C"
_symmetry_group_IT_number 14
_symmetry_cell_setting 'monoclinic'
loop_
_space_group_symop_operation_xyz
x,y,z
-x,1/2+y,1/2-z
-x,-y,-z
x,1/2-y,1/2+z
loop_
_atom_site_type_symbol
_atom_site_label
_atom_site_fract_x
_atom_site_fract_y
_atom_site_fract_z
Si Si1 0.007836 0.706793 0.768771
Si Si2 0.998655 0.660406 0.420280
Si Si3 0.230478 0.372986 0.223790
Si Si4 0.365282 0.495008 0.668407
Si Si5 0.367680 0.544479 0.230711
Si Si6 0.666808 0.304471 0.084043
Si Si7 0.500000 0.500000 0.000000
O O1 0.844495 0.780704 0.677350
O O2 0.826576 0.598941 0.563359
O O3 0.253080 0.655203 0.068794
O O4 0.136826 0.736512 0.800079
O O5 0.004164 0.784977 0.482963
O O6 0.192465 0.591070 0.541180
O O7 0.744218 0.587304 0.210180
O O8 0.160999 0.472496 0.086042
O O9 0.390683 0.425639 0.464644
O O10 0.454179 0.292679 0.395614
O O11 0.551343 0.533165 0.772742
O O12 0.509945 0.425261 0.891928
O O13 0.748453 0.382309 0.249793
#
# Coordination Sequence:
#
# PCOD9250590 Si02
#       7
#     4   4   4   4   4   4   2
#     4  12  25  46  72 105 145 186 247 294 365 435
#     4  11  26  44  71 107 140 186 247 296 359 434
#     4  11  25  45  74 102 145 188 237 302 365 421
#     4  11  25  47  72 107 144 190 244 303 359 440
#     4  11  24  47  72 105 145 190 237 302 363 429
#     4  11  25  43  69 103 141 186 239 301 354 436
#     4  10  24  44  68 100 144 188 236 296 368 418
#
# _framework density 29.689359
#
# number of rings (size 3 to 8) (size 9 to 14) (size 15 to 20)
#    0.000    0.923    4.615    0.923    4.308    4.308 
#    2.769    0.000    0.000    0.000    0.000    0.000 
#    0.000    0.000    0.000    0.000    0.000    0.000 
#
# Total GULP energy -145365.746889 kJ/mol
# GULP energy per Si atom -5590.990265 kJ/mol
# Density = 2.962178 g / cm^3
# Si number density = 29.689359 Si / 1000 Ang^3
#
#
#
# Elastic Constant Matrix: (Units=GPa)
#
#
# Indices 1 2 3 4 5 6 
#
# 1 265.3191 53.1301 43.3493 0.0000 18.5688 0.0000
# 2 53.1301 128.4526 28.9418 0.0000 -8.7436 0.0000
# 3 43.3493 28.9418 134.5043 0.0000 -1.2522 0.0000
# 4 0.0000 0.0000 0.0000 31.9602 0.0000 4.1710
# 5 18.5688 -8.7436 -1.2522 0.0000 51.8819 0.0000
# 6 0.0000 0.0000 0.0000 4.1710 0.0000 65.8623
#
#
#
# Elastic Compliance Matrix: (Units=1/GPa)
#
#
# Indices 1 2 3 4 5 6 
#
# 1 0.004421 -0.001716 -0.001073 0.000000 -0.001897 0.000000
# 2 -0.001716 0.008941 -0.001351 0.000000 0.002088 0.000000
# 3 -0.001073 -0.001351 0.008075 0.000000 0.000351 0.000000
# 4 0.000000 0.000000 0.000000 0.031550 0.000000 -0.001998
# 5 -0.001897 0.002088 0.000351 0.000000 0.020314 0.000000
# 6 0.000000 0.000000 0.000000 -0.001998 0.000000 0.015310
#
#
# Mechanical properties :
#
#
# Convention : Reuss Voigt Hill
#
# Bulk Modulus (GPa) = 76.01301 86.56871 81.29086
# Shear Modulus (GPa) = 49.36979 56.79789 53.08384
#
# Velocity S-wave (km/s) = 4.08226 4.37861 4.23303
# Velocity P-wave (km/s) = 6.91941 7.40165 7.16459
#
# Compressibility (1/GPa) = 0.01315564
#
# Stress axis : x y z
#
# Youngs Moduli (GPa) = 226.20457 111.84021 123.84406
#
# Poissons Ratio (x) = 0.19190 0.13291
# Poissons Ratio (y) = 0.38813 0.16737
# Poissons Ratio (z) = 0.24277 0.15115
#
# Static dielectric constant tensor:
#      x y z
#    x 3.818370 0.000000 -0.929190 
#    y 0.000000 2.771270 0.000000 
#    z -0.929190 0.000000 3.057170 
# 
# From -- ./inp_files/60646.got.cif
#   From: 2010.05.17/outbox.cif.g08.bks.cpg/sg14_31_cif.got.tgz:60646.got - 2010.06.03 17:49:19.
