data_PCOD9250711
_publ_section_title
;
Structure prediction by ZEFSAII (Michael W. Deem and Ramdas Pophale) SiO2 
 PCOD9250711
Probable space group: P 21/C
;
_chemical_formula_sum "Si O2"
_cell_formula_units_Z 24
_cell_length_a 10.500781
_cell_length_b 7.443225
_cell_length_c 12.049935
_cell_angle_alpha 90.000000
_cell_angle_beta 70.307005
_cell_angle_gamma 90.000000
_cell_volume 886.733667
_symmetry_space_group_name_H-M "P 21/C"
_symmetry_group_IT_number 14
_symmetry_cell_setting 'monoclinic'
loop_
_space_group_symop_operation_xyz
x,y,z
-x,1/2+y,1/2-z
-x,-y,-z
x,1/2-y,1/2+z
loop_
_atom_site_type_symbol
_atom_site_label
_atom_site_fract_x
_atom_site_fract_y
_atom_site_fract_z
Si Si1 0.659164 0.545511 0.479049
Si Si2 0.375894 0.186037 0.693081
Si Si3 0.198489 0.015267 0.370636
Si Si4 0.913574 0.958247 0.371749
Si Si5 0.958702 0.537016 0.385818
Si Si6 0.346647 0.838015 0.797924
O O1 0.500000 0.500000 0.500000
O O2 0.657251 0.737026 0.419077
O O3 0.807300 0.463053 0.398294
O O4 0.673828 0.492745 0.602962
O O5 0.289305 0.325155 0.795657
O O6 0.366416 0.970257 0.689616
O O7 0.524678 0.228732 0.695644
O O8 0.196715 0.988946 0.504146
O O9 0.240087 0.819032 0.314247
O O10 0.047626 0.061803 0.375349
O O11 0.939170 0.749213 0.384499
O O12 0.000000 0.500000 0.500000
O O13 0.074743 0.482585 0.264100
#
# Coordination Sequence:
#
# PCOD9250711 Si02
#       6
#     4   4   4   4   4   4
#     4  10  24  45  72 106 154 197 256 331 389 458
#     4  11  22  45  73 109 153 199 255 328 391 476
#     4  11  24  47  74 112 157 202 264 320 399 468
#     4  11  28  45  75 112 158 205 262 330 388 474
#     4  12  27  49  80 114 158 215 269 322 403 481
#     4  11  23  43  78 111 149 204 258 323 403 471
#
# _framework density 27.065625000000001
#
# number of rings (size 3 to 8) (size 9 to 14) (size 15 to 20)
#    0.000    1.000    3.333    2.000    7.000    2.667 
#    0.000    3.333    0.000    0.000    0.000    0.000 
#    0.000    0.000    0.000    0.000    0.000    0.000 
#
# Total GULP energy -133957.813673 kJ/mol
# GULP energy per Si atom -5581.575570 kJ/mol
# Density = 2.700402 g / cm^3
# Si number density = 27.065625 Si / 1000 Ang^3
#
#
#
# Elastic Constant Matrix: (Units=GPa)
#
#
# Indices 1 2 3 4 5 6 
#
# 1 141.2200 8.6764 21.5488 0.0000 -2.4099 0.0000
# 2 8.6764 156.9689 42.4093 0.0000 11.1545 0.0000
# 3 21.5488 42.4093 94.4805 0.0000 22.2136 0.0000
# 4 0.0000 0.0000 0.0000 7.6455 0.0000 10.7351
# 5 -2.4099 11.1545 22.2136 0.0000 39.4637 0.0000
# 6 0.0000 0.0000 0.0000 10.7351 0.0000 33.0744
#
#
#
# Elastic Compliance Matrix: (Units=1/GPa)
#
#
# Indices 1 2 3 4 5 6 
#
# 1 0.007426 0.000040 -0.002092 0.000000 0.001620 0.000000
# 2 0.000040 0.007252 -0.003207 0.000000 -0.000242 0.000000
# 3 -0.002092 -0.003207 0.014197 0.000000 -0.007212 0.000000
# 4 0.000000 0.000000 0.000000 0.240315 0.000000 -0.078000
# 5 0.001620 -0.000242 -0.007212 0.000000 0.029567 0.000000
# 6 0.000000 0.000000 0.000000 -0.078000 0.000000 0.055552
#
#
# Mechanical properties :
#
#
# Convention : Reuss Voigt Hill
#
# Bulk Modulus (GPa) = 54.48219 59.77093 57.12656
# Shear Modulus (GPa) = 13.47901 37.37238 25.42570
#
# Velocity S-wave (km/s) = 2.23404 3.71995 3.06830
# Velocity P-wave (km/s) = 5.17957 6.37043 5.80561
#
# Compressibility (1/GPa) = 0.01835462
#
# Stress axis : x y z
#
# Youngs Moduli (GPa) = 134.66887 137.88774 70.43804
#
# Poissons Ratio (x) = -0.00548 0.14738
# Poissons Ratio (y) = -0.00535 0.22593
# Poissons Ratio (z) = 0.28177 0.44227
#
# Static dielectric constant tensor:
#      x y z
#    x 2.223640 0.000000 -0.037720 
#    y 0.000000 2.002630 0.000000 
#    z -0.037720 0.000000 2.303650 
# 
# From -- ./inp_files/54498.got.cif
#   From: 2010.05.17/outbox.cif.g08.bks.cpg/sg14_28_cif.got.tgz:54498.got - 2010.06.03 17:49:19.
