data_PCOD9250200
_publ_section_title
;
Structure prediction by ZEFSAII (Michael W. Deem and Ramdas Pophale) SiO2 
 PCOD9250200
Probable space group: P 21/C
;
_chemical_formula_sum "Si O2"
_cell_formula_units_Z 16
_cell_length_a 5.100010
_cell_length_b 20.478431
_cell_length_c 5.378684
_cell_angle_alpha 90.000000
_cell_angle_beta 81.197883
_cell_angle_gamma 90.000000
_cell_volume 555.134956
_symmetry_space_group_name_H-M "P 21/C"
_symmetry_group_IT_number 14
_symmetry_cell_setting 'monoclinic'
loop_
_space_group_symop_operation_xyz
x,y,z
-x,1/2+y,1/2-z
-x,-y,-z
x,1/2-y,1/2+z
loop_
_atom_site_type_symbol
_atom_site_label
_atom_site_fract_x
_atom_site_fract_y
_atom_site_fract_z
Si Si1 0.733679 0.382257 0.884054
Si Si2 0.049754 0.348386 0.333355
Si Si3 0.456874 0.268845 0.767491
Si Si4 0.721075 0.515585 0.670327
O O1 0.927917 0.360428 0.626704
O O2 0.466162 0.344859 0.830395
O O3 0.707468 0.460217 0.884806
O O4 0.850705 0.360129 0.131496
O O5 0.202032 0.278794 0.292117
O O6 0.262789 0.407971 0.274919
O O7 0.601806 0.259799 0.486617
O O8 0.500000 0.500000 0.500000
O O9 0.000000 0.500000 0.500000
#
# Coordination Sequence:
#
# PCOD9250200 Si02
#       4
#     4   4   4   4
#     4  11  25  47  74 107 147 195 249 308 373 442
#     4  11  25  47  74 107 147 195 249 308 373 442
#     4  12  26  44  68 104 144 190 244 298 366 440
#     4  10  23  48  78 110 148 192 248 310 374 442
#
# _framework density 28.821822000000001
#
# number of rings (size 3 to 8) (size 9 to 14) (size 15 to 20)
#    0.000    1.000    0.000    5.250    0.000   10.000 
#    0.000   13.750    0.000    0.000    0.000    1.750 
#    0.000    0.000    0.000    0.000    0.000    0.000 
#
# Total GULP energy -89659.709958 kJ/mol
# GULP energy per Si atom -5603.731872 kJ/mol
# Density = 2.875622 g / cm^3
# Si number density = 28.821822 Si / 1000 Ang^3
#
#
#
# Elastic Constant Matrix: (Units=GPa)
#
#
# Indices 1 2 3 4 5 6 
#
# 1 159.6212 79.2735 51.2376 0.0000 25.6413 0.0000
# 2 79.2735 186.4981 63.0795 0.0000 0.8499 0.0000
# 3 51.2376 63.0795 232.9352 0.0000 18.7027 0.0000
# 4 0.0000 0.0000 0.0000 70.0265 0.0000 2.2535
# 5 25.6413 0.8499 18.7027 0.0000 54.9957 0.0000
# 6 0.0000 0.0000 0.0000 2.2535 0.0000 72.2620
#
#
#
# Elastic Compliance Matrix: (Units=1/GPa)
#
#
# Indices 1 2 3 4 5 6 
#
# 1 0.008845 -0.003510 -0.000687 0.000000 -0.003836 0.000000
# 2 -0.003510 0.007307 -0.001366 0.000000 0.001988 0.000000
# 3 -0.000687 -0.001366 0.004921 0.000000 -0.001332 0.000000
# 4 0.000000 0.000000 0.000000 0.014295 0.000000 -0.000446
# 5 -0.003836 0.001988 -0.001332 0.000000 0.020394 0.000000
# 6 0.000000 0.000000 0.000000 -0.000446 0.000000 0.013852
#
#
# Mechanical properties :
#
#
# Convention : Reuss Voigt Hill
#
# Bulk Modulus (GPa) = 100.53845 107.35951 103.94898
# Shear Modulus (GPa) = 59.48469 65.15444 62.31957
#
# Velocity S-wave (km/s) = 4.54792 4.75973 4.65503
# Velocity P-wave (km/s) = 7.90801 8.21809 8.06454
#
# Compressibility (1/GPa) = 0.00994644
#
# Stress axis : x y z
#
# Youngs Moduli (GPa) = 113.06380 136.85731 203.20466
#
# Poissons Ratio (x) = 0.48032 0.13962
# Poissons Ratio (y) = 0.39681 0.27765
# Poissons Ratio (z) = 0.07769 0.18700
#
# Static dielectric constant tensor:
#      x y z
#    x 2.202770 0.000000 -0.120820 
#    y 0.000000 2.279770 0.000000 
#    z -0.120820 0.000000 2.243480 
# 
# From -- ./inp_files/285.got.cif
#   From: 2010.05.17/outbox.cif.g08.bks.cpg/sg14_1_cif.got.tgz:285.got - 2010.06.03 17:49:19.
