data_PCOD9250682
_publ_section_title
;
Structure prediction by ZEFSAII (Michael W. Deem and Ramdas Pophale) SiO2 
 PCOD9250682
Probable space group: P 21/C
;
_chemical_formula_sum "Si O2"
_cell_formula_units_Z 28
_cell_length_a 5.133067
_cell_length_b 11.858051
_cell_length_c 19.771657
_cell_angle_alpha 90.000000
_cell_angle_beta 57.824930
_cell_angle_gamma 90.000000
_cell_volume 1018.642446
_symmetry_space_group_name_H-M "P 21/C"
_symmetry_group_IT_number 14
_symmetry_cell_setting 'monoclinic'
loop_
_space_group_symop_operation_xyz
x,y,z
-x,1/2+y,1/2-z
-x,-y,-z
x,1/2-y,1/2+z
loop_
_atom_site_type_symbol
_atom_site_label
_atom_site_fract_x
_atom_site_fract_y
_atom_site_fract_z
Si Si1 0.534333 0.759195 0.766106
Si Si2 0.418904 0.195267 0.384338
Si Si3 0.371227 0.377363 0.116546
Si Si4 0.000000 0.000000 0.000000
Si Si5 0.941250 0.066429 0.130869
Si Si6 0.005848 0.960345 0.728913
Si Si7 0.000000 0.500000 0.000000
Si Si8 0.470175 0.672377 0.499297
O O1 0.607394 0.730047 0.679344
O O2 0.581941 0.660709 0.812791
O O3 0.754851 0.866399 0.749610
O O4 0.203872 0.815354 0.827044
O O5 0.668691 0.103450 0.324228
O O6 0.560100 0.267347 0.425361
O O7 0.125982 0.124841 0.451625
O O8 0.045791 0.444071 0.165361
O O9 0.395303 0.265347 0.069981
O O10 0.647362 0.453349 0.050713
O O11 0.831804 0.117552 0.989116
O O12 0.253702 0.993098 0.899623
O O13 0.235739 0.084276 0.037822
O O14 0.019337 0.004834 0.189135
#
# Coordination Sequence:
#
# PCOD9250682 Si02
#       8
#     4   4   4   2   4   4   2   4
#     4  11  23  49  74 109 159 209 254 338 410 484
#     4  10  26  41  76 112 158 198 276 325 410 487
#     4  11  24  47  81 104 160 202 260 337 404 485
#     4  12  26  46  78 110 156 206 266 326 396 500
#     4  11  23  48  70 107 152 196 263 321 386 486
#     4  10  24  45  69 114 148 199 271 323 397 497
#     4  10  24  48  74 120 144 208 266 342 400 488
#     4  12  26  47  77 114 151 208 259 331 398 486
#
# _framework density 27.487566000000001
#
# number of rings (size 3 to 8) (size 9 to 14) (size 15 to 20)
#    0.000    1.143    2.857    1.286    4.000    3.429 
#    2.571    0.000    0.000    0.000    0.000    0.000 
#    0.000    0.000    0.000    0.000    0.000    0.000 
#
# Total GULP energy -155952.184561 kJ/mol
# GULP energy per Si atom -5569.720877 kJ/mol
# Density = 2.742500 g / cm^3
# Si number density = 27.487566 Si / 1000 Ang^3
#
#
#
# Elastic Constant Matrix: (Units=GPa)
#
#
# Indices 1 2 3 4 5 6 
#
# 1 91.2836 26.4475 76.8480 0.0000 11.3984 0.0000
# 2 26.4475 79.6868 43.5028 0.0000 9.7914 0.0000
# 3 76.8480 43.5028 147.7263 0.0000 24.8623 0.0000
# 4 0.0000 0.0000 0.0000 48.4775 0.0000 4.0216
# 5 11.3984 9.7914 24.8623 0.0000 51.4741 0.0000
# 6 0.0000 0.0000 0.0000 4.0216 0.0000 34.4549
#
#
#
# Elastic Compliance Matrix: (Units=1/GPa)
#
#
# Indices 1 2 3 4 5 6 
#
# 1 0.019596 -0.001144 -0.009974 0.000000 0.000696 0.000000
# 2 -0.001144 0.015049 -0.003698 0.000000 -0.000823 0.000000
# 3 -0.009974 -0.003698 0.013668 0.000000 -0.003690 0.000000
# 4 0.000000 0.000000 0.000000 0.020830 0.000000 -0.002431
# 5 0.000696 -0.000823 -0.003690 0.000000 0.021212 0.000000
# 6 0.000000 0.000000 0.000000 -0.002431 0.000000 0.029307
#
#
# Mechanical properties :
#
#
# Convention : Reuss Voigt Hill
#
# Bulk Modulus (GPa) = 53.53232 68.03258 60.78245
# Shear Modulus (GPa) = 32.14989 38.34121 35.24555
#
# Velocity S-wave (km/s) = 3.42367 3.73883 3.58472
# Velocity P-wave (km/s) = 5.92842 6.59109 6.26852
#
# Compressibility (1/GPa) = 0.01868030
#
# Stress axis : x y z
#
# Youngs Moduli (GPa) = 51.02955 66.45072 73.16425
#
# Poissons Ratio (x) = 0.07603 0.72977
# Poissons Ratio (y) = 0.05839 0.27055
# Poissons Ratio (z) = 0.50899 0.24572
#
# Static dielectric constant tensor:
#      x y z
#    x 2.660960 0.000000 0.095220 
#    y 0.000000 2.468040 0.000000 
#    z 0.095220 0.000000 2.193080 
# 
# From -- ./inp_files/63743.got.cif
#   From: 2010.05.17/outbox.cif.g08.bks.cpg/sg14_32_cif.got.tgz:63743.got - 2010.06.03 17:49:19.
