data_PCOD9250015
_publ_section_title
;
Structure prediction by ZEFSAII (Michael W. Deem and Ramdas Pophale) SiO2 
 PCOD9250015
Probable space group: P 21/C
;
_chemical_formula_sum "Si O2"
_cell_formula_units_Z 32
_cell_length_a 12.453884
_cell_length_b 12.615621
_cell_length_c 9.836819
_cell_angle_alpha 90.000000
_cell_angle_beta 93.804398
_cell_angle_gamma 90.000000
_cell_volume 1542.091180
_symmetry_space_group_name_H-M "P 21/C"
_symmetry_group_IT_number 14
_symmetry_cell_setting 'monoclinic'
loop_
_space_group_symop_operation_xyz
x,y,z
-x,1/2+y,1/2-z
-x,-y,-z
x,1/2-y,1/2+z
loop_
_atom_site_type_symbol
_atom_site_label
_atom_site_fract_x
_atom_site_fract_y
_atom_site_fract_z
Si Si1 0.413016 0.356497 0.942060
Si Si2 0.655093 0.085935 0.466671
Si Si3 0.843172 0.583005 0.476291
Si Si4 0.798450 0.516521 0.749246
Si Si5 0.699281 0.759351 0.318347
Si Si6 0.014378 0.763686 0.122224
Si Si7 0.951904 0.542040 0.209430
Si Si8 0.144664 0.838519 0.391361
O O1 0.367351 0.476030 0.954389
O O2 0.350815 0.292250 0.820469
O O3 0.539530 0.365207 0.924043
O O4 0.390862 0.301952 0.085367
O O5 0.729748 0.160842 0.565602
O O6 0.721563 0.055636 0.335917
O O7 0.784858 0.510782 0.584269
O O8 0.765471 0.670317 0.404397
O O9 0.900630 0.527446 0.354198
O O10 0.934701 0.645072 0.567745
O O11 0.772416 0.638209 0.788734
O O12 0.921931 0.484817 0.784926
O O13 0.097427 0.796496 0.246236
O O14 0.943392 0.664557 0.168178
O O15 0.081317 0.725492 0.999377
O O16 0.890486 0.462110 0.105725
#
# Coordination Sequence:
#
# PCOD9250015 Si02
#       8
#     4   4   4   4   4   4   4   4
#     4  10  23  45  70  96 121 168 228 289 327 394
#     4  10  24  44  68  91 132 172 223 273 350 389
#     4  12  23  38  64 105 135 177 223 272 317 404
#     4  11  22  39  64  97 133 177 210 270 328 397
#     4  11  22  42  71  96 128 169 229 272 336 383
#     4  12  25  40  62  99 138 175 225 259 326 411
#     4  12  24  40  64  96 147 179 217 264 333 400
#     4  12  25  42  65  95 132 184 214 272 337 402
#
# _framework density 20.751042999999999
#
# number of rings (size 3 to 8) (size 9 to 14) (size 15 to 20)
#    0.000    0.750    5.000    3.000    3.500    1.000 
#    0.000    0.625    2.750    0.000    0.000    0.000 
#    0.000    0.000    0.000    0.000    0.000    0.000 
#
# Total GULP energy -179053.914467 kJ/mol
# GULP energy per Si atom -5595.434827 kJ/mol
# Density = 2.070381 g / cm^3
# Si number density = 20.751043 Si / 1000 Ang^3
#
#
#
# Elastic Constant Matrix: (Units=GPa)
#
#
# Indices 1 2 3 4 5 6 
#
# 1 87.6395 6.3280 27.7071 0.0000 -21.3368 0.0000
# 2 6.3280 45.3539 15.8923 0.0000 1.1059 0.0000
# 3 27.7071 15.8923 122.3423 0.0000 -13.7813 0.0000
# 4 0.0000 0.0000 0.0000 10.8641 0.0000 -5.9777
# 5 -21.3368 1.1059 -13.7813 0.0000 26.8851 0.0000
# 6 0.0000 0.0000 0.0000 -5.9777 0.0000 18.1063
#
#
#
# Elastic Compliance Matrix: (Units=1/GPa)
#
#
# Indices 1 2 3 4 5 6 
#
# 1 0.014765 -0.001654 -0.001912 0.000000 0.010806 0.000000
# 2 -0.001654 0.023464 -0.003110 0.000000 -0.003872 0.000000
# 3 -0.001912 -0.003110 0.009397 0.000000 0.003427 0.000000
# 4 0.000000 0.000000 0.000000 0.112478 0.000000 0.037134
# 5 0.010806 -0.003872 0.003427 0.000000 0.047687 0.000000
# 6 0.000000 0.000000 0.000000 0.037134 0.000000 0.067489
#
#
# Mechanical properties :
#
#
# Convention : Reuss Voigt Hill
#
# Bulk Modulus (GPa) = 29.17550 39.46563 34.32057
# Shear Modulus (GPa) = 16.66362 24.86499 20.76431
#
# Velocity S-wave (km/s) = 2.83685 3.46533 3.16672
# Velocity P-wave (km/s) = 4.98202 5.92210 5.47229
#
# Compressibility (1/GPa) = 0.03427534
#
# Stress axis : x y z
#
# Youngs Moduli (GPa) = 67.72751 42.61925 106.41954
#
# Poissons Ratio (x) = 0.07048 0.20345
# Poissons Ratio (y) = 0.11200 0.33091
# Poissons Ratio (z) = 0.12948 0.13253
#
# Static dielectric constant tensor:
#      x y z
#    x 1.715850 0.000000 -0.023820 
#    y 0.000000 1.782870 0.000000 
#    z -0.023820 0.000000 1.752930 
# 
# From -- ./inp_files/13338.got.cif
#   From: 2010.05.17/outbox.cif.g08.bks.cpg/sg14_7_cif.got.tgz:13338.got - 2010.06.03 17:49:19.
