data_PCOD9250981
_publ_section_title
;
Structure prediction by ZEFSAII (Michael W. Deem and Ramdas Pophale) SiO2 
 PCOD9250981
Probable space group: P 21/C
;
_chemical_formula_sum "Si O2"
_cell_formula_units_Z 24
_cell_length_a 11.309582
_cell_length_b 11.050131
_cell_length_c 9.378173
_cell_angle_alpha 90.000000
_cell_angle_beta 63.945400
_cell_angle_gamma 90.000000
_cell_volume 1052.907719
_symmetry_space_group_name_H-M "P 21/C"
_symmetry_group_IT_number 14
_symmetry_cell_setting 'monoclinic'
loop_
_space_group_symop_operation_xyz
x,y,z
-x,1/2+y,1/2-z
-x,-y,-z
x,1/2-y,1/2+z
loop_
_atom_site_type_symbol
_atom_site_label
_atom_site_fract_x
_atom_site_fract_y
_atom_site_fract_z
Si Si1 0.107127 0.349405 0.458343
Si Si2 0.226231 0.991874 0.123659
Si Si3 0.212305 0.513972 0.166024
Si Si4 0.304316 0.363845 0.854457
Si Si5 0.851995 0.250661 0.458938
Si Si6 0.388711 0.875886 0.801776
O O1 0.137398 0.405403 0.596303
O O2 0.122658 0.459364 0.338461
O O3 0.224889 0.256992 0.362127
O O4 0.971751 0.280681 0.500253
O O5 0.153276 0.862439 0.151613
O O6 0.270563 0.036243 0.252967
O O7 0.349234 0.969209 0.949986
O O8 0.143605 0.622617 0.118272
O O9 0.340222 0.566862 0.179366
O O10 0.253199 0.412592 0.032474
O O11 0.460054 0.343356 0.776019
O O12 0.712034 0.265823 0.613798
#
# Coordination Sequence:
#
# PCOD9250981 Si02
#       6
#     4   4   4   4   4   4
#     4  11  25  46  68 100 141 180 227 289 339 404
#     4   9  23  44  67  94 137 179 225 276 346 403
#     4  11  26  44  70 102 138 180 231 288 339 410
#     4  12  24  42  70 104 132 179 233 282 345 407
#     4  10  25  43  73  93 137 187 226 274 346 403
#     4   9  24  44  68  96 140 178 226 285 342 402
#
# _framework density 22.794018999999999
#
# number of rings (size 3 to 8) (size 9 to 14) (size 15 to 20)
#    1.000    0.667    0.000    2.500    4.667    7.333 
#    0.000    0.000    0.000    0.000    0.000    0.000 
#    0.000    0.000    0.000    0.000    0.000    0.000 
#
# Total GULP energy -134267.227271 kJ/mol
# GULP energy per Si atom -5594.467803 kJ/mol
# Density = 2.274214 g / cm^3
# Si number density = 22.794019 Si / 1000 Ang^3
#
#
#
# Elastic Constant Matrix: (Units=GPa)
#
#
# Indices 1 2 3 4 5 6 
#
# 1 134.4300 27.6459 35.5900 0.0000 -19.7737 0.0000
# 2 27.6459 77.5497 9.3716 0.0000 -2.3191 0.0000
# 3 35.5900 9.3716 72.5778 0.0000 11.1858 0.0000
# 4 0.0000 0.0000 0.0000 26.7423 0.0000 16.1000
# 5 -19.7737 -2.3191 11.1858 0.0000 23.3044 0.0000
# 6 0.0000 0.0000 0.0000 16.1000 0.0000 26.3699
#
#
#
# Elastic Compliance Matrix: (Units=1/GPa)
#
#
# Indices 1 2 3 4 5 6 
#
# 1 0.012074 -0.002975 -0.007635 0.000000 0.013614 0.000000
# 2 -0.002975 0.013946 -0.000180 0.000000 -0.001050 0.000000
# 3 -0.007635 -0.000180 0.020028 0.000000 -0.016110 0.000000
# 4 0.000000 0.000000 0.000000 0.059128 0.000000 -0.036100
# 5 0.013614 -0.001050 -0.016110 0.000000 0.062089 0.000000
# 6 0.000000 0.000000 0.000000 -0.036100 0.000000 0.059963
#
#
# Mechanical properties :
#
#
# Convention : Reuss Voigt Hill
#
# Bulk Modulus (GPa) = 40.86854 47.75249 44.31052
# Shear Modulus (GPa) = 19.45794 29.41333 24.43563
#
# Velocity S-wave (km/s) = 2.92489 3.59611 3.27772
# Velocity P-wave (km/s) = 5.41987 6.18366 5.81432
#
# Compressibility (1/GPa) = 0.02446870
#
# Stress axis : x y z
#
# Youngs Moduli (GPa) = 82.82002 71.70617 49.92916
#
# Poissons Ratio (x) = 0.21330 0.38121
# Poissons Ratio (y) = 0.24636 0.00900
# Poissons Ratio (z) = 0.63233 0.01293
#
# Static dielectric constant tensor:
#      x y z
#    x 1.812790 0.000000 -0.017100 
#    y 0.000000 1.844650 0.000000 
#    z -0.017100 0.000000 1.837100 
# 
# From -- ./inp_files/12367.got.cif
#   From: 2010.05.17/outbox.cif.g08.bks.cpg/sg14_7_cif.got.tgz:12367.got - 2010.06.03 17:49:19.
