data_PCOD9250058
_publ_section_title
;
Structure prediction by ZEFSAII (Michael W. Deem and Ramdas Pophale) SiO2 
 PCOD9250058
Probable space group: P 21/C
;
_chemical_formula_sum "Si O2"
_cell_formula_units_Z 22
_cell_length_a 7.083485
_cell_length_b 7.181193
_cell_length_c 19.449266
_cell_angle_alpha 90.000000
_cell_angle_beta 125.443469
_cell_angle_gamma 90.000000
_cell_volume 806.005773
_symmetry_space_group_name_H-M "P 21/C"
_symmetry_group_IT_number 14
_symmetry_cell_setting 'monoclinic'
loop_
_space_group_symop_operation_xyz
x,y,z
-x,1/2+y,1/2-z
-x,-y,-z
x,1/2-y,1/2+z
loop_
_atom_site_type_symbol
_atom_site_label
_atom_site_fract_x
_atom_site_fract_y
_atom_site_fract_z
Si Si1 0.231494 0.753921 0.042801
Si Si2 0.694705 0.028335 0.308201
Si Si3 0.175558 0.107397 0.344624
Si Si4 0.801591 0.626134 0.310328
Si Si5 0.500000 0.500000 0.000000
Si Si6 0.806981 0.887713 0.034648
O O1 0.283311 0.598392 0.998283
O O2 0.775230 0.678442 0.842188
O O3 0.969955 0.797329 0.011445
O O4 0.331808 0.951057 0.034490
O O5 0.436955 0.019904 0.224258
O O6 0.673864 0.166820 0.367358
O O7 0.907271 0.098633 0.306520
O O8 0.182480 0.169639 0.267878
O O9 0.294241 0.223864 0.436754
O O10 0.353754 0.940111 0.394209
O O11 0.021235 0.505539 0.379498
#
# Coordination Sequence:
#
# PCOD9250058 Si02
#       6
#     4   4   4   4   2   4
#     4  10  23  46  65 107 131 194 230 292 356 432
#     4  11  24  45  74  97 150 181 242 290 368 421
#     4  11  25  45  70 107 136 186 235 296 355 433
#     4  12  24  46  70 108 134 192 233 301 352 434
#     4  12  24  44  68 102 144 176 242 286 360 424
#     4  10  24  45  75  97 149 184 249 294 365 427
#
# _framework density 27.295088
#
# number of rings (size 3 to 8) (size 9 to 14) (size 15 to 20)
#    0.000    1.091    1.818    4.364    0.000    8.727 
#    6.545    0.000    0.000    0.000    0.000    0.000 
#    0.000    0.000    0.000    0.000    0.000    0.000 
#
# Total GULP energy -122633.216107 kJ/mol
# GULP energy per Si atom -5574.237096 kJ/mol
# Density = 2.723296 g / cm^3
# Si number density = 27.295088 Si / 1000 Ang^3
#
#
#
# Elastic Constant Matrix: (Units=GPa)
#
#
# Indices 1 2 3 4 5 6 
#
# 1 133.6122 51.6858 46.0669 0.0000 -5.7339 0.0000
# 2 51.6858 138.9138 44.5805 0.0000 -24.3883 0.0000
# 3 46.0669 44.5805 97.5303 0.0000 -22.0798 0.0000
# 4 0.0000 0.0000 0.0000 46.5283 0.0000 -7.2563
# 5 -5.7339 -24.3883 -22.0798 0.0000 42.0000 0.0000
# 6 0.0000 0.0000 0.0000 -7.2563 0.0000 54.1152
#
#
#
# Elastic Compliance Matrix: (Units=1/GPa)
#
#
# Indices 1 2 3 4 5 6 
#
# 1 0.009809 -0.002816 -0.003874 0.000000 -0.002333 0.000000
# 2 -0.002816 0.009657 -0.002158 0.000000 0.004088 0.000000
# 3 -0.003874 -0.002158 0.014377 0.000000 0.005776 0.000000
# 4 0.000000 0.000000 0.000000 0.021951 0.000000 0.002943
# 5 -0.002333 0.004088 0.005776 0.000000 0.028902 0.000000
# 6 0.000000 0.000000 0.000000 0.002943 0.000000 0.018874
#
#
# Mechanical properties :
#
#
# Convention : Reuss Voigt Hill
#
# Bulk Modulus (GPa) = 61.93362 72.74696 67.34029
# Shear Modulus (GPa) = 39.47895 43.71024 41.59460
#
# Velocity S-wave (km/s) = 3.80725 4.00609 3.90793
# Velocity P-wave (km/s) = 6.48587 6.93601 6.71471
#
# Compressibility (1/GPa) = 0.01614632
#
# Stress axis : x y z
#
# Youngs Moduli (GPa) = 101.94405 103.55268 69.55353
#
# Poissons Ratio (x) = 0.29160 0.26946
# Poissons Ratio (y) = 0.28707 0.15013
# Poissons Ratio (z) = 0.39495 0.22352
#
# Static dielectric constant tensor:
#      x y z
#    x 2.280430 0.000000 0.385290 
#    y 0.000000 10.934220 0.000000 
#    z 0.385290 0.000000 2.949210 
# 
# From -- ./inp_files/76234.got.cif
#   From: 2010.05.17/outbox.cif.g08.bks.cpg/sg14_39_cif.got.tgz:76234.got - 2010.06.03 17:49:19.
