data_PCOD9250451
_publ_section_title
;
Structure prediction by ZEFSAII (Michael W. Deem and Ramdas Pophale) SiO2 
 PCOD9250451
Probable space group: P 21/C
;
_chemical_formula_sum "Si O2"
_cell_formula_units_Z 26
_cell_length_a 11.706743
_cell_length_b 7.740012
_cell_length_c 21.216766
_cell_angle_alpha 90.000000
_cell_angle_beta 147.761868
_cell_angle_gamma 90.000000
_cell_volume 1025.514801
_symmetry_space_group_name_H-M "P 21/C"
_symmetry_group_IT_number 14
_symmetry_cell_setting 'monoclinic'
loop_
_space_group_symop_operation_xyz
x,y,z
-x,1/2+y,1/2-z
-x,-y,-z
x,1/2-y,1/2+z
loop_
_atom_site_type_symbol
_atom_site_label
_atom_site_fract_x
_atom_site_fract_y
_atom_site_fract_z
Si Si1 0.280442 0.184277 0.128566
Si Si2 0.500000 0.000000 0.000000
Si Si3 0.149241 0.007065 0.944168
Si Si4 0.975207 0.142223 0.573452
Si Si5 0.489784 0.019946 0.654648
Si Si6 0.208674 0.863190 0.307646
Si Si7 0.853754 0.983287 0.230316
O O1 0.456758 0.298259 0.175029
O O2 0.088014 0.307266 0.061526
O O3 0.370048 0.097004 0.233308
O O4 0.195623 0.049828 0.038005
O O5 0.361451 0.012854 0.002343
O O6 0.322126 0.139173 0.882211
O O7 0.975652 0.136013 0.832593
O O8 0.049042 0.816375 0.896131
O O9 0.742425 0.063769 0.459067
O O10 0.127185 0.022622 0.686789
O O11 0.592962 0.051347 0.634522
O O12 0.257324 0.662213 0.347898
O O13 0.084854 0.956489 0.306679
#
# Coordination Sequence:
#
# PCOD9250451 Si02
#       7
#     4   2   4   4   4   4   4
#     4  12  27  46  72 109 151 198 246 311 368 453
#     4  10  24  42  74 102 138 198 234 302 370 428
#     4  11  24  46  72 106 149 192 247 310 367 443
#     4  12  27  46  73 107 150 196 245 314 369 450
#     4  12  28  44  73 107 144 201 250 301 379 442
#     4  11  25  46  72 107 138 193 245 308 370 444
#     4  11  25  46  75 105 150 188 250 308 375 444
#
# _framework density 25.353119
#
# number of rings (size 3 to 8) (size 9 to 14) (size 15 to 20)
#    0.000    0.615    1.538    5.538    8.615    3.077 
#    0.000    0.000    0.000    0.000    0.000    0.000 
#    0.000    0.000    0.000    0.000    0.000    0.000 
#
# Total GULP energy -145246.317514 kJ/mol
# GULP energy per Si atom -5586.396827 kJ/mol
# Density = 2.529541 g / cm^3
# Si number density = 25.353119 Si / 1000 Ang^3
#
#
#
# Elastic Constant Matrix: (Units=GPa)
#
#
# Indices 1 2 3 4 5 6 
#
# 1 149.4924 13.3477 35.7738 0.0000 16.5045 0.0000
# 2 13.3477 67.0781 -2.3739 0.0000 3.3311 0.0000
# 3 35.7738 -2.3739 85.2846 0.0000 -2.6015 0.0000
# 4 0.0000 0.0000 0.0000 25.9114 0.0000 2.0030
# 5 16.5045 3.3311 -2.6015 0.0000 48.6922 0.0000
# 6 0.0000 0.0000 0.0000 2.0030 0.0000 34.9105
#
#
#
# Elastic Compliance Matrix: (Units=1/GPa)
#
#
# Indices 1 2 3 4 5 6 
#
# 1 0.007967 -0.001570 -0.003470 0.000000 -0.002778 0.000000
# 2 -0.001570 0.015281 0.001070 0.000000 -0.000456 0.000000
# 3 -0.003470 0.001070 0.013266 0.000000 0.001812 0.000000
# 4 0.000000 0.000000 0.000000 0.038765 0.000000 -0.002224
# 5 -0.002778 -0.000456 0.001812 0.000000 0.021607 0.000000
# 6 0.000000 0.000000 0.000000 -0.002224 0.000000 0.028772
#
#
# Mechanical properties :
#
#
# Convention : Reuss Voigt Hill
#
# Bulk Modulus (GPa) = 34.99780 43.92781 39.46280
# Shear Modulus (GPa) = 34.93506 38.91000 36.92253
#
# Velocity S-wave (km/s) = 3.71609 3.92180 3.82033
# Velocity P-wave (km/s) = 5.67860 6.15397 5.92106
#
# Compressibility (1/GPa) = 0.02857323
#
# Stress axis : x y z
#
# Youngs Moduli (GPa) = 125.52332 65.44100 75.38003
#
# Poissons Ratio (x) = 0.10275 0.26158
# Poissons Ratio (y) = 0.19708 -0.08066
# Poissons Ratio (z) = 0.43559 -0.07002
#
# Static dielectric constant tensor:
#      x y z
#    x 1.930050 0.000000 0.032450 
#    y 0.000000 1.766920 0.000000 
#    z 0.032450 0.000000 1.381960 
# 
# From -- ./inp_files/73171.got.cif
#   From: 2010.05.17/outbox.cif.g08.bks.cpg/sg14_37_cif.got.tgz:73171.got - 2010.06.03 17:49:19.
