data_PCOD9250982
_publ_section_title
;
Structure prediction by ZEFSAII (Michael W. Deem and Ramdas Pophale) SiO2 
 PCOD9250982
Probable space group: P 21/C
;
_chemical_formula_sum "Si O2"
_cell_formula_units_Z 30
_cell_length_a 9.874935
_cell_length_b 9.836713
_cell_length_c 15.876032
_cell_angle_alpha 90.000000
_cell_angle_beta 128.134763
_cell_angle_gamma 90.000000
_cell_volume 1212.993145
_symmetry_space_group_name_H-M "P 21/C"
_symmetry_group_IT_number 14
_symmetry_cell_setting 'monoclinic'
loop_
_space_group_symop_operation_xyz
x,y,z
-x,1/2+y,1/2-z
-x,-y,-z
x,1/2-y,1/2+z
loop_
_atom_site_type_symbol
_atom_site_label
_atom_site_fract_x
_atom_site_fract_y
_atom_site_fract_z
Si Si1 0.019163 0.166240 0.105456
Si Si2 0.320167 0.662478 0.605961
Si Si3 0.500000 0.500000 0.000000
Si Si4 0.800121 0.902809 0.571498
Si Si5 0.321572 0.273206 0.329575
Si Si6 0.635146 0.214906 0.685571
Si Si7 0.269029 0.361573 0.551630
Si Si8 0.137168 0.537622 0.295013
O O1 0.954779 0.060162 0.150800
O O2 0.153986 0.257395 0.207804
O O3 0.137636 0.111181 0.077129
O O4 0.850562 0.229684 0.998533
O O5 0.503275 0.726254 0.653133
O O6 0.305387 0.655685 0.701548
O O7 0.327587 0.516735 0.560787
O O8 0.655543 0.499691 0.980733
O O9 0.614594 0.391141 0.102490
O O10 0.672991 0.852547 0.602133
O O11 0.829948 0.757248 0.539407
O O12 0.974458 0.970432 0.668689
O O13 0.273543 0.415374 0.354795
O O14 0.450600 0.285096 0.633442
O O15 0.762109 0.330353 0.698595
#
# Coordination Sequence:
#
# PCOD9250982 Si02
#       8
#     4   4   2   4   4   4   4   4
#     4  11  26  43  71 108 139 187 250 290 368 424
#     4  12  25  43  78  99 150 189 238 307 358 433
#     4  10  26  44  70 106 138 190 234 300 352 434
#     4  10  25  43  73  98 148 184 243 292 363 429
#     4  11  25  45  68 111 141 190 243 297 356 437
#     4  11  25  46  72 106 144 190 237 297 369 423
#     4  11  23  47  66 105 138 185 240 294 359 431
#     4  11  25  46  70 102 149 191 239 299 357 440
#
# _framework density 24.732209000000001
#
# number of rings (size 3 to 8) (size 9 to 14) (size 15 to 20)
#    0.000    1.067    2.667    2.000   11.200    1.067 
#    0.000    2.667    0.000    0.000    0.000    0.000 
#    0.000    0.000    0.000    0.000    0.000    0.000 
#
# Total GULP energy -167100.095625 kJ/mol
# GULP energy per Si atom -5570.003188 kJ/mol
# Density = 2.467592 g / cm^3
# Si number density = 24.732209 Si / 1000 Ang^3
#
#
#
# Elastic Constant Matrix: (Units=GPa)
#
#
# Indices 1 2 3 4 5 6 
#
# 1 116.3293 37.9407 6.0968 0.0000 8.3077 0.0000
# 2 37.9407 95.7516 23.5030 0.0000 10.6907 0.0000
# 3 6.0968 23.5030 80.8426 0.0000 15.9710 0.0000
# 4 0.0000 0.0000 0.0000 11.7944 0.0000 26.3387
# 5 8.3077 10.6907 15.9710 0.0000 20.7610 0.0000
# 6 0.0000 0.0000 0.0000 26.3387 0.0000 14.5167
#
#
#
# Elastic Compliance Matrix: (Units=1/GPa)
#
#
# Indices 1 2 3 4 5 6 
#
# 1 0.010010 -0.003888 0.000909 0.000000 -0.002703 0.000000
# 2 -0.003888 0.013025 -0.002920 0.000000 -0.002906 0.000000
# 3 0.000909 -0.002920 0.015241 0.000000 -0.010585 0.000000
# 4 0.000000 0.000000 0.000000 -0.027783 0.000000 0.050408
# 5 -0.002703 -0.002906 -0.010585 0.000000 0.058888 0.000000
# 6 0.000000 0.000000 0.000000 0.050408 0.000000 -0.022573
#
#
# Mechanical properties :
#
#
# Convention : Reuss Voigt Hill
#
# Bulk Modulus (GPa) = 37.76400 47.55605 42.66003
# Shear Modulus (GPa) = 74.15016 24.43997 49.29507
#
# Velocity S-wave (km/s) = 5.48145 3.14695 4.46932
# Velocity P-wave (km/s) = 7.44070 5.69864 6.62716
#
# Compressibility (1/GPa) = 0.02648024
#
# Stress axis : x y z
#
# Youngs Moduli (GPa) = 99.90395 76.77449 65.61219
#
# Poissons Ratio (x) = 0.29847 -0.05966
# Poissons Ratio (y) = 0.38839 0.19156
# Poissons Ratio (z) = -0.09085 0.22415
#
# Static dielectric constant tensor:
#      x y z
#    x 2.370880 0.000000 0.221750 
#    y 0.000000 3.051540 0.000000 
#    z 0.221750 0.000000 2.102550 
# 
# From -- ./inp_files/40445.got.cif
#   From: 2010.05.17/outbox.cif.g08.bks.cpg/sg14_21_cif.got.tgz:40445.got - 2010.06.03 17:49:19.
