data_PCOD9250656
_publ_section_title
;
Structure prediction by ZEFSAII (Michael W. Deem and Ramdas Pophale) SiO2 
 PCOD9250656
Probable space group: P 21/C
;
_chemical_formula_sum "Si O2"
_cell_formula_units_Z 32
_cell_length_a 9.388265
_cell_length_b 13.843412
_cell_length_c 10.102778
_cell_angle_alpha 90.000000
_cell_angle_beta 99.171950
_cell_angle_gamma 90.000000
_cell_volume 1296.226166
_symmetry_space_group_name_H-M "P 21/C"
_symmetry_group_IT_number 14
_symmetry_cell_setting 'monoclinic'
loop_
_space_group_symop_operation_xyz
x,y,z
-x,1/2+y,1/2-z
-x,-y,-z
x,1/2-y,1/2+z
loop_
_atom_site_type_symbol
_atom_site_label
_atom_site_fract_x
_atom_site_fract_y
_atom_site_fract_z
Si Si1 0.850133 0.531470 0.768635
Si Si2 0.199930 0.259322 0.777335
Si Si3 0.393423 0.559575 0.768968
Si Si4 0.095327 0.551274 0.622858
Si Si5 0.585021 0.056071 0.125194
Si Si6 0.760438 0.396145 0.983726
Si Si7 0.470330 0.720672 0.225412
Si Si8 0.010729 0.247803 0.000512
O O1 0.800187 0.642030 0.740800
O O2 0.753444 0.466538 0.654050
O O3 0.820998 0.484371 0.905241
O O4 0.014603 0.527461 0.747762
O O5 0.364736 0.293970 0.796101
O O6 0.121678 0.284122 0.903712
O O7 0.103591 0.292485 0.637699
O O8 0.260331 0.524790 0.659309
O O9 0.524262 0.490198 0.753438
O O10 0.440017 0.666633 0.734615
O O11 0.330153 0.565867 0.905763
O O12 0.000000 0.500000 0.500000
O O13 0.078624 0.664310 0.586988
O O14 0.549375 0.168322 0.134105
O O15 0.500000 0.000000 0.000000
O O16 0.651873 0.327737 0.883488
O O17 0.898267 0.327605 0.034206
#
# Coordination Sequence:
#
# PCOD9250656 Si02
#       8
#     4   4   4   4   4   4   4   4
#     4  10  24  45  65 100 139 186 230 303 360 434
#     4  11  26  44  70 102 143 187 247 298 369 448
#     4  12  26  46  75 110 141 195 251 299 380 445
#     4  11  25  44  71 103 142 182 245 299 361 446
#     4  11  26  45  71 104 143 191 243 294 369 443
#     4  11  26  47  73 101 149 186 243 304 375 444
#     4  11  27  45  74 105 148 195 238 311 368 435
#     4  11  26  45  69 104 139 187 242 297 373 438
#
# _framework density 24.687048000000001
#
# number of rings (size 3 to 8) (size 9 to 14) (size 15 to 20)
#    0.000    1.000    2.500    2.250   10.500    6.000 
#    0.000    0.000    0.000    0.000    0.000    0.000 
#    0.000    0.000    0.000    0.000    0.000    0.000 
#
# Total GULP energy -179282.006741 kJ/mol
# GULP energy per Si atom -5602.562711 kJ/mol
# Density = 2.463086 g / cm^3
# Si number density = 24.687048 Si / 1000 Ang^3
#
#
#
# Elastic Constant Matrix: (Units=GPa)
#
#
# Indices 1 2 3 4 5 6 
#
# 1 131.9117 20.7817 23.7313 0.0000 -5.2611 0.0000
# 2 20.7817 71.7174 -3.0979 0.0000 -5.5618 0.0000
# 3 23.7313 -3.0979 101.8747 0.0000 -16.2632 0.0000
# 4 0.0000 0.0000 0.0000 29.9851 0.0000 5.4130
# 5 -5.2611 -5.5618 -16.2632 0.0000 37.9499 0.0000
# 6 0.0000 0.0000 0.0000 5.4130 0.0000 33.6008
#
#
#
# Elastic Compliance Matrix: (Units=1/GPa)
#
#
# Indices 1 2 3 4 5 6 
#
# 1 0.008339 -0.002510 -0.002032 0.000000 -0.000083 0.000000
# 2 -0.002510 0.014923 0.001430 0.000000 0.002452 0.000000
# 3 -0.002032 0.001430 0.011079 0.000000 0.004676 0.000000
# 4 0.000000 0.000000 0.000000 0.034349 0.000000 -0.005533
# 5 -0.000083 0.002452 0.004676 0.000000 0.028702 0.000000
# 6 0.000000 0.000000 0.000000 -0.005533 0.000000 0.030653
#
#
# Mechanical properties :
#
#
# Convention : Reuss Voigt Hill
#
# Bulk Modulus (GPa) = 35.56706 43.14824 39.35765
# Shear Modulus (GPa) = 34.80891 37.91307 36.36099
#
# Velocity S-wave (km/s) = 3.75908 3.92311 3.84197
# Velocity P-wave (km/s) = 5.76883 6.16742 5.97145
#
# Compressibility (1/GPa) = 0.02811591
#
# Stress axis : x y z
#
# Youngs Moduli (GPa) = 119.92425 67.01069 90.25881
#
# Poissons Ratio (x) = 0.16823 0.18340
# Poissons Ratio (y) = 0.30107 -0.12907
# Poissons Ratio (z) = 0.24368 -0.09583
#
# Static dielectric constant tensor:
#      x y z
#    x 1.866080 0.000000 0.001650 
#    y 0.000000 1.948420 0.000000 
#    z 0.001650 0.000000 2.022080 
# 
# From -- ./inp_files/25528.got.cif
#   From: 2010.05.17/outbox.cif.g08.bks.cpg/sg14_13_cif.got.tgz:25528.got - 2010.06.03 17:49:19.
