data_PCOD9250832
_publ_section_title
;
Structure prediction by ZEFSAII (Michael W. Deem and Ramdas Pophale) SiO2 
 PCOD9250832
Probable space group: P 21/C
;
_chemical_formula_sum "Si O2"
_cell_formula_units_Z 18
_cell_length_a 10.884982
_cell_length_b 5.062825
_cell_length_c 26.243723
_cell_angle_alpha 90.000000
_cell_angle_beta 29.466794
_cell_angle_gamma 90.000000
_cell_volume 711.442370
_symmetry_space_group_name_H-M "P 21/C"
_symmetry_group_IT_number 14
_symmetry_cell_setting 'monoclinic'
loop_
_space_group_symop_operation_xyz
x,y,z
-x,1/2+y,1/2-z
-x,-y,-z
x,1/2-y,1/2+z
loop_
_atom_site_type_symbol
_atom_site_label
_atom_site_fract_x
_atom_site_fract_y
_atom_site_fract_z
Si Si1 0.772743 0.685999 0.693993
Si Si2 0.500000 0.000000 0.000000
Si Si3 0.578584 0.502185 0.354983
Si Si4 0.819606 0.751047 0.566181
Si Si5 0.031003 0.169293 0.638304
O O1 0.677178 0.742364 0.672004
O O2 0.882393 0.395818 0.661227
O O3 0.590465 0.774774 0.805777
O O4 0.003755 0.890829 0.619594
O O5 0.468921 0.089460 0.071310
O O6 0.299840 0.228868 0.054658
O O7 0.375821 0.292569 0.408290
O O8 0.856307 0.375972 0.251205
O O9 0.000000 0.500000 0.500000
O O10 0.000000 0.000000 0.500000
#
# Coordination Sequence:
#
# PCOD9250832 Si02
#       5
#     4   2   4   4   4
#     4  10  24  47  71 107 150 192 250 313 384 439
#     4  12  24  54  72 114 148 206 264 300 386 466
#     4  10  28  44  79 108 155 204 248 322 379 453
#     4  12  26  44  75 111 148 195 255 310 386 458
#     4  10  26  46  74 109 146 201 248 318 373 448
#
# _framework density 25.300712999999998
#
# number of rings (size 3 to 8) (size 9 to 14) (size 15 to 20)
#    1.333    0.000    0.000    4.000    9.333    0.889 
#    4.000    0.000    0.000    0.000    0.000    0.000 
#    0.000    0.000    0.000    0.000    0.000    0.000 
#
# Total GULP energy -100208.354208 kJ/mol
# GULP energy per Si atom -5567.130789 kJ/mol
# Density = 2.524313 g / cm^3
# Si number density = 25.300713 Si / 1000 Ang^3
#
#
#
# Elastic Constant Matrix: (Units=GPa)
#
#
# Indices 1 2 3 4 5 6 
#
# 1 124.8228 -10.0152 43.2119 0.0000 57.5269 0.0000
# 2 -10.0152 102.8341 16.1960 0.0000 0.8945 0.0000
# 3 43.2119 16.1960 66.4412 0.0000 26.1239 0.0000
# 4 0.0000 0.0000 0.0000 42.3705 0.0000 -14.7925
# 5 57.5269 0.8945 26.1239 0.0000 60.6332 0.0000
# 6 0.0000 0.0000 0.0000 -14.7925 0.0000 21.5928
#
#
#
# Elastic Compliance Matrix: (Units=1/GPa)
#
#
# Indices 1 2 3 4 5 6 
#
# 1 0.016276 0.002673 -0.006200 0.000000 -0.012810 0.000000
# 2 0.002673 0.010613 -0.003933 0.000000 -0.000998 0.000000
# 3 -0.006200 -0.003933 0.021318 0.000000 -0.003244 0.000000
# 4 0.000000 0.000000 0.000000 0.031021 0.000000 0.021251
# 5 -0.012810 -0.000998 -0.003244 0.000000 0.030059 0.000000
# 6 0.000000 0.000000 0.000000 0.021251 0.000000 0.060870
#
#
# Mechanical properties :
#
#
# Convention : Reuss Voigt Hill
#
# Bulk Modulus (GPa) = 30.04262 43.65372 36.84817
# Shear Modulus (GPa) = 25.48775 41.23301 33.36038
#
# Velocity S-wave (km/s) = 3.17739 4.04136 3.63513
# Velocity P-wave (km/s) = 5.03598 6.25045 5.67579
#
# Compressibility (1/GPa) = 0.03328605
#
# Stress axis : x y z
#
# Youngs Moduli (GPa) = 61.43932 94.22515 46.90920
#
# Poissons Ratio (x) = -0.25188 0.29086
# Poissons Ratio (y) = -0.16424 0.18450
# Poissons Ratio (z) = 0.38095 0.37060
#
# Static dielectric constant tensor:
#      x y z
#    x 1.950680 0.000000 -0.008620 
#    y 0.000000 1.997560 0.000000 
#    z -0.008620 0.000000 2.084290 
# 
# From -- ./inp_files/76816.got.cif
#   From: 2010.05.17/outbox.cif.g08.bks.cpg/sg14_39_cif.got.tgz:76816.got - 2010.06.03 17:49:19.
