data_PCOD9250247
_publ_section_title
;
Structure prediction by ZEFSAII (Michael W. Deem and Ramdas Pophale) SiO2 
 PCOD9250247
Probable space group: P 21/C
;
_chemical_formula_sum "Si O2"
_cell_formula_units_Z 16
_cell_length_a 6.732131
_cell_length_b 10.458808
_cell_length_c 9.523821
_cell_angle_alpha 90.000000
_cell_angle_beta 93.407097
_cell_angle_gamma 90.000000
_cell_volume 669.387606
_symmetry_space_group_name_H-M "P 21/C"
_symmetry_group_IT_number 14
_symmetry_cell_setting 'monoclinic'
loop_
_space_group_symop_operation_xyz
x,y,z
-x,1/2+y,1/2-z
-x,-y,-z
x,1/2-y,1/2+z
loop_
_atom_site_type_symbol
_atom_site_label
_atom_site_fract_x
_atom_site_fract_y
_atom_site_fract_z
Si Si1 0.069218 0.197761 0.547558
Si Si2 0.656899 0.246882 0.928857
Si Si3 0.743115 0.025888 0.624928
Si Si4 0.431496 0.360112 0.661875
O O1 0.186553 0.104183 0.447583
O O2 0.222293 0.289940 0.628209
O O3 0.893844 0.269452 0.455021
O O4 0.948450 0.106201 0.650276
O O5 0.628010 0.382459 0.011880
O O6 0.542706 0.143745 0.018041
O O7 0.571198 0.277457 0.773064
O O8 0.623079 0.989524 0.758406
#
# Coordination Sequence:
#
# PCOD9250247 Si02
#       4
#     4   4   4   4
#     4   9  22  39  65  91 119 169 211 245 297 385
#     4  10  24  38  67  90 124 164 210 247 314 367
#     4   9  21  43  64  88 126 169 205 243 315 378
#     4  12  21  39  66  95 121 165 210 255 302 374
#
# _framework density 23.902445
#
# number of rings (size 3 to 8) (size 9 to 14) (size 15 to 20)
#    1.500    0.500    2.500    0.750    3.500    0.000 
#    0.000    2.500    0.000    0.000    0.000    0.000 
#    0.000    0.000    0.000    0.000    0.000    0.000 
#
# Total GULP energy -89379.159150 kJ/mol
# GULP energy per Si atom -5586.197447 kJ/mol
# Density = 2.384804 g / cm^3
# Si number density = 23.902445 Si / 1000 Ang^3
#
#
#
# Elastic Constant Matrix: (Units=GPa)
#
#
# Indices 1 2 3 4 5 6 
#
# 1 113.5647 20.4142 35.8753 0.0000 27.2538 0.0000
# 2 20.4142 43.0102 21.5932 0.0000 -3.1112 0.0000
# 3 35.8753 21.5932 131.3102 0.0000 -2.0735 0.0000
# 4 0.0000 0.0000 0.0000 43.2309 0.0000 -17.9658
# 5 27.2538 -3.1112 -2.0735 0.0000 49.7251 0.0000
# 6 0.0000 0.0000 0.0000 -17.9658 0.0000 13.2125
#
#
#
# Elastic Compliance Matrix: (Units=1/GPa)
#
#
# Indices 1 2 3 4 5 6 
#
# 1 0.012252 -0.005008 -0.002637 0.000000 -0.007138 0.000000
# 2 -0.005008 0.027489 -0.003084 0.000000 0.004336 0.000000
# 3 -0.002637 -0.003084 0.008869 0.000000 0.001622 0.000000
# 4 0.000000 0.000000 0.000000 0.053186 0.000000 0.072320
# 5 -0.007138 0.004336 0.001622 0.000000 0.024362 0.000000
# 6 0.000000 0.000000 0.000000 0.072320 0.000000 0.174023
#
#
# Mechanical properties :
#
#
# Convention : Reuss Voigt Hill
#
# Bulk Modulus (GPa) = 36.82809 49.29450 43.06129
# Shear Modulus (GPa) = 15.12000 35.23386 25.17693
#
# Velocity S-wave (km/s) = 2.51783 3.84353 3.24901
# Velocity P-wave (km/s) = 4.88812 6.35334 5.66827
#
# Compressibility (1/GPa) = 0.02715319
#
# Stress axis : x y z
#
# Youngs Moduli (GPa) = 81.62133 36.37815 112.75750
#
# Poissons Ratio (x) = 0.18217 0.29729
# Poissons Ratio (y) = 0.40874 0.34772
# Poissons Ratio (z) = 0.21519 0.11218
#
# Static dielectric constant tensor:
#      x y z
#    x 1.920250 0.000000 -0.030030 
#    y 0.000000 1.970300 0.000000 
#    z -0.030030 0.000000 1.912620 
# 
# From -- ./inp_files/7520.got.cif
#   From: 2010.05.17/outbox.cif.g08.bks.cpg/sg14_4_cif.got.tgz:7520.got - 2010.06.03 17:49:19.
