data_PCOD9250607
_publ_section_title
;
Structure prediction by ZEFSAII (Michael W. Deem and Ramdas Pophale) SiO2 
 PCOD9250607
Probable space group: P 21/C
;
_chemical_formula_sum "Si O2"
_cell_formula_units_Z 18
_cell_length_a 10.810302
_cell_length_b 4.688203
_cell_length_c 23.673381
_cell_angle_alpha 90.000000
_cell_angle_beta 34.378890
_cell_angle_gamma 90.000000
_cell_volume 677.475859
_symmetry_space_group_name_H-M "P 21/C"
_symmetry_group_IT_number 14
_symmetry_cell_setting 'monoclinic'
loop_
_space_group_symop_operation_xyz
x,y,z
-x,1/2+y,1/2-z
-x,-y,-z
x,1/2-y,1/2+z
loop_
_atom_site_type_symbol
_atom_site_label
_atom_site_fract_x
_atom_site_fract_y
_atom_site_fract_z
Si Si1 0.668319 0.740585 0.836016
Si Si2 0.000000 0.000000 0.500000
Si Si3 0.856233 0.394614 0.365803
Si Si4 0.247620 0.108075 0.524016
Si Si5 0.564001 0.382502 0.689358
O O1 0.486069 0.515813 0.923318
O O2 0.573354 0.892546 0.816146
O O3 0.885922 0.566380 0.738058
O O4 0.733467 0.966624 0.859481
O O5 0.100533 0.047203 0.525336
O O6 0.200986 0.758285 0.410391
O O7 0.768216 0.562951 0.453651
O O8 0.831001 0.063832 0.390735
O O9 0.575056 0.693014 0.713231
#
# Coordination Sequence:
#
# PCOD9250607 Si02
#       5
#     4   2   4   4   4
#     4  11  26  44  70 100 137 180 227 278 339 404
#     4  10  24  44  70 100 134 178 224 278 340 400
#     4  12  25  44  67  99 137 179 224 277 334 401
#     4  11  26  44  69 100 136 176 226 279 336 402
#     4  11  25  44  69 101 135 176 226 281 339 403
#
# _framework density 26.569213000000001
#
# number of rings (size 3 to 8) (size 9 to 14) (size 15 to 20)
#    0.000    0.889    0.000    5.333    0.000   16.000 
#    0.000    0.000    0.000    0.000    0.000    0.000 
#    0.000    0.000    0.000    0.000    0.000    0.000 
#
# Total GULP energy -100661.303179 kJ/mol
# GULP energy per Si atom -5592.294621 kJ/mol
# Density = 2.650874 g / cm^3
# Si number density = 26.569213 Si / 1000 Ang^3
#
#
#
# Elastic Constant Matrix: (Units=GPa)
#
#
# Indices 1 2 3 4 5 6 
#
# 1 200.0503 31.2975 66.4807 0.0000 -39.6257 0.0000
# 2 31.2975 100.7027 16.4402 0.0000 -7.4300 0.0000
# 3 66.4807 16.4402 120.6805 0.0000 -28.7069 0.0000
# 4 0.0000 0.0000 0.0000 26.4807 0.0000 4.7715
# 5 -39.6257 -7.4300 -28.7069 0.0000 47.1787 0.0000
# 6 0.0000 0.0000 0.0000 4.7715 0.0000 34.8170
#
#
#
# Elastic Compliance Matrix: (Units=1/GPa)
#
#
# Indices 1 2 3 4 5 6 
#
# 1 0.006885 -0.001414 -0.002663 0.000000 0.003940 0.000000
# 2 -0.001414 0.010478 -0.000629 0.000000 0.000079 0.000000
# 3 -0.002663 -0.000629 0.010855 0.000000 0.004269 0.000000
# 4 0.000000 0.000000 0.000000 0.038719 0.000000 -0.005306
# 5 0.003940 0.000079 0.004269 0.000000 0.027115 0.000000
# 6 0.000000 0.000000 0.000000 -0.005306 0.000000 0.029449
#
#
# Mechanical properties :
#
#
# Convention : Reuss Voigt Hill
#
# Bulk Modulus (GPa) = 53.17908 72.20779 62.69344
# Shear Modulus (GPa) = 35.92364 42.17630 39.04997
#
# Velocity S-wave (km/s) = 3.68105 3.98856 3.83788
# Velocity P-wave (km/s) = 6.17459 6.96044 6.57926
#
# Compressibility (1/GPa) = 0.01880439
#
# Stress axis : x y z
#
# Youngs Moduli (GPa) = 145.23333 95.43415 92.12669
#
# Poissons Ratio (x) = 0.13499 0.24535
# Poissons Ratio (y) = 0.20543 0.05799
# Poissons Ratio (z) = 0.38678 0.06007
#
# Static dielectric constant tensor:
#      x y z
#    x 1.953330 0.000000 0.036620 
#    y 0.000000 2.033460 0.000000 
#    z 0.036620 0.000000 2.123210 
# 
# From -- ./inp_files/75989.got.cif
#   From: 2010.05.17/outbox.cif.g08.bks.cpg/sg14_38_cif.got.tgz:75989.got - 2010.06.03 17:49:19.
