data_PCOD9250953
_publ_section_title
;
Structure prediction by ZEFSAII (Michael W. Deem and Ramdas Pophale) SiO2 
 PCOD9250953
Probable space group: P 21/C
;
_chemical_formula_sum "Si O2"
_cell_formula_units_Z 28
_cell_length_a 4.968409
_cell_length_b 9.283657
_cell_length_c 30.794308
_cell_angle_alpha 90.000000
_cell_angle_beta 54.731005
_cell_angle_gamma 90.000000
_cell_volume 1159.675709
_symmetry_space_group_name_H-M "P 21/C"
_symmetry_group_IT_number 14
_symmetry_cell_setting 'monoclinic'
loop_
_space_group_symop_operation_xyz
x,y,z
-x,1/2+y,1/2-z
-x,-y,-z
x,1/2-y,1/2+z
loop_
_atom_site_type_symbol
_atom_site_label
_atom_site_fract_x
_atom_site_fract_y
_atom_site_fract_z
Si Si1 0.695530 0.764658 0.690174
Si Si2 0.423559 0.151805 0.395992
Si Si3 0.958235 0.409059 0.461139
Si Si4 0.351294 0.017896 0.231592
Si Si5 0.783538 0.513479 0.937257
Si Si6 0.922751 0.987452 0.837376
Si Si7 0.684903 0.838177 0.933088
O O1 0.547369 0.822767 0.658782
O O2 0.771435 0.891041 0.716508
O O3 0.431018 0.649635 0.733992
O O4 0.012718 0.656329 0.656097
O O5 0.255480 0.300821 0.427010
O O6 0.689674 0.087450 0.404705
O O7 0.124041 0.037142 0.426327
O O8 0.616776 0.328714 0.504591
O O9 0.901797 0.527770 0.429875
O O10 0.000000 0.500000 0.500000
O O11 0.717311 0.078681 0.186701
O O12 0.136285 0.021041 0.208477
O O13 0.821257 0.678413 0.919118
O O14 0.500000 0.500000 0.000000
O O15 0.639701 0.899017 0.888555
#
# Coordination Sequence:
#
# PCOD9250953 Si02
#       7
#     4   4   4   4   4   4   4
#     4  10  26  46  74 101 138 181 235 291 368 414
#     4  12  27  46  72 102 148 189 235 297 349 430
#     4  11  24  40  73 100 145 189 238 280 351 418
#     4  10  25  44  73  96 143 169 238 289 362 420
#     4  12  27  46  67 103 149 188 237 287 354 409
#     4  10  25  42  70 100 136 175 236 285 351 430
#     4  11  25  43  68 103 139 189 234 293 344 432
#
# _framework density 24.144679
#
# number of rings (size 3 to 8) (size 9 to 14) (size 15 to 20)
#    0.857    0.286    2.857    1.286   12.000    2.286 
#    0.000    0.000    0.000    0.000    0.000    0.000 
#    0.000    0.000    0.000    0.000    0.000    0.000 
#
# Total GULP energy -156409.065086 kJ/mol
# GULP energy per Si atom -5586.038039 kJ/mol
# Density = 2.408973 g / cm^3
# Si number density = 24.144679 Si / 1000 Ang^3
#
#
#
# Elastic Constant Matrix: (Units=GPa)
#
#
# Indices 1 2 3 4 5 6 
#
# 1 63.0710 -14.8784 2.6924 0.0000 6.3819 0.0000
# 2 -14.8784 123.7337 39.4990 0.0000 6.1519 0.0000
# 3 2.6924 39.4990 106.9148 0.0000 14.8104 0.0000
# 4 0.0000 0.0000 0.0000 51.3617 0.0000 1.8670
# 5 6.3819 6.1519 14.8104 0.0000 39.3681 0.0000
# 6 0.0000 0.0000 0.0000 1.8670 0.0000 23.3133
#
#
#
# Elastic Compliance Matrix: (Units=1/GPa)
#
#
# Indices 1 2 3 4 5 6 
#
# 1 0.016752 0.002453 -0.000948 0.000000 -0.002742 0.000000
# 2 0.002453 0.009523 -0.003501 0.000000 -0.000569 0.000000
# 3 -0.000948 -0.003501 0.011155 0.000000 -0.003496 0.000000
# 4 0.000000 0.000000 0.000000 0.019527 0.000000 -0.001564
# 5 -0.002742 -0.000569 -0.003496 0.000000 0.027250 0.000000
# 6 0.000000 0.000000 0.000000 -0.001564 0.000000 0.043019
#
#
# Mechanical properties :
#
#
# Convention : Reuss Voigt Hill
#
# Bulk Modulus (GPa) = 29.90674 38.70506 34.30590
# Shear Modulus (GPa) = 35.12149 40.56906 37.84527
#
# Velocity S-wave (km/s) = 3.81809 4.10353 3.96338
# Velocity P-wave (km/s) = 5.64362 6.20622 5.93160
#
# Compressibility (1/GPa) = 0.03343728
#
# Stress axis : x y z
#
# Youngs Moduli (GPa) = 59.69484 105.01092 89.64718
#
# Poissons Ratio (x) = -0.25764 0.08502
# Poissons Ratio (y) = -0.14646 0.31387
# Poissons Ratio (z) = 0.05661 0.36766
#
# Static dielectric constant tensor:
#      x y z
#    x 2.137020 0.000000 -0.022580 
#    y 0.000000 1.945640 0.000000 
#    z -0.022580 0.000000 2.229370 
# 
# From -- ./inp_files/78663.got.cif
#   From: 2010.05.17/outbox.cif.g08.bks.cpg/sg14_40_cif.got.tgz:78663.got - 2010.06.03 17:49:19.
