data_PCOD9250909
_publ_section_title
;
Structure prediction by ZEFSAII (Michael W. Deem and Ramdas Pophale) SiO2 
 PCOD9250909
Probable space group: P 21/C
;
_chemical_formula_sum "Si O2"
_cell_formula_units_Z 26
_cell_length_a 11.338265
_cell_length_b 10.407278
_cell_length_c 9.956581
_cell_angle_alpha 90.000000
_cell_angle_beta 83.256885
_cell_angle_gamma 90.000000
_cell_volume 1166.754142
_symmetry_space_group_name_H-M "P 21/C"
_symmetry_group_IT_number 14
_symmetry_cell_setting 'monoclinic'
loop_
_space_group_symop_operation_xyz
x,y,z
-x,1/2+y,1/2-z
-x,-y,-z
x,1/2-y,1/2+z
loop_
_atom_site_type_symbol
_atom_site_label
_atom_site_fract_x
_atom_site_fract_y
_atom_site_fract_z
Si Si1 0.384595 0.001688 0.108835
Si Si2 0.550337 0.918766 0.616247
Si Si3 0.241671 0.254603 0.530594
Si Si4 0.793116 0.204930 0.993467
Si Si5 0.298421 0.647980 0.219448
Si Si6 0.000000 0.500000 0.500000
Si Si7 0.158427 0.094207 0.783792
O O1 0.418241 0.995313 0.259777
O O2 0.316622 0.136620 0.097377
O O3 0.299068 0.891078 0.067698
O O4 0.500000 0.000000 0.000000
O O5 0.664239 0.839090 0.553190
O O6 0.437501 0.832386 0.674902
O O7 0.500000 0.000000 0.500000
O O8 0.162819 0.181047 0.651631
O O9 0.168745 0.328706 0.424467
O O10 0.782402 0.327731 0.900240
O O11 0.746362 0.229934 0.149025
O O12 0.912642 0.124528 0.987276
O O13 0.273154 0.499363 0.262370
O O14 0.954773 0.507706 0.666831
#
# Coordination Sequence:
#
# PCOD9250909 Si02
#       7
#     4   4   4   4   4   2   4
#     4  12  23  43  68 102 147 198 236 301 379 434
#     4  12  25  38  67 105 150 189 238 295 368 455
#     4  12  23  41  68 103 141 192 238 304 359 448
#     4  11  25  44  73  97 146 188 249 302 366 435
#     4  11  24  43  64 107 142 191 241 299 365 445
#     4  10  24  50  72  98 134 192 244 304 362 422
#     4  11  24  45  70  99 140 187 248 300 364 429
#
# _framework density 22.284043
#
# number of rings (size 3 to 8) (size 9 to 14) (size 15 to 20)
#    0.000    0.615    7.692    0.923    2.154    2.462 
#    0.000    0.000    0.000    6.462    0.000    0.000 
#    0.000    0.000    0.000    0.000    0.000    0.000 
#
# Total GULP energy -144854.685414 kJ/mol
# GULP energy per Si atom -5571.334054 kJ/mol
# Density = 2.223332 g / cm^3
# Si number density = 22.284043 Si / 1000 Ang^3
#
#
#
# Elastic Constant Matrix: (Units=GPa)
#
#
# Indices 1 2 3 4 5 6 
#
# 1 60.1714 -2.2305 14.3820 0.0000 -10.1791 0.0000
# 2 -2.2305 26.7476 6.7017 0.0000 3.5272 0.0000
# 3 14.3820 6.7017 137.7552 0.0000 -2.0089 0.0000
# 4 0.0000 0.0000 0.0000 53.4743 0.0000 10.7485
# 5 -10.1791 3.5272 -2.0089 0.0000 32.1407 0.0000
# 6 0.0000 0.0000 0.0000 10.7485 0.0000 15.3606
#
#
#
# Elastic Compliance Matrix: (Units=1/GPa)
#
#
# Indices 1 2 3 4 5 6 
#
# 1 0.018034 0.001251 -0.001864 0.000000 0.005458 0.000000
# 2 0.001251 0.038530 -0.002063 0.000000 -0.003961 0.000000
# 3 -0.001864 -0.002063 0.007556 0.000000 0.000108 0.000000
# 4 0.000000 0.000000 0.000000 0.021761 0.000000 -0.015227
# 5 0.005458 -0.003961 0.000108 0.000000 0.033283 0.000000
# 6 0.000000 0.000000 0.000000 -0.015227 0.000000 0.075757
#
#
# Mechanical properties :
#
#
# Convention : Reuss Voigt Hill
#
# Bulk Modulus (GPa) = 17.01581 29.15340 23.08460
# Shear Modulus (GPa) = 22.74147 33.91652 28.32899
#
# Velocity S-wave (km/s) = 3.19803 3.90553 3.56935
# Velocity P-wave (km/s) = 4.61400 5.78347 5.23152
#
# Compressibility (1/GPa) = 0.05876887
#
# Stress axis : x y z
#
# Youngs Moduli (GPa) = 55.44951 25.95376 132.34846
#
# Poissons Ratio (x) = -0.03248 0.24671
# Poissons Ratio (y) = -0.06938 0.27302
# Poissons Ratio (z) = 0.10337 0.05354
#
# Static dielectric constant tensor:
#      x y z
#    x 1.714450 0.000000 -0.032640 
#    y 0.000000 1.825260 0.000000 
#    z -0.032640 0.000000 1.856260 
# 
# From -- ./inp_files/12480.got.cif
#   From: 2010.05.17/outbox.cif.g08.bks.cpg/sg14_7_cif.got.tgz:12480.got - 2010.06.03 17:49:19.
