data_PCOD9250550
_publ_section_title
;
Structure prediction by ZEFSAII (Michael W. Deem and Ramdas Pophale) SiO2 
 PCOD9250550
Probable space group: P 21/C
;
_chemical_formula_sum "Si O2"
_cell_formula_units_Z 24
_cell_length_a 5.325268
_cell_length_b 14.129037
_cell_length_c 18.418686
_cell_angle_alpha 90.000000
_cell_angle_beta 43.951994
_cell_angle_gamma 90.000000
_cell_volume 961.848838
_symmetry_space_group_name_H-M "P 21/C"
_symmetry_group_IT_number 14
_symmetry_cell_setting 'monoclinic'
loop_
_space_group_symop_operation_xyz
x,y,z
-x,1/2+y,1/2-z
-x,-y,-z
x,1/2-y,1/2+z
loop_
_atom_site_type_symbol
_atom_site_label
_atom_site_fract_x
_atom_site_fract_y
_atom_site_fract_z
Si Si1 0.789237 0.933757 0.400611
Si Si2 0.818079 0.730806 0.160343
Si Si3 0.187899 0.412894 0.259203
Si Si4 0.667855 0.767243 0.524173
Si Si5 0.504194 0.054060 0.211027
Si Si6 0.613492 0.558204 0.548176
O O1 0.638197 0.898687 0.354709
O O2 0.874706 0.843979 0.432465
O O3 0.134377 0.997728 0.308448
O O4 0.500000 0.000000 0.500000
O O5 0.703626 0.838007 0.202337
O O6 0.715339 0.707860 0.099113
O O7 0.610977 0.661773 0.258648
O O8 0.249832 0.722424 0.083954
O O9 0.242371 0.519059 0.276225
O O10 0.761278 0.397988 0.342181
O O11 0.800166 0.658174 0.488541
O O12 0.692239 0.015132 0.098238
O O13 0.500000 0.500000 0.500000
#
# Coordination Sequence:
#
# PCOD9250550 Si02
#       6
#     4   4   4   4   4   4
#     4  11  23  41  68 100 134 176 226 279 343 401
#     4  11  24  44  69  95 142 177 221 282 342 394
#     4  10  24  44  64 100 138 177 226 284 338 406
#     4  11  24  45  67 102 138 175 226 283 333 407
#     4  11  23  43  69  97 135 179 227 280 339 407
#     4  10  24  46  66  97 137 182 230 278 338 410
#
# _framework density 24.951944999999998
#
# number of rings (size 3 to 8) (size 9 to 14) (size 15 to 20)
#    0.000    1.333    3.333    1.000    7.000    2.000 
#    3.000    0.000    0.000    0.000    0.000    0.000 
#    0.000    0.000    0.000    0.000    0.000    0.000 
#
# Total GULP energy -134151.751979 kJ/mol
# GULP energy per Si atom -5589.656332 kJ/mol
# Density = 2.489515 g / cm^3
# Si number density = 24.951945 Si / 1000 Ang^3
#
#
#
# Elastic Constant Matrix: (Units=GPa)
#
#
# Indices 1 2 3 4 5 6 
#
# 1 71.0753 -4.5252 14.5939 0.0000 17.7020 0.0000
# 2 -4.5252 117.0345 14.7640 0.0000 6.5395 0.0000
# 3 14.5939 14.7640 125.0277 0.0000 24.5416 0.0000
# 4 0.0000 0.0000 0.0000 37.5973 0.0000 0.2970
# 5 17.7020 6.5395 24.5416 0.0000 53.8844 0.0000
# 6 0.0000 0.0000 0.0000 0.2970 0.0000 32.1443
#
#
#
# Elastic Compliance Matrix: (Units=1/GPa)
#
#
# Indices 1 2 3 4 5 6 
#
# 1 0.015524 0.000992 -0.000993 0.000000 -0.004768 0.000000
# 2 0.000992 0.008757 -0.000963 0.000000 -0.000950 0.000000
# 3 -0.000993 -0.000963 0.008940 0.000000 -0.003629 0.000000
# 4 0.000000 0.000000 0.000000 0.026600 0.000000 -0.000246
# 5 -0.004768 -0.000950 -0.003629 0.000000 0.021893 0.000000
# 6 0.000000 0.000000 0.000000 -0.000246 0.000000 0.031112
#
#
# Mechanical properties :
#
#
# Convention : Reuss Voigt Hill
#
# Bulk Modulus (GPa) = 31.95678 40.31142 36.13410
# Shear Modulus (GPa) = 39.94047 43.94552 41.94299
#
# Velocity S-wave (km/s) = 4.00521 4.20123 4.10439
# Velocity P-wave (km/s) = 5.85013 6.30273 6.08065
#
# Compressibility (1/GPa) = 0.03129227
#
# Stress axis : x y z
#
# Youngs Moduli (GPa) = 64.41555 114.18829 111.85446
#
# Poissons Ratio (x) = -0.11327 0.11111
# Poissons Ratio (y) = -0.06390 0.10777
# Poissons Ratio (z) = 0.06398 0.11002
#
# Static dielectric constant tensor:
#      x y z
#    x 2.156230 0.000000 -0.058250 
#    y 0.000000 1.737850 0.000000 
#    z -0.058250 0.000000 1.970640 
# 
# From -- ./inp_files/37133.got.cif
#   From: 2010.05.17/outbox.cif.g08.bks.cpg/sg14_19_cif.got.tgz:37133.got - 2010.06.03 17:49:19.
