data_PCOD9250387
_publ_section_title
;
Structure prediction by ZEFSAII (Michael W. Deem and Ramdas Pophale) SiO2 
 PCOD9250387
Probable space group: P 21/C
;
_chemical_formula_sum "Si O2"
_cell_formula_units_Z 24
_cell_length_a 5.151770
_cell_length_b 9.789412
_cell_length_c 22.503719
_cell_angle_alpha 90.000000
_cell_angle_beta 62.751064
_cell_angle_gamma 90.000000
_cell_volume 1008.977908
_symmetry_space_group_name_H-M "P 21/C"
_symmetry_group_IT_number 14
_symmetry_cell_setting 'monoclinic'
loop_
_space_group_symop_operation_xyz
x,y,z
-x,1/2+y,1/2-z
-x,-y,-z
x,1/2-y,1/2+z
loop_
_atom_site_type_symbol
_atom_site_label
_atom_site_fract_x
_atom_site_fract_y
_atom_site_fract_z
Si Si1 0.767765 0.519547 0.891843
Si Si2 0.831108 0.152884 0.562406
Si Si3 0.081638 0.769746 0.825603
Si Si4 0.664858 0.480454 0.391843
Si Si5 0.919269 0.847116 0.062407
Si Si6 0.384053 0.769746 0.674397
O O1 0.456406 0.590029 0.935718
O O2 0.712369 0.377782 0.865403
O O3 0.963400 0.534993 0.930424
O O4 0.934889 0.622490 0.829498
O O5 0.753044 0.241972 0.629608
O O6 0.003722 0.250001 0.500000
O O7 0.284693 0.812334 0.750000
O O8 0.826018 0.877782 0.865402
O O9 0.314903 0.465007 0.430423
O O10 0.747111 0.377511 0.329498
O O11 0.800718 0.409972 0.435718
O O12 0.728527 0.758028 0.129609
#
# Coordination Sequence:
#
# PCOD9250387 Si02
#       6
#     4   4   4   4   4   4
#     4  10  24  42  66  96 125 171 215 261 323 379
#     4  10  24  43  66  98 130 169 215 267 321 382
#     4  10  24  43  66  95 132 170 216 268 321 382
#     4  10  24  42  66  96 125 171 215 261 323 379
#     4  10  24  43  66  98 130 169 215 267 321 382
#     4  10  24  43  66  95 132 170 216 268 321 382
#
# _framework density 23.786446000000002
#
# number of rings (size 3 to 8) (size 9 to 14) (size 15 to 20)
#    2.000    0.000    0.000    2.000    4.667    5.333 
#    0.000    0.000    0.000    0.000    0.000    0.000 
#    0.000    0.000    0.000    0.000    0.000    0.000 
#
# Total GULP energy -134038.747888 kJ/mol
# GULP energy per Si atom -5584.947829 kJ/mol
# Density = 2.373231 g / cm^3
# Si number density = 23.786446 Si / 1000 Ang^3
#
#
#
# Elastic Constant Matrix: (Units=GPa)
#
#
# Indices 1 2 3 4 5 6 
#
# 1 96.8161 -1.3851 -4.2085 0.0000 -0.0012 0.0000
# 2 -1.3851 72.1137 -3.7078 0.0000 -0.0009 0.0000
# 3 -4.2085 -3.7078 100.2635 0.0000 -0.0009 0.0000
# 4 0.0000 0.0000 0.0000 33.5511 0.0000 -0.0002
# 5 -0.0012 -0.0009 -0.0009 0.0000 13.7345 0.0000
# 6 0.0000 0.0000 0.0000 -0.0002 0.0000 19.9476
#
#
#
# Elastic Compliance Matrix: (Units=1/GPa)
#
#
# Indices 1 2 3 4 5 6 
#
# 1 0.010351 0.000222 0.000443 0.000000 0.000001 0.000000
# 2 0.000222 0.013898 0.000523 0.000000 0.000001 0.000000
# 3 0.000443 0.000523 0.010012 0.000000 0.000001 0.000000
# 4 0.000000 0.000000 0.000000 0.029805 0.000000 0.000000
# 5 0.000001 0.000001 0.000001 0.000000 0.072810 0.000000
# 6 0.000000 0.000000 0.000000 0.000000 0.000000 0.050131
#
#
# Mechanical properties :
#
#
# Convention : Reuss Voigt Hill
#
# Bulk Modulus (GPa) = 27.29548 27.84341 27.56944
# Shear Modulus (GPa) = 25.40078 32.01294 28.70686
#
# Velocity S-wave (km/s) = 3.27137 3.67256 3.47775
# Velocity P-wave (km/s) = 5.07635 5.45111 5.26706
#
# Compressibility (1/GPa) = 0.03663610
#
# Stress axis : x y z
#
# Youngs Moduli (GPa) = 96.60650 71.95205 99.88364
#
# Poissons Ratio (x) = -0.01594 -0.04422
# Poissons Ratio (y) = -0.02141 -0.05226
# Poissons Ratio (z) = -0.04277 -0.03765
#
# Static dielectric constant tensor:
#      x y z
#    x 1.887170 0.000000 0.000000 
#    y 0.000000 1.949690 0.000000 
#    z 0.000000 0.000000 1.905150 
# 
# From -- ./inp_files/71151.got.cif
#   From: 2010.05.17/outbox.cif.g08.bks.cpg/sg14_36_cif.got.tgz:71151.got - 2010.06.03 17:49:19.
