data_PCOD9250487
_publ_section_title
;
Structure prediction by ZEFSAII (Michael W. Deem and Ramdas Pophale) SiO2 
 PCOD9250487
Probable space group: P 21/C
;
_chemical_formula_sum "Si O2"
_cell_formula_units_Z 28
_cell_length_a 8.181263
_cell_length_b 8.026552
_cell_length_c 26.210370
_cell_angle_alpha 90.000000
_cell_angle_beta 46.267723
_cell_angle_gamma 90.000000
_cell_volume 1243.675737
_symmetry_space_group_name_H-M "P 21/C"
_symmetry_group_IT_number 14
_symmetry_cell_setting 'monoclinic'
loop_
_space_group_symop_operation_xyz
x,y,z
-x,1/2+y,1/2-z
-x,-y,-z
x,1/2-y,1/2+z
loop_
_atom_site_type_symbol
_atom_site_label
_atom_site_fract_x
_atom_site_fract_y
_atom_site_fract_z
Si Si1 0.335927 0.430887 0.625189
Si Si2 0.857227 0.108367 0.568985
Si Si3 0.355393 0.112870 0.698267
Si Si4 0.047475 0.716992 0.358106
Si Si5 0.686686 0.229315 0.795347
Si Si6 0.832739 0.103141 0.999115
Si Si7 0.771320 0.621729 0.659659
O O1 0.322591 0.268409 0.666609
O O2 0.162659 0.384123 0.618232
O O3 0.265446 0.597369 0.670743
O O4 0.583225 0.471532 0.547623
O O5 0.621838 0.064950 0.646831
O O6 0.775022 0.243866 0.546953
O O7 0.014908 0.173048 0.580295
O O8 0.000000 0.000000 0.500000
O O9 0.261723 0.165834 0.774014
O O10 0.264890 0.925757 0.703204
O O11 0.160554 0.811264 0.286892
O O12 0.230056 0.581125 0.339163
O O13 0.429050 0.193274 0.832054
O O14 0.986449 0.159347 0.918449
O O15 0.000000 0.000000 0.000000
#
# Coordination Sequence:
#
# PCOD9250487 Si02
#       7
#     4   4   4   4   4   4   4
#     4  11  26  45  68 100 155 173 225 303 349 425
#     4  11  22  41  68  99 139 178 239 293 334 417
#     4  10  24  43  67 104 135 178 236 292 338 424
#     4  11  25  42  66 107 143 181 233 295 355 417
#     4  11  23  41  73  99 133 191 232 279 362 411
#     4  11  21  41  68  97 130 187 236 280 344 416
#     4  11  21  41  70  96 130 177 244 279 335 418
#
# _framework density 22.513905999999999
#
# number of rings (size 3 to 8) (size 9 to 14) (size 15 to 20)
#    0.000    1.143    4.286    1.714    6.000    1.714 
#    0.000    5.714    0.000    0.000    0.000    0.000 
#    0.000    0.000    0.000    0.000    0.000    0.000 
#
# Total GULP energy -156105.925708 kJ/mol
# GULP energy per Si atom -5575.211632 kJ/mol
# Density = 2.246266 g / cm^3
# Si number density = 22.513906 Si / 1000 Ang^3
#
#
#
# Elastic Constant Matrix: (Units=GPa)
#
#
# Indices 1 2 3 4 5 6 
#
# 1 61.7259 24.1978 38.8556 0.0000 7.6292 0.0000
# 2 24.1978 65.7548 17.3738 0.0000 11.8474 0.0000
# 3 38.8556 17.3738 164.3101 0.0000 8.1832 0.0000
# 4 0.0000 0.0000 0.0000 38.0324 0.0000 12.7224
# 5 7.6292 11.8474 8.1832 0.0000 21.0132 0.0000
# 6 0.0000 0.0000 0.0000 12.7224 0.0000 28.8960
#
#
#
# Elastic Compliance Matrix: (Units=1/GPa)
#
#
# Indices 1 2 3 4 5 6 
#
# 1 0.021761 -0.006391 -0.004340 0.000000 -0.002607 0.000000
# 2 -0.006391 0.019099 -0.000089 0.000000 -0.008413 0.000000
# 3 -0.004340 -0.000089 0.007180 0.000000 -0.001170 0.000000
# 4 0.000000 0.000000 0.000000 0.030835 0.000000 -0.013576
# 5 -0.002607 -0.008413 -0.001170 0.000000 0.053735 0.000000
# 6 0.000000 0.000000 0.000000 -0.013576 0.000000 0.040584
#
#
# Mechanical properties :
#
#
# Convention : Reuss Voigt Hill
#
# Bulk Modulus (GPa) = 37.88082 50.29391 44.08737
# Shear Modulus (GPa) = 24.55375 31.67921 28.11648
#
# Velocity S-wave (km/s) = 3.30601 3.75520 3.53774
# Velocity P-wave (km/s) = 5.60669 6.41791 6.02597
#
# Compressibility (1/GPa) = 0.02639858
#
# Stress axis : x y z
#
# Youngs Moduli (GPa) = 45.95469 52.35746 139.27342
#
# Poissons Ratio (x) = 0.33464 0.60448
# Poissons Ratio (y) = 0.29372 0.01241
# Poissons Ratio (z) = 0.19945 0.00466
#
# Static dielectric constant tensor:
#      x y z
#    x 2.110310 0.000000 -0.378420 
#    y 0.000000 1.934510 0.000000 
#    z -0.378420 0.000000 2.307150 
# 
# From -- ./inp_files/76402.got.cif
#   From: 2010.05.17/outbox.cif.g08.bks.cpg/sg14_39_cif.got.tgz:76402.got - 2010.06.03 17:49:19.
