data_PCOD9250580
_publ_section_title
;
Structure prediction by ZEFSAII (Michael W. Deem and Ramdas Pophale) SiO2 
 PCOD9250580
Probable space group: P 21/C
;
_chemical_formula_sum "Si O2"
_cell_formula_units_Z 16
_cell_length_a 5.004585
_cell_length_b 14.923870
_cell_length_c 7.817071
_cell_angle_alpha 90.000000
_cell_angle_beta 79.192474
_cell_angle_gamma 90.000000
_cell_volume 573.483867
_symmetry_space_group_name_H-M "P 21/C"
_symmetry_group_IT_number 14
_symmetry_cell_setting 'monoclinic'
loop_
_space_group_symop_operation_xyz
x,y,z
-x,1/2+y,1/2-z
-x,-y,-z
x,1/2-y,1/2+z
loop_
_atom_site_type_symbol
_atom_site_label
_atom_site_fract_x
_atom_site_fract_y
_atom_site_fract_z
Si Si1 0.638003 0.509225 0.760447
Si Si2 0.750867 0.325118 0.182692
Si Si3 0.889940 0.593054 0.154592
Si Si4 0.151579 0.856635 0.950206
O O1 0.499596 0.605272 0.774588
O O2 0.406026 0.441204 0.857271
O O3 0.719852 0.456335 0.576638
O O4 0.912326 0.492800 0.834135
O O5 0.896407 0.333908 0.348542
O O6 0.666893 0.223180 0.152430
O O7 0.955994 0.347972 0.003419
O O8 0.906993 0.638433 0.341584
#
# Coordination Sequence:
#
# PCOD9250580 Si02
#       4
#     4   4   4   4
#     4  10  24  48  69  99 137 175 227 275 338 392
#     4  12  21  47  69 101 137 182 217 287 325 407
#     4  10  24  47  65 102 131 176 226 273 336 395
#     4  10  24  44  67 105 133 178 229 271 339 395
#
# _framework density 27.899650000000001
#
# number of rings (size 3 to 8) (size 9 to 14) (size 15 to 20)
#    1.500    0.000    2.500    2.250    0.000    1.000 
#   18.000    0.000    0.000    0.000    0.000    0.000 
#    0.000    0.000    0.000    0.000    0.000    0.000 
#
# Total GULP energy -89502.392689 kJ/mol
# GULP energy per Si atom -5593.899543 kJ/mol
# Density = 2.783615 g / cm^3
# Si number density = 27.899650 Si / 1000 Ang^3
#
#
#
# Elastic Constant Matrix: (Units=GPa)
#
#
# Indices 1 2 3 4 5 6 
#
# 1 129.2200 44.5126 47.0423 0.0000 10.9951 0.0000
# 2 44.5126 150.6928 43.1366 0.0000 1.0158 0.0000
# 3 47.0423 43.1366 162.6782 0.0000 31.2935 0.0000
# 4 0.0000 0.0000 0.0000 58.8792 0.0000 -2.8459
# 5 10.9951 1.0158 31.2935 0.0000 47.1113 0.0000
# 6 0.0000 0.0000 0.0000 -2.8459 0.0000 33.9324
#
#
#
# Elastic Compliance Matrix: (Units=1/GPa)
#
#
# Indices 1 2 3 4 5 6 
#
# 1 0.009266 -0.002175 -0.001944 0.000000 -0.000824 0.000000
# 2 -0.002175 0.007759 -0.001713 0.000000 0.001478 0.000000
# 3 -0.001944 -0.001713 0.008105 0.000000 -0.004893 0.000000
# 4 0.000000 0.000000 0.000000 0.017053 0.000000 0.001430
# 5 -0.000824 0.001478 -0.004893 0.000000 0.024637 0.000000
# 6 0.000000 0.000000 0.000000 0.001430 0.000000 0.029590
#
#
# Mechanical properties :
#
#
# Convention : Reuss Voigt Hill
#
# Bulk Modulus (GPa) = 74.26318 79.10821 76.68570
# Shear Modulus (GPa) = 44.42006 48.51121 46.46563
#
# Velocity S-wave (km/s) = 3.99449 4.17439 4.08543
# Velocity P-wave (km/s) = 6.92462 7.18680 7.05693
#
# Compressibility (1/GPa) = 0.01346562
#
# Stress axis : x y z
#
# Youngs Moduli (GPa) = 107.92324 128.88630 123.38563
#
# Poissons Ratio (x) = 0.28032 0.23988
# Poissons Ratio (y) = 0.23472 0.21133
# Poissons Ratio (z) = 0.20982 0.22075
#
# Static dielectric constant tensor:
#      x y z
#    x 2.109070 0.000000 0.011820 
#    y 0.000000 2.195380 0.000000 
#    z 0.011820 0.000000 2.250010 
# 
# From -- ./inp_files/5242.got.cif
#   From: 2010.05.17/outbox.cif.g08.bks.cpg/sg14_3_cif.got.tgz:5242.got - 2010.06.03 17:49:19.
