data_PCOD9250167
_publ_section_title
;
Structure prediction by ZEFSAII (Michael W. Deem and Ramdas Pophale) SiO2 
 PCOD9250167
Probable space group: P 21/C
;
_chemical_formula_sum "Si O2"
_cell_formula_units_Z 20
_cell_length_a 17.816538
_cell_length_b 8.686483
_cell_length_c 18.068729
_cell_angle_alpha 90.000000
_cell_angle_beta 15.772184
_cell_angle_gamma 90.000000
_cell_volume 760.090392
_symmetry_space_group_name_H-M "P 21/C"
_symmetry_group_IT_number 14
_symmetry_cell_setting 'monoclinic'
loop_
_space_group_symop_operation_xyz
x,y,z
-x,1/2+y,1/2-z
-x,-y,-z
x,1/2-y,1/2+z
loop_
_atom_site_type_symbol
_atom_site_label
_atom_site_fract_x
_atom_site_fract_y
_atom_site_fract_z
Si Si1 0.299696 0.162185 0.581153
Si Si2 0.668008 0.593953 0.653465
Si Si3 0.685523 0.439032 0.233076
Si Si4 0.886523 0.340949 0.891819
Si Si5 0.159397 0.252442 0.364761
O O1 0.423197 0.334033 0.468256
O O2 0.015171 0.190031 0.808453
O O3 0.249321 0.129344 0.715333
O O4 0.504153 0.050923 0.344375
O O5 0.879708 0.597406 0.384723
O O6 0.844136 0.663991 0.553936
O O7 0.399529 0.690587 0.879518
O O8 0.640232 0.605776 0.310665
O O9 0.819389 0.455104 0.024065
O O10 0.888458 0.334189 0.091045
#
# Coordination Sequence:
#
# PCOD9250167 Si02
#       5
#     4   4   4   4   4
#     4  11  25  47  74 105 145 188 245 293 357 430
#     4  12  28  44  76 106 147 187 240 302 358 422
#     4  10  23  47  73 103 147 194 239 294 352 435
#     4  11  27  45  69 109 145 187 238 297 362 420
#     4  10  25  45  72 107 143 194 237 295 357 428
#
# _framework density 26.312660000000001
#
# number of rings (size 3 to 8) (size 9 to 14) (size 15 to 20)
#    0.000    1.200    2.000    1.200   11.200    2.400 
#    0.000    0.000    0.000    0.000    0.000    0.000 
#    0.000    0.000    0.000    0.000    0.000    0.000 
#
# Total GULP energy -111962.846669 kJ/mol
# GULP energy per Si atom -5598.142333 kJ/mol
# Density = 2.625277 g / cm^3
# Si number density = 26.312660 Si / 1000 Ang^3
#
#
#
# Elastic Constant Matrix: (Units=GPa)
#
#
# Indices 1 2 3 4 5 6 
#
# 1 208.2608 40.2234 67.1726 0.0000 22.1657 0.0000
# 2 40.2234 26.5656 -6.9879 0.0000 4.4072 0.0000
# 3 67.1726 -6.9879 121.5255 0.0000 7.6340 0.0000
# 4 0.0000 0.0000 0.0000 30.0890 0.0000 -6.8874
# 5 22.1657 4.4072 7.6340 0.0000 40.9179 0.0000
# 6 0.0000 0.0000 0.0000 -6.8874 0.0000 -0.8769
#
#
#
# Elastic Compliance Matrix: (Units=1/GPa)
#
#
# Indices 1 2 3 4 5 6 
#
# 1 0.010590 -0.017359 -0.006687 0.000000 -0.002619 0.000000
# 2 -0.017359 0.067543 0.013504 0.000000 -0.000391 0.000000
# 3 -0.006687 0.013504 0.012714 0.000000 -0.000204 0.000000
# 4 0.000000 0.000000 0.000000 0.011879 0.000000 -0.093296
# 5 -0.002619 -0.000391 -0.000204 0.000000 0.025938 0.000000
# 6 0.000000 0.000000 0.000000 -0.093296 0.000000 -0.407585
#
#
# Mechanical properties :
#
#
# Convention : Reuss Voigt Hill
#
# Bulk Modulus (GPa) = 14.33440 61.90756 38.12098
# Shear Modulus (GPa) = -21.31471 31.08892 4.88710
#
# Velocity S-wave (km/s) = -2.84923 3.44105 1.36431
# Velocity P-wave (km/s) = 2.31617 6.27428 4.12322
#
# Compressibility (1/GPa) = 0.06976225
#
# Stress axis : x y z
#
# Youngs Moduli (GPa) = 94.42749 14.80528 78.65111
#
# Poissons Ratio (x) = 0.25701 0.52596
# Poissons Ratio (y) = 1.63919 -1.06208
# Poissons Ratio (z) = 0.63146 -0.19992
#
# Static dielectric constant tensor:
#      x y z
#    x 2.094550 0.000000 0.034010 
#    y 0.000000 2.098110 0.000000 
#    z 0.034010 0.000000 2.079330 
# 
# From -- ./inp_files/60267.got.cif
#   From: 2010.05.17/outbox.cif.g08.bks.cpg/sg14_31_cif.got.tgz:60267.got - 2010.06.03 17:49:19.
