data_PCOD9250728
_publ_section_title
;
Structure prediction by ZEFSAII (Michael W. Deem and Ramdas Pophale) SiO2 
 PCOD9250728
Probable space group: P 21/C
;
_chemical_formula_sum "Si O2"
_cell_formula_units_Z 20
_cell_length_a 10.031566
_cell_length_b 8.217921
_cell_length_c 9.851953
_cell_angle_alpha 90.000000
_cell_angle_beta 69.167869
_cell_angle_gamma 90.000000
_cell_volume 759.086149
_symmetry_space_group_name_H-M "P 21/C"
_symmetry_group_IT_number 14
_symmetry_cell_setting 'monoclinic'
loop_
_space_group_symop_operation_xyz
x,y,z
-x,1/2+y,1/2-z
-x,-y,-z
x,1/2-y,1/2+z
loop_
_atom_site_type_symbol
_atom_site_label
_atom_site_fract_x
_atom_site_fract_y
_atom_site_fract_z
Si Si1 0.856043 0.223740 0.770003
Si Si2 0.340272 0.941308 0.380075
Si Si3 0.834908 0.462645 0.555870
Si Si4 0.535649 0.857913 0.876649
Si Si5 0.196664 0.278202 0.088312
O O1 0.803841 0.389228 0.714538
O O2 0.766975 0.102758 0.705155
O O3 0.028907 0.219164 0.687932
O O4 0.826823 0.331647 0.434526
O O5 0.461955 0.054314 0.269159
O O6 0.245860 0.050727 0.512067
O O7 0.575636 0.210245 0.586557
O O8 0.773215 0.634593 0.532983
O O9 0.000000 0.500000 0.500000
O O10 0.690610 0.778484 0.840846
O O11 0.500000 0.000000 0.000000
#
# Coordination Sequence:
#
# PCOD9250728 Si02
#       5
#     4   4   4   4   4
#     4  11  25  48  79 118 153 204 261 338 404 469
#     4  12  27  48  78 109 155 209 261 328 398 480
#     4  10  24  45  75 116 162 200 256 332 396 478
#     4  12  27  52  73 111 156 208 267 318 398 477
#     4  11  25  47  76 114 155 204 267 328 400 472
#
# _framework density 26.347469
#
# number of rings (size 3 to 8) (size 9 to 14) (size 15 to 20)
#    0.000    0.800    2.000    3.600    5.600    3.200 
#    3.600    0.000    0.000    0.000    0.000    0.000 
#    0.000    0.000    0.000    0.000    0.000    0.000 
#
# Total GULP energy -111868.506723 kJ/mol
# GULP energy per Si atom -5593.425336 kJ/mol
# Density = 2.628750 g / cm^3
# Si number density = 26.347469 Si / 1000 Ang^3
#
#
#
# Elastic Constant Matrix: (Units=GPa)
#
#
# Indices 1 2 3 4 5 6 
#
# 1 144.6906 72.2583 2.3060 0.0000 5.9904 0.0000
# 2 72.2583 128.7886 66.1162 0.0000 8.5678 0.0000
# 3 2.3060 66.1162 103.5267 0.0000 36.2394 0.0000
# 4 0.0000 0.0000 0.0000 53.9096 0.0000 1.2667
# 5 5.9904 8.5678 36.2394 0.0000 32.6479 0.0000
# 6 0.0000 0.0000 0.0000 1.2667 0.0000 52.5996
#
#
#
# Elastic Compliance Matrix: (Units=1/GPa)
#
#
# Indices 1 2 3 4 5 6 
#
# 1 0.014276 -0.014022 0.013518 0.000000 -0.013945 0.000000
# 2 -0.014022 0.026944 -0.025056 0.000000 0.023314 0.000000
# 3 0.013518 -0.025056 0.039131 0.000000 -0.039341 0.000000
# 4 0.000000 0.000000 0.000000 0.018560 0.000000 -0.000447
# 5 -0.013945 0.023314 -0.039341 0.000000 0.070738 0.000000
# 6 0.000000 0.000000 0.000000 -0.000447 0.000000 0.019022
#
#
# Mechanical properties :
#
#
# Convention : Reuss Voigt Hill
#
# Bulk Modulus (GPa) = 34.20990 73.15188 53.68089
# Shear Modulus (GPa) = 20.03735 43.58645 31.81190
#
# Velocity S-wave (km/s) = 2.76072 4.07171 3.47853
# Velocity P-wave (km/s) = 4.81398 7.06609 6.04583
#
# Compressibility (1/GPa) = 0.02923130
#
# Stress axis : x y z
#
# Youngs Moduli (GPa) = 70.05001 37.11455 25.55506
#
# Poissons Ratio (x) = 0.52040 -0.34546
# Poissons Ratio (y) = 0.98221 0.64031
# Poissons Ratio (z) = -0.94694 0.92994
#
# Static dielectric constant tensor:
#      x y z
#    x 2.066140 0.000000 0.030210 
#    y 0.000000 2.174450 0.000000 
#    z 0.030210 0.000000 2.081530 
# 
# From -- ./inp_files/23413.got.cif
#   From: 2010.05.17/outbox.cif.g08.bks.cpg/sg14_12_cif.got.tgz:23413.got - 2010.06.03 17:49:19.
