data_PCOD9250938
_publ_section_title
;
Structure prediction by ZEFSAII (Michael W. Deem and Ramdas Pophale) SiO2 
 PCOD9250938
Probable space group: P 21/C
;
_chemical_formula_sum "Si O2"
_cell_formula_units_Z 28
_cell_length_a 18.602983
_cell_length_b 13.167222
_cell_length_c 8.553272
_cell_angle_alpha 90.000000
_cell_angle_beta 143.067887
_cell_angle_gamma 90.000000
_cell_volume 1258.891638
_symmetry_space_group_name_H-M "P 21/C"
_symmetry_group_IT_number 14
_symmetry_cell_setting 'monoclinic'
loop_
_space_group_symop_operation_xyz
x,y,z
-x,1/2+y,1/2-z
-x,-y,-z
x,1/2-y,1/2+z
loop_
_atom_site_type_symbol
_atom_site_label
_atom_site_fract_x
_atom_site_fract_y
_atom_site_fract_z
Si Si1 0.006944 0.606313 0.703434
Si Si2 0.075122 0.715492 0.140049
Si Si3 0.509621 0.216587 0.798327
Si Si4 0.659134 0.792080 0.237339
Si Si5 0.335719 0.646923 0.701422
Si Si6 0.125970 0.087424 0.535433
Si Si7 0.758222 0.933470 0.927125
O O1 0.035149 0.668632 0.597020
O O2 0.868534 0.583581 0.500038
O O3 0.052596 0.677527 0.925941
O O4 0.081110 0.504148 0.851973
O O5 0.209387 0.694296 0.428177
O O6 0.986073 0.650221 0.094136
O O7 0.439281 0.297437 0.569159
O O8 0.404817 0.166558 0.719339
O O9 0.581027 0.143105 0.807618
O O10 0.600067 0.276776 0.067265
O O11 0.780070 0.844496 0.394341
O O12 0.686177 0.672031 0.307904
O O13 0.314399 0.535343 0.734193
O O14 0.187355 0.049121 0.803766
#
# Coordination Sequence:
#
# PCOD9250938 Si02
#       7
#     4   4   4   4   4   4   4
#     4  11  22  40  67 107 131 172 208 264 343 399
#     4  11  21  39  69  96 139 165 209 272 333 390
#     4  10  25  41  65  92 133 178 223 268 315 385
#     4  11  22  45  67  94 134 171 226 272 318 381
#     4  11  22  44  67  95 131 177 221 267 332 382
#     4  11  21  41  70 101 129 171 213 267 334 395
#     4  11  21  40  73  94 129 178 217 266 329 401
#
# _framework density 22.241785
#
# number of rings (size 3 to 8) (size 9 to 14) (size 15 to 20)
#    0.000    1.143    5.714    1.714    0.000    2.286 
#    0.000    5.714    0.000    0.000    0.000    0.000 
#    0.000    0.000    0.000    0.000    0.000    0.000 
#
# Total GULP energy -156720.798404 kJ/mol
# GULP energy per Si atom -5597.171372 kJ/mol
# Density = 2.219116 g / cm^3
# Si number density = 22.241785 Si / 1000 Ang^3
#
#
#
# Elastic Constant Matrix: (Units=GPa)
#
#
# Indices 1 2 3 4 5 6 
#
# 1 95.8042 5.4437 29.0391 0.0000 22.1018 0.0000
# 2 5.4437 60.4600 12.9985 0.0000 3.8889 0.0000
# 3 29.0391 12.9985 66.0335 0.0000 15.6736 0.0000
# 4 0.0000 0.0000 0.0000 22.5079 0.0000 -9.6442
# 5 22.1018 3.8889 15.6736 0.0000 28.4663 0.0000
# 6 0.0000 0.0000 0.0000 -9.6442 0.0000 11.0279
#
#
#
# Elastic Compliance Matrix: (Units=1/GPa)
#
#
# Indices 1 2 3 4 5 6 
#
# 1 0.013573 0.000180 -0.004023 0.000000 -0.008348 0.000000
# 2 0.000180 0.017281 -0.003321 0.000000 -0.000672 0.000000
# 3 -0.004023 -0.003321 0.019231 0.000000 -0.007011 0.000000
# 4 0.000000 0.000000 0.000000 0.071054 0.000000 0.062138
# 5 -0.008348 -0.000672 -0.007011 0.000000 0.045563 0.000000
# 6 0.000000 0.000000 0.000000 0.062138 0.000000 0.145021
#
#
# Mechanical properties :
#
#
# Convention : Reuss Voigt Hill
#
# Bulk Modulus (GPa) = 27.96733 35.25113 31.60923
# Shear Modulus (GPa) = 14.79422 24.05484 19.42453
#
# Velocity S-wave (km/s) = 2.58186 3.29221 2.95843
# Velocity P-wave (km/s) = 4.63568 5.50772 5.09041
#
# Compressibility (1/GPa) = 0.03575601
#
# Stress axis : x y z
#
# Youngs Moduli (GPa) = 73.67612 57.86721 51.99954
#
# Poissons Ratio (x) = -0.01040 0.20918
# Poissons Ratio (y) = -0.01324 0.17271
# Poissons Ratio (z) = 0.29638 0.19220
#
# Static dielectric constant tensor:
#      x y z
#    x 1.830500 0.000000 -0.032100 
#    y 0.000000 1.811690 0.000000 
#    z -0.032100 0.000000 1.835150 
# 
# From -- ./inp_files/18005.got.cif
#   From: 2010.05.17/outbox.cif.g08.bks.cpg/sg14_10_cif.got.tgz:18005.got - 2010.06.03 17:49:19.
