data_PCOD9250710
_publ_section_title
;
Structure prediction by ZEFSAII (Michael W. Deem and Ramdas Pophale) SiO2 
 PCOD9250710
Probable space group: P 21/C
;
_chemical_formula_sum "Si O2"
_cell_formula_units_Z 24
_cell_length_a 9.833894
_cell_length_b 9.139468
_cell_length_c 10.140106
_cell_angle_alpha 90.000000
_cell_angle_beta 103.104283
_cell_angle_gamma 90.000000
_cell_volume 887.625191
_symmetry_space_group_name_H-M "P 21/C"
_symmetry_group_IT_number 14
_symmetry_cell_setting 'monoclinic'
loop_
_space_group_symop_operation_xyz
x,y,z
-x,1/2+y,1/2-z
-x,-y,-z
x,1/2-y,1/2+z
loop_
_atom_site_type_symbol
_atom_site_label
_atom_site_fract_x
_atom_site_fract_y
_atom_site_fract_z
Si Si1 0.021677 0.712353 0.231095
Si Si2 0.588042 0.570643 0.765027
Si Si3 0.279019 0.607266 0.003101
Si Si4 0.771121 0.448614 0.572885
Si Si5 0.729637 0.424649 0.288455
Si Si6 0.141390 0.152481 0.562281
O O1 0.955053 0.793317 0.341733
O O2 0.084692 0.566249 0.314753
O O3 0.155602 0.797568 0.202357
O O4 0.910575 0.707921 0.089752
O O5 0.656923 0.520964 0.642393
O O6 0.430209 0.618389 0.717832
O O7 0.697412 0.680813 0.857978
O O8 0.596118 0.435652 0.871620
O O9 0.268838 0.777516 0.966721
O O10 0.281932 0.521193 0.864396
O O11 0.151067 0.526146 0.049416
O O12 0.779969 0.513591 0.427937
#
# Coordination Sequence:
#
# PCOD9250710 Si02
#       6
#     4   4   4   4   4   4
#     4  11  23  47  72 107 147 201 243 312 365 453
#     4  10  24  45  72 105 149 197 242 313 364 446
#     4   9  22  43  73 104 141 195 242 299 375 439
#     4  11  22  40  73 108 144 188 249 295 374 443
#     4  11  22  42  69 107 144 189 254 299 367 440
#     4  10  25  48  72 106 152 197 249 306 379 438
#
# _framework density 27.038440000000001
#
# number of rings (size 3 to 8) (size 9 to 14) (size 15 to 20)
#    1.000    0.667    1.667    3.000    2.333    6.000 
#    9.000    5.000    0.000    0.000    0.000    0.000 
#    0.000    0.000    0.000    0.000    0.000    0.000 
#
# Total GULP energy -134138.765714 kJ/mol
# GULP energy per Si atom -5589.115238 kJ/mol
# Density = 2.697690 g / cm^3
# Si number density = 27.038440 Si / 1000 Ang^3
#
#
#
# Elastic Constant Matrix: (Units=GPa)
#
#
# Indices 1 2 3 4 5 6 
#
# 1 150.2169 40.0946 42.6207 0.0000 5.5586 0.0000
# 2 40.0946 82.9496 33.7930 0.0000 -3.3529 0.0000
# 3 42.6207 33.7930 208.9316 0.0000 -17.8868 0.0000
# 4 0.0000 0.0000 0.0000 32.9380 0.0000 9.5700
# 5 5.5586 -3.3529 -17.8868 0.0000 55.3500 0.0000
# 6 0.0000 0.0000 0.0000 9.5700 0.0000 8.9127
#
#
#
# Elastic Compliance Matrix: (Units=1/GPa)
#
#
# Indices 1 2 3 4 5 6 
#
# 1 0.007958 -0.003418 -0.001190 0.000000 -0.001391 0.000000
# 2 -0.003418 0.014375 -0.001567 0.000000 0.000708 0.000000
# 3 -0.001190 -0.001567 0.005435 0.000000 0.001781 0.000000
# 4 0.000000 0.000000 0.000000 0.044126 0.000000 -0.047380
# 5 -0.001391 0.000708 0.001781 0.000000 0.018825 0.000000
# 6 0.000000 0.000000 0.000000 -0.047380 0.000000 0.163074
#
#
# Mechanical properties :
#
#
# Convention : Reuss Voigt Hill
#
# Bulk Modulus (GPa) = 64.85960 75.01276 69.93618
# Shear Modulus (GPa) = 18.43094 41.14614 29.78854
#
# Velocity S-wave (km/s) = 2.61369 3.90521 3.32280
# Velocity P-wave (km/s) = 5.75747 6.93812 6.37518
#
# Compressibility (1/GPa) = 0.01541792
#
# Stress axis : x y z
#
# Youngs Moduli (GPa) = 125.65273 69.56595 183.99733
#
# Poissons Ratio (x) = 0.23780 0.21889
# Poissons Ratio (y) = 0.42953 0.28834
# Poissons Ratio (z) = 0.14948 0.10902
#
# Static dielectric constant tensor:
#      x y z
#    x 2.063980 0.000000 0.008100 
#    y 0.000000 2.288070 0.000000 
#    z 0.008100 0.000000 2.158830 
# 
# From -- ./inp_files/24248.got.cif
#   From: 2010.05.17/outbox.cif.g08.bks.cpg/sg14_13_cif.got.tgz:24248.got - 2010.06.03 17:49:19.
