data_PCOD9250345
_publ_section_title
;
Structure prediction by ZEFSAII (Michael W. Deem and Ramdas Pophale) SiO2 
 PCOD9250345
Probable space group: P 21/C
;
_chemical_formula_sum "Si O2"
_cell_formula_units_Z 28
_cell_length_a 5.365414
_cell_length_b 10.956546
_cell_length_c 22.152429
_cell_angle_alpha 90.000000
_cell_angle_beta 114.262378
_cell_angle_gamma 90.000000
_cell_volume 1187.237183
_symmetry_space_group_name_H-M "P 21/C"
_symmetry_group_IT_number 14
_symmetry_cell_setting 'monoclinic'
loop_
_space_group_symop_operation_xyz
x,y,z
-x,1/2+y,1/2-z
-x,-y,-z
x,1/2-y,1/2+z
loop_
_atom_site_type_symbol
_atom_site_label
_atom_site_fract_x
_atom_site_fract_y
_atom_site_fract_z
Si Si1 0.148883 0.399726 0.120631
Si Si2 0.850307 0.248400 0.673943
Si Si3 0.388418 0.673154 0.736096
Si Si4 0.318817 0.313579 0.429683
Si Si5 0.058581 0.478954 0.635357
Si Si6 0.299498 0.325355 0.565382
Si Si7 0.733687 0.178482 0.383004
O O1 0.369921 0.366984 0.195395
O O2 0.154378 0.304320 0.065820
O O3 0.214525 0.534906 0.106058
O O4 0.874708 0.366691 0.130845
O O5 0.861149 0.204701 0.743243
O O6 0.561832 0.313085 0.634142
O O7 0.049259 0.355423 0.672946
O O8 0.298893 0.562934 0.684478
O O9 0.423569 0.787097 0.694935
O O10 0.393904 0.337178 0.506594
O O11 0.553725 0.242284 0.417216
O O12 0.216675 0.440329 0.390011
O O13 0.034520 0.237712 0.405949
O O14 0.116510 0.434130 0.573147
#
# Coordination Sequence:
#
# PCOD9250345 Si02
#       7
#     4   4   4   4   4   4   4
#     4  10  25  43  68  99 140 184 236 285 359 425
#     4  10  24  41  69  97 136 185 231 289 353 429
#     4  10  25  40  66  99 137 174 231 286 356 419
#     4  11  27  46  71 102 141 181 240 290 349 421
#     4  10  24  42  70 103 135 183 234 291 361 417
#     4  10  24  46  67 102 133 187 232 292 351 419
#     4  11  28  44  70 104 138 186 231 292 354 422
#
# _framework density 23.584167999999998
#
# number of rings (size 3 to 8) (size 9 to 14) (size 15 to 20)
#    0.000    1.714    0.000    0.429   24.000    1.714 
#    0.000    0.000    0.000    0.000    0.000    0.000 
#    0.000    0.000    0.000    0.000    0.000    0.000 
#
# Total GULP energy -156420.478454 kJ/mol
# GULP energy per Si atom -5586.445659 kJ/mol
# Density = 2.353049 g / cm^3
# Si number density = 23.584168 Si / 1000 Ang^3
#
#
#
# Elastic Constant Matrix: (Units=GPa)
#
#
# Indices 1 2 3 4 5 6 
#
# 1 91.3610 45.1386 14.1049 0.0000 -27.1887 0.0000
# 2 45.1386 139.3303 29.9781 0.0000 -15.9991 0.0000
# 3 14.1049 29.9781 66.9073 0.0000 -29.0136 0.0000
# 4 0.0000 0.0000 0.0000 15.9506 0.0000 -1.3761
# 5 -27.1887 -15.9991 -29.0136 0.0000 40.9341 0.0000
# 6 0.0000 0.0000 0.0000 -1.3761 0.0000 28.9540
#
#
#
# Elastic Compliance Matrix: (Units=1/GPa)
#
#
# Indices 1 2 3 4 5 6 
#
# 1 0.016112 -0.004694 0.003684 0.000000 0.011478 0.000000
# 2 -0.004694 0.009331 -0.004276 0.000000 -0.002502 0.000000
# 3 0.003684 -0.004276 0.023709 0.000000 0.017580 0.000000
# 4 0.000000 0.000000 0.000000 0.062952 0.000000 0.002992
# 5 0.011478 -0.002502 0.017580 0.000000 0.043536 0.000000
# 6 0.000000 0.000000 0.000000 0.002992 0.000000 0.034680
#
#
# Mechanical properties :
#
#
# Convention : Reuss Voigt Hill
#
# Bulk Modulus (GPa) = 25.92093 52.89354 39.40723
# Shear Modulus (GPa) = 23.39171 31.05956 27.22563
#
# Velocity S-wave (km/s) = 3.15276 3.63294 3.40134
# Velocity P-wave (km/s) = 4.92625 6.33040 5.67194
#
# Compressibility (1/GPa) = 0.03857886
#
# Stress axis : x y z
#
# Youngs Moduli (GPa) = 62.06549 107.17241 42.17865
#
# Poissons Ratio (x) = 0.50311 -0.15539
# Poissons Ratio (y) = 0.29136 0.18035
# Poissons Ratio (z) = -0.22865 0.45826
#
# Static dielectric constant tensor:
#      x y z
#    x 2.014910 0.000000 0.009150 
#    y 0.000000 1.898430 0.000000 
#    z 0.009150 0.000000 1.903210 
# 
# From -- ./inp_files/63540.got.cif
#   From: 2010.05.17/outbox.cif.g08.bks.cpg/sg14_32_cif.got.tgz:63540.got - 2010.06.03 17:49:19.
