data_PCOD9250918
_publ_section_title
;
Structure prediction by ZEFSAII (Michael W. Deem and Ramdas Pophale) SiO2 
 PCOD9250918
Probable space group: P 21/C
;
_chemical_formula_sum "Si O2"
_cell_formula_units_Z 14
_cell_length_a 6.890355
_cell_length_b 7.388084
_cell_length_c 9.313809
_cell_angle_alpha 90.000000
_cell_angle_beta 112.791734
_cell_angle_gamma 90.000000
_cell_volume 437.112814
_symmetry_space_group_name_H-M "P 21/C"
_symmetry_group_IT_number 14
_symmetry_cell_setting 'monoclinic'
loop_
_space_group_symop_operation_xyz
x,y,z
-x,1/2+y,1/2-z
-x,-y,-z
x,1/2-y,1/2+z
loop_
_atom_site_type_symbol
_atom_site_label
_atom_site_fract_x
_atom_site_fract_y
_atom_site_fract_z
Si Si1 0.500000 0.500000 0.500000
Si Si2 0.675223 0.722208 0.379966
Si Si3 0.739149 0.364757 0.959297
Si Si4 0.958048 0.778779 0.200921
O O1 0.464859 0.610888 0.334067
O O2 0.416634 0.694536 0.568020
O O3 0.818979 0.687853 0.286430
O O4 0.775353 0.611888 0.554825
O O5 0.664800 0.927326 0.424815
O O6 0.869675 0.368539 0.148766
O O7 0.920181 0.316006 0.893773
#
# Coordination Sequence:
#
# PCOD9250918 Si02
#       4
#     2   4   4   4
#     4  12  30  46  76 112 160 194 242 306 416 404
#     4  11  27  49  76 113 150 197 250 319 354 464
#     4  11  27  49  76 113 150 197 250 319 354 464
#     4  10  24  50  82 104 148 202 256 292 378 442
#
# _framework density 32.028345999999999
#
# number of rings (size 3 to 8) (size 9 to 14) (size 15 to 20)
#    0.000    1.143    0.000    4.286   16.000    4.571 
#    0.000    0.000    0.000    0.000    0.000    0.000 
#    0.000    0.000    0.000    0.000    0.000    0.000 
#
# Total GULP energy -78178.344668 kJ/mol
# GULP energy per Si atom -5584.167476 kJ/mol
# Density = 3.195545 g / cm^3
# Si number density = 32.028346 Si / 1000 Ang^3
#
#
#
# Elastic Constant Matrix: (Units=GPa)
#
#
# Indices 1 2 3 4 5 6 
#
# 1 161.0781 123.7572 55.3907 0.0000 -8.1487 0.0000
# 2 123.7572 306.8848 114.6221 0.0000 -58.6293 0.0000
# 3 55.3907 114.6221 197.3904 0.0000 -49.1414 0.0000
# 4 0.0000 0.0000 0.0000 74.5640 0.0000 -26.9754
# 5 -8.1487 -58.6293 -49.1414 0.0000 67.1307 0.0000
# 6 0.0000 0.0000 0.0000 -26.9754 0.0000 56.3858
#
#
#
# Elastic Compliance Matrix: (Units=1/GPa)
#
#
# Indices 1 2 3 4 5 6 
#
# 1 0.009533 -0.004033 -0.001128 0.000000 -0.003190 0.000000
# 2 -0.004033 0.006174 -0.001508 0.000000 0.003799 0.000000
# 3 -0.001128 -0.001508 0.007210 0.000000 0.003824 0.000000
# 4 0.000000 0.000000 0.000000 0.016218 0.000000 0.007759
# 5 -0.003190 0.003799 0.003824 0.000000 0.020626 0.000000
# 6 0.000000 0.000000 0.000000 0.007759 0.000000 0.021447
#
#
# Mechanical properties :
#
#
# Convention : Reuss Voigt Hill
#
# Bulk Modulus (GPa) = 104.37478 139.21037 121.79257
# Shear Modulus (GPa) = 51.15764 64.38833 57.77299
#
# Velocity S-wave (km/s) = 4.00091 4.48856 4.25173
# Velocity P-wave (km/s) = 7.34861 8.39178 7.88746
#
# Compressibility (1/GPa) = 0.00958086
#
# Stress axis : x y z
#
# Youngs Moduli (GPa) = 104.90096 161.98008 138.69476
#
# Poissons Ratio (x) = 0.65320 0.15639
# Poissons Ratio (y) = 0.42302 0.20910
# Poissons Ratio (z) = 0.11828 0.24421
#
# Static dielectric constant tensor:
#      x y z
#    x 3.000620 0.000000 0.324690 
#    y 0.000000 2.846330 0.000000 
#    z 0.324690 0.000000 3.342220 
# 
# From -- ./inp_files/7256.got.cif
#   From: 2010.05.17/outbox.cif.g08.bks.cpg/sg14_4_cif.got.tgz:7256.got - 2010.06.03 17:49:19.
