data_PCOD9250801
_publ_section_title
;
Structure prediction by ZEFSAII (Michael W. Deem and Ramdas Pophale) SiO2 
 PCOD9250801
Probable space group: P 21/C
;
_chemical_formula_sum "Si O2"
_cell_formula_units_Z 26
_cell_length_a 16.184287
_cell_length_b 12.029290
_cell_length_c 11.536098
_cell_angle_alpha 90.000000
_cell_angle_beta 154.127903
_cell_angle_gamma 90.000000
_cell_volume 980.033839
_symmetry_space_group_name_H-M "P 21/C"
_symmetry_group_IT_number 14
_symmetry_cell_setting 'monoclinic'
loop_
_space_group_symop_operation_xyz
x,y,z
-x,1/2+y,1/2-z
-x,-y,-z
x,1/2-y,1/2+z
loop_
_atom_site_type_symbol
_atom_site_label
_atom_site_fract_x
_atom_site_fract_y
_atom_site_fract_z
Si Si1 0.000000 0.500000 0.500000
Si Si2 0.751846 0.347620 0.027487
Si Si3 0.697315 0.556992 0.219843
Si Si4 0.703347 0.564823 0.823858
Si Si5 0.631900 0.779099 0.835497
Si Si6 0.869222 0.387224 0.591830
Si Si7 0.196214 0.053128 0.796514
O O1 0.077361 0.615443 0.673337
O O2 0.215872 0.436184 0.796428
O O3 0.782960 0.233058 0.996098
O O4 0.731310 0.443436 0.907891
O O5 0.561122 0.333127 0.860720
O O6 0.691189 0.665703 0.288065
O O7 0.856460 0.458528 0.455184
O O8 0.500000 0.500000 0.000000
O O9 0.582360 0.652881 0.742080
O O10 0.667083 0.556491 0.641018
O O11 0.913350 0.619678 0.100408
O O12 0.791410 0.825656 0.126873
O O13 0.760898 0.470024 0.543100
O O14 0.000000 0.000000 0.500000
#
# Coordination Sequence:
#
# PCOD9250801 Si02
#       7
#     2   4   4   4   4   4   4
#     4  12  24  46  72 106 144 194 252 306 384 434
#     4  12  27  44  73 110 147 201 253 310 382 459
#     4  11  23  46  75 107 147 196 250 319 376 452
#     4  11  25  46  75 106 146 202 250 310 383 454
#     4  11  26  45  71 109 151 192 253 315 379 453
#     4  10  24  46  74 106 150 192 252 312 379 454
#     4   9  23  47  73 101 142 193 246 308 376 444
#
# _framework density 26.529696000000001
#
# number of rings (size 3 to 8) (size 9 to 14) (size 15 to 20)
#    0.000    1.231    3.077    0.923    8.615    6.769 
#    0.000    0.000    0.000    0.000    0.000    0.000 
#    0.000    0.000    0.000    0.000    0.000    0.000 
#
# Total GULP energy -145088.436704 kJ/mol
# GULP energy per Si atom -5580.324489 kJ/mol
# Density = 2.646931 g / cm^3
# Si number density = 26.529696 Si / 1000 Ang^3
#
#
#
# Elastic Constant Matrix: (Units=GPa)
#
#
# Indices 1 2 3 4 5 6 
#
# 1 132.3876 57.9001 3.5907 0.0000 2.3813 0.0000
# 2 57.9001 192.0768 8.5723 0.0000 -18.3369 0.0000
# 3 3.5907 8.5723 81.3756 0.0000 12.2207 0.0000
# 4 0.0000 0.0000 0.0000 28.5176 0.0000 7.2411
# 5 2.3813 -18.3369 12.2207 0.0000 56.0782 0.0000
# 6 0.0000 0.0000 0.0000 7.2411 0.0000 56.9901
#
#
#
# Elastic Compliance Matrix: (Units=1/GPa)
#
#
# Indices 1 2 3 4 5 6 
#
# 1 0.008789 -0.002778 0.000101 0.000000 -0.001304 0.000000
# 2 -0.002778 0.006311 -0.000899 0.000000 0.002378 0.000000
# 3 0.000101 -0.000899 0.012844 0.000000 -0.003097 0.000000
# 4 0.000000 0.000000 0.000000 0.036235 0.000000 -0.004604
# 5 -0.001304 0.002378 -0.003097 0.000000 0.019340 0.000000
# 6 0.000000 0.000000 0.000000 -0.004604 0.000000 0.018132
#
#
# Mechanical properties :
#
#
# Convention : Reuss Voigt Hill
#
# Bulk Modulus (GPa) = 48.09928 60.66293 54.38110
# Shear Modulus (GPa) = 43.20183 50.70230 46.95206
#
# Velocity S-wave (km/s) = 4.03976 4.37642 4.21145
# Velocity P-wave (km/s) = 6.31896 6.96082 6.64764
#
# Compressibility (1/GPa) = 0.02079033
#
# Stress axis : x y z
#
# Youngs Moduli (GPa) = 113.77250 158.45579 77.85654
#
# Poissons Ratio (x) = 0.44026 -0.00784
# Poissons Ratio (y) = 0.31611 0.07001
# Poissons Ratio (z) = -0.01145 0.14249
#
# Static dielectric constant tensor:
#      x y z
#    x 2.356210 0.000000 0.030960 
#    y 0.000000 2.082110 0.000000 
#    z 0.030960 0.000000 2.216390 
# 
# From -- ./inp_files/50511.got.cif
#   From: 2010.05.17/outbox.cif.g08.bks.cpg/sg14_26_cif.got.tgz:50511.got - 2010.06.03 17:49:19.
