data_PCOD9250838
_publ_section_title
;
Structure prediction by ZEFSAII (Michael W. Deem and Ramdas Pophale) SiO2 
 PCOD9250838
Probable space group: P 21/C
;
_chemical_formula_sum "Si O2"
_cell_formula_units_Z 18
_cell_length_a 9.914483
_cell_length_b 5.056351
_cell_length_c 14.632946
_cell_angle_alpha 90.000000
_cell_angle_beta 132.999064
_cell_angle_gamma 90.000000
_cell_volume 536.504212
_symmetry_space_group_name_H-M "P 21/C"
_symmetry_group_IT_number 14
_symmetry_cell_setting 'monoclinic'
loop_
_space_group_symop_operation_xyz
x,y,z
-x,1/2+y,1/2-z
-x,-y,-z
x,1/2-y,1/2+z
loop_
_atom_site_type_symbol
_atom_site_label
_atom_site_fract_x
_atom_site_fract_y
_atom_site_fract_z
Si Si1 0.701470 0.482589 0.947625
Si Si2 0.796045 0.862562 0.221126
Si Si3 0.386121 0.732940 0.742991
Si Si4 0.500000 0.000000 0.500000
Si Si5 0.013479 0.859142 0.134490
O O1 0.510065 0.667647 0.893833
O O2 0.749953 0.214308 0.911817
O O3 0.712376 0.400136 0.059785
O O4 0.868664 0.687935 0.011893
O O5 0.802064 0.149702 0.278247
O O6 0.917330 0.887612 0.187885
O O7 0.876452 0.632173 0.324372
O O8 0.597006 0.761901 0.105540
O O9 0.546025 0.514031 0.774514
#
# Coordination Sequence:
#
# PCOD9250838 Si02
#       5
#     4   4   4   2   4
#     4  12  25  45  79 103 157 191 252 302 386 424
#     4  10  24  47  72 105 152 177 262 287 379 422
#     4  10  25  48  71 112 140 199 249 311 354 461
#     4  12  24  46  70 110 144 200 228 312 360 452
#     4  10  25  48  74 110 140 200 243 315 350 456
#
# _framework density 33.550530000000002
#
# number of rings (size 3 to 8) (size 9 to 14) (size 15 to 20)
#    1.333    0.000    2.222    2.000    0.000    9.778 
#    0.000    0.000    0.000    0.000    0.000    0.000 
#    0.000    0.000    0.000    0.000    0.000    0.000 
#
# Total GULP energy -100378.140480 kJ/mol
# GULP energy per Si atom -5576.563360 kJ/mol
# Density = 3.347417 g / cm^3
# Si number density = 33.550530 Si / 1000 Ang^3
#
#
#
# Elastic Constant Matrix: (Units=GPa)
#
#
# Indices 1 2 3 4 5 6 
#
# 1 267.7623 75.8281 49.9286 0.0000 -35.3327 0.0000
# 2 75.8281 245.9845 76.4248 0.0000 10.3089 0.0000
# 3 49.9286 76.4248 165.1843 0.0000 24.8499 0.0000
# 4 0.0000 0.0000 0.0000 82.0947 0.0000 1.9253
# 5 -35.3327 10.3089 24.8499 0.0000 87.4135 0.0000
# 6 0.0000 0.0000 0.0000 1.9253 0.0000 70.3883
#
#
#
# Elastic Compliance Matrix: (Units=1/GPa)
#
#
# Indices 1 2 3 4 5 6 
#
# 1 0.004591 -0.001136 -0.001213 0.000000 0.002334 0.000000
# 2 -0.001136 0.005029 -0.001907 0.000000 -0.000510 0.000000
# 3 -0.001213 -0.001907 0.007671 0.000000 -0.002446 0.000000
# 4 0.000000 0.000000 0.000000 0.012189 0.000000 -0.000333
# 5 0.002334 -0.000510 -0.002446 0.000000 0.013139 0.000000
# 6 0.000000 0.000000 0.000000 -0.000333 0.000000 0.014216
#
#
# Mechanical properties :
#
#
# Convention : Reuss Voigt Hill
#
# Bulk Modulus (GPa) = 113.91098 120.36599 117.13848
# Shear Modulus (GPa) = 73.23591 79.76262 76.49927
#
# Velocity S-wave (km/s) = 4.67717 4.88114 4.78024
# Velocity P-wave (km/s) = 7.94945 8.22929 8.09058
#
# Compressibility (1/GPa) = 0.00877878
#
# Stress axis : x y z
#
# Youngs Moduli (GPa) = 217.83570 198.83558 130.36654
#
# Poissons Ratio (x) = 0.22589 0.15815
# Poissons Ratio (y) = 0.24747 0.24857
# Poissons Ratio (z) = 0.26426 0.37912
#
# Static dielectric constant tensor:
#      x y z
#    x 2.683810 0.000000 -0.018010 
#    y 0.000000 2.861960 0.000000 
#    z -0.018010 0.000000 2.704780 
# 
# From -- ./inp_files/50827.got.cif
#   From: 2010.05.17/outbox.cif.g08.bks.cpg/sg14_26_cif.got.tgz:50827.got - 2010.06.03 17:49:19.
