data_PCOD9250317
_publ_section_title
;
Structure prediction by ZEFSAII (Michael W. Deem and Ramdas Pophale) SiO2 
 PCOD9250317
Probable space group: P 21/C
;
_chemical_formula_sum "Si O2"
_cell_formula_units_Z 20
_cell_length_a 18.085095
_cell_length_b 4.641202
_cell_length_c 8.910705
_cell_angle_alpha 90.000000
_cell_angle_beta 76.731271
_cell_angle_gamma 90.000000
_cell_volume 727.967459
_symmetry_space_group_name_H-M "P 21/C"
_symmetry_group_IT_number 14
_symmetry_cell_setting 'monoclinic'
loop_
_space_group_symop_operation_xyz
x,y,z
-x,1/2+y,1/2-z
-x,-y,-z
x,1/2-y,1/2+z
loop_
_atom_site_type_symbol
_atom_site_label
_atom_site_fract_x
_atom_site_fract_y
_atom_site_fract_z
Si Si1 0.148700 0.528526 0.885978
Si Si2 0.448591 0.052811 0.267662
Si Si3 0.948734 0.730410 0.807685
Si Si4 0.648686 0.234378 0.429337
Si Si5 0.748934 0.533718 0.626211
O O1 0.117734 0.406334 0.744376
O O2 0.172771 0.858381 0.882049
O O3 0.226936 0.363771 0.889153
O O4 0.085777 0.434406 0.034849
O O5 0.529111 0.885338 0.243227
O O6 0.407129 0.941087 0.138703
O O7 0.398786 0.958615 0.432424
O O8 0.988117 0.475759 0.692689
O O9 0.708110 0.424807 0.496192
O O10 0.694878 0.042182 0.289663
#
# Coordination Sequence:
#
# PCOD9250317 Si02
#       5
#     4   4   4   4   4
#     4  12  24  42  64  90 124 160 202 250 302 360
#     4  11  24  41  64  91 124 161 202 250 302 357
#     4  12  24  41  64  91 122 160 202 250 302 360
#     4  10  24  41  64  91 124 160 204 250 300 360
#     4  11  24  41  62  91 122 161 202 250 302 357
#
# _framework density 27.473759000000001
#
# number of rings (size 3 to 8) (size 9 to 14) (size 15 to 20)
#    0.000    0.800    0.000    7.200    0.000    9.600 
#    0.000    0.000    0.000    0.000    0.000    0.000 
#    0.000    0.000    0.000    0.000    0.000    0.000 
#
# Total GULP energy -112562.500025 kJ/mol
# GULP energy per Si atom -5628.125001 kJ/mol
# Density = 2.741123 g / cm^3
# Si number density = 27.473759 Si / 1000 Ang^3
#
#
#
# Elastic Constant Matrix: (Units=GPa)
#
#
# Indices 1 2 3 4 5 6 
#
# 1 131.7218 27.7189 31.0472 0.0000 5.9690 0.0000
# 2 27.7189 107.8718 12.1901 0.0000 0.7836 0.0000
# 3 31.0472 12.1901 90.6682 0.0000 -15.8463 0.0000
# 4 0.0000 0.0000 0.0000 27.4378 0.0000 -5.2613
# 5 5.9690 0.7836 -15.8463 0.0000 36.6728 0.0000
# 6 0.0000 0.0000 0.0000 -5.2613 0.0000 54.3465
#
#
#
# Elastic Compliance Matrix: (Units=1/GPa)
#
#
# Indices 1 2 3 4 5 6 
#
# 1 0.008892 -0.001893 -0.003284 0.000000 -0.002826 0.000000
# 2 -0.001893 0.009839 -0.000711 0.000000 -0.000209 0.000000
# 3 -0.003284 -0.000711 0.013354 0.000000 0.006320 0.000000
# 4 0.000000 0.000000 0.000000 0.037136 0.000000 0.003595
# 5 -0.002826 -0.000209 0.006320 0.000000 0.030463 0.000000
# 6 0.000000 0.000000 0.000000 0.003595 0.000000 0.018748
#
#
# Mechanical properties :
#
#
# Convention : Reuss Voigt Hill
#
# Bulk Modulus (GPa) = 49.24254 52.46380 50.85317
# Shear Modulus (GPa) = 36.50190 40.97846 38.74018
#
# Velocity S-wave (km/s) = 3.64896 3.86625 3.75918
# Velocity P-wave (km/s) = 5.97626 6.25043 6.11488
#
# Compressibility (1/GPa) = 0.02030764
#
# Stress axis : x y z
#
# Youngs Moduli (GPa) = 112.45591 101.63998 74.88368
#
# Poissons Ratio (x) = 0.19244 0.24594
# Poissons Ratio (y) = 0.21292 0.05324
# Poissons Ratio (z) = 0.36935 0.07227
#
# Static dielectric constant tensor:
#      x y z
#    x 2.108680 0.000000 -0.011700 
#    y 0.000000 2.016730 0.000000 
#    z -0.011700 0.000000 2.067750 
# 
# From -- ./inp_files/17135.got.cif
#   From: 2010.05.17/outbox.cif.g08.bks.cpg/sg14_9_cif.got.tgz:17135.got - 2010.06.03 17:49:19.
