data_PCOD9250185
_publ_section_title
;
Structure prediction by ZEFSAII (Michael W. Deem and Ramdas Pophale) SiO2 
 PCOD9250185
Probable space group: P 21/C
;
_chemical_formula_sum "Si O2"
_cell_formula_units_Z 28
_cell_length_a 5.331576
_cell_length_b 11.077895
_cell_length_c 18.933810
_cell_angle_alpha 90.000000
_cell_angle_beta 80.070083
_cell_angle_gamma 90.000000
_cell_volume 1101.528291
_symmetry_space_group_name_H-M "P 21/C"
_symmetry_group_IT_number 14
_symmetry_cell_setting 'monoclinic'
loop_
_space_group_symop_operation_xyz
x,y,z
-x,1/2+y,1/2-z
-x,-y,-z
x,1/2-y,1/2+z
loop_
_atom_site_type_symbol
_atom_site_label
_atom_site_fract_x
_atom_site_fract_y
_atom_site_fract_z
Si Si1 0.205003 0.235058 0.933880
Si Si2 0.741830 0.784034 0.852262
Si Si3 0.102015 0.092911 0.567750
Si Si4 0.452444 0.587472 0.254086
Si Si5 0.568806 0.435306 0.114075
Si Si6 0.023239 0.487537 0.374261
Si Si7 0.778857 0.255839 0.346543
O O1 0.105922 0.096306 0.935874
O O2 0.010795 0.290387 0.884633
O O3 0.499881 0.240130 0.896939
O O4 0.168199 0.306451 0.007405
O O5 0.934200 0.673032 0.857402
O O6 0.678167 0.835759 0.778605
O O7 0.486175 0.708942 0.885980
O O8 0.841814 0.897729 0.891374
O O9 0.339094 0.012037 0.578309
O O10 0.834261 0.034562 0.566353
O O11 0.455686 0.989298 0.307079
O O12 0.269464 0.677924 0.220072
O O13 0.280916 0.528707 0.323231
O O14 0.870178 0.393735 0.331313
#
# Coordination Sequence:
#
# PCOD9250185 Si02
#       7
#     4   4   4   4   4   4   4
#     4  10  23  48  70 101 141 179 238 281 346 412
#     4  10  25  39  74  97 141 177 229 282 353 400
#     4  10  23  48  70 101 140 182 234 286 342 412
#     4  12  26  44  69 106 146 181 236 283 358 425
#     4  10  26  43  70 105 136 185 227 289 347 407
#     4  10  25  41  71 102 135 185 218 295 346 410
#     4  10  26  43  71 104 135 189 224 291 347 408
#
# _framework density 25.419231
#
# number of rings (size 3 to 8) (size 9 to 14) (size 15 to 20)
#    1.714    0.000    0.000    2.571   10.000    0.571 
#    0.000    6.429    0.000    0.000    0.000    0.000 
#    0.000    0.000    0.000    0.000    0.000    0.000 
#
# Total GULP energy -156388.523088 kJ/mol
# GULP energy per Si atom -5585.304396 kJ/mol
# Density = 2.536138 g / cm^3
# Si number density = 25.419231 Si / 1000 Ang^3
#
#
#
# Elastic Constant Matrix: (Units=GPa)
#
#
# Indices 1 2 3 4 5 6 
#
# 1 115.1271 8.8550 25.8766 0.0000 -6.8542 0.0000
# 2 8.8550 106.2988 23.9420 0.0000 -8.1597 0.0000
# 3 25.8766 23.9420 64.2074 0.0000 8.9141 0.0000
# 4 0.0000 0.0000 0.0000 38.0809 0.0000 10.3215
# 5 -6.8542 -8.1597 8.9141 0.0000 37.8263 0.0000
# 6 0.0000 0.0000 0.0000 10.3215 0.0000 46.5319
#
#
#
# Elastic Compliance Matrix: (Units=1/GPa)
#
#
# Indices 1 2 3 4 5 6 
#
# 1 0.009848 0.000428 -0.004538 0.000000 0.002946 0.000000
# 2 0.000428 0.010683 -0.004639 0.000000 0.003475 0.000000
# 3 -0.004538 -0.004639 0.020042 0.000000 -0.006546 0.000000
# 4 0.000000 0.000000 0.000000 0.027940 0.000000 -0.006197
# 5 0.002946 0.003475 -0.006546 0.000000 0.029263 0.000000
# 6 0.000000 0.000000 0.000000 -0.006197 0.000000 0.022865
#
#
# Mechanical properties :
#
#
# Convention : Reuss Voigt Hill
#
# Bulk Modulus (GPa) = 43.33371 44.77559 44.05465
# Shear Modulus (GPa) = 34.28647 39.61846 36.95247
#
# Velocity S-wave (km/s) = 3.67664 3.95220 3.81691
# Velocity P-wave (km/s) = 5.92522 6.20319 6.06580
#
# Compressibility (1/GPa) = 0.02307673
#
# Stress axis : x y z
#
# Youngs Moduli (GPa) = 101.53885 93.60388 49.89604
#
# Poissons Ratio (x) = -0.04004 0.22641
# Poissons Ratio (y) = -0.04343 0.23144
# Poissons Ratio (z) = 0.46074 0.43418
#
# Static dielectric constant tensor:
#      x y z
#    x 2.039790 0.000000 0.017290 
#    y 0.000000 2.001380 0.000000 
#    z 0.017290 0.000000 2.014140 
# 
# From -- ./inp_files/63674.got.cif
#   From: 2010.05.17/outbox.cif.g08.bks.cpg/sg14_32_cif.got.tgz:63674.got - 2010.06.03 17:49:19.
