data_PCOD9250654
_publ_section_title
;
Structure prediction by ZEFSAII (Michael W. Deem and Ramdas Pophale) SiO2 
 PCOD9250654
Probable space group: P 21/C
;
_chemical_formula_sum "Si O2"
_cell_formula_units_Z 20
_cell_length_a 11.797521
_cell_length_b 6.692160
_cell_length_c 19.405561
_cell_angle_alpha 90.000000
_cell_angle_beta 40.204022
_cell_angle_gamma 90.000000
_cell_volume 988.979133
_symmetry_space_group_name_H-M "P 21/C"
_symmetry_group_IT_number 14
_symmetry_cell_setting 'monoclinic'
loop_
_space_group_symop_operation_xyz
x,y,z
-x,1/2+y,1/2-z
-x,-y,-z
x,1/2-y,1/2+z
loop_
_atom_site_type_symbol
_atom_site_label
_atom_site_fract_x
_atom_site_fract_y
_atom_site_fract_z
Si Si1 0.551393 0.929031 0.387122
Si Si2 0.646027 0.343506 0.621111
Si Si3 0.828914 0.598458 0.284567
Si Si4 0.207488 0.734183 0.586834
Si Si5 0.364530 0.822091 0.227674
O O1 0.490173 0.825339 0.343103
O O2 0.715710 0.800325 0.336023
O O3 0.379804 0.874866 0.512094
O O4 0.590146 0.154601 0.349707
O O5 0.794025 0.332040 0.493003
O O6 0.700067 0.284611 0.672623
O O7 0.538655 0.549204 0.664072
O O8 0.776830 0.461713 0.373574
O O9 0.774651 0.470822 0.242435
O O10 0.032827 0.651108 0.189018
#
# Coordination Sequence:
#
# PCOD9250654 Si02
#       5
#     4   4   4   4   4
#     4   9  22  42  66  94 125 174 211 267 323 383
#     4   9  20  40  66  95 127 170 212 262 327 381
#     4  11  25  42  65  99 132 170 224 264 321 387
#     4  10  24  45  63  95 136 169 220 271 320 382
#     4  11  20  41  71  95 131 170 216 267 322 393
#
# _framework density 20.222874999999998
#
# number of rings (size 3 to 8) (size 9 to 14) (size 15 to 20)
#    1.200    0.800    2.000    0.600    2.800    3.200 
#    0.000    1.000    0.000    0.000    0.000    0.000 
#    0.000    0.000    0.000    0.000    0.000    0.000 
#
# Total GULP energy -111553.936731 kJ/mol
# GULP energy per Si atom -5577.696837 kJ/mol
# Density = 2.017685 g / cm^3
# Si number density = 20.222875 Si / 1000 Ang^3
#
#
#
# Elastic Constant Matrix: (Units=GPa)
#
#
# Indices 1 2 3 4 5 6 
#
# 1 51.4084 23.6831 26.6796 0.0000 3.4416 0.0000
# 2 23.6831 93.2505 15.4188 0.0000 0.5501 0.0000
# 3 26.6796 15.4188 73.1501 0.0000 10.3413 0.0000
# 4 0.0000 0.0000 0.0000 33.5859 0.0000 1.6659
# 5 3.4416 0.5501 10.3413 0.0000 47.1937 0.0000
# 6 0.0000 0.0000 0.0000 1.6659 0.0000 29.0283
#
#
#
# Elastic Compliance Matrix: (Units=1/GPa)
#
#
# Indices 1 2 3 4 5 6 
#
# 1 0.026279 -0.005273 -0.008473 0.000000 0.000002 0.000000
# 2 -0.005273 0.012176 -0.000699 0.000000 0.000396 0.000000
# 3 -0.008473 -0.000699 0.017357 0.000000 -0.003177 0.000000
# 4 0.000000 0.000000 0.000000 0.029859 0.000000 -0.001714
# 5 0.000002 0.000396 -0.003177 0.000000 0.021881 0.000000
# 6 0.000000 0.000000 0.000000 -0.001714 0.000000 0.034548
#
#
# Mechanical properties :
#
#
# Convention : Reuss Voigt Hill
#
# Bulk Modulus (GPa) = 37.14537 38.81910 37.98223
# Shear Modulus (GPa) = 27.78321 32.09675 29.93998
#
# Velocity S-wave (km/s) = 3.71057 3.98823 3.85190
# Velocity P-wave (km/s) = 6.06347 6.35966 6.21333
#
# Compressibility (1/GPa) = 0.02692126
#
# Stress axis : x y z
#
# Youngs Moduli (GPa) = 38.05385 82.12677 57.61202
#
# Poissons Ratio (x) = 0.43306 0.48816
# Poissons Ratio (y) = 0.20066 0.04029
# Poissons Ratio (z) = 0.32244 0.05743
#
# Static dielectric constant tensor:
#      x y z
#    x 1.718810 0.000000 0.049240 
#    y 0.000000 1.712570 0.000000 
#    z 0.049240 0.000000 1.723330 
# 
# From -- ./inp_files/62465.got.cif
#   From: 2010.05.17/outbox.cif.g08.bks.cpg/sg14_32_cif.got.tgz:62465.got - 2010.06.03 17:49:19.
