data_PCOD9250075
_publ_section_title
;
Structure prediction by ZEFSAII (Michael W. Deem and Ramdas Pophale) SiO2 
 PCOD9250075
Probable space group: P 21/C
;
_chemical_formula_sum "Si O2"
_cell_formula_units_Z 28
_cell_length_a 7.869635
_cell_length_b 5.971678
_cell_length_c 25.649878
_cell_angle_alpha 90.000000
_cell_angle_beta 72.714490
_cell_angle_gamma 90.000000
_cell_volume 1150.972769
_symmetry_space_group_name_H-M "P 21/C"
_symmetry_group_IT_number 14
_symmetry_cell_setting 'monoclinic'
loop_
_space_group_symop_operation_xyz
x,y,z
-x,1/2+y,1/2-z
-x,-y,-z
x,1/2-y,1/2+z
loop_
_atom_site_type_symbol
_atom_site_label
_atom_site_fract_x
_atom_site_fract_y
_atom_site_fract_z
Si Si1 0.074357 0.732736 0.113159
Si Si2 0.247851 0.364611 0.630330
Si Si3 0.840949 0.593439 0.548271
Si Si4 0.608589 0.365891 0.636183
Si Si5 0.544912 0.339208 0.270552
Si Si6 0.701338 0.913707 0.478036
Si Si7 0.114735 0.644489 0.810419
O O1 0.161824 0.594263 0.057805
O O2 0.926717 0.878328 0.097354
O O3 0.969857 0.589289 0.165097
O O4 0.233172 0.870532 0.124489
O O5 0.410952 0.267040 0.648272
O O6 0.275020 0.274327 0.569142
O O7 0.058742 0.298804 0.672079
O O8 0.686245 0.413599 0.572123
O O9 0.764000 0.811065 0.527129
O O10 0.000000 0.500000 0.500000
O O11 0.563801 0.604435 0.667640
O O12 0.744181 0.220705 0.657636
O O13 0.503653 0.585044 0.244589
O O14 0.760009 0.345298 0.251329
O O15 0.500000 0.000000 0.500000
#
# Coordination Sequence:
#
# PCOD9250075 Si02
#       7
#     4   4   4   4   4   4   4
#     4  11  22  42  64  91 135 177 227 289 349 423
#     4  11  24  45  64 101 137 179 236 292 353 426
#     4  12  22  39  66  93 132 183 228 278 357 416
#     4  11  24  44  71 101 135 184 232 292 355 431
#     4  10  23  47  77 107 140 186 235 295 361 431
#     4  11  25  38  60  95 132 181 231 288 343 424
#     4  10  23  46  69  96 136 176 228 291 359 424
#
# _framework density 24.327249999999999
#
# number of rings (size 3 to 8) (size 9 to 14) (size 15 to 20)
#    0.000    1.143    2.857    3.000    6.000    1.143 
#   12.857    0.000    0.000    0.000    0.000    0.000 
#    0.000    0.000    0.000    0.000    0.000    0.000 
#
# Total GULP energy -156264.733772 kJ/mol
# GULP energy per Si atom -5580.883349 kJ/mol
# Density = 2.427188 g / cm^3
# Si number density = 24.327250 Si / 1000 Ang^3
#
#
#
# Elastic Constant Matrix: (Units=GPa)
#
#
# Indices 1 2 3 4 5 6 
#
# 1 122.9407 31.2788 24.3531 0.0000 -25.8690 0.0000
# 2 31.2788 77.2298 13.4746 0.0000 -3.4351 0.0000
# 3 24.3531 13.4746 95.4016 0.0000 -37.3957 0.0000
# 4 0.0000 0.0000 0.0000 27.7096 0.0000 -2.9871
# 5 -25.8690 -3.4351 -37.3957 0.0000 49.8346 0.0000
# 6 0.0000 0.0000 0.0000 -2.9871 0.0000 21.5267
#
#
#
# Elastic Compliance Matrix: (Units=1/GPa)
#
#
# Indices 1 2 3 4 5 6 
#
# 1 0.010183 -0.003884 -0.000119 0.000000 0.004929 0.000000
# 2 -0.003884 0.014774 -0.002106 0.000000 -0.002578 0.000000
# 3 -0.000119 -0.002106 0.015199 0.000000 0.011199 0.000000
# 4 0.000000 0.000000 0.000000 0.036637 0.000000 0.005084
# 5 0.004929 -0.002578 0.011199 0.000000 0.030851 0.000000
# 6 0.000000 0.000000 0.000000 0.005084 0.000000 0.047159
#
#
# Mechanical properties :
#
#
# Convention : Reuss Voigt Hill
#
# Bulk Modulus (GPa) = 35.79174 48.19832 41.99503
# Shear Modulus (GPa) = 28.35527 34.91188 31.63358
#
# Velocity S-wave (km/s) = 3.41776 3.79237 3.60993
# Velocity P-wave (km/s) = 5.50630 6.24753 5.88859
#
# Compressibility (1/GPa) = 0.02793941
#
# Stress axis : x y z
#
# Youngs Moduli (GPa) = 98.20365 67.68531 65.79174
#
# Poissons Ratio (x) = 0.26291 0.00780
# Poissons Ratio (y) = 0.38145 0.13854
# Poissons Ratio (z) = 0.01165 0.14253
#
# Static dielectric constant tensor:
#      x y z
#    x 1.991710 0.000000 0.020430 
#    y 0.000000 2.048050 0.000000 
#    z 0.020430 0.000000 2.021820 
# 
# From -- ./inp_files/79186.got.cif
#   From: 2010.05.17/outbox.cif.g08.bks.cpg/sg14_40_cif.got.tgz:79186.got - 2010.06.03 17:49:19.
