data_PCOD9250128
_publ_section_title
;
Structure prediction by ZEFSAII (Michael W. Deem and Ramdas Pophale) SiO2 
 PCOD9250128
Probable space group: P 21/C
;
_chemical_formula_sum "Si O2"
_cell_formula_units_Z 28
_cell_length_a 14.032517
_cell_length_b 12.305753
_cell_length_c 7.317379
_cell_angle_alpha 90.000000
_cell_angle_beta 114.871656
_cell_angle_gamma 90.000000
_cell_volume 1146.376685
_symmetry_space_group_name_H-M "P 21/C"
_symmetry_group_IT_number 14
_symmetry_cell_setting 'monoclinic'
loop_
_space_group_symop_operation_xyz
x,y,z
-x,1/2+y,1/2-z
-x,-y,-z
x,1/2-y,1/2+z
loop_
_atom_site_type_symbol
_atom_site_label
_atom_site_fract_x
_atom_site_fract_y
_atom_site_fract_z
Si Si1 0.886105 0.950088 0.128746
Si Si2 0.395858 0.152631 0.812983
Si Si3 0.902697 0.117358 0.833814
Si Si4 0.398354 0.880546 0.258077
Si Si5 0.653631 0.890710 0.820792
Si Si6 0.723748 0.294368 0.667359
Si Si7 0.789030 0.499157 0.929329
O O1 0.982060 0.870309 0.159063
O O2 0.869053 0.975249 0.328139
O O3 0.776375 0.901075 0.968193
O O4 0.910557 0.061851 0.038558
O O5 0.496573 0.130845 0.771187
O O6 0.372830 0.280432 0.801535
O O7 0.296158 0.093546 0.641896
O O8 0.404253 0.109506 0.027509
O O9 0.829990 0.223693 0.760296
O O10 0.846847 0.025699 0.663023
O O11 0.374094 0.787467 0.383613
O O12 0.383301 0.002189 0.314775
O O13 0.302474 0.858582 0.038047
O O14 0.731155 0.386637 0.826626
#
# Coordination Sequence:
#
# PCOD9250128 Si02
#       7
#     4   4   4   4   4   4   4
#     4  10  23  47  66  99 139 177 221 293 341 401
#     4  11  26  42  68  97 136 185 223 286 353 398
#     4  11  23  43  73  98 136 179 228 282 347 411
#     4  12  24  43  70  96 140 178 229 289 343 412
#     4  11  24  46  63  97 139 174 232 286 336 421
#     4  12  22  42  68 103 134 176 230 287 341 410
#     4  11  24  45  69 103 137 177 237 279 343 421
#
# _framework density 24.424782
#
# number of rings (size 3 to 8) (size 9 to 14) (size 15 to 20)
#    0.000    0.857    5.714    1.714    4.000    0.000 
#    7.714    2.143    0.000    0.000    0.000    0.000 
#    0.000    0.000    0.000    0.000    0.000    0.000 
#
# Total GULP energy -156967.358636 kJ/mol
# GULP energy per Si atom -5605.977094 kJ/mol
# Density = 2.436919 g / cm^3
# Si number density = 24.424782 Si / 1000 Ang^3
#
#
#
# Elastic Constant Matrix: (Units=GPa)
#
#
# Indices 1 2 3 4 5 6 
#
# 1 158.2626 52.0575 5.6735 0.0000 4.3050 0.0000
# 2 52.0575 133.1493 7.5386 0.0000 11.0149 0.0000
# 3 5.6735 7.5386 51.3109 0.0000 -1.8075 0.0000
# 4 0.0000 0.0000 0.0000 21.3367 0.0000 -5.8017
# 5 4.3050 11.0149 -1.8075 0.0000 31.0455 0.0000
# 6 0.0000 0.0000 0.0000 -5.8017 0.0000 30.6390
#
#
#
# Elastic Compliance Matrix: (Units=1/GPa)
#
#
# Indices 1 2 3 4 5 6 
#
# 1 0.007259 -0.002813 -0.000390 0.000000 -0.000031 0.000000
# 2 -0.002813 0.008907 -0.001097 0.000000 -0.002834 0.000000
# 3 -0.000390 -0.001097 0.019750 0.000000 0.001593 0.000000
# 4 0.000000 0.000000 0.000000 0.049412 0.000000 0.009356
# 5 -0.000031 -0.002834 0.001593 0.000000 0.033313 0.000000
# 6 0.000000 0.000000 0.000000 0.009356 0.000000 0.034410
#
#
# Mechanical properties :
#
#
# Convention : Reuss Voigt Hill
#
# Bulk Modulus (GPa) = 36.61240 52.58466 44.59853
# Shear Modulus (GPa) = 29.28144 35.10112 32.19128
#
# Velocity S-wave (km/s) = 3.46619 3.79504 3.63433
# Velocity P-wave (km/s) = 5.57150 6.38585 5.99252
#
# Compressibility (1/GPa) = 0.02731315
#
# Stress axis : x y z
#
# Youngs Moduli (GPa) = 137.76307 112.27308 50.63403
#
# Poissons Ratio (x) = 0.31586 0.01977
# Poissons Ratio (y) = 0.38757 0.05556
# Poissons Ratio (z) = 0.05378 0.12320
#
# Static dielectric constant tensor:
#      x y z
#    x 1.965780 0.000000 -0.033510 
#    y 0.000000 1.915480 0.000000 
#    z -0.033510 0.000000 1.952310 
# 
# From -- ./inp_files/15869.got.cif
#   From: 2010.05.17/outbox.cif.g08.bks.cpg/sg14_8_cif.got.tgz:15869.got - 2010.06.03 17:49:19.
