data_PCOD9250887
_publ_section_title
;
Structure prediction by ZEFSAII (Michael W. Deem and Ramdas Pophale) SiO2 
 PCOD9250887
Probable space group: P 21/C
;
_chemical_formula_sum "Si O2"
_cell_formula_units_Z 12
_cell_length_a 4.945017
_cell_length_b 5.103362
_cell_length_c 17.227086
_cell_angle_alpha 90.000000
_cell_angle_beta 97.325329
_cell_angle_gamma 90.000000
_cell_volume 431.198067
_symmetry_space_group_name_H-M "P 21/C"
_symmetry_group_IT_number 14
_symmetry_cell_setting 'monoclinic'
loop_
_space_group_symop_operation_xyz
x,y,z
-x,1/2+y,1/2-z
-x,-y,-z
x,1/2-y,1/2+z
loop_
_atom_site_type_symbol
_atom_site_label
_atom_site_fract_x
_atom_site_fract_y
_atom_site_fract_z
Si Si1 0.441469 0.534605 0.851412
Si Si2 0.228406 0.592569 0.448897
Si Si3 0.199328 0.540318 0.677269
O O1 0.281472 0.606714 0.924500
O O2 0.234312 0.540121 0.771063
O O3 0.635242 0.284848 0.851435
O O4 0.647674 0.779463 0.846428
O O5 0.500000 0.500000 0.500000
O O6 0.000000 0.500000 0.500000
O O7 0.109136 0.466081 0.364750
#
# Coordination Sequence:
#
# PCOD9250887 Si02
#       3
#     4   4   4
#     4  10  24  48  78 110 152 206 264 318 382 467
#     4  12  26  50  76 116 158 200 252 326 390 458
#     4  10  24  48  78 110 152 206 264 318 382 467
#
# _framework density 27.829433000000002
#
# number of rings (size 3 to 8) (size 9 to 14) (size 15 to 20)
#    0.000    1.333    3.333    0.000    0.000   13.333 
#    0.000    0.000    0.000    0.000    0.000    0.000 
#    0.000    0.000    0.000    0.000    0.000    0.000 
#
# Total GULP energy -67341.093385 kJ/mol
# GULP energy per Si atom -5611.757782 kJ/mol
# Density = 2.776609 g / cm^3
# Si number density = 27.829433 Si / 1000 Ang^3
#
#
#
# Elastic Constant Matrix: (Units=GPa)
#
#
# Indices 1 2 3 4 5 6 
#
# 1 189.4258 48.6958 63.5513 0.0000 47.0182 0.0000
# 2 48.6958 179.4124 45.0614 0.0000 13.8065 0.0000
# 3 63.5513 45.0614 140.6600 0.0000 49.8195 0.0000
# 4 0.0000 0.0000 0.0000 51.3574 0.0000 -8.1260
# 5 47.0182 13.8065 49.8195 0.0000 80.6395 0.0000
# 6 0.0000 0.0000 0.0000 -8.1260 0.0000 42.2748
#
#
#
# Elastic Compliance Matrix: (Units=1/GPa)
#
#
# Indices 1 2 3 4 5 6 
#
# 1 0.006849 -0.001212 -0.001748 0.000000 -0.002706 0.000000
# 2 -0.001212 0.006279 -0.001707 0.000000 0.000686 0.000000
# 3 -0.001748 -0.001707 0.010217 0.000000 -0.005001 0.000000
# 4 0.000000 0.000000 0.000000 0.020082 0.000000 0.003860
# 5 -0.002706 0.000686 -0.005001 0.000000 0.016951 0.000000
# 6 0.000000 0.000000 0.000000 0.003860 0.000000 0.024397
#
#
# Mechanical properties :
#
#
# Convention : Reuss Voigt Hill
#
# Bulk Modulus (GPa) = 71.36921 91.56837 81.46879
# Shear Modulus (GPa) = 50.61918 58.33366 54.47642
#
# Velocity S-wave (km/s) = 4.26949 4.58330 4.42918
# Velocity P-wave (km/s) = 7.07147 7.80921 7.44948
#
# Compressibility (1/GPa) = 0.01401165
#
# Stress axis : x y z
#
# Youngs Moduli (GPa) = 146.01529 159.27285 97.87619
#
# Poissons Ratio (x) = 0.19298 0.17105
# Poissons Ratio (y) = 0.17692 0.16707
# Poissons Ratio (z) = 0.25519 0.27187
#
# Static dielectric constant tensor:
#      x y z
#    x 2.170380 0.000000 -0.092370 
#    y 0.000000 2.210920 0.000000 
#    z -0.092370 0.000000 2.169610 
# 
# From -- ./inp_files/52367.got.cif
#   From: 2010.05.17/outbox.cif.g08.bks.cpg/sg14_27_cif.got.tgz:52367.got - 2010.06.03 17:49:19.
