data_PCOD9250193
_publ_section_title
;
Structure prediction by ZEFSAII (Michael W. Deem and Ramdas Pophale) SiO2 
 PCOD9250193
Probable space group: P 21/C
;
_chemical_formula_sum "Si O2"
_cell_formula_units_Z 16
_cell_length_a 6.376775
_cell_length_b 11.873007
_cell_length_c 8.883748
_cell_angle_alpha 90.000000
_cell_angle_beta 63.665391
_cell_angle_gamma 90.000000
_cell_volume 602.798298
_symmetry_space_group_name_H-M "P 21/C"
_symmetry_group_IT_number 14
_symmetry_cell_setting 'monoclinic'
loop_
_space_group_symop_operation_xyz
x,y,z
-x,1/2+y,1/2-z
-x,-y,-z
x,1/2-y,1/2+z
loop_
_atom_site_type_symbol
_atom_site_label
_atom_site_fract_x
_atom_site_fract_y
_atom_site_fract_z
Si Si1 0.197378 0.254470 0.946236
Si Si2 0.693693 0.975649 0.726497
Si Si3 0.496167 0.660864 0.896640
Si Si4 0.777577 0.374212 0.477659
O O1 0.155373 0.365918 0.859287
O O2 0.422189 0.196925 0.796571
O O3 0.274425 0.309939 0.078628
O O4 0.005825 0.155352 0.004096
O O5 0.440854 0.932465 0.868287
O O6 0.626775 0.042956 0.596387
O O7 0.811231 0.053797 0.815806
O O8 0.311250 0.747690 0.022676
#
# Coordination Sequence:
#
# PCOD9250193 Si02
#       4
#     4   4   4   4
#     4  11  25  43  73 104 140 187 237 283 357 419
#     4  10  23  48  73 102 144 187 231 294 356 406
#     4  11  23  46  68 109 142 182 234 295 340 427
#     4  10  24  47  70 103 148 180 233 299 345 418
#
# _framework density 26.542876
#
# number of rings (size 3 to 8) (size 9 to 14) (size 15 to 20)
#    0.000    1.500    2.500    0.750    3.500    2.000 
#    4.500    0.000    0.000    0.000    0.000    0.000 
#    0.000    0.000    0.000    0.000    0.000    0.000 
#
# Total GULP energy -89399.541502 kJ/mol
# GULP energy per Si atom -5587.471344 kJ/mol
# Density = 2.648246 g / cm^3
# Si number density = 26.542876 Si / 1000 Ang^3
#
#
#
# Elastic Constant Matrix: (Units=GPa)
#
#
# Indices 1 2 3 4 5 6 
#
# 1 91.2227 51.1515 35.9567 0.0000 11.3980 0.0000
# 2 51.1515 148.8086 30.4532 0.0000 14.7459 0.0000
# 3 35.9567 30.4532 59.3666 0.0000 19.5400 0.0000
# 4 0.0000 0.0000 0.0000 15.2491 0.0000 -3.1857
# 5 11.3980 14.7459 19.5400 0.0000 23.9624 0.0000
# 6 0.0000 0.0000 0.0000 -3.1857 0.0000 60.8554
#
#
#
# Elastic Compliance Matrix: (Units=1/GPa)
#
#
# Indices 1 2 3 4 5 6 
#
# 1 0.016322 -0.004061 -0.008296 0.000000 0.001501 0.000000
# 2 -0.004061 0.008591 -0.001152 0.000000 -0.002416 0.000000
# 3 -0.008296 -0.001152 0.028606 0.000000 -0.018671 0.000000
# 4 0.000000 0.000000 0.000000 0.066303 0.000000 0.003471
# 5 0.001501 -0.002416 -0.018671 0.000000 0.057730 0.000000
# 6 0.000000 0.000000 0.000000 0.003471 0.000000 0.016614
#
#
# Mechanical properties :
#
#
# Convention : Reuss Voigt Hill
#
# Bulk Modulus (GPa) = 37.73678 59.39117 48.56397
# Shear Modulus (GPa) = 21.73730 32.13582 26.93656
#
# Velocity S-wave (km/s) = 2.86484 3.48331 3.18910
# Velocity P-wave (km/s) = 5.01908 6.21305 5.64771
#
# Compressibility (1/GPa) = 0.02649935
#
# Stress axis : x y z
#
# Youngs Moduli (GPa) = 61.26610 116.39732 34.95779
#
# Poissons Ratio (x) = 0.47274 0.29003
# Poissons Ratio (y) = 0.24883 0.04027
# Poissons Ratio (z) = 0.50829 0.13410
#
# Static dielectric constant tensor:
#      x y z
#    x 2.167390 0.000000 0.037720 
#    y 0.000000 2.098010 0.000000 
#    z 0.037720 0.000000 2.095420 
# 
# From -- ./inp_files/4870.got.cif
#   From: 2010.05.17/outbox.cif.g08.bks.cpg/sg14_3_cif.got.tgz:4870.got - 2010.06.03 17:49:19.
