data_PCOD9250416
_publ_section_title
;
Structure prediction by ZEFSAII (Michael W. Deem and Ramdas Pophale) SiO2 
 PCOD9250416
Probable space group: P 21/C
;
_chemical_formula_sum "Si O2"
_cell_formula_units_Z 18
_cell_length_a 20.048093
_cell_length_b 5.123954
_cell_length_c 8.841628
_cell_angle_alpha 90.000000
_cell_angle_beta 46.821152
_cell_angle_gamma 90.000000
_cell_volume 662.323052
_symmetry_space_group_name_H-M "P 21/C"
_symmetry_group_IT_number 14
_symmetry_cell_setting 'monoclinic'
loop_
_space_group_symop_operation_xyz
x,y,z
-x,1/2+y,1/2-z
-x,-y,-z
x,1/2-y,1/2+z
loop_
_atom_site_type_symbol
_atom_site_label
_atom_site_fract_x
_atom_site_fract_y
_atom_site_fract_z
Si Si1 0.688889 0.223770 0.743055
Si Si2 0.349252 0.084963 0.461044
Si Si3 0.500000 0.500000 0.500000
Si Si4 0.939030 0.539768 0.334060
Si Si5 0.178782 0.090257 0.272259
O O1 0.686089 0.180695 0.568565
O O2 0.782395 0.113907 0.665242
O O3 0.656585 0.500440 0.855708
O O4 0.600761 0.042882 0.919620
O O5 0.447601 0.124835 0.234446
O O6 0.268657 0.284372 0.557235
O O7 0.885044 0.488748 0.262264
O O8 0.873175 0.676287 0.559098
O O9 0.987694 0.273406 0.309130
#
# Coordination Sequence:
#
# PCOD9250416 Si02
#       5
#     4   4   2   4   4
#     4  10  24  42  69 100 145 192 242 303 359 448
#     4  10  24  42  69 100 145 192 242 303 359 448
#     4   8  22  42  60 108 136 190 250 282 376 400
#     4  12  29  49  78 108 146 194 252 323 381 466
#     4  12  26  46  70 106 146 190 246 304 392 436
#
# _framework density 27.177070000000001
#
# number of rings (size 3 to 8) (size 9 to 14) (size 15 to 20)
#    1.333    0.000    2.222    1.333   12.444    0.000 
#    0.000    3.333    0.000    0.000    0.000    0.000 
#    0.000    0.000    0.000    0.000    0.000    0.000 
#
# Total GULP energy -100216.906226 kJ/mol
# GULP energy per Si atom -5567.605901 kJ/mol
# Density = 2.711521 g / cm^3
# Si number density = 27.177070 Si / 1000 Ang^3
#
#
#
# Elastic Constant Matrix: (Units=GPa)
#
#
# Indices 1 2 3 4 5 6 
#
# 1 139.8711 24.6081 17.4372 0.0000 -26.5150 0.0000
# 2 24.6081 90.2684 27.4534 0.0000 -20.9358 0.0000
# 3 17.4372 27.4534 154.6653 0.0000 -8.4609 0.0000
# 4 0.0000 0.0000 0.0000 14.5553 0.0000 17.5152
# 5 -26.5150 -20.9358 -8.4609 0.0000 48.3736 0.0000
# 6 0.0000 0.0000 0.0000 17.5152 0.0000 24.8957
#
#
#
# Elastic Compliance Matrix: (Units=1/GPa)
#
#
# Indices 1 2 3 4 5 6 
#
# 1 0.008152 -0.001172 -0.000499 0.000000 0.003874 0.000000
# 2 -0.001172 0.013070 -0.001932 0.000000 0.004676 0.000000
# 3 -0.000499 -0.001932 0.006870 0.000000 0.000092 0.000000
# 4 0.000000 0.000000 0.000000 0.447921 0.000000 -0.315133
# 5 0.003874 0.004676 0.000092 0.000000 0.024836 0.000000
# 6 0.000000 0.000000 0.000000 -0.315133 0.000000 0.261878
#
#
# Mechanical properties :
#
#
# Convention : Reuss Voigt Hill
#
# Bulk Modulus (GPa) = 47.88046 58.20024 53.04035
# Shear Modulus (GPa) = 6.43588 38.58532 22.51060
#
# Velocity S-wave (km/s) = 1.54054 3.77208 2.88113
# Velocity P-wave (km/s) = 4.56296 6.35870 5.53415
#
# Compressibility (1/GPa) = 0.02088535
#
# Stress axis : x y z
#
# Youngs Moduli (GPa) = 122.66560 76.51297 145.56472
#
# Poissons Ratio (x) = 0.08968 0.07265
# Poissons Ratio (y) = 0.14378 0.28122
# Poissons Ratio (z) = 0.06122 0.14782
#
# Static dielectric constant tensor:
#      x y z
#    x 2.065650 0.000000 0.064890 
#    y 0.000000 63.700790 0.000000 
#    z 0.064890 0.000000 2.156470 
# 
# From -- ./inp_files/17125.got.cif
#   From: 2010.05.17/outbox.cif.g08.bks.cpg/sg14_9_cif.got.tgz:17125.got - 2010.06.03 17:49:19.
