data_PCOD9250505
_publ_section_title
;
Structure prediction by ZEFSAII (Michael W. Deem and Ramdas Pophale) SiO2 
 PCOD9250505
Probable space group: P 21/C
;
_chemical_formula_sum "Si O2"
_cell_formula_units_Z 24
_cell_length_a 11.773513
_cell_length_b 11.648810
_cell_length_c 22.664353
_cell_angle_alpha 90.000000
_cell_angle_beta 19.755382
_cell_angle_gamma 90.000000
_cell_volume 1050.640747
_symmetry_space_group_name_H-M "P 21/C"
_symmetry_group_IT_number 14
_symmetry_cell_setting 'monoclinic'
loop_
_space_group_symop_operation_xyz
x,y,z
-x,1/2+y,1/2-z
-x,-y,-z
x,1/2-y,1/2+z
loop_
_atom_site_type_symbol
_atom_site_label
_atom_site_fract_x
_atom_site_fract_y
_atom_site_fract_z
Si Si1 0.232407 0.558834 0.675422
Si Si2 0.360454 0.923788 0.717873
Si Si3 0.631613 0.686839 0.576029
Si Si4 0.431079 0.362037 0.653434
Si Si5 0.833498 0.879517 0.262237
Si Si6 0.621967 0.000572 0.708490
O O1 0.500000 0.500000 0.500000
O O2 0.420069 0.656502 0.620865
O O3 0.178052 0.454941 0.747780
O O4 0.933403 0.608022 0.781888
O O5 0.630220 0.822275 0.586419
O O6 0.385822 0.990607 0.767043
O O7 0.381975 0.013122 0.654363
O O8 0.005260 0.860088 0.886554
O O9 0.468156 0.612853 0.709049
O O10 0.334805 0.238095 0.676126
O O11 0.420261 0.390282 0.727862
O O12 0.810779 0.386689 0.446659
O O13 0.000000 0.000000 0.500000
#
# Coordination Sequence:
#
# PCOD9250505 Si02
#       6
#     4   4   4   4   4   4
#     4   9  19  44  67  93 138 173 218 276 338 385
#     4  12  25  42  69  99 136 175 227 269 341 390
#     4  11  24  43  68  98 135 178 221 280 331 400
#     4  10  24  43  68  97 136 173 225 274 335 393
#     4  11  24  42  71  98 134 179 219 280 333 402
#     4  11  25  45  68  95 138 175 224 277 337 397
#
# _framework density 22.843204
#
# number of rings (size 3 to 8) (size 9 to 14) (size 15 to 20)
#    0.000    1.333    5.000    1.500    7.000    0.000 
#    0.000    0.833    0.000    0.000    0.000    0.000 
#    0.000    0.000    0.000    0.000    0.000    0.000 
#
# Total GULP energy -134275.000042 kJ/mol
# GULP energy per Si atom -5594.791668 kJ/mol
# Density = 2.279121 g / cm^3
# Si number density = 22.843204 Si / 1000 Ang^3
#
#
#
# Elastic Constant Matrix: (Units=GPa)
#
#
# Indices 1 2 3 4 5 6 
#
# 1 128.3798 4.6636 -4.6391 0.0000 -24.0928 0.0000
# 2 4.6636 76.0633 7.2192 0.0000 -25.6897 0.0000
# 3 -4.6391 7.2192 60.0874 0.0000 -5.0566 0.0000
# 4 0.0000 0.0000 0.0000 28.8493 0.0000 -8.6673
# 5 -24.0928 -25.6897 -5.0566 0.0000 22.1077 0.0000
# 6 0.0000 0.0000 0.0000 -8.6673 0.0000 33.7527
#
#
#
# Elastic Compliance Matrix: (Units=1/GPa)
#
#
# Indices 1 2 3 4 5 6 
#
# 1 0.011259 0.005632 0.001811 0.000000 0.019229 0.000000
# 2 0.005632 0.024472 0.000412 0.000000 0.034669 0.000000
# 3 0.001811 0.000412 0.017272 0.000000 0.006403 0.000000
# 4 0.000000 0.000000 0.000000 0.037561 0.000000 0.009645
# 5 0.019229 0.034669 0.006403 0.000000 0.107939 0.000000
# 6 0.000000 0.000000 0.000000 0.009645 0.000000 0.032104
#
#
# Mechanical properties :
#
#
# Convention : Reuss Voigt Hill
#
# Bulk Modulus (GPa) = 14.55347 31.00199 22.77773
# Shear Modulus (GPa) = 21.02614 34.09439 27.56027
#
# Velocity S-wave (km/s) = 3.03719 3.86753 3.47724
# Velocity P-wave (km/s) = 4.32253 5.79179 5.11024
#
# Compressibility (1/GPa) = 0.06871213
#
# Stress axis : x y z
#
# Youngs Moduli (GPa) = 88.81909 40.86377 57.89878
#
# Poissons Ratio (x) = -0.23015 -0.10484
# Poissons Ratio (y) = -0.50024 -0.02387
# Poissons Ratio (z) = -0.16083 -0.01684
#
# Static dielectric constant tensor:
#      x y z
#    x 1.822650 0.000000 0.005240 
#    y 0.000000 1.858670 0.000000 
#    z 0.005240 0.000000 1.855220 
# 
# From -- ./inp_files/12381.got.cif
#   From: 2010.05.17/outbox.cif.g08.bks.cpg/sg14_7_cif.got.tgz:12381.got - 2010.06.03 17:49:19.
