data_PCOD9250376
_publ_section_title
;
Structure prediction by ZEFSAII (Michael W. Deem and Ramdas Pophale) SiO2 
 PCOD9250376
Probable space group: P 21/C
;
_chemical_formula_sum "Si O2"
_cell_formula_units_Z 16
_cell_length_a 10.497876
_cell_length_b 9.535614
_cell_length_c 10.485323
_cell_angle_alpha 90.000000
_cell_angle_beta 36.036570
_cell_angle_gamma 90.000000
_cell_volume 617.492762
_symmetry_space_group_name_H-M "P 21/C"
_symmetry_group_IT_number 14
_symmetry_cell_setting 'monoclinic'
loop_
_space_group_symop_operation_xyz
x,y,z
-x,1/2+y,1/2-z
-x,-y,-z
x,1/2-y,1/2+z
loop_
_atom_site_type_symbol
_atom_site_label
_atom_site_fract_x
_atom_site_fract_y
_atom_site_fract_z
Si Si1 0.878587 0.560260 0.795462
Si Si2 0.683822 0.058842 0.675134
Si Si3 0.343188 0.258802 0.840447
Si Si4 0.875051 0.321459 0.613781
O O1 0.789124 0.449366 0.766118
O O2 0.089873 0.627848 0.560569
O O3 0.895564 0.476800 0.915381
O O4 0.712918 0.681193 0.971876
O O5 0.514637 0.137376 0.719697
O O6 0.750727 0.176318 0.720424
O O7 0.601297 0.904208 0.777582
O O8 0.118208 0.203853 0.967165
#
# Coordination Sequence:
#
# PCOD9250376 Si02
#       4
#     4   4   4   4
#     4   9  24  38  70  90 134 157 216 257 320 362
#     4  10  24  42  64  96 129 162 215 258 310 379
#     4  10  24  42  64  96 129 162 215 258 310 379
#     4  11  21  44  68  90 126 174 204 260 320 364
#
# _framework density 25.911234
#
# number of rings (size 3 to 8) (size 9 to 14) (size 15 to 20)
#    1.500    0.500    0.000    2.250    7.000    4.000 
#    0.000    2.500    0.000    0.000    0.000    0.000 
#    0.000    0.000    0.000    0.000    0.000    0.000 
#
# Total GULP energy -89282.546446 kJ/mol
# GULP energy per Si atom -5580.159153 kJ/mol
# Density = 2.585226 g / cm^3
# Si number density = 25.911234 Si / 1000 Ang^3
#
#
#
# Elastic Constant Matrix: (Units=GPa)
#
#
# Indices 1 2 3 4 5 6 
#
# 1 75.6318 41.7442 -0.2717 0.0000 -31.9326 0.0000
# 2 41.7442 139.3394 33.0333 0.0000 -7.6756 0.0000
# 3 -0.2717 33.0333 74.6663 0.0000 19.5809 0.0000
# 4 0.0000 0.0000 0.0000 37.0391 0.0000 8.8831
# 5 -31.9326 -7.6756 19.5809 0.0000 33.5489 0.0000
# 6 0.0000 0.0000 0.0000 8.8831 0.0000 52.3083
#
#
#
# Elastic Compliance Matrix: (Units=1/GPa)
#
#
# Indices 1 2 3 4 5 6 
#
# 1 0.028492 -0.005816 -0.004824 0.000000 0.028604 0.000000
# 2 -0.005816 0.009858 -0.004159 0.000000 -0.000854 0.000000
# 3 -0.004824 -0.004159 0.019681 0.000000 -0.017031 0.000000
# 4 0.000000 0.000000 0.000000 0.028145 0.000000 -0.004780
# 5 0.028604 -0.000854 -0.017031 0.000000 0.066778 0.000000
# 6 0.000000 0.000000 0.000000 -0.004780 0.000000 0.019929
#
#
# Mechanical properties :
#
#
# Convention : Reuss Voigt Hill
#
# Bulk Modulus (GPa) = 35.17106 48.73877 41.95491
# Shear Modulus (GPa) = 23.58934 38.92137 31.25536
#
# Velocity S-wave (km/s) = 3.02054 3.87990 3.47687
# Velocity P-wave (km/s) = 5.07622 6.23877 5.68728
#
# Compressibility (1/GPa) = 0.02843247
#
# Stress axis : x y z
#
# Youngs Moduli (GPa) = 35.09759 101.43924 50.80934
#
# Poissons Ratio (x) = 0.59001 0.24513
# Poissons Ratio (y) = 0.20414 0.21130
# Poissons Ratio (z) = 0.16933 0.42185
#
# Static dielectric constant tensor:
#      x y z
#    x 2.065650 0.000000 0.071210 
#    y 0.000000 2.007450 0.000000 
#    z 0.071210 0.000000 2.065540 
# 
# From -- ./inp_files/15269.got.cif
#   From: 2010.05.17/outbox.cif.g08.bks.cpg/sg14_8_cif.got.tgz:15269.got - 2010.06.03 17:49:19.
