data_PCOD9250378
_publ_section_title
;
Structure prediction by ZEFSAII (Michael W. Deem and Ramdas Pophale) SiO2 
 PCOD9250378
Probable space group: P 21/C
;
_chemical_formula_sum "Si O2"
_cell_formula_units_Z 26
_cell_length_a 13.028878
_cell_length_b 6.944306
_cell_length_c 13.442435
_cell_angle_alpha 90.000000
_cell_angle_beta 65.047466
_cell_angle_gamma 90.000000
_cell_volume 1102.699337
_symmetry_space_group_name_H-M "P 21/C"
_symmetry_group_IT_number 14
_symmetry_cell_setting 'monoclinic'
loop_
_space_group_symop_operation_xyz
x,y,z
-x,1/2+y,1/2-z
-x,-y,-z
x,1/2-y,1/2+z
loop_
_atom_site_type_symbol
_atom_site_label
_atom_site_fract_x
_atom_site_fract_y
_atom_site_fract_z
Si Si1 0.654027 0.252398 0.372233
Si Si2 0.737171 0.521374 0.180412
Si Si3 0.981758 0.136357 0.649215
Si Si4 0.000000 0.500000 0.500000
Si Si5 0.588242 0.262121 0.104972
Si Si6 0.359750 0.080090 0.786514
Si Si7 0.888549 0.241216 0.391322
O O1 0.657680 0.444222 0.304058
O O2 0.563678 0.229847 0.497255
O O3 0.768138 0.251366 0.389454
O O4 0.658337 0.075224 0.293813
O O5 0.861723 0.450706 0.160358
O O6 0.681669 0.415637 0.107615
O O7 0.732909 0.751585 0.171579
O O8 0.973421 0.187600 0.769316
O O9 0.008412 0.327659 0.579176
O O10 0.075287 0.973936 0.596174
O O11 0.095759 0.625269 0.521112
O O12 0.476590 0.312109 0.213754
O O13 0.628272 0.049211 0.120409
#
# Coordination Sequence:
#
# PCOD9250378 Si02
#       7
#     4   4   4   2   4   4   4
#     4  10  25  41  65 101 135 174 234 281 342 414
#     4  10  24  42  65 102 133 178 225 282 345 409
#     4  11  24  43  69  99 141 182 235 282 346 416
#     4  12  24  42  70  96 138 188 226 282 342 406
#     4  11  22  44  65  98 135 175 228 284 345 420
#     4  11  23  42  70  94 137 179 221 287 351 402
#     4  11  24  43  67 101 138 186 230 288 344 415
#
# _framework density 23.578505
#
# number of rings (size 3 to 8) (size 9 to 14) (size 15 to 20)
#    0.000    1.231    3.077    1.846    2.154    4.308 
#    0.000    0.000    0.000    0.000    0.000    0.000 
#    0.000    0.000    0.000    0.000    0.000    0.000 
#
# Total GULP energy -145039.060044 kJ/mol
# GULP energy per Si atom -5578.425386 kJ/mol
# Density = 2.352484 g / cm^3
# Si number density = 23.578505 Si / 1000 Ang^3
#
#
#
# Elastic Constant Matrix: (Units=GPa)
#
#
# Indices 1 2 3 4 5 6 
#
# 1 34.6231 -2.9080 0.4832 0.0000 11.7623 0.0000
# 2 -2.9080 128.8151 24.1587 0.0000 9.1238 0.0000
# 3 0.4832 24.1587 60.5407 0.0000 12.3199 0.0000
# 4 0.0000 0.0000 0.0000 11.6749 0.0000 1.0957
# 5 11.7623 9.1238 12.3199 0.0000 31.8032 0.0000
# 6 0.0000 0.0000 0.0000 1.0957 0.0000 29.0427
#
#
#
# Elastic Compliance Matrix: (Units=1/GPa)
#
#
# Indices 1 2 3 4 5 6 
#
# 1 0.033576 0.001352 0.001952 0.000000 -0.013562 0.000000
# 2 0.001352 0.008488 -0.003040 0.000000 -0.001758 0.000000
# 3 0.001952 -0.003040 0.019198 0.000000 -0.007287 0.000000
# 4 0.000000 0.000000 0.000000 0.085958 0.000000 -0.003243
# 5 -0.013562 -0.001758 -0.007287 0.000000 0.039786 0.000000
# 6 0.000000 0.000000 0.000000 -0.003243 0.000000 0.034554
#
#
# Mechanical properties :
#
#
# Convention : Reuss Voigt Hill
#
# Bulk Modulus (GPa) = 16.18349 29.71631 22.94990
# Shear Modulus (GPa) = 20.69279 27.98716 24.33998
#
# Velocity S-wave (km/s) = 2.96567 3.44899 3.21642
# Velocity P-wave (km/s) = 4.31341 5.33772 4.85266
#
# Compressibility (1/GPa) = 0.06179137
#
# Stress axis : x y z
#
# Youngs Moduli (GPa) = 29.78299 117.80931 52.08791
#
# Poissons Ratio (x) = -0.15933 -0.10168
# Poissons Ratio (y) = -0.04028 0.15837
# Poissons Ratio (z) = -0.05814 0.35818
#
# Static dielectric constant tensor:
#      x y z
#    x 1.849860 0.000000 -0.082250 
#    y 0.000000 1.850330 0.000000 
#    z -0.082250 0.000000 2.043880 
# 
# From -- ./inp_files/45870.got.cif
#   From: 2010.05.17/outbox.cif.g08.bks.cpg/sg14_23_cif.got.tgz:45870.got - 2010.06.03 17:49:19.
