data_PCOD9250306
_publ_section_title
;
Structure prediction by ZEFSAII (Michael W. Deem and Ramdas Pophale) SiO2 
 PCOD9250306
Probable space group: P 21/C
;
_chemical_formula_sum "Si O2"
_cell_formula_units_Z 22
_cell_length_a 10.119125
_cell_length_b 4.951196
_cell_length_c 23.612739
_cell_angle_alpha 90.000000
_cell_angle_beta 129.180122
_cell_angle_gamma 90.000000
_cell_volume 917.049719
_symmetry_space_group_name_H-M "P 21/C"
_symmetry_group_IT_number 14
_symmetry_cell_setting 'monoclinic'
loop_
_space_group_symop_operation_xyz
x,y,z
-x,1/2+y,1/2-z
-x,-y,-z
x,1/2-y,1/2+z
loop_
_atom_site_type_symbol
_atom_site_label
_atom_site_fract_x
_atom_site_fract_y
_atom_site_fract_z
Si Si1 0.073254 0.381946 0.241892
Si Si2 0.231951 0.538044 0.606428
Si Si3 0.500000 0.000000 0.000000
Si Si4 0.708557 0.664074 0.978060
Si Si5 0.047403 0.450056 0.106819
Si Si6 0.457777 0.261646 0.362665
O O1 0.040467 0.506299 0.171416
O O2 0.260655 0.253567 0.295712
O O3 0.053040 0.633492 0.279152
O O4 0.205297 0.391515 0.538300
O O5 0.142108 0.817738 0.597138
O O6 0.433674 0.598463 0.658118
O O7 0.154034 0.322118 0.628023
O O8 0.479788 0.071712 0.926859
O O9 0.641371 0.771356 0.019753
O O10 0.556326 0.516510 0.903064
O O11 0.854527 0.444838 0.031895
#
# Coordination Sequence:
#
# PCOD9250306 Si02
#       6
#     4   4   2   4   4   4
#     4  12  30  50  72 104 148 196 249 305 369 445
#     4  11  25  45  75 111 147 188 244 302 369 446
#     4  10  24  40  72 106 142 194 242 294 368 422
#     4  11  24  44  76 112 152 189 251 307 362 441
#     4  12  26  46  75 108 150 194 240 306 377 433
#     4  11  26  45  74 106 149 188 249 303 363 440
#
# _framework density 23.989974
#
# number of rings (size 3 to 8) (size 9 to 14) (size 15 to 20)
#    0.000    0.727    1.818    3.818   12.727    1.455 
#    0.000    0.000    0.000    0.000    0.000    0.000 
#    0.000    0.000    0.000    0.000    0.000    0.000 
#
# Total GULP energy -122594.284455 kJ/mol
# GULP energy per Si atom -5572.467475 kJ/mol
# Density = 2.393537 g / cm^3
# Si number density = 23.989974 Si / 1000 Ang^3
#
#
#
# Elastic Constant Matrix: (Units=GPa)
#
#
# Indices 1 2 3 4 5 6 
#
# 1 104.7048 28.0578 36.2161 0.0000 8.6849 0.0000
# 2 28.0578 97.8389 20.0867 0.0000 11.6412 0.0000
# 3 36.2161 20.0867 72.1840 0.0000 8.0795 0.0000
# 4 0.0000 0.0000 0.0000 19.4573 0.0000 3.0027
# 5 8.6849 11.6412 8.0795 0.0000 31.1520 0.0000
# 6 0.0000 0.0000 0.0000 3.0027 0.0000 24.4810
#
#
#
# Elastic Compliance Matrix: (Units=1/GPa)
#
#
# Indices 1 2 3 4 5 6 
#
# 1 0.012083 -0.002237 -0.005310 0.000000 -0.001155 0.000000
# 2 -0.002237 0.011608 -0.001743 0.000000 -0.003262 0.000000
# 3 -0.005310 -0.001743 0.017265 0.000000 -0.002346 0.000000
# 4 0.000000 0.000000 0.000000 0.052386 0.000000 -0.006425
# 5 -0.001155 -0.003262 -0.002346 0.000000 0.034250 0.000000
# 6 0.000000 0.000000 0.000000 -0.006425 0.000000 0.041636
#
#
# Mechanical properties :
#
#
# Convention : Reuss Voigt Hill
#
# Bulk Modulus (GPa) = 44.69078 49.27209 46.98143
# Shear Modulus (GPa) = 25.60581 27.70921 26.65751
#
# Velocity S-wave (km/s) = 3.27058 3.40226 3.33707
# Velocity P-wave (km/s) = 5.73861 6.00142 5.87149
#
# Compressibility (1/GPa) = 0.02237598
#
# Stress axis : x y z
#
# Youngs Moduli (GPa) = 82.76242 86.14436 57.91973
#
# Poissons Ratio (x) = 0.19274 0.30757
# Poissons Ratio (y) = 0.18517 0.10093
# Poissons Ratio (z) = 0.43949 0.15012
#
# Static dielectric constant tensor:
#      x y z
#    x 1.930000 0.000000 0.042840 
#    y 0.000000 2.013550 0.000000 
#    z 0.042840 0.000000 1.885280 
# 
# From -- ./inp_files/76132.got.cif
#   From: 2010.05.17/outbox.cif.g08.bks.cpg/sg14_39_cif.got.tgz:76132.got - 2010.06.03 17:49:19.
