data_PCOD9250098
_publ_section_title
;
Structure prediction by ZEFSAII (Michael W. Deem and Ramdas Pophale) SiO2 
 PCOD9250098
Probable space group: P 21/C
;
_chemical_formula_sum "Si O2"
_cell_formula_units_Z 20
_cell_length_a 8.117003
_cell_length_b 17.168982
_cell_length_c 10.167166
_cell_angle_alpha 90.000000
_cell_angle_beta 36.993289
_cell_angle_gamma 90.000000
_cell_volume 852.581055
_symmetry_space_group_name_H-M "P 21/C"
_symmetry_group_IT_number 14
_symmetry_cell_setting 'monoclinic'
loop_
_space_group_symop_operation_xyz
x,y,z
-x,1/2+y,1/2-z
-x,-y,-z
x,1/2-y,1/2+z
loop_
_atom_site_type_symbol
_atom_site_label
_atom_site_fract_x
_atom_site_fract_y
_atom_site_fract_z
Si Si1 0.778106 0.104504 0.570074
Si Si2 0.574963 0.259579 0.838414
Si Si3 0.633166 0.484931 0.608619
Si Si4 0.158687 0.591019 0.260828
Si Si5 0.385131 0.335764 0.701294
O O1 0.655159 0.180747 0.714785
O O2 0.690658 0.093198 0.474421
O O3 0.097578 0.122775 0.363216
O O4 0.654253 0.029445 0.719754
O O5 0.830378 0.318165 0.702675
O O6 0.395140 0.305099 0.844914
O O7 0.436960 0.232328 0.062612
O O8 0.690762 0.456710 0.720967
O O9 0.616118 0.403575 0.541183
O O10 0.869789 0.547247 0.426767
#
# Coordination Sequence:
#
# PCOD9250098 Si02
#       5
#     4   4   4   4   4
#     4  12  24  40  74 102 142 181 236 287 352 413
#     4  11  25  45  70 104 139 188 233 289 350 417
#     4  10  24  46  71 104 142 182 234 288 352 414
#     4  10  23  46  72 102 141 185 230 288 348 421
#     4  11  26  45  71 103 143 183 238 290 347 417
#
# _framework density 23.458181
#
# number of rings (size 3 to 8) (size 9 to 14) (size 15 to 20)
#    0.000    1.200    2.000    2.400    5.600    4.800 
#    0.000    4.000    0.000    0.000    0.000    0.000 
#    0.000    0.000    0.000    0.000    0.000    0.000 
#
# Total GULP energy -111719.450895 kJ/mol
# GULP energy per Si atom -5585.972545 kJ/mol
# Density = 2.340479 g / cm^3
# Si number density = 23.458181 Si / 1000 Ang^3
#
#
#
# Elastic Constant Matrix: (Units=GPa)
#
#
# Indices 1 2 3 4 5 6 
#
# 1 82.9351 33.6344 31.3318 0.0000 11.5163 0.0000
# 2 33.6344 138.1418 43.3014 0.0000 -2.8183 0.0000
# 3 31.3318 43.3014 39.3593 0.0000 -1.2732 0.0000
# 4 0.0000 0.0000 0.0000 40.7759 0.0000 7.0578
# 5 11.5163 -2.8183 -1.2732 0.0000 34.4061 0.0000
# 6 0.0000 0.0000 0.0000 7.0578 0.0000 37.0340
#
#
#
# Elastic Compliance Matrix: (Units=1/GPa)
#
#
# Indices 1 2 3 4 5 6 
#
# 1 0.018718 0.000066 -0.015194 0.000000 -0.006822 0.000000
# 2 0.000066 0.011057 -0.012203 0.000000 0.000432 0.000000
# 3 -0.015194 -0.012203 0.051120 0.000000 0.005978 0.000000
# 4 0.000000 0.000000 0.000000 0.025361 0.000000 -0.004833
# 5 -0.006822 0.000432 0.005978 0.000000 0.031605 0.000000
# 6 0.000000 0.000000 0.000000 -0.004833 0.000000 0.027923
#
#
# Mechanical properties :
#
#
# Convention : Reuss Voigt Hill
#
# Bulk Modulus (GPa) = 38.11838 52.99683 45.55761
# Shear Modulus (GPa) = 21.81601 32.58776 27.20189
#
# Velocity S-wave (km/s) = 3.05289 3.73122 3.40897
# Velocity P-wave (km/s) = 5.35832 6.41902 5.91250
#
# Compressibility (1/GPa) = 0.02623406
#
# Stress axis : x y z
#
# Youngs Moduli (GPa) = 53.42397 90.44302 19.56179
#
# Poissons Ratio (x) = -0.00596 0.29722
# Poissons Ratio (y) = -0.00352 0.23871
# Poissons Ratio (z) = 0.81171 1.10364
#
# Static dielectric constant tensor:
#      x y z
#    x 1.910390 0.000000 -0.002260 
#    y 0.000000 1.880970 0.000000 
#    z -0.002260 0.000000 1.872810 
# 
# From -- ./inp_files/25701.got.cif
#   From: 2010.05.17/outbox.cif.g08.bks.cpg/sg14_13_cif.got.tgz:25701.got - 2010.06.03 17:49:19.
