data_PCOD9250360
_publ_section_title
;
Structure prediction by ZEFSAII (Michael W. Deem and Ramdas Pophale) SiO2 
 PCOD9250360
Probable space group: P 21/C
;
_chemical_formula_sum "Si O2"
_cell_formula_units_Z 22
_cell_length_a 9.325048
_cell_length_b 17.246204
_cell_length_c 9.956923
_cell_angle_alpha 90.000000
_cell_angle_beta 30.211450
_cell_angle_gamma 90.000000
_cell_volume 805.756904
_symmetry_space_group_name_H-M "P 21/C"
_symmetry_group_IT_number 14
_symmetry_cell_setting 'monoclinic'
loop_
_space_group_symop_operation_xyz
x,y,z
-x,1/2+y,1/2-z
-x,-y,-z
x,1/2-y,1/2+z
loop_
_atom_site_type_symbol
_atom_site_label
_atom_site_fract_x
_atom_site_fract_y
_atom_site_fract_z
Si Si1 0.662610 0.237537 0.437078
Si Si2 0.961552 0.597779 0.264911
Si Si3 0.608898 0.113226 0.134791
Si Si4 0.000000 0.000000 0.000000
Si Si5 0.257269 0.392938 0.167969
Si Si6 0.693583 0.110372 0.770952
O O1 0.894077 0.178122 0.303236
O O2 0.573556 0.296651 0.626350
O O3 0.400867 0.187539 0.592469
O O4 0.778882 0.299893 0.235203
O O5 0.683453 0.544495 0.767003
O O6 0.089566 0.579029 0.014034
O O7 0.625326 0.610594 0.525777
O O8 0.351294 0.093701 0.440009
O O9 0.660562 0.074314 0.948254
O O10 0.907795 0.101626 0.974445
O O11 0.042821 0.963079 0.812244
#
# Coordination Sequence:
#
# PCOD9250360 Si02
#       6
#     4   4   4   2   4   4
#     4  10  24  41  80 107 140 176 222 304 352 396
#     4  12  24  48  65 107 140 185 235 273 343 423
#     4  10  25  41  75 108 140 173 224 295 363 395
#     4  12  32  46  74  90 144 198 236 280 328 422
#     4  12  24  48  65 107 140 185 235 273 343 423
#     4  10  25  41  75 108 140 173 224 295 363 395
#
# _framework density 27.303521
#
# number of rings (size 3 to 8) (size 9 to 14) (size 15 to 20)
#    1.091    0.000    0.000    5.455    0.000   12.364 
#    0.000    5.455    0.000    0.000    0.000    0.000 
#    0.000    0.000    0.000    0.000    0.000    0.000 
#
# Total GULP energy -122839.482990 kJ/mol
# GULP energy per Si atom -5583.612863 kJ/mol
# Density = 2.724138 g / cm^3
# Si number density = 27.303521 Si / 1000 Ang^3
#
#
#
# Elastic Constant Matrix: (Units=GPa)
#
#
# Indices 1 2 3 4 5 6 
#
# 1 131.6862 32.6271 45.1167 0.0000 25.7332 0.0000
# 2 32.6271 113.4956 23.9168 0.0000 24.4710 0.0000
# 3 45.1167 23.9168 136.1022 0.0000 32.8775 0.0000
# 4 0.0000 0.0000 0.0000 31.3388 0.0000 10.7241
# 5 25.7332 24.4710 32.8775 0.0000 60.2754 0.0000
# 6 0.0000 0.0000 0.0000 10.7241 0.0000 47.4025
#
#
#
# Elastic Compliance Matrix: (Units=1/GPa)
#
#
# Indices 1 2 3 4 5 6 
#
# 1 0.009186 -0.001737 -0.002261 0.000000 -0.001984 0.000000
# 2 -0.001737 0.010073 -0.000444 0.000000 -0.003106 0.000000
# 3 -0.002261 -0.000444 0.009097 0.000000 -0.003816 0.000000
# 4 0.000000 0.000000 0.000000 0.034587 0.000000 -0.007825
# 5 -0.001984 -0.003106 -0.003816 0.000000 0.020780 0.000000
# 6 0.000000 0.000000 0.000000 -0.007825 0.000000 0.022866
#
#
# Mechanical properties :
#
#
# Convention : Reuss Voigt Hill
#
# Bulk Modulus (GPa) = 51.35277 64.95613 58.15445
# Shear Modulus (GPa) = 40.99564 46.44490 43.72027
#
# Velocity S-wave (km/s) = 3.87910 4.12886 4.00593
# Velocity P-wave (km/s) = 6.23796 6.82437 6.53774
#
# Compressibility (1/GPa) = 0.01947315
#
# Stress axis : x y z
#
# Youngs Moduli (GPa) = 108.85776 99.27077 109.92863
#
# Poissons Ratio (x) = 0.17240 0.24853
# Poissons Ratio (y) = 0.18905 0.04883
# Poissons Ratio (z) = 0.24611 0.04409
#
# Static dielectric constant tensor:
#      x y z
#    x 4.032560 0.000000 -0.334090 
#    y 0.000000 0.218050 0.000000 
#    z -0.334090 0.000000 2.144120 
# 
# From -- ./inp_files/26380.got.cif
#   From: 2010.05.17/outbox.cif.g08.bks.cpg/sg14_14_cif.got.tgz:26380.got - 2010.06.03 17:49:19.
