data_PCOD9250174
_publ_section_title
;
Structure prediction by ZEFSAII (Michael W. Deem and Ramdas Pophale) SiO2 
 PCOD9250174
Probable space group: P 21/C
;
_chemical_formula_sum "Si O2"
_cell_formula_units_Z 16
_cell_length_a 8.293522
_cell_length_b 13.812342
_cell_length_c 9.620611
_cell_angle_alpha 90.000000
_cell_angle_beta 33.675055
_cell_angle_gamma 90.000000
_cell_volume 611.077876
_symmetry_space_group_name_H-M "P 21/C"
_symmetry_group_IT_number 14
_symmetry_cell_setting 'monoclinic'
loop_
_space_group_symop_operation_xyz
x,y,z
-x,1/2+y,1/2-z
-x,-y,-z
x,1/2-y,1/2+z
loop_
_atom_site_type_symbol
_atom_site_label
_atom_site_fract_x
_atom_site_fract_y
_atom_site_fract_z
Si Si1 0.233124 0.277203 0.908727
Si Si2 0.239613 0.629592 0.595480
Si Si3 0.830967 0.093346 0.562463
Si Si4 0.247808 0.446181 0.408713
O O1 0.567815 0.303997 0.642952
O O2 0.158884 0.165596 0.978746
O O3 0.089283 0.334898 0.141010
O O4 0.074729 0.324325 0.886253
O O5 0.354503 0.633213 0.671851
O O6 0.259019 0.519822 0.530364
O O7 0.592982 0.064077 0.619556
O O8 0.000000 0.000000 0.500000
O O9 0.000000 0.500000 0.500000
#
# Coordination Sequence:
#
# PCOD9250174 Si02
#       4
#     4   4   4   4
#     4  10  26  44  77 103 149 192 243 291 373 424
#     4  10  24  48  74 103 144 203 232 292 373 436
#     4  10  23  47  77  96 150 197 244 284 379 429
#     4  12  26  45  76 114 147 184 257 306 357 437
#
# _framework density 26.183240000000001
#
# number of rings (size 3 to 8) (size 9 to 14) (size 15 to 20)
#    1.500    0.000    2.500    0.750    3.500    6.000 
#    0.000    6.250    0.000    0.000    0.000    0.000 
#    0.000    0.000    0.000    0.000    0.000    0.000 
#
# Total GULP energy -89152.051975 kJ/mol
# GULP energy per Si atom -5572.003248 kJ/mol
# Density = 2.612365 g / cm^3
# Si number density = 26.183240 Si / 1000 Ang^3
#
#
#
# Elastic Constant Matrix: (Units=GPa)
#
#
# Indices 1 2 3 4 5 6 
#
# 1 50.0238 -6.9983 6.7714 0.0000 -23.2304 0.0000
# 2 -6.9983 175.9849 29.2180 0.0000 9.6462 0.0000
# 3 6.7714 29.2180 141.9895 0.0000 6.7524 0.0000
# 4 0.0000 0.0000 0.0000 41.0681 0.0000 -8.8893
# 5 -23.2304 9.6462 6.7524 0.0000 44.9831 0.0000
# 6 0.0000 0.0000 0.0000 -8.8893 0.0000 38.1362
#
#
#
# Elastic Compliance Matrix: (Units=1/GPa)
#
#
# Indices 1 2 3 4 5 6 
#
# 1 0.026893 0.000645 -0.002084 0.000000 0.014063 0.000000
# 2 0.000645 0.005952 -0.001219 0.000000 -0.000760 0.000000
# 3 -0.002084 -0.001219 0.007485 0.000000 -0.001938 0.000000
# 4 0.000000 0.000000 0.000000 0.025644 0.000000 0.005977
# 5 0.014063 -0.000760 -0.001938 0.000000 0.029947 0.000000
# 6 0.000000 0.000000 0.000000 0.005977 0.000000 0.027615
#
#
# Mechanical properties :
#
#
# Convention : Reuss Voigt Hill
#
# Bulk Modulus (GPa) = 28.56052 47.33113 37.94582
# Shear Modulus (GPa) = 35.58084 47.43797 41.50941
#
# Velocity S-wave (km/s) = 3.69035 4.26111 3.98596
# Velocity P-wave (km/s) = 5.39350 6.50580 5.97559
#
# Compressibility (1/GPa) = 0.03501337
#
# Stress axis : x y z
#
# Youngs Moduli (GPa) = 37.18378 168.00884 133.59607
#
# Poissons Ratio (x) = -0.10830 0.27841
# Poissons Ratio (y) = -0.02397 0.16290
# Poissons Ratio (z) = 0.07749 0.20486
#
# Static dielectric constant tensor:
#      x y z
#    x 2.296400 0.000000 -0.014870 
#    y 0.000000 2.047070 0.000000 
#    z -0.014870 0.000000 2.132870 
# 
# From -- ./inp_files/24408.got.cif
#   From: 2010.05.17/outbox.cif.g08.bks.cpg/sg14_13_cif.got.tgz:24408.got - 2010.06.03 17:49:19.
