data_PCOD9250709
_publ_section_title
;
Structure prediction by ZEFSAII (Michael W. Deem and Ramdas Pophale) SiO2 
 PCOD9250709
Probable space group: P 21/C
;
_chemical_formula_sum "Si O2"
_cell_formula_units_Z 30
_cell_length_a 5.929054
_cell_length_b 7.636733
_cell_length_c 28.763253
_cell_angle_alpha 90.000000
_cell_angle_beta 66.632121
_cell_angle_gamma 90.000000
_cell_volume 1195.536597
_symmetry_space_group_name_H-M "P 21/C"
_symmetry_group_IT_number 14
_symmetry_cell_setting 'monoclinic'
loop_
_space_group_symop_operation_xyz
x,y,z
-x,1/2+y,1/2-z
-x,-y,-z
x,1/2-y,1/2+z
loop_
_atom_site_type_symbol
_atom_site_label
_atom_site_fract_x
_atom_site_fract_y
_atom_site_fract_z
Si Si1 0.759659 0.412542 0.357363
Si Si2 0.844149 0.754806 0.307936
Si Si3 0.927861 0.564218 0.898771
Si Si4 0.905239 0.277617 0.021858
Si Si5 0.693839 0.126154 0.288861
Si Si6 0.662726 0.908647 0.055624
Si Si7 0.221579 0.215987 0.850327
Si Si8 0.500000 0.000000 0.500000
O O1 0.691031 0.577695 0.330648
O O2 0.722484 0.224976 0.336210
O O3 0.631950 0.415739 0.418689
O O4 0.051256 0.423732 0.339293
O O5 0.921530 0.827170 0.351931
O O6 0.082638 0.700306 0.259131
O O7 0.708751 0.918519 0.294453
O O8 0.648849 0.546416 0.939794
O O9 0.083925 0.659495 0.926290
O O10 0.058881 0.380772 0.878953
O O11 0.771406 0.090789 0.030784
O O12 0.756119 0.399877 0.999114
O O13 0.194258 0.241222 0.984072
O O14 0.426976 0.204766 0.299168
O O15 0.703023 0.870925 0.106821
#
# Coordination Sequence:
#
# PCOD9250709 Si02
#       8
#     4   4   4   4   4   4   4   2
#     4  11  24  47  74 108 152 203 255 319 386 460
#     4  12  25  51  78 114 154 204 258 326 398 464
#     4  12  27  42  75 112 155 202 264 314 391 459
#     4  11  25  45  71 112 149 208 256 318 385 465
#     4  11  26  47  76 108 152 197 254 321 387 468
#     4  10  24  45  72 103 156 197 255 318 380 464
#     4  11  25  45  72 111 149 199 257 318 385 459
#     4  12  26  44  72 112 152 206 254 318 380 472
#
# _framework density 25.093336999999998
#
# number of rings (size 3 to 8) (size 9 to 14) (size 15 to 20)
#    0.000    0.800    4.000    2.000    5.600    1.067 
#    0.000    3.333    0.000    0.000    0.000    0.000 
#    0.000    0.000    0.000    0.000    0.000    0.000 
#
# Total GULP energy -167384.064519 kJ/mol
# GULP energy per Si atom -5579.468817 kJ/mol
# Density = 2.503622 g / cm^3
# Si number density = 25.093337 Si / 1000 Ang^3
#
#
#
# Elastic Constant Matrix: (Units=GPa)
#
#
# Indices 1 2 3 4 5 6 
#
# 1 44.3400 15.8188 21.7707 0.0000 -21.2123 0.0000
# 2 15.8188 147.6751 38.0899 0.0000 -18.6672 0.0000
# 3 21.7707 38.0899 93.4617 0.0000 -26.3717 0.0000
# 4 0.0000 0.0000 0.0000 43.2732 0.0000 0.9232
# 5 -21.2123 -18.6672 -26.3717 0.0000 40.4682 0.0000
# 6 0.0000 0.0000 0.0000 0.9232 0.0000 23.6594
#
#
#
# Elastic Compliance Matrix: (Units=1/GPa)
#
#
# Indices 1 2 3 4 5 6 
#
# 1 0.030952 -0.000792 -0.002956 0.000000 0.013933 0.000000
# 2 -0.000792 0.007698 -0.002534 0.000000 0.001484 0.000000
# 3 -0.002956 -0.002534 0.014279 0.000000 0.006587 0.000000
# 4 0.000000 0.000000 0.000000 0.023128 0.000000 -0.000902
# 5 0.013933 0.001484 0.006587 0.000000 0.036991 0.000000
# 6 0.000000 0.000000 0.000000 -0.000902 0.000000 0.042302
#
#
# Mechanical properties :
#
#
# Convention : Reuss Voigt Hill
#
# Bulk Modulus (GPa) = 24.77323 48.53730 36.65526
# Shear Modulus (GPa) = 27.56806 35.46665 31.51735
#
# Velocity S-wave (km/s) = 3.31814 3.76359 3.54786
# Velocity P-wave (km/s) = 4.95721 6.18634 5.60557
#
# Compressibility (1/GPa) = 0.04036616
#
# Stress axis : x y z
#
# Youngs Moduli (GPa) = 32.30781 129.90983 70.03080
#
# Poissons Ratio (x) = 0.10289 0.20700
# Poissons Ratio (y) = 0.02559 0.17744
# Poissons Ratio (z) = 0.09550 0.32917
#
# Static dielectric constant tensor:
#      x y z
#    x 2.441000 0.000000 -0.080350 
#    y 0.000000 2.059170 0.000000 
#    z -0.080350 0.000000 1.941240 
# 
# From -- ./inp_files/78696.got.cif
#   From: 2010.05.17/outbox.cif.g08.bks.cpg/sg14_40_cif.got.tgz:78696.got - 2010.06.03 17:49:19.
