data_PCOD9250651
_publ_section_title
;
Structure prediction by ZEFSAII (Michael W. Deem and Ramdas Pophale) SiO2 
 PCOD9250651
Probable space group: P 21/C
;
_chemical_formula_sum "Si O2"
_cell_formula_units_Z 16
_cell_length_a 15.991120
_cell_length_b 4.881165
_cell_length_c 9.627424
_cell_angle_alpha 90.000000
_cell_angle_beta 122.924086
_cell_angle_gamma 90.000000
_cell_volume 630.778688
_symmetry_space_group_name_H-M "P 21/C"
_symmetry_group_IT_number 14
_symmetry_cell_setting 'monoclinic'
loop_
_space_group_symop_operation_xyz
x,y,z
-x,1/2+y,1/2-z
-x,-y,-z
x,1/2-y,1/2+z
loop_
_atom_site_type_symbol
_atom_site_label
_atom_site_fract_x
_atom_site_fract_y
_atom_site_fract_z
Si Si1 0.099658 0.833792 0.119806
Si Si2 0.467388 0.586988 0.313730
Si Si3 0.791921 0.680465 0.720187
Si Si4 0.721103 0.464151 0.388060
O O1 0.161377 0.028736 0.282030
O O2 0.113249 0.520386 0.173755
O O3 0.169117 0.846931 0.046302
O O4 0.000000 0.000000 0.000000
O O5 0.500000 0.500000 0.500000
O O6 0.271436 0.231921 0.202892
O O7 0.532359 0.818088 0.286283
O O8 0.364267 0.756333 0.230028
O O9 0.720149 0.542596 0.546342
#
# Coordination Sequence:
#
# PCOD9250651 Si02
#       4
#     4   4   4   4
#     4  10  24  44  77 114 161 211 269 331 415 498
#     4  12  31  56  87 121 167 219 287 359 436 510
#     4  10  25  45  77 110 164 204 268 330 416 484
#     4  10  28  48  79 115 162 211 275 344 416 500
#
# _framework density 25.365472
#
# number of rings (size 3 to 8) (size 9 to 14) (size 15 to 20)
#    1.500    0.000    0.000    1.500   10.500    4.000 
#    0.000    0.000    0.000    0.000    0.000    0.000 
#    0.000    0.000    0.000    0.000    0.000    0.000 
#
# Total GULP energy -89234.883364 kJ/mol
# GULP energy per Si atom -5577.180210 kJ/mol
# Density = 2.530774 g / cm^3
# Si number density = 25.365472 Si / 1000 Ang^3
#
#
#
# Elastic Constant Matrix: (Units=GPa)
#
#
# Indices 1 2 3 4 5 6 
#
# 1 101.1140 51.9077 89.3334 0.0000 21.4112 0.0000
# 2 51.9077 216.3495 84.3413 0.0000 -1.9605 0.0000
# 3 89.3334 84.3413 139.3489 0.0000 -10.0980 0.0000
# 4 0.0000 0.0000 0.0000 63.8550 0.0000 7.5220
# 5 21.4112 -1.9605 -10.0980 0.0000 42.0891 0.0000
# 6 0.0000 0.0000 0.0000 7.5220 0.0000 56.7996
#
#
#
# Elastic Compliance Matrix: (Units=1/GPa)
#
#
# Indices 1 2 3 4 5 6 
#
# 1 0.040170 0.001209 -0.028455 0.000000 -0.027206 0.000000
# 2 0.001209 0.006101 -0.004571 0.000000 -0.001427 0.000000
# 3 -0.028455 -0.004571 0.029735 0.000000 0.021397 0.000000
# 4 0.000000 0.000000 0.000000 0.015909 0.000000 -0.002107
# 5 -0.027206 -0.001427 0.021397 0.000000 0.042666 0.000000
# 6 0.000000 0.000000 0.000000 -0.002107 0.000000 0.017885
#
#
# Mechanical properties :
#
#
# Convention : Reuss Voigt Hill
#
# Bulk Modulus (GPa) = 80.83074 100.88636 90.85855
# Shear Modulus (GPa) = 22.70405 47.96409 35.33407
#
# Velocity S-wave (km/s) = 2.99503 4.35319 3.73634
# Velocity P-wave (km/s) = 6.62540 8.07010 7.38317
#
# Compressibility (1/GPa) = 0.01237153
#
# Stress axis : x y z
#
# Youngs Moduli (GPa) = 24.89409 163.90233 33.63005
#
# Poissons Ratio (x) = -0.19808 0.95695
# Poissons Ratio (y) = -0.03009 0.15372
# Poissons Ratio (z) = 0.70837 0.74919
#
# Static dielectric constant tensor:
#      x y z
#    x 2.109980 0.000000 0.077430 
#    y 0.000000 2.100040 0.000000 
#    z 0.077430 0.000000 2.009700 
# 
# From -- ./inp_files/27285.got.cif
#   From: 2010.05.17/outbox.cif.g08.bks.cpg/sg14_14_cif.got.tgz:27285.got - 2010.06.03 17:49:19.
