data_PCOD9250677
_publ_section_title
;
Structure prediction by ZEFSAII (Michael W. Deem and Ramdas Pophale) SiO2 
 PCOD9250677
Probable space group: P 21/C
;
_chemical_formula_sum "Si O2"
_cell_formula_units_Z 24
_cell_length_a 23.434115
_cell_length_b 11.062083
_cell_length_c 11.626746
_cell_angle_alpha 90.000000
_cell_angle_beta 23.732981
_cell_angle_gamma 90.000000
_cell_volume 1213.060153
_symmetry_space_group_name_H-M "P 21/C"
_symmetry_group_IT_number 14
_symmetry_cell_setting 'monoclinic'
loop_
_space_group_symop_operation_xyz
x,y,z
-x,1/2+y,1/2-z
-x,-y,-z
x,1/2-y,1/2+z
loop_
_atom_site_type_symbol
_atom_site_label
_atom_site_fract_x
_atom_site_fract_y
_atom_site_fract_z
Si Si1 0.651739 0.036609 0.383559
Si Si2 0.869679 0.820059 0.759405
Si Si3 0.441536 0.162471 0.594498
Si Si4 0.122106 0.036933 0.688786
Si Si5 0.972723 0.459365 0.227211
Si Si6 0.404393 0.911005 0.249138
O O1 0.561573 0.098239 0.449037
O O2 0.601510 0.066691 0.603556
O O3 0.617756 0.897527 0.414025
O O4 0.816245 0.071725 0.064251
O O5 0.865882 0.681488 0.809497
O O6 0.956111 0.855814 0.484402
O O7 0.941712 0.916027 0.714833
O O8 0.700486 0.843609 0.064697
O O9 0.520665 0.284240 0.413401
O O10 0.076633 0.018975 0.641548
O O11 0.250311 0.947953 0.485414
O O12 0.000000 0.000000 0.000000
O O13 0.500000 0.000000 0.000000
#
# Coordination Sequence:
#
# PCOD9250677 Si02
#       6
#     4   4   4   4   4   4
#     4  10  24  45  68  99 135 177 225 277 335 398
#     4  10  24  45  69  96 134 177 223 277 339 397
#     4  10  24  45  69  97 135 176 224 278 333 404
#     4  12  26  43  67 100 136 175 227 278 335 399
#     4  10  24  45  70  99 133 179 224 278 338 397
#     4  12  26  43  67 103 133 180 225 275 343 399
#
# _framework density 19.784675
#
# number of rings (size 3 to 8) (size 9 to 14) (size 15 to 20)
#    0.000    1.333    3.333    0.000    9.333    0.000 
#    0.000    0.000    0.000    0.000    0.000    0.000 
#    0.000    0.000    0.000    0.000    0.000    0.000 
#
# Total GULP energy -133659.479746 kJ/mol
# GULP energy per Si atom -5569.144989 kJ/mol
# Density = 1.973964 g / cm^3
# Si number density = 19.784675 Si / 1000 Ang^3
#
#
#
# Elastic Constant Matrix: (Units=GPa)
#
#
# Indices 1 2 3 4 5 6 
#
# 1 98.9950 21.3091 32.2254 0.0000 8.0336 0.0000
# 2 21.3091 81.8387 43.7450 0.0000 -3.7778 0.0000
# 3 32.2254 43.7450 115.8642 0.0000 4.4119 0.0000
# 4 0.0000 0.0000 0.0000 31.5561 0.0000 -3.7159
# 5 8.0336 -3.7778 4.4119 0.0000 36.9563 0.0000
# 6 0.0000 0.0000 0.0000 -3.7159 0.0000 12.2809
#
#
#
# Elastic Compliance Matrix: (Units=1/GPa)
#
#
# Indices 1 2 3 4 5 6 
#
# 1 0.011471 -0.001805 -0.002418 0.000000 -0.002389 0.000000
# 2 -0.001805 0.015784 -0.005559 0.000000 0.002669 0.000000
# 3 -0.002418 -0.005559 0.011456 0.000000 -0.001410 0.000000
# 4 0.000000 0.000000 0.000000 0.032860 0.000000 0.009943
# 5 -0.002389 0.002669 -0.001410 0.000000 0.028020 0.000000
# 6 0.000000 0.000000 0.000000 0.009943 0.000000 0.084436
#
#
# Mechanical properties :
#
#
# Convention : Reuss Voigt Hill
#
# Bulk Modulus (GPa) = 52.22673 54.58408 53.40540
# Shear Modulus (GPa) = 23.81273 29.45324 26.63299
#
# Velocity S-wave (km/s) = 3.47305 3.86254 3.67296
# Velocity P-wave (km/s) = 6.52209 6.89502 6.71114
#
# Compressibility (1/GPa) = 0.01914728
#
# Stress axis : x y z
#
# Youngs Moduli (GPa) = 87.17619 63.35673 87.29167
#
# Poissons Ratio (x) = 0.11433 0.21108
# Poissons Ratio (y) = 0.15731 0.48525
# Poissons Ratio (z) = 0.21080 0.35220
#
# Static dielectric constant tensor:
#      x y z
#    x 1.668490 0.000000 0.012370 
#    y 0.000000 1.740380 0.000000 
#    z 0.012370 0.000000 1.675600 
# 
# From -- ./inp_files/24105.got.cif
#   From: 2010.05.17/outbox.cif.g08.bks.cpg/sg14_13_cif.got.tgz:24105.got - 2010.06.03 17:49:19.
