data_PCOD9250244
_publ_section_title
;
Structure prediction by ZEFSAII (Michael W. Deem and Ramdas Pophale) SiO2 
 PCOD9250244
Probable space group: P 21/C
;
_chemical_formula_sum "Si O2"
_cell_formula_units_Z 22
_cell_length_a 12.502979
_cell_length_b 5.031686
_cell_length_c 15.752370
_cell_angle_alpha 90.000000
_cell_angle_beta 102.028304
_cell_angle_gamma 90.000000
_cell_volume 969.240770
_symmetry_space_group_name_H-M "P 21/C"
_symmetry_group_IT_number 14
_symmetry_cell_setting 'monoclinic'
loop_
_space_group_symop_operation_xyz
x,y,z
-x,1/2+y,1/2-z
-x,-y,-z
x,1/2-y,1/2+z
loop_
_atom_site_type_symbol
_atom_site_label
_atom_site_fract_x
_atom_site_fract_y
_atom_site_fract_z
Si Si1 0.823289 0.780505 0.227852
Si Si2 0.000000 0.500000 0.000000
Si Si3 0.999762 0.509278 0.367361
Si Si4 0.625811 0.230452 0.963126
Si Si5 0.823667 0.117727 0.393779
Si Si6 0.379420 0.235967 0.416157
O O1 0.901180 0.561684 0.284493
O O2 0.709340 0.688320 0.171019
O O3 0.803356 0.988708 0.300520
O O4 0.896341 0.910785 0.166564
O O5 0.976199 0.275923 0.078113
O O6 0.134793 0.411206 0.028940
O O7 0.945972 0.265859 0.414380
O O8 0.721580 0.223211 0.909891
O O9 0.503783 0.224003 0.904126
O O10 0.626698 0.499524 0.017408
O O11 0.643484 0.999570 0.033769
#
# Coordination Sequence:
#
# PCOD9250244 Si02
#       6
#     4   2   4   4   4   4
#     4  11  24  41  65  95 138 176 219 280 350 400
#     4  10  24  38  64  94 128 176 220 274 330 404
#     4  11  23  41  61  98 135 176 223 273 344 405
#     4  10  24  46  69  98 132 172 240 270 338 402
#     4  11  24  40  63  99 130 178 221 282 328 415
#     4  10  24  46  71  95 130 183 218 290 333 400
#
# _framework density 22.698180000000001
#
# number of rings (size 3 to 8) (size 9 to 14) (size 15 to 20)
#    0.000    1.455    1.818    1.636   10.182    0.000 
#    3.273    0.000    0.000    0.000    0.000    0.000 
#    0.000    0.000    0.000    0.000    0.000    0.000 
#
# Total GULP energy -122690.920844 kJ/mol
# GULP energy per Si atom -5576.860038 kJ/mol
# Density = 2.264652 g / cm^3
# Si number density = 22.698180 Si / 1000 Ang^3
#
#
#
# Elastic Constant Matrix: (Units=GPa)
#
#
# Indices 1 2 3 4 5 6 
#
# 1 144.8526 10.9550 66.8168 0.0000 -0.1765 0.0000
# 2 10.9550 125.4028 32.9698 0.0000 -2.5279 0.0000
# 3 66.8168 32.9698 117.5494 0.0000 33.9039 0.0000
# 4 0.0000 0.0000 0.0000 35.1064 0.0000 1.5350
# 5 -0.1765 -2.5279 33.9039 0.0000 38.0350 0.0000
# 6 0.0000 0.0000 0.0000 1.5350 0.0000 28.2683
#
#
#
# Elastic Compliance Matrix: (Units=1/GPa)
#
#
# Indices 1 2 3 4 5 6 
#
# 1 0.010970 0.001588 -0.009053 0.000000 0.008226 0.000000
# 2 0.001588 0.009237 -0.004943 0.000000 0.005028 0.000000
# 3 -0.009053 -0.004943 0.020388 0.000000 -0.018544 0.000000
# 4 0.000000 0.000000 0.000000 0.028553 0.000000 -0.001550
# 5 0.008226 0.005028 -0.018544 0.000000 0.043194 0.000000
# 6 0.000000 0.000000 0.000000 -0.001550 0.000000 0.035460
#
#
# Mechanical properties :
#
#
# Convention : Reuss Voigt Hill
#
# Bulk Modulus (GPa) = 63.38420 67.69865 65.54142
# Shear Modulus (GPa) = 28.10933 38.75282 33.43108
#
# Velocity S-wave (km/s) = 3.52290 4.13644 3.84194
# Velocity P-wave (km/s) = 6.67332 7.25974 6.97270
#
# Compressibility (1/GPa) = 0.01577680
#
# Stress axis : x y z
#
# Youngs Moduli (GPa) = 91.16128 108.26525 49.04811
#
# Poissons Ratio (x) = -0.17190 0.44405
# Poissons Ratio (y) = -0.14474 0.24246
# Poissons Ratio (z) = 0.82531 0.53518
#
# Static dielectric constant tensor:
#      x y z
#    x 1.894900 0.000000 0.002450 
#    y 0.000000 2.002910 0.000000 
#    z 0.002450 0.000000 1.910890 
# 
# From -- ./inp_files/42513.got.cif
#   From: 2010.05.17/outbox.cif.g08.bks.cpg/sg14_22_cif.got.tgz:42513.got - 2010.06.03 17:49:19.
