data_PCOD9250644
_publ_section_title
;
Structure prediction by ZEFSAII (Michael W. Deem and Ramdas Pophale) SiO2 
 PCOD9250644
Probable space group: P 21/C
;
_chemical_formula_sum "Si O2"
_cell_formula_units_Z 14
_cell_length_a 10.496159
_cell_length_b 6.472180
_cell_length_c 13.267629
_cell_angle_alpha 90.000000
_cell_angle_beta 147.346060
_cell_angle_gamma 90.000000
_cell_volume 486.314251
_symmetry_space_group_name_H-M "P 21/C"
_symmetry_group_IT_number 14
_symmetry_cell_setting 'monoclinic'
loop_
_space_group_symop_operation_xyz
x,y,z
-x,1/2+y,1/2-z
-x,-y,-z
x,1/2-y,1/2+z
loop_
_atom_site_type_symbol
_atom_site_label
_atom_site_fract_x
_atom_site_fract_y
_atom_site_fract_z
Si Si1 0.749815 0.424893 0.973116
Si Si2 0.297173 0.624619 0.746305
Si Si3 0.111109 0.386238 0.390709
Si Si4 0.500000 0.000000 0.000000
O O1 0.479398 0.453247 0.829093
O O2 0.758352 0.291301 0.877980
O O3 0.818535 0.668500 0.012092
O O4 0.955755 0.352816 0.186466
O O5 0.072015 0.525140 0.650445
O O6 0.416763 0.767813 0.911809
O O7 0.336978 0.504749 0.497533
#
# Coordination Sequence:
#
# PCOD9250644 Si02
#       4
#     4   4   4   2
#     4  11  26  45  78 113 152 199 260 307 395 448
#     4  11  25  48  75 112 152 204 250 324 374 462
#     4  11  23  48  75 109 153 202 248 326 365 462
#     4  10  24  44  74 106 152 196 254 300 378 452
#
# _framework density 28.787970000000001
#
# number of rings (size 3 to 8) (size 9 to 14) (size 15 to 20)
#    0.000    1.143    2.857    1.714    4.000    0.000 
#    0.000    7.143    0.000    0.000    0.000    0.000 
#    0.000    0.000    0.000    0.000    0.000    0.000 
#
# Total GULP energy -77975.427709 kJ/mol
# GULP energy per Si atom -5569.673408 kJ/mol
# Density = 2.872245 g / cm^3
# Si number density = 28.787970 Si / 1000 Ang^3
#
#
#
# Elastic Constant Matrix: (Units=GPa)
#
#
# Indices 1 2 3 4 5 6 
#
# 1 241.4482 69.4345 44.4177 0.0000 17.3953 0.0000
# 2 69.4345 148.9593 59.2917 0.0000 -3.7441 0.0000
# 3 44.4177 59.2917 85.0820 0.0000 -19.4723 0.0000
# 4 0.0000 0.0000 0.0000 48.2931 0.0000 -6.3378
# 5 17.3953 -3.7441 -19.4723 0.0000 56.7959 0.0000
# 6 0.0000 0.0000 0.0000 -6.3378 0.0000 72.3370
#
#
#
# Elastic Compliance Matrix: (Units=1/GPa)
#
#
# Indices 1 2 3 4 5 6 
#
# 1 0.005174 -0.001629 -0.002120 0.000000 -0.002419 0.000000
# 2 -0.001629 0.009965 -0.006326 0.000000 -0.001013 0.000000
# 3 -0.002120 -0.006326 0.018796 0.000000 0.006676 0.000000
# 4 0.000000 0.000000 0.000000 0.020948 0.000000 0.001835
# 5 -0.002419 -0.001013 0.006676 0.000000 0.020570 0.000000
# 6 0.000000 0.000000 0.000000 0.001835 0.000000 0.013985
#
#
# Mechanical properties :
#
#
# Convention : Reuss Voigt Hill
#
# Bulk Modulus (GPa) = 72.53380 91.30857 81.92118
# Shear Modulus (GPa) = 43.78939 55.64158 49.71548
#
# Velocity S-wave (km/s) = 3.90436 4.40114 4.16017
# Velocity P-wave (km/s) = 6.75100 7.59033 7.18293
#
# Compressibility (1/GPa) = 0.01378668
#
# Stress axis : x y z
#
# Youngs Moduli (GPa) = 193.26081 100.35099 53.20202
#
# Poissons Ratio (x) = 0.16347 0.11277
# Poissons Ratio (y) = 0.31482 0.33654
# Poissons Ratio (z) = 0.40966 0.63480
#
# Static dielectric constant tensor:
#      x y z
#    x 2.267060 0.000000 0.025940 
#    y 0.000000 3.676880 0.000000 
#    z 0.025940 0.000000 2.438310 
# 
# From -- ./inp_files/22899.got.cif
#   From: 2010.05.17/outbox.cif.g08.bks.cpg/sg14_12_cif.got.tgz:22899.got - 2010.06.03 17:49:19.
