data_PCOD9250687
_publ_section_title
;
Structure prediction by ZEFSAII (Michael W. Deem and Ramdas Pophale) SiO2 
 PCOD9250687
Probable space group: P 21/C
;
_chemical_formula_sum "Si O2"
_cell_formula_units_Z 30
_cell_length_a 13.406024
_cell_length_b 8.690139
_cell_length_c 19.902621
_cell_angle_alpha 90.000000
_cell_angle_beta 32.223655
_cell_angle_gamma 90.000000
_cell_volume 1236.368610
_symmetry_space_group_name_H-M "P 21/C"
_symmetry_group_IT_number 14
_symmetry_cell_setting 'monoclinic'
loop_
_space_group_symop_operation_xyz
x,y,z
-x,1/2+y,1/2-z
-x,-y,-z
x,1/2-y,1/2+z
loop_
_atom_site_type_symbol
_atom_site_label
_atom_site_fract_x
_atom_site_fract_y
_atom_site_fract_z
Si Si1 0.532010 0.301257 0.604937
Si Si2 0.187945 0.383831 0.069368
Si Si3 0.237112 0.792432 0.360093
Si Si4 0.432862 0.098069 0.299341
Si Si5 0.804834 0.261597 0.271333
Si Si6 0.500000 0.500000 0.500000
Si Si7 0.297146 0.408789 0.154672
Si Si8 0.944197 0.212725 0.404198
O O1 0.415151 0.308816 0.740156
O O2 0.482576 0.445665 0.587629
O O3 0.471370 0.151272 0.598216
O O4 0.750518 0.299450 0.497490
O O5 0.308702 0.375910 0.068407
O O6 0.085350 0.548127 0.114963
O O7 0.017144 0.267559 0.176493
O O8 0.307983 0.354196 0.934153
O O9 0.353792 0.633244 0.300355
O O10 0.187312 0.812144 0.311195
O O11 0.064005 0.801491 0.510143
O O12 0.373519 0.926820 0.310960
O O13 0.669314 0.370970 0.391210
O O14 0.739921 0.086344 0.312915
O O15 0.123498 0.304422 0.278147
#
# Coordination Sequence:
#
# PCOD9250687 Si02
#       8
#     4   4   4   4   4   2   4   4
#     4  11  25  46  75 106 145 195 247 312 387 441
#     4  11  25  46  70 102 147 198 250 309 373 451
#     4  10  24  45  72 109 139 197 248 309 383 450
#     4  10  24  45  70 104 146 190 249 311 372 456
#     4  12  28  45  75 108 147 195 252 301 388 448
#     4  12  24  44  72 102 136 184 244 292 360 450
#     4  12  27  45  72 110 150 194 250 317 376 448
#     4  10  25  47  72 102 150 191 249 317 367 453
#
# _framework density 24.264607999999999
#
# number of rings (size 3 to 8) (size 9 to 14) (size 15 to 20)
#    0.000    1.067    1.333    3.200    9.333    5.867 
#    0.000    0.000    0.000    0.000    0.000    0.000 
#    0.000    0.000    0.000    0.000    0.000    0.000 
#
# Total GULP energy -167516.365649 kJ/mol
# GULP energy per Si atom -5583.878855 kJ/mol
# Density = 2.420938 g / cm^3
# Si number density = 24.264608 Si / 1000 Ang^3
#
#
#
# Elastic Constant Matrix: (Units=GPa)
#
#
# Indices 1 2 3 4 5 6 
#
# 1 88.4830 18.4041 53.9954 0.0000 44.0751 0.0000
# 2 18.4041 -11.9353 18.3853 0.0000 -0.0991 0.0000
# 3 53.9954 18.3853 122.1704 0.0000 27.4927 0.0000
# 4 0.0000 0.0000 0.0000 38.8645 0.0000 1.9928
# 5 44.0751 -0.0991 27.4927 0.0000 45.9845 0.0000
# 6 0.0000 0.0000 0.0000 1.9928 0.0000 29.8408
#
#
#
# Elastic Compliance Matrix: (Units=1/GPa)
#
#
# Indices 1 2 3 4 5 6 
#
# 1 0.019472 0.017575 -0.008157 0.000000 -0.013749 0.000000
# 2 0.017575 -0.050130 0.004150 0.000000 -0.019435 0.000000
# 3 -0.008157 0.004150 0.010867 0.000000 0.001331 0.000000
# 4 0.000000 0.000000 0.000000 0.025819 0.000000 -0.001724
# 5 -0.013749 -0.019435 0.001331 0.000000 0.034087 0.000000
# 6 0.000000 0.000000 0.000000 -0.001724 0.000000 0.033626
#
#
# Mechanical properties :
#
#
# Convention : Reuss Voigt Hill
#
# Bulk Modulus (GPa) = 136.14948 42.25419 89.20184
# Shear Modulus (GPa) = 101.93025 30.13350 66.03187
#
# Velocity S-wave (km/s) = 6.48837 3.52784 5.22229
# Velocity P-wave (km/s) = 10.60019 5.83489 8.55599
#
# Compressibility (1/GPa) = 0.00734487
#
# Stress axis : x y z
#
# Youngs Moduli (GPa) = 51.35460 -19.94798 92.02568
#
# Poissons Ratio (x) = 0.35059 0.75066
# Poissons Ratio (y) = -0.90258 -0.38189
# Poissons Ratio (z) = 0.41890 0.08278
#
# Static dielectric constant tensor:
#      x y z
#    x 1.918480 0.000000 -0.005540 
#    y 0.000000 1.939410 0.000000 
#    z -0.005540 0.000000 1.915150 
# 
# From -- ./inp_files/68332.got.cif
#   From: 2010.05.17/outbox.cif.g08.bks.cpg/sg14_35_cif.got.tgz:68332.got - 2010.06.03 17:49:19.
