data_PCOD9250356
_publ_section_title
;
Structure prediction by ZEFSAII (Michael W. Deem and Ramdas Pophale) SiO2 
 PCOD9250356
Probable space group: P 21/C
;
_chemical_formula_sum "Si O2"
_cell_formula_units_Z 18
_cell_length_a 10.303885
_cell_length_b 4.906708
_cell_length_c 18.614440
_cell_angle_alpha 90.000000
_cell_angle_beta 135.285135
_cell_angle_gamma 90.000000
_cell_volume 662.146544
_symmetry_space_group_name_H-M "P 21/C"
_symmetry_group_IT_number 14
_symmetry_cell_setting 'monoclinic'
loop_
_space_group_symop_operation_xyz
x,y,z
-x,1/2+y,1/2-z
-x,-y,-z
x,1/2-y,1/2+z
loop_
_atom_site_type_symbol
_atom_site_label
_atom_site_fract_x
_atom_site_fract_y
_atom_site_fract_z
Si Si1 0.382853 0.484761 0.687181
Si Si2 0.500000 0.500000 0.000000
Si Si3 0.704573 0.673285 0.982302
Si Si4 0.784963 0.015924 0.139385
Si Si5 0.911102 0.278003 0.829933
O O1 0.445130 0.188020 0.738797
O O2 0.318075 0.418224 0.581027
O O3 0.220870 0.626969 0.667681
O O4 0.528849 0.485721 0.917667
O O5 0.690408 0.295118 0.081997
O O6 0.914487 0.581264 0.061423
O O7 0.660506 0.784259 0.049391
O O8 0.813321 0.022943 0.235131
O O9 0.977965 0.940495 0.177002
#
# Coordination Sequence:
#
# PCOD9250356 Si02
#       5
#     4   2   4   4   4
#     4  12  29  51  77 109 157 207 258 318 387 464
#     4  12  22  42  74 106 146 188 256 306 386 438
#     4  10  26  45  74 109 148 202 248 321 379 459
#     4  10  24  41  73 108 146 193 248 319 373 460
#     4  10  24  46  71 108 148 196 254 309 391 452
#
# _framework density 27.184315999999999
#
# number of rings (size 3 to 8) (size 9 to 14) (size 15 to 20)
#    1.333    0.000    0.000    4.000    6.222    5.333 
#    0.000    3.333    0.000    0.000    0.000    0.000 
#    0.000    0.000    0.000    0.000    0.000    0.000 
#
# Total GULP energy -100366.157970 kJ/mol
# GULP energy per Si atom -5575.897665 kJ/mol
# Density = 2.712244 g / cm^3
# Si number density = 27.184316 Si / 1000 Ang^3
#
#
#
# Elastic Constant Matrix: (Units=GPa)
#
#
# Indices 1 2 3 4 5 6 
#
# 1 195.7284 23.8622 53.8590 0.0000 -11.2209 0.0000
# 2 23.8622 118.0909 55.9477 0.0000 -10.0404 0.0000
# 3 53.8590 55.9477 88.2771 0.0000 -3.9852 0.0000
# 4 0.0000 0.0000 0.0000 52.6175 0.0000 -8.0999
# 5 -11.2209 -10.0404 -3.9852 0.0000 35.5026 0.0000
# 6 0.0000 0.0000 0.0000 -8.0999 0.0000 60.6659
#
#
#
# Elastic Compliance Matrix: (Units=1/GPa)
#
#
# Indices 1 2 3 4 5 6 
#
# 1 0.006295 0.000943 -0.004359 0.000000 0.001767 0.000000
# 2 0.000943 0.012482 -0.008356 0.000000 0.002890 0.000000
# 3 -0.004359 -0.008356 0.019211 0.000000 -0.001584 0.000000
# 4 0.000000 0.000000 0.000000 0.019404 0.000000 0.002591
# 5 0.001767 0.002890 -0.001584 0.000000 0.029365 0.000000
# 6 0.000000 0.000000 0.000000 0.002591 0.000000 0.016830
#
#
# Mechanical properties :
#
#
# Convention : Reuss Voigt Hill
#
# Bulk Modulus (GPa) = 69.22379 74.38158 71.80268
# Shear Modulus (GPa) = 37.89500 47.65237 42.77369
#
# Velocity S-wave (km/s) = 3.73768 4.19135 3.97100
# Velocity P-wave (km/s) = 6.64432 7.13054 6.89172
#
# Compressibility (1/GPa) = 0.01444590
#
# Stress axis : x y z
#
# Youngs Moduli (GPa) = 158.86178 80.11653 52.05293
#
# Poissons Ratio (x) = -0.07557 0.22687
# Poissons Ratio (y) = -0.14984 0.43493
# Poissons Ratio (z) = 0.69240 0.66942
#
# Static dielectric constant tensor:
#      x y z
#    x 2.160080 0.000000 -0.109010 
#    y 0.000000 2.157740 0.000000 
#    z -0.109010 0.000000 2.334830 
# 
# From -- ./inp_files/56479.got.cif
#   From: 2010.05.17/outbox.cif.g08.bks.cpg/sg14_29_cif.got.tgz:56479.got - 2010.06.03 17:49:19.
