data_PCOD9250241
_publ_section_title
;
Structure prediction by ZEFSAII (Michael W. Deem and Ramdas Pophale) SiO2 
 PCOD9250241
Probable space group: P 21/C
;
_chemical_formula_sum "Si O2"
_cell_formula_units_Z 30
_cell_length_a 4.978600
_cell_length_b 15.974841
_cell_length_c 16.450052
_cell_angle_alpha 90.000000
_cell_angle_beta 124.305796
_cell_angle_gamma 90.000000
_cell_volume 1080.719051
_symmetry_space_group_name_H-M "P 21/C"
_symmetry_group_IT_number 14
_symmetry_cell_setting 'monoclinic'
loop_
_space_group_symop_operation_xyz
x,y,z
-x,1/2+y,1/2-z
-x,-y,-z
x,1/2-y,1/2+z
loop_
_atom_site_type_symbol
_atom_site_label
_atom_site_fract_x
_atom_site_fract_y
_atom_site_fract_z
Si Si1 0.801415 0.054208 0.645929
Si Si2 0.623234 0.050661 0.177227
Si Si3 0.296073 0.204174 0.073033
Si Si4 0.570928 0.413324 0.849872
Si Si5 0.239010 0.228735 0.397319
Si Si6 0.636647 0.385840 0.410292
Si Si7 0.000000 0.000000 0.500000
Si Si8 0.623205 0.191366 0.738692
O O1 0.768847 0.140656 0.687870
O O2 0.457917 0.002611 0.600806
O O3 0.912383 0.058451 0.572825
O O4 0.039981 0.993374 0.739622
O O5 0.596849 0.138840 0.127364
O O6 0.472702 0.070508 0.240909
O O7 0.433941 0.982945 0.090432
O O8 0.306290 0.259004 0.156147
O O9 0.329369 0.269124 0.006055
O O10 0.975921 0.149327 0.001498
O O11 0.398670 0.339255 0.866688
O O12 0.955713 0.415464 0.929482
O O13 0.367487 0.322197 0.396113
O O14 0.858608 0.236946 0.314485
O O15 0.601169 0.374909 0.306825
#
# Coordination Sequence:
#
# PCOD9250241 Si02
#       8
#     4   4   4   4   4   4   2   4
#     4  11  22  42  70  95 137 179 227 284 338 409
#     4  11  23  44  68 102 132 186 226 281 344 404
#     4  11  26  42  70 101 137 179 227 286 342 409
#     4  11  23  42  68  96 137 179 227 280 340 406
#     4  11  25  44  65 102 138 178 224 282 340 410
#     4  11  24  45  68  99 139 178 233 283 337 416
#     4  10  24  38  64 102 126 174 228 278 334 408
#     4  11  23  45  67 100 136 181 226 281 344 402
#
# _framework density 27.759295999999999
#
# number of rings (size 3 to 8) (size 9 to 14) (size 15 to 20)
#    0.000    1.067    2.667    3.200    0.000    8.000 
#    0.000    0.000    0.000    0.000    0.000    0.000 
#    0.000    0.000    0.000    0.000    0.000    0.000 
#
# Total GULP energy -167790.217403 kJ/mol
# GULP energy per Si atom -5593.007247 kJ/mol
# Density = 2.769611 g / cm^3
# Si number density = 27.759296 Si / 1000 Ang^3
#
#
#
# Elastic Constant Matrix: (Units=GPa)
#
#
# Indices 1 2 3 4 5 6 
#
# 1 71.4592 5.5074 31.0961 0.0000 1.2789 0.0000
# 2 5.5074 108.7802 42.2804 0.0000 10.4789 0.0000
# 3 31.0961 42.2804 150.1995 0.0000 10.6926 0.0000
# 4 0.0000 0.0000 0.0000 50.8161 0.0000 4.8539
# 5 1.2789 10.4789 10.6926 0.0000 31.6406 0.0000
# 6 0.0000 0.0000 0.0000 4.8539 0.0000 42.6439
#
#
#
# Elastic Compliance Matrix: (Units=1/GPa)
#
#
# Indices 1 2 3 4 5 6 
#
# 1 0.015409 0.000489 -0.003353 0.000000 0.000348 0.000000
# 2 0.000489 0.010534 -0.002886 0.000000 -0.002533 0.000000
# 3 -0.003353 -0.002886 0.008286 0.000000 -0.001709 0.000000
# 4 0.000000 0.000000 0.000000 0.019895 0.000000 -0.002265
# 5 0.000348 -0.002533 -0.001709 0.000000 0.033007 0.000000
# 6 0.000000 0.000000 0.000000 -0.002265 0.000000 0.023708
#
#
# Mechanical properties :
#
#
# Convention : Reuss Voigt Hill
#
# Bulk Modulus (GPa) = 43.99486 54.24522 49.12004
# Shear Modulus (GPa) = 38.48676 41.79044 40.13860
#
# Velocity S-wave (km/s) = 3.72754 3.88423 3.80669
# Velocity P-wave (km/s) = 5.86593 6.30080 6.08725
#
# Compressibility (1/GPa) = 0.02272993
#
# Stress axis : x y z
#
# Youngs Moduli (GPa) = 64.89712 94.93158 120.68490
#
# Poissons Ratio (x) = -0.04646 0.40462
# Poissons Ratio (y) = -0.03176 0.34833
# Poissons Ratio (z) = 0.21758 0.27400
#
# Static dielectric constant tensor:
#      x y z
#    x 2.361030 0.000000 0.153400 
#    y 0.000000 2.193910 0.000000 
#    z 0.153400 0.000000 2.242900 
# 
# From -- ./inp_files/37931.got.cif
#   From: 2010.05.17/outbox.cif.g08.bks.cpg/sg14_19_cif.got.tgz:37931.got - 2010.06.03 17:49:19.
