data_PCOD9250961
_publ_section_title
;
Structure prediction by ZEFSAII (Michael W. Deem and Ramdas Pophale) SiO2 
 PCOD9250961
Probable space group: P 21/C
;
_chemical_formula_sum "Si O2"
_cell_formula_units_Z 24
_cell_length_a 11.715573
_cell_length_b 11.704104
_cell_length_c 15.656397
_cell_angle_alpha 90.000000
_cell_angle_beta 146.217901
_cell_angle_gamma 90.000000
_cell_volume 1193.703351
_symmetry_space_group_name_H-M "P 21/C"
_symmetry_group_IT_number 14
_symmetry_cell_setting 'monoclinic'
loop_
_space_group_symop_operation_xyz
x,y,z
-x,1/2+y,1/2-z
-x,-y,-z
x,1/2-y,1/2+z
loop_
_atom_site_type_symbol
_atom_site_label
_atom_site_fract_x
_atom_site_fract_y
_atom_site_fract_z
Si Si1 0.817975 0.066043 0.337688
Si Si2 0.154662 0.788955 0.809224
Si Si3 0.423434 0.342475 0.337652
Si Si4 0.317975 0.566043 0.837688
Si Si5 0.345338 0.788955 0.190776
Si Si6 0.076566 0.157524 0.162347
O O1 0.901022 0.145051 0.312274
O O2 0.685214 0.153780 0.312499
O O3 0.671001 0.967296 0.212150
O O4 0.000000 0.000000 0.500000
O O5 0.185214 0.653780 0.812500
O O6 0.001186 0.819386 0.789690
O O7 0.380624 0.828102 0.979904
O O8 0.501187 0.319386 0.289690
O O9 0.250002 0.249999 0.250001
O O10 0.401021 0.645052 0.812275
O O11 0.170999 0.467298 0.712148
O O12 0.500000 0.500000 0.000000
O O13 0.119375 0.828102 0.020096
#
# Coordination Sequence:
#
# PCOD9250961 Si02
#       6
#     4   4   4   4   4   4
#     4  11  23  44  67  93 131 170 218 269 324 385
#     4  10  25  43  63  98 128 170 221 263 326 389
#     4  11  23  42  67  93 131 171 213 270 326 379
#     4  11  23  44  67  93 131 170 218 269 324 385
#     4  10  25  43  63  98 128 170 221 263 326 389
#     4  11  23  42  67  93 131 171 213 270 326 379
#
# _framework density 20.105498000000001
#
# number of rings (size 3 to 8) (size 9 to 14) (size 15 to 20)
#    0.000    1.333    3.333    1.000    4.667    1.333 
#    0.000    0.000    0.000    0.000    0.000    0.000 
#    0.000    0.000    0.000    0.000    0.000    0.000 
#
# Total GULP energy -134155.375964 kJ/mol
# GULP energy per Si atom -5589.807332 kJ/mol
# Density = 2.005974 g / cm^3
# Si number density = 20.105498 Si / 1000 Ang^3
#
#
#
# Elastic Constant Matrix: (Units=GPa)
#
#
# Indices 1 2 3 4 5 6 
#
# 1 62.2450 11.4028 22.2071 0.0000 -0.1560 0.0000
# 2 11.4028 142.9769 24.9898 0.0000 3.1300 0.0000
# 3 22.2071 24.9898 58.6434 0.0000 4.6385 0.0000
# 4 0.0000 0.0000 0.0000 31.4231 0.0000 -16.5038
# 5 -0.1560 3.1300 4.6385 0.0000 28.2450 0.0000
# 6 0.0000 0.0000 0.0000 -16.5038 0.0000 23.2518
#
#
#
# Elastic Compliance Matrix: (Units=1/GPa)
#
#
# Indices 1 2 3 4 5 6 
#
# 1 0.018631 -0.000284 -0.007036 0.000000 0.001290 0.000000
# 2 -0.000284 0.007564 -0.003089 0.000000 -0.000332 0.000000
# 3 -0.007036 -0.003089 0.021286 0.000000 -0.003192 0.000000
# 4 0.000000 0.000000 0.000000 0.050738 0.000000 0.036013
# 5 0.001290 -0.000332 -0.003192 0.000000 0.035973 0.000000
# 6 0.000000 0.000000 0.000000 0.036013 0.000000 0.068569
#
#
# Mechanical properties :
#
#
# Convention : Reuss Voigt Hill
#
# Bulk Modulus (GPa) = 37.50760 42.34052 39.92406
# Shear Modulus (GPa) = 21.50836 30.26834 25.88835
#
# Velocity S-wave (km/s) = 3.27429 3.88426 3.59224
# Velocity P-wave (km/s) = 5.74374 6.42040 6.09147
#
# Compressibility (1/GPa) = 0.02666126
#
# Stress axis : x y z
#
# Youngs Moduli (GPa) = 53.67358 132.20432 46.98009
#
# Poissons Ratio (x) = 0.03759 0.33056
# Poissons Ratio (y) = 0.01526 0.14514
# Poissons Ratio (z) = 0.37765 0.40842
#
# Static dielectric constant tensor:
#      x y z
#    x 1.713500 0.000000 -0.028600 
#    y 0.000000 1.695130 0.000000 
#    z -0.028600 0.000000 1.703800 
# 
# From -- ./inp_files/44271.got.cif
#   From: 2010.05.17/outbox.cif.g08.bks.cpg/sg14_23_cif.got.tgz:44271.got - 2010.06.03 17:49:19.
