data_PCOD9250475
_publ_section_title
;
Structure prediction by ZEFSAII (Michael W. Deem and Ramdas Pophale) SiO2 
 PCOD9250475
Probable space group: P 21/C
;
_chemical_formula_sum "Si O2"
_cell_formula_units_Z 32
_cell_length_a 16.445254
_cell_length_b 11.963727
_cell_length_c 11.431442
_cell_angle_alpha 90.000000
_cell_angle_beta 43.932248
_cell_angle_gamma 90.000000
_cell_volume 1560.439527
_symmetry_space_group_name_H-M "P 21/C"
_symmetry_group_IT_number 14
_symmetry_cell_setting 'monoclinic'
loop_
_space_group_symop_operation_xyz
x,y,z
-x,1/2+y,1/2-z
-x,-y,-z
x,1/2-y,1/2+z
loop_
_atom_site_type_symbol
_atom_site_label
_atom_site_fract_x
_atom_site_fract_y
_atom_site_fract_z
Si Si1 0.580723 0.900381 0.376601
Si Si2 0.057921 0.450053 0.622862
Si Si3 0.920364 0.424335 0.997184
Si Si4 0.705726 0.650370 0.523392
Si Si5 0.989973 0.163960 0.952308
Si Si6 0.338884 0.973605 0.292051
Si Si7 0.539714 0.655196 0.483675
Si Si8 0.246929 0.389742 0.089838
O O1 0.619249 0.908150 0.203437
O O2 0.524934 0.779294 0.452317
O O3 0.692525 0.896772 0.346631
O O4 0.500000 0.000000 0.500000
O O5 0.168354 0.399093 0.576462
O O6 0.012120 0.372217 0.563934
O O7 0.959960 0.456395 0.824735
O O8 0.088539 0.569034 0.530243
O O9 0.947000 0.291635 0.987207
O O10 0.782828 0.453822 0.152207
O O11 0.000000 0.500000 0.000000
O O12 0.653324 0.640502 0.449072
O O13 0.711954 0.784181 0.531234
O O14 0.113192 0.141199 0.758286
O O15 0.424730 0.870387 0.179643
O O16 0.292641 0.004551 0.468797
O O17 0.426740 0.070809 0.154775
#
# Coordination Sequence:
#
# PCOD9250475 Si02
#       8
#     4   4   4   4   4   4   4   4
#     4  11  23  39  66  96 127 173 228 277 328 403
#     4  11  24  43  68  99 137 174 221 283 336 405
#     4  12  27  41  72 102 131 179 227 274 338 411
#     4  11  21  39  68  94 125 170 224 265 330 407
#     4  11  25  43  66 103 136 178 223 278 347 403
#     4  11  23  45  65  92 135 168 220 278 327 400
#     4  10  24  43  65  96 127 174 217 274 340 387
#     4  11  21  39  70  92 128 179 217 272 334 402
#
# _framework density 20.507044
#
# number of rings (size 3 to 8) (size 9 to 14) (size 15 to 20)
#    0.000    1.000    5.000    1.500    5.250    1.000 
#    0.000    0.000    0.000    0.000    0.000    0.000 
#    0.000    0.000    0.000    0.000    0.000    0.000 
#
# Total GULP energy -178441.962537 kJ/mol
# GULP energy per Si atom -5576.311329 kJ/mol
# Density = 2.046037 g / cm^3
# Si number density = 20.507044 Si / 1000 Ang^3
#
#
#
# Elastic Constant Matrix: (Units=GPa)
#
#
# Indices 1 2 3 4 5 6 
#
# 1 32.1477 2.4241 -6.5990 0.0000 -7.6118 0.0000
# 2 2.4241 87.3328 7.0433 0.0000 -0.9594 0.0000
# 3 -6.5990 7.0433 76.9157 0.0000 5.3507 0.0000
# 4 0.0000 0.0000 0.0000 22.8746 0.0000 3.8239
# 5 -7.6118 -0.9594 5.3507 0.0000 29.6485 0.0000
# 6 0.0000 0.0000 0.0000 3.8239 0.0000 19.7698
#
#
#
# Elastic Compliance Matrix: (Units=1/GPa)
#
#
# Indices 1 2 3 4 5 6 
#
# 1 0.033612 -0.001038 0.002411 0.000000 0.008161 0.000000
# 2 -0.001038 0.011577 -0.001171 0.000000 0.000320 0.000000
# 3 0.002411 -0.001171 0.013444 0.000000 -0.001845 0.000000
# 4 0.000000 0.000000 0.000000 0.045177 0.000000 -0.008738
# 5 0.008161 0.000320 -0.001845 0.000000 0.036167 0.000000
# 6 0.000000 0.000000 0.000000 -0.008738 0.000000 0.052272
#
#
# Mechanical properties :
#
#
# Convention : Reuss Voigt Hill
#
# Bulk Modulus (GPa) = 16.93865 22.45921 19.69893
# Shear Modulus (GPa) = 23.63790 27.36042 25.49916
#
# Velocity S-wave (km/s) = 3.39879 3.65663 3.53006
# Velocity P-wave (km/s) = 4.86623 5.36690 5.12269
#
# Compressibility (1/GPa) = 0.05903660
#
# Stress axis : x y z
#
# Youngs Moduli (GPa) = 29.75142 86.37635 74.38407
#
# Poissons Ratio (x) = 0.08964 -0.17935
# Poissons Ratio (y) = 0.03088 0.08713
# Poissons Ratio (z) = -0.07173 0.10118
#
# Static dielectric constant tensor:
#      x y z
#    x 1.754190 0.000000 -0.022030 
#    y 0.000000 1.762060 0.000000 
#    z -0.022030 0.000000 1.768960 
# 
# From -- ./inp_files/29077.got.cif
#   From: 2010.05.17/outbox.cif.g08.bks.cpg/sg14_15_cif.got.tgz:29077.got - 2010.06.03 17:49:19.
