data_PCOD9250600
_publ_section_title
;
Structure prediction by ZEFSAII (Michael W. Deem and Ramdas Pophale) SiO2 
 PCOD9250600
Probable space group: P 21/C
;
_chemical_formula_sum "Si O2"
_cell_formula_units_Z 32
_cell_length_a 6.890563
_cell_length_b 29.549794
_cell_length_c 7.589531
_cell_angle_alpha 90.000000
_cell_angle_beta 81.692667
_cell_angle_gamma 90.000000
_cell_volume 1529.125426
_symmetry_space_group_name_H-M "P 21/C"
_symmetry_group_IT_number 14
_symmetry_cell_setting 'monoclinic'
loop_
_space_group_symop_operation_xyz
x,y,z
-x,1/2+y,1/2-z
-x,-y,-z
x,1/2-y,1/2+z
loop_
_atom_site_type_symbol
_atom_site_label
_atom_site_fract_x
_atom_site_fract_y
_atom_site_fract_z
Si Si1 0.042189 0.353884 0.535438
Si Si2 0.123935 0.454943 0.528614
Si Si3 0.213298 0.488054 0.895847
Si Si4 0.484707 0.754559 0.215705
Si Si5 0.801664 0.269516 0.510043
Si Si6 0.346667 0.344104 0.190346
Si Si7 0.867270 0.805613 0.609053
Si Si8 0.550448 0.943286 0.314698
O O1 0.004324 0.407662 0.528977
O O2 0.233703 0.346581 0.390482
O O3 0.073462 0.336091 0.730782
O O4 0.887414 0.319291 0.469841
O O5 0.309490 0.452379 0.372187
O O6 0.000000 0.500000 0.500000
O O7 0.808421 0.540786 0.278558
O O8 0.342647 0.531958 0.829373
O O9 0.333267 0.462781 0.032296
O O10 0.000000 0.500000 0.000000
O O11 0.426856 0.769922 0.023996
O O12 0.264785 0.735738 0.276541
O O13 0.518176 0.800561 0.316677
O O14 0.673455 0.723215 0.185515
O O15 0.971237 0.231764 0.468192
O O16 0.465953 0.389934 0.154201
O O17 0.194345 0.336059 0.050674
#
# Coordination Sequence:
#
# PCOD9250600 Si02
#       8
#     4   4   4   4   4   4   4   4
#     4  11  24  42  68  97 133 178 221 267 339 392
#     4  11  23  44  70 101 134 174 221 280 339 398
#     4  11  22  45  71  95 131 173 220 273 338 399
#     4  12  23  40  65  93 128 177 218 263 327 385
#     4  12  23  41  64  94 130 177 221 265 327 391
#     4  11  23  43  66  95 132 172 220 272 325 394
#     4  12  23  45  65  91 142 172 218 278 317 392
#     4  10  24  44  68  99 131 170 219 277 338 392
#
# _framework density 20.926994000000001
#
# number of rings (size 3 to 8) (size 9 to 14) (size 15 to 20)
#    0.000    0.750    5.000    3.375    0.000    1.000 
#    6.750    1.250    0.000    0.000    0.000    0.000 
#    0.000    0.000    0.000    0.000    0.000    0.000 
#
# Total GULP energy -178447.583528 kJ/mol
# GULP energy per Si atom -5576.486985 kJ/mol
# Density = 2.087936 g / cm^3
# Si number density = 20.926994 Si / 1000 Ang^3
#
#
#
# Elastic Constant Matrix: (Units=GPa)
#
#
# Indices 1 2 3 4 5 6 
#
# 1 62.2197 9.5660 31.1117 0.0000 16.3810 0.0000
# 2 9.5660 172.8820 -47.8403 0.0000 -75.3346 0.0000
# 3 31.1117 -47.8403 151.8743 0.0000 84.5218 0.0000
# 4 0.0000 0.0000 0.0000 21.4326 0.0000 -11.6182
# 5 16.3810 -75.3346 84.5218 0.0000 143.8755 0.0000
# 6 0.0000 0.0000 0.0000 -11.6182 0.0000 15.5441
#
#
#
# Elastic Compliance Matrix: (Units=1/GPa)
#
#
# Indices 1 2 3 4 5 6 
#
# 1 0.018812 -0.002667 -0.004048 0.000000 -0.001160 0.000000
# 2 -0.002667 0.007879 0.000837 0.000000 0.003938 0.000000
# 3 -0.004048 0.000837 0.010663 0.000000 -0.005365 0.000000
# 4 0.000000 0.000000 0.000000 0.078439 0.000000 0.058628
# 5 -0.001160 0.003938 -0.005365 0.000000 0.012296 0.000000
# 6 0.000000 0.000000 0.000000 0.058628 0.000000 0.108154
#
#
# Mechanical properties :
#
#
# Convention : Reuss Voigt Hill
#
# Bulk Modulus (GPa) = 39.06488 41.40565 40.23526
# Shear Modulus (GPa) = 19.49085 62.44635 40.96860
#
# Velocity S-wave (km/s) = 3.05515 5.46854 4.42938
# Velocity P-wave (km/s) = 5.58149 7.72670 6.73999
#
# Compressibility (1/GPa) = 0.02559844
#
# Stress axis : x y z
#
# Youngs Moduli (GPa) = 53.15882 126.91544 93.78186
#
# Poissons Ratio (x) = 0.33842 0.37963
# Poissons Ratio (y) = 0.14175 -0.07848
# Poissons Ratio (z) = 0.21519 -0.10620
#
# Static dielectric constant tensor:
#      x y z
#    x 1.692910 0.000000 -0.256450 
#    y 0.000000 0.654480 0.000000 
#    z -0.256450 0.000000 -1.373090 
# 
# From -- ./inp_files/6798.got.cif
#   From: 2010.05.17/outbox.cif.g08.bks.cpg/sg14_4_cif.got.tgz:6798.got - 2010.06.03 17:49:19.
