data_PCOD9250845
_publ_section_title
;
Structure prediction by ZEFSAII (Michael W. Deem and Ramdas Pophale) SiO2 
 PCOD9250845
Probable space group: P 21/C
;
_chemical_formula_sum "Si O2"
_cell_formula_units_Z 18
_cell_length_a 5.098200
_cell_length_b 8.371694
_cell_length_c 16.982471
_cell_angle_alpha 90.000000
_cell_angle_beta 60.442826
_cell_angle_gamma 90.000000
_cell_volume 630.496088
_symmetry_space_group_name_H-M "P 21/C"
_symmetry_group_IT_number 14
_symmetry_cell_setting 'monoclinic'
loop_
_space_group_symop_operation_xyz
x,y,z
-x,1/2+y,1/2-z
-x,-y,-z
x,1/2-y,1/2+z
loop_
_atom_site_type_symbol
_atom_site_label
_atom_site_fract_x
_atom_site_fract_y
_atom_site_fract_z
Si Si1 0.690522 0.194034 0.515281
Si Si2 0.000000 0.000000 0.000000
Si Si3 0.275712 0.261636 0.859603
Si Si4 0.840692 0.482466 0.743081
Si Si5 0.008000 0.336210 0.131720
O O1 0.733311 0.383143 0.509029
O O2 0.352721 0.140869 0.554004
O O3 0.958434 0.143966 0.416486
O O4 0.789705 0.151760 0.589796
O O5 0.247872 0.138932 0.935452
O O6 0.561546 0.375755 0.815257
O O7 0.263535 0.142332 0.787115
O O8 0.045630 0.557688 0.781824
O O9 0.989109 0.354596 0.660686
#
# Coordination Sequence:
#
# PCOD9250845 Si02
#       5
#     4   2   4   4   4
#     4  10  24  47  74 103 148 204 248 297 380 467
#     4   8  20  46  78  98 156 202 248 292 396 462
#     4  10  24  49  76 109 152 205 249 311 382 458
#     4  12  27  43  81 115 158 194 262 323 384 438
#     4  12  27  46  75 109 151 198 255 313 378 453
#
# _framework density 28.548946000000001
#
# number of rings (size 3 to 8) (size 9 to 14) (size 15 to 20)
#    1.333    0.000    2.222    1.333    3.111   10.667 
#    0.000    0.000    0.000    0.000    0.000    0.000 
#    0.000    0.000    0.000    0.000    0.000    0.000 
#
# Total GULP energy -100379.676964 kJ/mol
# GULP energy per Si atom -5576.648720 kJ/mol
# Density = 2.848397 g / cm^3
# Si number density = 28.548946 Si / 1000 Ang^3
#
#
#
# Elastic Constant Matrix: (Units=GPa)
#
#
# Indices 1 2 3 4 5 6 
#
# 1 125.7604 29.6155 53.4020 0.0000 11.7397 0.0000
# 2 29.6155 95.4590 38.3859 0.0000 21.2933 0.0000
# 3 53.4020 38.3859 114.3740 0.0000 -17.4227 0.0000
# 4 0.0000 0.0000 0.0000 53.5485 0.0000 -4.3986
# 5 11.7397 21.2933 -17.4227 0.0000 58.4031 0.0000
# 6 0.0000 0.0000 0.0000 -4.3986 0.0000 58.5636
#
#
#
# Elastic Compliance Matrix: (Units=1/GPa)
#
#
# Indices 1 2 3 4 5 6 
#
# 1 0.010674 -0.000310 -0.005436 0.000000 -0.003654 0.000000
# 2 -0.000310 0.014426 -0.005750 0.000000 -0.006912 0.000000
# 3 -0.005436 -0.005750 0.014349 0.000000 0.007470 0.000000
# 4 0.000000 0.000000 0.000000 0.018791 0.000000 0.001411
# 5 -0.003654 -0.006912 0.007470 0.000000 0.022605 0.000000
# 6 0.000000 0.000000 0.000000 0.001411 0.000000 0.017181
#
#
# Mechanical properties :
#
#
# Convention : Reuss Voigt Hill
#
# Bulk Modulus (GPa) = 60.76649 64.26668 62.51659
# Shear Modulus (GPa) = 39.52408 48.38239 43.95323
#
# Velocity S-wave (km/s) = 3.72483 4.12116 3.92800
# Velocity P-wave (km/s) = 6.31113 6.72348 6.52057
#
# Compressibility (1/GPa) = 0.01645644
#
# Stress axis : x y z
#
# Youngs Moduli (GPa) = 93.68279 69.31958 69.69099
#
# Poissons Ratio (x) = 0.02152 0.37887
# Poissons Ratio (y) = 0.02908 0.40070
# Poissons Ratio (z) = 0.50930 0.39856
#
# Static dielectric constant tensor:
#      x y z
#    x 1.042540 0.000000 1.056220 
#    y 0.000000 2.190260 0.000000 
#    z 1.056220 0.000000 1.585490 
# 
# From -- ./inp_files/62880.got.cif
#   From: 2010.05.17/outbox.cif.g08.bks.cpg/sg14_32_cif.got.tgz:62880.got - 2010.06.03 17:49:19.
