data_PCOD9250052
_publ_section_title
;
Structure prediction by ZEFSAII (Michael W. Deem and Ramdas Pophale) SiO2 
 PCOD9250052
Probable space group: P 21/C
;
_chemical_formula_sum "Si O2"
_cell_formula_units_Z 28
_cell_length_a 7.601625
_cell_length_b 15.850398
_cell_length_c 14.657973
_cell_angle_alpha 90.000000
_cell_angle_beta 126.641566
_cell_angle_gamma 90.000000
_cell_volume 1417.108760
_symmetry_space_group_name_H-M "P 21/C"
_symmetry_group_IT_number 14
_symmetry_cell_setting 'monoclinic'
loop_
_space_group_symop_operation_xyz
x,y,z
-x,1/2+y,1/2-z
-x,-y,-z
x,1/2-y,1/2+z
loop_
_atom_site_type_symbol
_atom_site_label
_atom_site_fract_x
_atom_site_fract_y
_atom_site_fract_z
Si Si1 0.350918 0.818071 0.642262
Si Si2 0.140152 0.492381 0.674695
Si Si3 0.498673 0.375069 0.284408
Si Si4 0.612334 0.584256 0.076310
Si Si5 0.158006 0.337699 0.027706
Si Si6 0.288300 0.149601 0.101092
Si Si7 0.672946 0.572372 0.573454
O O1 0.390603 0.717973 0.671682
O O2 0.448643 0.851777 0.577247
O O3 0.497421 0.857824 0.768786
O O4 0.101079 0.848546 0.564821
O O5 0.314050 0.559670 0.688837
O O6 0.230120 0.448172 0.794168
O O7 0.124040 0.420314 0.591599
O O8 0.916007 0.536388 0.634539
O O9 0.304099 0.383780 0.149643
O O10 0.385181 0.393296 0.345752
O O11 0.500000 0.500000 0.000000
O O12 0.732584 0.635453 0.033718
O O13 0.184677 0.241519 0.070294
O O14 0.353588 0.137448 0.016992
O O15 0.500000 0.500000 0.500000
#
# Coordination Sequence:
#
# PCOD9250052 Si02
#       7
#     4   4   4   4   4   4   4
#     4  10  25  43  68  95 134 170 219 275 324 388
#     4  11  24  43  66  96 138 167 216 278 317 393
#     4  11  24  44  65 102 129 174 220 265 331 390
#     4  11  24  43  66  99 128 170 218 270 330 389
#     4  11  24  43  70  92 133 173 215 272 330 388
#     4  10  23  46  62  98 133 171 219 267 326 385
#     4  12  25  38  68  96 127 174 217 257 325 388
#
# _framework density 19.758541000000001
#
# number of rings (size 3 to 8) (size 9 to 14) (size 15 to 20)
#    0.000    1.143    2.857    2.143    6.000    0.571 
#    0.000    4.286    0.000    0.000    0.000    0.000 
#    0.000    0.000    0.000    0.000    0.000    0.000 
#
# Total GULP energy -156295.702264 kJ/mol
# GULP energy per Si atom -5581.989367 kJ/mol
# Density = 1.971357 g / cm^3
# Si number density = 19.758541 Si / 1000 Ang^3
#
#
#
# Elastic Constant Matrix: (Units=GPa)
#
#
# Indices 1 2 3 4 5 6 
#
# 1 150.5897 24.3137 63.1773 0.0000 -1.7146 0.0000
# 2 24.3137 56.1614 8.1543 0.0000 1.2975 0.0000
# 3 63.1773 8.1543 97.9582 0.0000 -12.2413 0.0000
# 4 0.0000 0.0000 0.0000 29.5659 0.0000 -17.9625
# 5 -1.7146 1.2975 -12.2413 0.0000 36.5877 0.0000
# 6 0.0000 0.0000 0.0000 -17.9625 0.0000 -37.2453
#
#
#
# Elastic Compliance Matrix: (Units=1/GPa)
#
#
# Indices 1 2 3 4 5 6 
#
# 1 0.009759 -0.003289 -0.006208 0.000000 -0.001503 0.000000
# 2 -0.003289 0.019182 0.000438 0.000000 -0.000688 0.000000
# 3 -0.006208 0.000438 0.014754 0.000000 0.004630 0.000000
# 4 0.000000 0.000000 0.000000 0.026158 0.000000 -0.012616
# 5 -0.001503 -0.000688 0.004630 0.000000 0.028835 0.000000
# 6 0.000000 0.000000 0.000000 -0.012616 0.000000 -0.020765
#
#
# Mechanical properties :
#
#
# Convention : Reuss Voigt Hill
#
# Bulk Modulus (GPa) = 39.09560 55.11108 47.10334
# Shear Modulus (GPa) = 47.81671 19.71926 33.76798
#
# Velocity S-wave (km/s) = 4.92474 3.16256 4.13853
# Velocity P-wave (km/s) = 7.22268 6.42562 6.83577
#
# Compressibility (1/GPa) = 0.02557832
#
# Stress axis : x y z
#
# Youngs Moduli (GPa) = 102.47069 52.13260 67.77680
#
# Poissons Ratio (x) = 0.17145 0.42076
# Poissons Ratio (y) = 0.33700 -0.02971
# Poissons Ratio (z) = 0.63614 -0.02285
#
# Static dielectric constant tensor:
#      x y z
#    x 1.803930 0.000000 -0.029860 
#    y 0.000000 1.695560 0.000000 
#    z -0.029860 0.000000 1.730360 
# 
# From -- ./inp_files/37739.got.cif
#   From: 2010.05.17/outbox.cif.g08.bks.cpg/sg14_19_cif.got.tgz:37739.got - 2010.06.03 17:49:19.
