data_PCOD9250960
_publ_section_title
;
Structure prediction by ZEFSAII (Michael W. Deem and Ramdas Pophale) SiO2 
 PCOD9250960
Probable space group: P 21/C
;
_chemical_formula_sum "Si O2"
_cell_formula_units_Z 28
_cell_length_a 22.472958
_cell_length_b 7.867333
_cell_length_c 9.495789
_cell_angle_alpha 90.000000
_cell_angle_beta 38.552562
_cell_angle_gamma 90.000000
_cell_volume 1046.330292
_symmetry_space_group_name_H-M "P 21/C"
_symmetry_group_IT_number 14
_symmetry_cell_setting 'monoclinic'
loop_
_space_group_symop_operation_xyz
x,y,z
-x,1/2+y,1/2-z
-x,-y,-z
x,1/2-y,1/2+z
loop_
_atom_site_type_symbol
_atom_site_label
_atom_site_fract_x
_atom_site_fract_y
_atom_site_fract_z
Si Si1 0.378338 0.059380 0.091075
Si Si2 0.799562 0.104881 0.516989
Si Si3 0.710900 0.049254 0.200588
Si Si4 0.876908 0.937915 0.104553
Si Si5 0.863590 0.907883 0.759630
Si Si6 0.039659 0.710820 0.078991
Si Si7 0.573254 0.598659 0.165169
O O1 0.400308 0.227383 0.961712
O O2 0.460701 0.929442 0.892043
O O3 0.387564 0.081417 0.245748
O O4 0.272548 0.996290 0.249560
O O5 0.732259 0.264456 0.599843
O O6 0.830254 0.974039 0.344088
O O7 0.896570 0.175069 0.403477
O O8 0.790768 0.008433 0.169503
O O9 0.615129 0.030753 0.467748
O O10 0.752401 0.918082 0.007472
O O11 0.956345 0.088136 0.952124
O O12 0.892363 0.735203 0.092965
O O13 0.932649 0.861086 0.765663
O O14 0.902288 0.092032 0.639133
#
# Coordination Sequence:
#
# PCOD9250960 Si02
#       7
#     4   4   4   4   4   4   4
#     4  11  25  46  74 107 143 188 233 301 357 440
#     4  11  23  43  68  94 141 177 228 290 356 411
#     4  11  24  43  68 100 135 179 232 286 351 429
#     4  11  23  43  64  95 133 184 222 296 337 418
#     4  11  24  42  67  95 138 182 240 289 354 417
#     4  10  25  43  63 100 134 185 237 291 349 423
#     4  11  25  46  72 107 142 184 242 289 369 431
#
# _framework density 26.760193999999998
#
# number of rings (size 3 to 8) (size 9 to 14) (size 15 to 20)
#    0.000    1.143    2.857    2.143    4.000    4.000 
#    0.000    0.000    0.000    0.000    0.000    0.000 
#    0.000    0.000    0.000    0.000    0.000    0.000 
#
# Total GULP energy -156488.439673 kJ/mol
# GULP energy per Si atom -5588.872845 kJ/mol
# Density = 2.669929 g / cm^3
# Si number density = 26.760194 Si / 1000 Ang^3
#
#
#
# Elastic Constant Matrix: (Units=GPa)
#
#
# Indices 1 2 3 4 5 6 
#
# 1 33.0256 1.8092 -7.3983 0.0000 6.1202 0.0000
# 2 1.8092 139.6206 18.3410 0.0000 5.4865 0.0000
# 3 -7.3983 18.3410 121.9438 0.0000 -10.8885 0.0000
# 4 0.0000 0.0000 0.0000 50.5019 0.0000 -3.7557
# 5 6.1202 5.4865 -10.8885 0.0000 24.4914 0.0000
# 6 0.0000 0.0000 0.0000 -3.7557 0.0000 28.9686
#
#
#
# Elastic Compliance Matrix: (Units=1/GPa)
#
#
# Indices 1 2 3 4 5 6 
#
# 1 0.031951 -0.000301 0.001330 0.000000 -0.007326 0.000000
# 2 -0.000301 0.007427 -0.001330 0.000000 -0.002180 0.000000
# 3 0.001330 -0.001330 0.008829 0.000000 0.003891 0.000000
# 4 0.000000 0.000000 0.000000 0.019994 0.000000 0.002592
# 5 -0.007326 -0.002180 0.003891 0.000000 0.044879 0.000000
# 6 0.000000 0.000000 0.000000 0.002592 0.000000 0.034856
#
#
# Mechanical properties :
#
#
# Convention : Reuss Voigt Hill
#
# Bulk Modulus (GPa) = 21.00646 35.56598 28.28622
# Shear Modulus (GPa) = 30.41245 39.58160 34.99703
#
# Velocity S-wave (km/s) = 3.37483 3.85011 3.62028
# Velocity P-wave (km/s) = 4.80134 5.75186 5.29796
#
# Compressibility (1/GPa) = 0.04760439
#
# Stress axis : x y z
#
# Youngs Moduli (GPa) = 31.29747 134.65271 113.26835
#
# Poissons Ratio (x) = 0.04050 -0.15060
# Poissons Ratio (y) = 0.00941 0.15063
# Poissons Ratio (z) = -0.04161 0.17907
#
# Static dielectric constant tensor:
#      x y z
#    x 2.244220 0.000000 0.158600 
#    y 0.000000 2.119540 0.000000 
#    z 0.158600 0.000000 2.190670 
# 
# From -- ./inp_files/36373.got.cif
#   From: 2010.05.17/outbox.cif.g08.bks.cpg/sg14_19_cif.got.tgz:36373.got - 2010.06.03 17:49:19.
