data_PCOD9250142
_publ_section_title
;
Structure prediction by ZEFSAII (Michael W. Deem and Ramdas Pophale) SiO2 
 PCOD9250142
Probable space group: P 21/C
;
_chemical_formula_sum "Si O2"
_cell_formula_units_Z 28
_cell_length_a 11.541860
_cell_length_b 5.238724
_cell_length_c 20.418410
_cell_angle_alpha 90.000000
_cell_angle_beta 56.232080
_cell_angle_gamma 90.000000
_cell_volume 1026.310642
_symmetry_space_group_name_H-M "P 21/C"
_symmetry_group_IT_number 14
_symmetry_cell_setting 'monoclinic'
loop_
_space_group_symop_operation_xyz
x,y,z
-x,1/2+y,1/2-z
-x,-y,-z
x,1/2-y,1/2+z
loop_
_atom_site_type_symbol
_atom_site_label
_atom_site_fract_x
_atom_site_fract_y
_atom_site_fract_z
Si Si1 0.807074 0.693273 0.782551
Si Si2 0.395404 0.201168 0.063969
Si Si3 0.600061 0.894111 0.570267
Si Si4 0.871799 0.319895 0.018324
Si Si5 0.550628 0.092143 0.769275
Si Si6 0.160997 0.688147 0.336071
Si Si7 0.929762 0.062654 0.357910
O O1 0.706671 0.898635 0.847457
O O2 0.777150 0.539916 0.726435
O O3 0.810349 0.500206 0.843447
O O4 0.959768 0.790853 0.721327
O O5 0.487504 0.413280 0.073513
O O6 0.324273 0.279925 0.017531
O O7 0.500000 0.000000 0.000000
O O8 0.723580 0.037236 0.568355
O O9 0.523054 0.695004 0.641441
O O10 0.892982 0.274348 0.934251
O O11 0.860631 0.115857 0.080817
O O12 0.000000 0.500000 0.000000
O O13 0.503537 0.312500 0.732318
O O14 0.718574 0.100319 0.712444
O O15 0.017474 0.812651 0.354670
#
# Coordination Sequence:
#
# PCOD9250142 Si02
#       7
#     4   4   4   4   4   4   4
#     4  12  24  43  72 107 145 199 257 316 393 477
#     4  11  27  43  72 108 147 199 253 322 392 471
#     4  11  24  46  71 105 149 192 254 316 387 467
#     4  10  23  47  70 102 150 197 251 322 393 470
#     4  12  28  46  76 112 150 200 256 324 393 468
#     4  11  25  45  71 105 147 197 258 321 396 470
#     4  11  25  44  71 103 151 196 255 318 394 476
#
# _framework density 27.282191000000001
#
# number of rings (size 3 to 8) (size 9 to 14) (size 15 to 20)
#    0.000    0.857    5.714    0.000    6.000    1.714 
#    0.000    1.429    0.000    0.000    0.000    0.000 
#    0.000    0.000    0.000    0.000    0.000    0.000 
#
# Total GULP energy -156689.327192 kJ/mol
# GULP energy per Si atom -5596.047400 kJ/mol
# Density = 2.722010 g / cm^3
# Si number density = 27.282191 Si / 1000 Ang^3
#
#
#
# Elastic Constant Matrix: (Units=GPa)
#
#
# Indices 1 2 3 4 5 6 
#
# 1 105.8234 24.4385 26.1204 0.0000 0.4222 0.0000
# 2 24.4385 71.2401 34.3189 0.0000 19.8978 0.0000
# 3 26.1204 34.3189 276.2536 0.0000 32.8679 0.0000
# 4 0.0000 0.0000 0.0000 37.9281 0.0000 7.7409
# 5 0.4222 19.8978 32.8679 0.0000 41.7931 0.0000
# 6 0.0000 0.0000 0.0000 7.7409 0.0000 39.1759
#
#
#
# Elastic Compliance Matrix: (Units=1/GPa)
#
#
# Indices 1 2 3 4 5 6 
#
# 1 0.010536 -0.003894 -0.000795 0.000000 0.002373 0.000000
# 2 -0.003894 0.018002 -0.000941 0.000000 -0.007791 0.000000
# 3 -0.000795 -0.000941 0.004146 0.000000 -0.002804 0.000000
# 4 0.000000 0.000000 0.000000 0.027474 0.000000 -0.005429
# 5 0.002373 -0.007791 -0.002804 0.000000 0.029818 0.000000
# 6 0.000000 0.000000 0.000000 -0.005429 0.000000 0.026599
#
#
# Mechanical properties :
#
#
# Convention : Reuss Voigt Hill
#
# Bulk Modulus (GPa) = 46.67709 69.23033 57.95371
# Shear Modulus (GPa) = 37.04381 48.34203 42.69292
#
# Velocity S-wave (km/s) = 3.68883 4.21399 3.96013
# Velocity P-wave (km/s) = 5.94049 7.00769 6.49604
#
# Compressibility (1/GPa) = 0.02142378
#
# Stress axis : x y z
#
# Youngs Moduli (GPa) = 94.91569 55.54784 241.22211
#
# Poissons Ratio (x) = 0.21630 0.19170
# Poissons Ratio (y) = 0.36960 0.22705
# Poissons Ratio (z) = 0.07543 0.05228
#
# Static dielectric constant tensor:
#      x y z
#    x 2.353490 0.000000 0.034210 
#    y 0.000000 2.339440 0.000000 
#    z 0.034210 0.000000 2.139400 
# 
# From -- ./inp_files/66393.got.cif
#   From: 2010.05.17/outbox.cif.g08.bks.cpg/sg14_34_cif.got.tgz:66393.got - 2010.06.03 17:49:19.
