data_PCOD9250335
_publ_section_title
;
Structure prediction by ZEFSAII (Michael W. Deem and Ramdas Pophale) SiO2 
 PCOD9250335
Probable space group: P 21/C
;
_chemical_formula_sum "Si O2"
_cell_formula_units_Z 20
_cell_length_a 19.042847
_cell_length_b 8.406592
_cell_length_c 19.413824
_cell_angle_alpha 90.000000
_cell_angle_beta 14.568210
_cell_angle_gamma 90.000000
_cell_volume 781.730152
_symmetry_space_group_name_H-M "P 21/C"
_symmetry_group_IT_number 14
_symmetry_cell_setting 'monoclinic'
loop_
_space_group_symop_operation_xyz
x,y,z
-x,1/2+y,1/2-z
-x,-y,-z
x,1/2-y,1/2+z
loop_
_atom_site_type_symbol
_atom_site_label
_atom_site_fract_x
_atom_site_fract_y
_atom_site_fract_z
Si Si1 0.274864 0.295038 0.043222
Si Si2 0.841011 0.275950 0.339328
Si Si3 0.655602 0.831774 0.364836
Si Si4 0.658776 0.580960 0.635630
Si Si5 0.897943 0.348644 0.137789
O O1 0.229314 0.305198 0.167311
O O2 0.004241 0.331988 0.252397
O O3 0.514808 0.421444 0.796718
O O4 0.366565 0.124907 0.922046
O O5 0.529744 0.220315 0.649726
O O6 0.889931 0.382094 0.226683
O O7 0.022779 0.117719 0.147915
O O8 0.412125 0.702889 0.587087
O O9 0.500000 0.000000 0.500000
O O10 0.896865 0.794155 0.081019
O O11 0.000000 0.500000 0.000000
#
# Coordination Sequence:
#
# PCOD9250335 Si02
#       5
#     4   4   4   4   4
#     4  10  26  41  74  92 139 175 234 270 340 404
#     4  10  24  41  68  93 138 167 228 271 337 389
#     4  12  27  46  71 104 144 182 229 285 359 407
#     4  10  24  41  69  98 128 174 227 277 329 393
#     4  12  27  45  71 102 140 182 230 286 343 412
#
# _framework density 25.584275999999999
#
# number of rings (size 3 to 8) (size 9 to 14) (size 15 to 20)
#    1.200    0.000    0.000    4.800    8.400    1.600 
#    0.000    0.000    0.000    0.000    0.000    0.000 
#    0.000    0.000    0.000    0.000    0.000    0.000 
#
# Total GULP energy -111947.749183 kJ/mol
# GULP energy per Si atom -5597.387459 kJ/mol
# Density = 2.552605 g / cm^3
# Si number density = 25.584276 Si / 1000 Ang^3
#
#
#
# Elastic Constant Matrix: (Units=GPa)
#
#
# Indices 1 2 3 4 5 6 
#
# 1 185.8183 8.5705 48.9288 0.0000 24.5181 0.0000
# 2 8.5705 44.9123 2.3657 0.0000 6.9929 0.0000
# 3 48.9288 2.3657 106.1534 0.0000 18.2658 0.0000
# 4 0.0000 0.0000 0.0000 49.1536 0.0000 11.1020
# 5 24.5181 6.9929 18.2658 0.0000 43.6629 0.0000
# 6 0.0000 0.0000 0.0000 11.1020 0.0000 31.6849
#
#
#
# Elastic Compliance Matrix: (Units=1/GPa)
#
#
# Indices 1 2 3 4 5 6 
#
# 1 0.006397 -0.000710 -0.002515 0.000000 -0.002426 0.000000
# 2 -0.000710 0.022916 0.000409 0.000000 -0.003442 0.000000
# 3 -0.002515 0.000409 0.011141 0.000000 -0.003314 0.000000
# 4 0.000000 0.000000 0.000000 0.022093 0.000000 -0.007741
# 5 -0.002426 -0.003442 -0.003314 0.000000 0.026203 0.000000
# 6 0.000000 0.000000 0.000000 -0.007741 0.000000 0.034273
#
#
# Mechanical properties :
#
#
# Convention : Reuss Voigt Hill
#
# Bulk Modulus (GPa) = 28.71910 50.73488 39.72699
# Shear Modulus (GPa) = 35.64773 43.36820 39.50796
#
# Velocity S-wave (km/s) = 3.73680 4.12164 3.93393
# Velocity P-wave (km/s) = 5.46516 6.52105 6.01631
#
# Compressibility (1/GPa) = 0.03482003
#
# Stress axis : x y z
#
# Youngs Moduli (GPa) = 156.32933 43.63839 89.76092
#
# Poissons Ratio (x) = 0.03100 0.22576
# Poissons Ratio (y) = 0.11106 -0.03672
# Poissons Ratio (z) = 0.39319 -0.01785
#
# Static dielectric constant tensor:
#      x y z
#    x 2.332110 0.000000 0.246010 
#    y 0.000000 2.187240 0.000000 
#    z 0.246010 0.000000 2.112830 
# 
# From -- ./inp_files/60266.got.cif
#   From: 2010.05.17/outbox.cif.g08.bks.cpg/sg14_31_cif.got.tgz:60266.got - 2010.06.03 17:49:19.
