data_PCOD9250137
_publ_section_title
;
Structure prediction by ZEFSAII (Michael W. Deem and Ramdas Pophale) SiO2 
 PCOD9250137
Probable space group: P 21/C
;
_chemical_formula_sum "Si O2"
_cell_formula_units_Z 30
_cell_length_a 16.895128
_cell_length_b 6.719929
_cell_length_c 13.950264
_cell_angle_alpha 90.000000
_cell_angle_beta 122.576871
_cell_angle_gamma 90.000000
_cell_volume 1334.645837
_symmetry_space_group_name_H-M "P 21/C"
_symmetry_group_IT_number 14
_symmetry_cell_setting 'monoclinic'
loop_
_space_group_symop_operation_xyz
x,y,z
-x,1/2+y,1/2-z
-x,-y,-z
x,1/2-y,1/2+z
loop_
_atom_site_type_symbol
_atom_site_label
_atom_site_fract_x
_atom_site_fract_y
_atom_site_fract_z
Si Si1 0.849612 0.270409 0.503631
Si Si2 0.701505 0.987735 0.688285
Si Si3 0.000000 0.000000 0.500000
Si Si4 0.616979 0.903746 0.119696
Si Si5 0.417163 0.750767 0.528875
Si Si6 0.356377 0.783349 0.697691
Si Si7 0.087798 0.316228 0.411741
Si Si8 0.112107 0.527845 0.782736
O O1 0.934175 0.189335 0.493999
O O2 0.750817 0.181143 0.404439
O O3 0.844615 0.510307 0.506746
O O4 0.867173 0.191117 0.622489
O O5 0.644048 0.077230 0.560297
O O6 0.649927 0.079828 0.746200
O O7 0.698902 0.751974 0.686481
O O8 0.808863 0.053643 0.746354
O O9 0.062995 0.150936 0.474025
O O10 0.521447 0.774758 0.054244
O O11 0.610906 0.050813 0.205996
O O12 0.629245 0.042183 0.035147
O O13 0.417665 0.773347 0.642565
O O14 0.119224 0.187772 0.339150
O O15 0.992229 0.432642 0.321640
#
# Coordination Sequence:
#
# PCOD9250137 Si02
#       8
#     4   4   2   4   4   4   4   4
#     4  11  23  43  63  96 136 175 224 288 342 402
#     4  11  24  42  70 101 134 177 228 282 338 418
#     4  10  24  40  66  92 128 172 226 278 336 410
#     4  10  25  44  70 100 133 181 221 280 353 406
#     4  10  23  47  68  98 140 174 222 284 344 419
#     4  11  25  42  68 103 136 173 229 285 337 416
#     4  11  23  41  66  94 133 183 225 281 346 405
#     4  11  23  40  65  97 131 183 228 276 345 410
#
# _framework density 22.477875000000001
#
# number of rings (size 3 to 8) (size 9 to 14) (size 15 to 20)
#    0.000    1.333    2.667    1.600    3.733    4.267 
#    0.000    0.000    0.000    0.000    0.000    0.000 
#    0.000    0.000    0.000    0.000    0.000    0.000 
#
# Total GULP energy -167228.226034 kJ/mol
# GULP energy per Si atom -5574.274201 kJ/mol
# Density = 2.242671 g / cm^3
# Si number density = 22.477875 Si / 1000 Ang^3
#
#
#
# Elastic Constant Matrix: (Units=GPa)
#
#
# Indices 1 2 3 4 5 6 
#
# 1 40.4978 17.5139 0.8211 0.0000 -11.2120 0.0000
# 2 17.5139 95.4940 5.7641 0.0000 -6.7719 0.0000
# 3 0.8211 5.7641 48.2185 0.0000 2.7578 0.0000
# 4 0.0000 0.0000 0.0000 22.4692 0.0000 2.4111
# 5 -11.2120 -6.7719 2.7578 0.0000 20.8732 0.0000
# 6 0.0000 0.0000 0.0000 2.4111 0.0000 18.5249
#
#
#
# Elastic Compliance Matrix: (Units=1/GPa)
#
#
# Indices 1 2 3 4 5 6 
#
# 1 0.030888 -0.004533 -0.000855 0.000000 0.015234 0.000000
# 2 -0.004533 0.011491 -0.001381 0.000000 0.001476 0.000000
# 3 -0.000855 -0.001381 0.021130 0.000000 -0.003699 0.000000
# 4 0.000000 0.000000 0.000000 0.045136 0.000000 -0.005875
# 5 0.015234 0.001476 -0.003699 0.000000 0.057058 0.000000
# 6 0.000000 0.000000 0.000000 -0.005875 0.000000 0.054746
#
#
# Mechanical properties :
#
#
# Convention : Reuss Voigt Hill
#
# Bulk Modulus (GPa) = 20.01168 25.82315 22.91742
# Shear Modulus (GPa) = 19.94852 23.04754 21.49803
#
# Velocity S-wave (km/s) = 2.98228 3.20557 3.09594
# Velocity P-wave (km/s) = 4.55860 5.02137 4.79557
#
# Compressibility (1/GPa) = 0.04997081
#
# Stress axis : x y z
#
# Youngs Moduli (GPa) = 32.37506 87.02286 47.32574
#
# Poissons Ratio (x) = 0.39448 0.04048
# Poissons Ratio (y) = 0.14676 0.06535
# Poissons Ratio (z) = 0.02769 0.12017
#
# Static dielectric constant tensor:
#      x y z
#    x 1.803330 0.000000 0.011150 
#    y 0.000000 1.820410 0.000000 
#    z 0.011150 0.000000 1.863590 
# 
# From -- ./inp_files/48222.got.cif
#   From: 2010.05.17/outbox.cif.g08.bks.cpg/sg14_25_cif.got.tgz:48222.got - 2010.06.03 17:49:19.
