data_PCOD9250645
_publ_section_title
;
Structure prediction by ZEFSAII (Michael W. Deem and Ramdas Pophale) SiO2 
 PCOD9250645
Probable space group: P 21/C
;
_chemical_formula_sum "Si O2"
_cell_formula_units_Z 20
_cell_length_a 9.672429
_cell_length_b 19.253283
_cell_length_c 9.684887
_cell_angle_alpha 90.000000
_cell_angle_beta 151.401666
_cell_angle_gamma 90.000000
_cell_volume 863.312007
_symmetry_space_group_name_H-M "P 21/C"
_symmetry_group_IT_number 14
_symmetry_cell_setting 'monoclinic'
loop_
_space_group_symop_operation_xyz
x,y,z
-x,1/2+y,1/2-z
-x,-y,-z
x,1/2-y,1/2+z
loop_
_atom_site_type_symbol
_atom_site_label
_atom_site_fract_x
_atom_site_fract_y
_atom_site_fract_z
Si Si1 0.039184 0.198413 0.754151
Si Si2 0.577421 0.931404 0.484046
Si Si3 0.177784 0.434405 0.101371
Si Si4 0.954581 0.330233 0.493690
Si Si5 0.359753 0.633961 0.295862
O O1 0.947565 0.267824 0.595591
O O2 0.821048 0.137072 0.508121
O O3 0.376360 0.186974 0.008187
O O4 0.994730 0.201749 0.877503
O O5 0.702098 0.950391 0.443788
O O6 0.792623 0.884681 0.760453
O O7 0.500000 0.000000 0.500000
O O8 0.320141 0.878468 0.232577
O O9 0.434565 0.418024 0.434991
O O10 0.000000 0.500000 0.000000
O O11 0.941431 0.371391 0.879929
#
# Coordination Sequence:
#
# PCOD9250645 Si02
#       5
#     4   4   4   4   4
#     4  11  26  47  79 108 149 193 255 323 386 450
#     4  12  29  49  77 111 160 200 258 313 392 453
#     4  11  25  45  79 105 149 205 261 301 374 456
#     4  12  28  49  80 110 154 201 258 318 390 455
#     4  10  24  44  74 107 145 186 255 313 372 442
#
# _framework density 23.166596999999999
#
# number of rings (size 3 to 8) (size 9 to 14) (size 15 to 20)
#    0.000    0.800    0.000    4.800   16.800    0.000 
#    0.000    0.000    0.000    0.000    0.000    0.000 
#    0.000    0.000    0.000    0.000    0.000    0.000 
#
# Total GULP energy -111466.232367 kJ/mol
# GULP energy per Si atom -5573.311618 kJ/mol
# Density = 2.311387 g / cm^3
# Si number density = 23.166597 Si / 1000 Ang^3
#
#
#
# Elastic Constant Matrix: (Units=GPa)
#
#
# Indices 1 2 3 4 5 6 
#
# 1 188.0718 109.0447 57.8730 0.0000 -16.2088 0.0000
# 2 109.0447 106.3927 45.7527 0.0000 -16.2441 0.0000
# 3 57.8730 45.7527 165.2815 0.0000 11.0999 0.0000
# 4 0.0000 0.0000 0.0000 36.3914 0.0000 -7.1073
# 5 -16.2088 -16.2441 11.0999 0.0000 47.2461 0.0000
# 6 0.0000 0.0000 0.0000 -7.1073 0.0000 37.6323
#
#
#
# Elastic Compliance Matrix: (Units=1/GPa)
#
#
# Indices 1 2 3 4 5 6 
#
# 1 0.013252 -0.013093 -0.001035 0.000000 0.000288 0.000000
# 2 -0.013093 0.024604 -0.002533 0.000000 0.004563 0.000000
# 3 -0.001035 -0.002533 0.007312 0.000000 -0.002944 0.000000
# 4 0.000000 0.000000 0.000000 0.028531 0.000000 0.005389
# 5 0.000288 0.004563 -0.002944 0.000000 0.023525 0.000000
# 6 0.000000 0.000000 0.000000 0.005389 0.000000 0.027591
#
#
# Mechanical properties :
#
#
# Convention : Reuss Voigt Hill
#
# Bulk Modulus (GPa) = 84.41761 98.34297 91.38029
# Shear Modulus (GPa) = 30.84796 40.72567 35.78682
#
# Velocity S-wave (km/s) = 3.65303 4.19734 3.93461
# Velocity P-wave (km/s) = 7.36962 8.12605 7.75706
#
# Compressibility (1/GPa) = 0.01184587
#
# Stress axis : x y z
#
# Youngs Moduli (GPa) = 75.46106 40.64305 136.77049
#
# Poissons Ratio (x) = 0.53214 0.14156
# Poissons Ratio (y) = 0.98802 0.34641
# Poissons Ratio (z) = 0.07811 0.10294
#
# Static dielectric constant tensor:
#      x y z
#    x 1.864280 0.000000 -0.001660 
#    y 0.000000 1.986110 0.000000 
#    z -0.001660 0.000000 1.846510 
# 
# From -- ./inp_files/10347.got.cif
#   From: 2010.05.17/outbox.cif.g08.bks.cpg/sg14_6_cif.got.tgz:10347.got - 2010.06.03 17:49:19.
