data_PCOD9250377
_publ_section_title
;
Structure prediction by ZEFSAII (Michael W. Deem and Ramdas Pophale) SiO2 
 PCOD9250377
Probable space group: P 21/C
;
_chemical_formula_sum "Si O2"
_cell_formula_units_Z 20
_cell_length_a 6.402358
_cell_length_b 12.723775
_cell_length_c 11.824695
_cell_angle_alpha 90.000000
_cell_angle_beta 93.532143
_cell_angle_gamma 90.000000
_cell_volume 961.435402
_symmetry_space_group_name_H-M "P 21/C"
_symmetry_group_IT_number 14
_symmetry_cell_setting 'monoclinic'
loop_
_space_group_symop_operation_xyz
x,y,z
-x,1/2+y,1/2-z
-x,-y,-z
x,1/2-y,1/2+z
loop_
_atom_site_type_symbol
_atom_site_label
_atom_site_fract_x
_atom_site_fract_y
_atom_site_fract_z
Si Si1 0.485046 0.928703 0.110091
Si Si2 0.177679 0.742348 0.139183
Si Si3 0.563585 0.898003 0.704490
Si Si4 0.146820 0.100774 0.497909
Si Si5 0.190560 0.310151 0.239101
O O1 0.319948 0.833879 0.091325
O O2 0.702115 0.874221 0.155003
O O3 0.424151 0.003117 0.213118
O O4 0.500000 0.000000 0.000000
O O5 0.330487 0.647544 0.180550
O O6 0.999392 0.695722 0.052140
O O7 0.051665 0.790437 0.241068
O O8 0.670140 0.917135 0.586680
O O9 0.695076 0.801964 0.762831
O O10 0.226600 0.129281 0.624299
O O11 0.000000 0.000000 0.500000
#
# Coordination Sequence:
#
# PCOD9250377 Si02
#       5
#     4   4   4   4   4
#     4  11  25  42  66  97 135 177 217 268 335 394
#     4  10  24  42  64  98 131 174 219 277 327 396
#     4  10  24  42  65  97 131 173 220 274 330 396
#     4  11  23  42  69  96 130 172 224 278 331 393
#     4  10  24  42  65  96 129 170 222 268 332 395
#
# _framework density 20.802229000000001
#
# number of rings (size 3 to 8) (size 9 to 14) (size 15 to 20)
#    0.000    1.600    0.000    2.400   11.200    7.200 
#    0.000    0.000    0.000    0.000    0.000    0.000 
#    0.000    0.000    0.000    0.000    0.000    0.000 
#
# Total GULP energy -111844.278823 kJ/mol
# GULP energy per Si atom -5592.213941 kJ/mol
# Density = 2.075488 g / cm^3
# Si number density = 20.802229 Si / 1000 Ang^3
#
#
#
# Elastic Constant Matrix: (Units=GPa)
#
#
# Indices 1 2 3 4 5 6 
#
# 1 86.7103 17.0949 41.3495 0.0000 -12.4123 0.0000
# 2 17.0949 92.9468 33.7444 0.0000 -0.9895 0.0000
# 3 41.3495 33.7444 102.4855 0.0000 -12.3676 0.0000
# 4 0.0000 0.0000 0.0000 35.4346 0.0000 -1.6152
# 5 -12.4123 -0.9895 -12.3676 0.0000 23.1424 0.0000
# 6 0.0000 0.0000 0.0000 -1.6152 0.0000 28.4043
#
#
#
# Elastic Compliance Matrix: (Units=1/GPa)
#
#
# Indices 1 2 3 4 5 6 
#
# 1 0.014874 -0.000829 -0.005099 0.000000 0.005218 0.000000
# 2 -0.000829 0.012332 -0.003972 0.000000 -0.002040 0.000000
# 3 -0.005099 -0.003972 0.013652 0.000000 0.004392 0.000000
# 4 0.000000 0.000000 0.000000 0.028294 0.000000 0.001609
# 5 0.005218 -0.002040 0.004392 0.000000 0.048269 0.000000
# 6 0.000000 0.000000 0.000000 0.001609 0.000000 0.035297
#
#
# Mechanical properties :
#
#
# Convention : Reuss Voigt Hill
#
# Bulk Modulus (GPa) = 47.48592 51.83558 49.66075
# Shear Modulus (GPa) = 27.84923 30.05986 28.95454
#
# Velocity S-wave (km/s) = 3.66288 3.80548 3.73486
# Velocity P-wave (km/s) = 6.38481 6.65442 6.52101
#
# Compressibility (1/GPa) = 0.02105887
#
# Stress axis : x y z
#
# Youngs Moduli (GPa) = 67.22957 81.09217 73.24704
#
# Poissons Ratio (x) = 0.06723 0.37347
# Poissons Ratio (y) = 0.05574 0.29094
# Poissons Ratio (z) = 0.34278 0.32210
#
# Static dielectric constant tensor:
#      x y z
#    x 1.746000 0.000000 0.002770 
#    y 0.000000 1.753460 0.000000 
#    z 0.002770 0.000000 1.727830 
# 
# From -- ./inp_files/20659.got.cif
#   From: 2010.05.17/outbox.cif.g08.bks.cpg/sg14_11_cif.got.tgz:20659.got - 2010.06.03 17:49:19.
