data_PCOD9250773
_publ_section_title
;
Structure prediction by ZEFSAII (Michael W. Deem and Ramdas Pophale) SiO2 
 PCOD9250773
Probable space group: P 21/C
;
_chemical_formula_sum "Si O2"
_cell_formula_units_Z 20
_cell_length_a 8.331804
_cell_length_b 5.003183
_cell_length_c 16.973002
_cell_angle_alpha 90.000000
_cell_angle_beta 87.909759
_cell_angle_gamma 90.000000
_cell_volume 707.057981
_symmetry_space_group_name_H-M "P 21/C"
_symmetry_group_IT_number 14
_symmetry_cell_setting 'monoclinic'
loop_
_space_group_symop_operation_xyz
x,y,z
-x,1/2+y,1/2-z
-x,-y,-z
x,1/2-y,1/2+z
loop_
_atom_site_type_symbol
_atom_site_label
_atom_site_fract_x
_atom_site_fract_y
_atom_site_fract_z
Si Si1 0.658878 0.758239 0.705424
Si Si2 0.055239 0.670780 0.793881
Si Si3 0.415438 0.459265 0.127686
Si Si4 0.881811 0.696537 0.955556
Si Si5 0.656427 0.081968 0.051670
O O1 0.641350 0.723923 0.799284
O O2 0.702851 0.544537 0.636871
O O3 0.783501 0.002542 0.697461
O O4 0.476167 0.795148 0.677486
O O5 0.940472 0.431883 0.761273
O O6 0.977233 0.770624 0.875687
O O7 0.271596 0.480389 0.069725
O O8 0.577698 0.363502 0.080799
O O9 0.803958 0.955982 0.998513
O O10 0.000000 0.500000 0.000000
O O11 0.500000 0.000000 0.000000
#
# Coordination Sequence:
#
# PCOD9250773 Si02
#       5
#     4   4   4   4   4
#     4  12  24  44  77 110 153 211 266 327 398 492
#     4  12  29  51  78 115 161 213 270 330 408 493
#     4  11  25  44  77 109 159 211 270 325 406 494
#     4  11  24  49  74 114 162 207 269 339 409 475
#     4  10  24  46  71 112 156 200 265 332 403 476
#
# _framework density 28.286225000000002
#
# number of rings (size 3 to 8) (size 9 to 14) (size 15 to 20)
#    0.000    0.800    6.000    0.000    5.600    3.200 
#    3.600    2.000    0.000    0.000    0.000    0.000 
#    0.000    0.000    0.000    0.000    0.000    0.000 
#
# Total GULP energy -111715.050905 kJ/mol
# GULP energy per Si atom -5585.752545 kJ/mol
# Density = 2.822184 g / cm^3
# Si number density = 28.286225 Si / 1000 Ang^3
#
#
#
# Elastic Constant Matrix: (Units=GPa)
#
#
# Indices 1 2 3 4 5 6 
#
# 1 167.5808 70.5404 108.2157 0.0000 -5.8289 0.0000
# 2 70.5404 104.1349 43.2734 0.0000 -1.5418 0.0000
# 3 108.2157 43.2734 171.0580 0.0000 7.8911 0.0000
# 4 0.0000 0.0000 0.0000 44.2028 0.0000 8.2486
# 5 -5.8289 -1.5418 7.8911 0.0000 71.7819 0.0000
# 6 0.0000 0.0000 0.0000 8.2486 0.0000 65.5481
#
#
#
# Elastic Compliance Matrix: (Units=1/GPa)
#
#
# Indices 1 2 3 4 5 6 
#
# 1 0.012830 -0.005880 -0.006705 0.000000 0.001653 0.000000
# 2 -0.005880 0.013446 0.000329 0.000000 -0.000225 0.000000
# 3 -0.006705 0.000329 0.010081 0.000000 -0.001646 0.000000
# 4 0.000000 0.000000 0.000000 0.023167 0.000000 -0.002915
# 5 0.001653 -0.000225 -0.001646 0.000000 0.014241 0.000000
# 6 0.000000 0.000000 0.000000 -0.002915 0.000000 0.015623
#
#
# Mechanical properties :
#
#
# Convention : Reuss Voigt Hill
#
# Bulk Modulus (GPa) = 84.43470 98.53697 91.48584
# Shear Modulus (GPa) = 42.42741 51.02283 46.72512
#
# Velocity S-wave (km/s) = 3.87710 4.25173 4.06873
# Velocity P-wave (km/s) = 7.06806 7.68207 7.38145
#
# Compressibility (1/GPa) = 0.01184347
#
# Stress axis : x y z
#
# Youngs Moduli (GPa) = 77.94417 74.37108 99.20051
#
# Poissons Ratio (x) = 0.43730 0.66515
# Poissons Ratio (y) = 0.45831 -0.03260
# Poissons Ratio (z) = 0.52263 -0.02444
#
# Static dielectric constant tensor:
#      x y z
#    x 2.450080 0.000000 -0.029960 
#    y 0.000000 2.821670 0.000000 
#    z -0.029960 0.000000 2.279760 
# 
# From -- ./inp_files/53998.got.cif
#   From: 2010.05.17/outbox.cif.g08.bks.cpg/sg14_27_cif.got.tgz:53998.got - 2010.06.03 17:49:19.
