data_PCOD9250189
_publ_section_title
;
Structure prediction by ZEFSAII (Michael W. Deem and Ramdas Pophale) SiO2 
 PCOD9250189
Probable space group: P 21/C
;
_chemical_formula_sum "Si O2"
_cell_formula_units_Z 32
_cell_length_a 11.192037
_cell_length_b 8.744807
_cell_length_c 13.988783
_cell_angle_alpha 90.000000
_cell_angle_beta 83.325008
_cell_angle_gamma 90.000000
_cell_volume 1359.832454
_symmetry_space_group_name_H-M "P 21/C"
_symmetry_group_IT_number 14
_symmetry_cell_setting 'monoclinic'
loop_
_space_group_symop_operation_xyz
x,y,z
-x,1/2+y,1/2-z
-x,-y,-z
x,1/2-y,1/2+z
loop_
_atom_site_type_symbol
_atom_site_label
_atom_site_fract_x
_atom_site_fract_y
_atom_site_fract_z
Si Si1 0.137079 0.373926 0.583941
Si Si2 0.501428 0.640181 0.349725
Si Si3 0.569721 0.342105 0.425781
Si Si4 0.151180 0.209166 0.305296
Si Si5 0.066274 0.786813 0.038708
Si Si6 0.730893 0.078083 0.433911
Si Si7 0.678971 0.675827 0.061850
Si Si8 0.660064 0.926824 0.262521
O O1 0.141766 0.343284 0.697109
O O2 0.134055 0.554312 0.557727
O O3 0.239691 0.279353 0.517269
O O4 0.012617 0.312399 0.548704
O O5 0.591212 0.503069 0.372936
O O6 0.433575 0.655802 0.457964
O O7 0.569888 0.792055 0.308590
O O8 0.415503 0.562217 0.278925
O O9 0.669649 0.223100 0.392236
O O10 0.440952 0.272097 0.406128
O O11 0.237126 0.104051 0.362536
O O12 0.239261 0.355725 0.315344
O O13 0.025845 0.245562 0.366821
O O14 0.154681 0.643269 0.023170
O O15 0.643600 0.977898 0.507814
O O16 0.747422 0.972756 0.341208
#
# Coordination Sequence:
#
# PCOD9250189 Si02
#       8
#     4   4   4   4   4   4   4   4
#     4  10  23  48  71  94 140 181 239 293 351 412
#     4  11  25  42  71  98 142 187 231 286 356 427
#     4  11  24  44  69  98 142 187 228 284 365 420
#     4  11  24  43  74  97 138 180 237 288 353 411
#     4  10  27  44  71 100 136 190 237 287 354 422
#     4  12  26  43  67 106 145 179 238 291 344 428
#     4  11  23  45  71 100 138 185 228 290 360 415
#     4  12  25  44  68 106 143 185 235 293 353 424
#
# _framework density 23.532312999999998
#
# number of rings (size 3 to 8) (size 9 to 14) (size 15 to 20)
#    0.000    1.000    3.750    1.125    7.000    4.000 
#    2.250    0.000    0.000    0.000    0.000    0.000 
#    0.000    0.000    0.000    0.000    0.000    0.000 
#
# Total GULP energy -178611.385710 kJ/mol
# GULP energy per Si atom -5581.605803 kJ/mol
# Density = 2.347875 g / cm^3
# Si number density = 23.532313 Si / 1000 Ang^3
#
#
#
# Elastic Constant Matrix: (Units=GPa)
#
#
# Indices 1 2 3 4 5 6 
#
# 1 78.3709 34.8955 22.2472 0.0000 15.7707 0.0000
# 2 34.8955 63.3533 22.5828 0.0000 13.8228 0.0000
# 3 22.2472 22.5828 127.6285 0.0000 24.5129 0.0000
# 4 0.0000 0.0000 0.0000 28.2783 0.0000 8.9424
# 5 15.7707 13.8228 24.5129 0.0000 29.8378 0.0000
# 6 0.0000 0.0000 0.0000 8.9424 0.0000 27.7007
#
#
#
# Elastic Compliance Matrix: (Units=1/GPa)
#
#
# Indices 1 2 3 4 5 6 
#
# 1 0.017690 -0.008442 -0.000647 0.000000 -0.004907 0.000000
# 2 -0.008442 0.021958 -0.001564 0.000000 -0.004425 0.000000
# 3 -0.000647 -0.001564 0.009522 0.000000 -0.006757 0.000000
# 4 0.000000 0.000000 0.000000 0.039383 0.000000 -0.012714
# 5 -0.004907 -0.004425 -0.006757 0.000000 0.043709 0.000000
# 6 0.000000 0.000000 0.000000 -0.012714 0.000000 0.040204
#
#
# Mechanical properties :
#
#
# Convention : Reuss Voigt Hill
#
# Bulk Modulus (GPa) = 35.88931 47.64485 41.76708
# Shear Modulus (GPa) = 24.62308 29.80518 27.21413
#
# Velocity S-wave (km/s) = 3.23825 3.56274 3.40436
# Velocity P-wave (km/s) = 5.40979 6.10039 5.76544
#
# Compressibility (1/GPa) = 0.02786345
#
# Stress axis : x y z
#
# Youngs Moduli (GPa) = 56.52846 45.54224 105.01526
#
# Poissons Ratio (x) = 0.38449 0.06798
# Poissons Ratio (y) = 0.47724 0.16420
# Poissons Ratio (z) = 0.03659 0.07121
#
# Static dielectric constant tensor:
#      x y z
#    x 1.925360 0.000000 0.137880 
#    y 0.000000 1.944210 0.000000 
#    z 0.137880 0.000000 2.080610 
# 
# From -- ./inp_files/43445.got.cif
#   From: 2010.05.17/outbox.cif.g08.bks.cpg/sg14_22_cif.got.tgz:43445.got - 2010.06.03 17:49:19.
