data_PCOD9250925
_publ_section_title
;
Structure prediction by ZEFSAII (Michael W. Deem and Ramdas Pophale) SiO2 
 PCOD9250925
Probable space group: P 21/C
;
_chemical_formula_sum "Si O2"
_cell_formula_units_Z 16
_cell_length_a 9.173163
_cell_length_b 4.476911
_cell_length_c 25.972803
_cell_angle_alpha 90.000000
_cell_angle_beta 151.043278
_cell_angle_gamma 90.000000
_cell_volume 516.410771
_symmetry_space_group_name_H-M "P 21/C"
_symmetry_group_IT_number 14
_symmetry_cell_setting 'monoclinic'
loop_
_space_group_symop_operation_xyz
x,y,z
-x,1/2+y,1/2-z
-x,-y,-z
x,1/2-y,1/2+z
loop_
_atom_site_type_symbol
_atom_site_label
_atom_site_fract_x
_atom_site_fract_y
_atom_site_fract_z
Si Si1 0.285601 0.107005 0.238204
Si Si2 0.204531 0.538408 0.302165
Si Si3 0.161062 0.221885 0.090174
Si Si4 0.684624 0.275739 0.020222
O O1 0.272585 0.420514 0.265920
O O2 0.316707 0.051433 0.186230
O O3 0.917865 0.065518 0.124120
O O4 0.580937 0.940140 0.351121
O O5 0.473088 0.431281 0.420439
O O6 0.887861 0.380789 0.221125
O O7 0.915603 0.409941 0.048696
O O8 0.000000 0.000000 0.000000
O O9 0.500000 0.500000 0.000000
#
# Coordination Sequence:
#
# PCOD9250925 Si02
#       4
#     4   4   4   4
#     4  10  26  48  81 121 171 223 291 368 450 538
#     4  12  27  49  82 122 171 225 291 367 450 539
#     4  10  25  48  82 122 172 228 294 370 458 543
#     4  10  24  52  81 119 166 231 292 369 446 543
#
# _framework density 30.983087999999999
#
# number of rings (size 3 to 8) (size 9 to 14) (size 15 to 20)
#    1.500    0.000    2.500    0.000    7.000    4.000 
#    9.000    0.000    0.000    0.000    0.000    0.000 
#    0.000    0.000    0.000    0.000    0.000    0.000 
#
# Total GULP energy -89420.283316 kJ/mol
# GULP energy per Si atom -5588.767707 kJ/mol
# Density = 3.091257 g / cm^3
# Si number density = 30.983088 Si / 1000 Ang^3
#
#
#
# Elastic Constant Matrix: (Units=GPa)
#
#
# Indices 1 2 3 4 5 6 
#
# 1 229.9647 60.9239 95.5300 0.0000 33.0104 0.0000
# 2 60.9239 98.5638 61.4807 0.0000 6.4291 0.0000
# 3 95.5300 61.4807 202.5509 -0.0003 -18.9091 -0.0001
# 4 0.0000 0.0000 -0.0003 78.7565 0.0000 6.1398
# 5 33.0104 6.4291 -18.9091 0.0000 85.9553 0.0000
# 6 0.0000 0.0000 -0.0001 6.1398 0.0000 60.5090
#
#
#
# Elastic Compliance Matrix: (Units=1/GPa)
#
#
# Indices 1 2 3 4 5 6 
#
# 1 0.006432 -0.002129 -0.002658 0.000000 -0.002896 0.000000
# 2 -0.002129 0.013502 -0.003177 0.000000 -0.000891 0.000000
# 3 -0.002658 -0.003177 0.007425 0.000000 0.002892 0.000000
# 4 0.000000 0.000000 0.000000 0.012799 0.000000 -0.001299
# 5 -0.002896 -0.000891 0.002892 0.000000 0.013449 0.000000
# 6 0.000000 0.000000 0.000000 -0.001299 0.000000 0.016658
#
#
# Mechanical properties :
#
#
# Convention : Reuss Voigt Hill
#
# Bulk Modulus (GPa) = 87.48442 107.43874 97.46158
# Shear Modulus (GPa) = 55.55365 65.92048 60.73706
#
# Velocity S-wave (km/s) = 4.23901 4.61763 4.43236
# Velocity P-wave (km/s) = 7.22886 7.94870 7.59731
#
# Compressibility (1/GPa) = 0.01143061
#
# Stress axis : x y z
#
# Youngs Moduli (GPa) = 155.46532 74.06433 134.68304
#
# Poissons Ratio (x) = 0.15770 0.35795
# Poissons Ratio (y) = 0.33102 0.42791
# Poissons Ratio (z) = 0.41319 0.23532
#
# Static dielectric constant tensor:
#      x y z
#    x 2.748940 0.000000 -0.079290 
#    y 0.000000 2.565740 0.000000 
#    z -0.079290 0.000000 2.475370 
# 
# From -- ./inp_files/42397.got.cif
#   From: 2010.05.17/outbox.cif.g08.bks.cpg/sg14_22_cif.got.tgz:42397.got - 2010.06.03 17:49:19.
