data_PCOD9250868
_publ_section_title
;
Structure prediction by ZEFSAII (Michael W. Deem and Ramdas Pophale) SiO2 
 PCOD9250868
Probable space group: P 21/C
;
_chemical_formula_sum "Si O2"
_cell_formula_units_Z 20
_cell_length_a 13.490004
_cell_length_b 7.284509
_cell_length_c 17.148333
_cell_angle_alpha 90.000000
_cell_angle_beta 151.763018
_cell_angle_gamma 90.000000
_cell_volume 797.269461
_symmetry_space_group_name_H-M "P 21/C"
_symmetry_group_IT_number 14
_symmetry_cell_setting 'monoclinic'
loop_
_space_group_symop_operation_xyz
x,y,z
-x,1/2+y,1/2-z
-x,-y,-z
x,1/2-y,1/2+z
loop_
_atom_site_type_symbol
_atom_site_label
_atom_site_fract_x
_atom_site_fract_y
_atom_site_fract_z
Si Si1 0.152762 0.446954 0.037762
Si Si2 0.954784 0.122718 0.246583
Si Si3 0.288288 0.066838 0.179819
Si Si4 0.752926 0.495671 0.173965
Si Si5 0.401618 0.625037 0.615578
O O1 0.053488 0.495293 0.885800
O O2 0.174429 0.225640 0.052385
O O3 0.387400 0.495099 0.228934
O O4 0.000000 0.500000 0.000000
O O5 0.851506 0.304072 0.212925
O O6 0.143245 0.139530 0.314379
O O7 0.760636 0.051263 0.059802
O O8 0.192846 0.034512 0.198042
O O9 0.512884 0.172797 0.347338
O O10 0.305936 0.892662 0.135925
O O11 0.500000 0.500000 0.000000
#
# Coordination Sequence:
#
# PCOD9250868 Si02
#       5
#     4   4   4   4   4
#     4  10  25  46  70 109 147 194 252 315 377 451
#     4  12  27  46  80 107 151 200 253 313 379 457
#     4  10  24  48  73 104 152 194 247 318 372 446
#     4  12  26  51  77 117 152 201 257 315 382 460
#     4  10  24  48  72 110 145 198 256 308 379 459
#
# _framework density 25.085622000000001
#
# number of rings (size 3 to 8) (size 9 to 14) (size 15 to 20)
#    1.200    0.000    2.000    2.400    2.800    5.600 
#    3.600    0.000    0.000    0.000    0.000    0.000 
#    0.000    0.000    0.000    0.000    0.000    0.000 
#
# Total GULP energy -111619.118918 kJ/mol
# GULP energy per Si atom -5580.955946 kJ/mol
# Density = 2.502853 g / cm^3
# Si number density = 25.085622 Si / 1000 Ang^3
#
#
#
# Elastic Constant Matrix: (Units=GPa)
#
#
# Indices 1 2 3 4 5 6 
#
# 1 206.2043 21.8114 80.0915 0.0000 -8.6446 0.0000
# 2 21.8114 60.8937 22.4465 0.0000 4.9856 0.0000
# 3 80.0915 22.4465 225.7220 0.0000 -8.9988 0.0000
# 4 0.0000 0.0000 0.0000 28.6117 0.0000 7.5353
# 5 -8.6446 4.9856 -8.9988 0.0000 55.7639 0.0000
# 6 0.0000 0.0000 0.0000 7.5353 0.0000 54.0759
#
#
#
# Elastic Compliance Matrix: (Units=1/GPa)
#
#
# Indices 1 2 3 4 5 6 
#
# 1 0.005758 -0.001431 -0.001872 0.000000 0.000718 0.000000
# 2 -0.001431 0.017586 -0.001321 0.000000 -0.002007 0.000000
# 3 -0.001872 -0.001321 0.005253 0.000000 0.000676 0.000000
# 4 0.000000 0.000000 0.000000 0.036282 0.000000 -0.005056
# 5 0.000718 -0.002007 0.000676 0.000000 0.018333 0.000000
# 6 0.000000 0.000000 0.000000 -0.005056 0.000000 0.019197
#
#
# Mechanical properties :
#
#
# Convention : Reuss Voigt Hill
#
# Bulk Modulus (GPa) = 51.68437 82.39100 67.03768
# Shear Modulus (GPa) = 42.33442 52.25502 47.29472
#
# Velocity S-wave (km/s) = 4.11249 4.56901 4.34675
# Velocity P-wave (km/s) = 6.57252 7.79421 7.20929
#
# Compressibility (1/GPa) = 0.01934821
#
# Stress axis : x y z
#
# Youngs Moduli (GPa) = 173.66405 56.86343 190.37388
#
# Poissons Ratio (x) = 0.08138 0.35642
# Poissons Ratio (y) = 0.24855 0.25148
# Poissons Ratio (z) = 0.32513 0.07512
#
# Static dielectric constant tensor:
#      x y z
#    x 1.933480 0.000000 0.023630 
#    y 0.000000 2.059690 0.000000 
#    z 0.023630 0.000000 2.062150 
# 
# From -- ./inp_files/57312.got.cif
#   From: 2010.05.17/outbox.cif.g08.bks.cpg/sg14_29_cif.got.tgz:57312.got - 2010.06.03 17:49:19.
