data_PCOD9250798
_publ_section_title
;
Structure prediction by ZEFSAII (Michael W. Deem and Ramdas Pophale) SiO2 
 PCOD9250798
Probable space group: P 21/C
;
_chemical_formula_sum "Si O2"
_cell_formula_units_Z 22
_cell_length_a 13.987154
_cell_length_b 12.572091
_cell_length_c 11.666330
_cell_angle_alpha 90.000000
_cell_angle_beta 29.467253
_cell_angle_gamma 90.000000
_cell_volume 1009.185348
_symmetry_space_group_name_H-M "P 21/C"
_symmetry_group_IT_number 14
_symmetry_cell_setting 'monoclinic'
loop_
_space_group_symop_operation_xyz
x,y,z
-x,1/2+y,1/2-z
-x,-y,-z
x,1/2-y,1/2+z
loop_
_atom_site_type_symbol
_atom_site_label
_atom_site_fract_x
_atom_site_fract_y
_atom_site_fract_z
Si Si1 0.097502 0.934136 0.793874
Si Si2 0.596383 0.099051 0.960812
Si Si3 0.050351 0.307611 0.762281
Si Si4 0.000000 0.000000 0.500000
Si Si5 0.360484 0.378217 0.937319
Si Si6 0.686435 0.303751 0.746569
O O1 0.229343 0.850569 0.724144
O O2 0.964148 0.868696 0.844529
O O3 0.222725 0.019117 0.591257
O O4 0.000000 0.000000 0.000000
O O5 0.581079 0.195608 0.889440
O O6 0.820339 0.068627 0.745995
O O7 0.473540 0.123312 0.200578
O O8 0.500000 0.000000 0.000000
O O9 0.231327 0.227914 0.582126
O O10 0.044449 0.397803 0.866325
O O11 0.861480 0.231427 0.979815
O O12 0.529107 0.381365 0.856141
#
# Coordination Sequence:
#
# PCOD9250798 Si02
#       6
#     4   4   4   2   4   4
#     4  12  27  46  72 109 155 201 248 316 390 447
#     4  11  25  43  71 105 139 192 252 308 376 449
#     4  11  26  48  74 108 149 201 250 319 383 460
#     4  10  24  46  74 102 146 190 248 310 378 454
#     4  12  26  45  76 106 148 201 254 314 376 462
#     4  11  25  47  69 107 148 196 253 308 384 456
#
# _framework density 21.799762999999999
#
# number of rings (size 3 to 8) (size 9 to 14) (size 15 to 20)
#    0.000    0.727    1.818    4.909    5.091    8.727 
#    0.000    0.000    0.000    0.000    0.000    0.000 
#    0.000    0.000    0.000    0.000    0.000    0.000 
#
# Total GULP energy -122510.848331 kJ/mol
# GULP energy per Si atom -5568.674924 kJ/mol
# Density = 2.175015 g / cm^3
# Si number density = 21.799763 Si / 1000 Ang^3
#
#
#
# Elastic Constant Matrix: (Units=GPa)
#
#
# Indices 1 2 3 4 5 6 
#
# 1 55.8820 23.3870 19.5405 0.0000 1.8469 0.0000
# 2 23.3870 75.3249 13.7355 0.0000 -3.2508 0.0000
# 3 19.5405 13.7355 123.8776 0.0000 19.7825 0.0000
# 4 0.0000 0.0000 0.0000 31.0653 0.0000 3.0915
# 5 1.8469 -3.2508 19.7825 0.0000 12.1915 0.0000
# 6 0.0000 0.0000 0.0000 3.0915 0.0000 47.3312
#
#
#
# Elastic Compliance Matrix: (Units=1/GPa)
#
#
# Indices 1 2 3 4 5 6 
#
# 1 0.021419 -0.006212 -0.002574 0.000000 -0.000724 0.000000
# 2 -0.006212 0.015982 -0.002191 0.000000 0.008757 0.000000
# 3 -0.002574 -0.002191 0.011814 0.000000 -0.019364 0.000000
# 4 0.000000 0.000000 0.000000 0.032401 0.000000 -0.002116
# 5 -0.000724 0.008757 -0.019364 0.000000 0.115890 0.000000
# 6 0.000000 0.000000 0.000000 -0.002116 0.000000 0.021266
#
#
# Mechanical properties :
#
#
# Convention : Reuss Voigt Hill
#
# Bulk Modulus (GPa) = 36.68286 40.93450 38.80868
# Shear Modulus (GPa) = 20.01510 31.34568 25.68039
#
# Velocity S-wave (km/s) = 3.03336 3.79607 3.43594
# Velocity P-wave (km/s) = 5.39741 6.16699 5.79499
#
# Compressibility (1/GPa) = 0.02726069
#
# Stress axis : x y z
#
# Youngs Moduli (GPa) = 46.68830 62.57068 84.64747
#
# Poissons Ratio (x) = 0.38869 0.21790
# Poissons Ratio (y) = 0.29003 0.18544
# Poissons Ratio (z) = 0.12018 0.13707
#
# Static dielectric constant tensor:
#      x y z
#    x 1.797770 0.000000 -0.037710 
#    y 0.000000 1.318090 0.000000 
#    z -0.037710 0.000000 1.787980 
# 
# From -- ./inp_files/32318.got.cif
#   From: 2010.05.17/outbox.cif.g08.bks.cpg/sg14_17_cif.got.tgz:32318.got - 2010.06.03 17:49:19.
