data_PCOD9250542
_publ_section_title
;
Structure prediction by ZEFSAII (Michael W. Deem and Ramdas Pophale) SiO2 
 PCOD9250542
Probable space group: P 21/C
;
_chemical_formula_sum "Si O2"
_cell_formula_units_Z 22
_cell_length_a 9.161334
_cell_length_b 5.126462
_cell_length_c 23.174278
_cell_angle_alpha 90.000000
_cell_angle_beta 47.784506
_cell_angle_gamma 90.000000
_cell_volume 806.083109
_symmetry_space_group_name_H-M "P 21/C"
_symmetry_group_IT_number 14
_symmetry_cell_setting 'monoclinic'
loop_
_space_group_symop_operation_xyz
x,y,z
-x,1/2+y,1/2-z
-x,-y,-z
x,1/2-y,1/2+z
loop_
_atom_site_type_symbol
_atom_site_label
_atom_site_fract_x
_atom_site_fract_y
_atom_site_fract_z
Si Si1 0.178692 0.277188 0.559982
Si Si2 0.832238 0.571168 0.708787
Si Si3 0.000000 0.000000 0.500000
Si Si4 0.852774 0.114208 0.334962
Si Si5 0.434892 0.007475 0.348157
Si Si6 0.522842 0.995704 0.899224
O O1 0.137487 0.086939 0.517179
O O2 0.349278 0.464733 0.491246
O O3 0.980065 0.439540 0.624833
O O4 0.238976 0.102378 0.598696
O O5 0.865865 0.447848 0.763915
O O6 0.603040 0.547434 0.755114
O O7 0.928706 0.851812 0.696101
O O8 0.797963 0.019998 0.595759
O O9 0.723847 0.378924 0.371080
O O10 0.505469 0.787693 0.375939
O O11 0.474277 0.297831 0.361037
#
# Coordination Sequence:
#
# PCOD9250542 Si02
#       6
#     4   4   2   4   4   4
#     4  11  25  44  71 106 144 201 245 306 367 450
#     4  11  23  41  70 107 142 186 240 304 383 432
#     4  10  26  54  68 100 148 200 254 296 356 448
#     4  11  22  42  69 107 153 182 241 312 382 445
#     4  10  24  47  72 101 145 196 246 303 360 441
#     4  10  24  43  73 106 143 189 242 300 377 440
#
# _framework density 27.292472
#
# number of rings (size 3 to 8) (size 9 to 14) (size 15 to 20)
#    0.000    1.455    1.818    1.636   10.182    3.636 
#    3.273    0.000    0.000    0.000    0.000    0.000 
#    0.000    0.000    0.000    0.000    0.000    0.000 
#
# Total GULP energy -122632.704731 kJ/mol
# GULP energy per Si atom -5574.213851 kJ/mol
# Density = 2.723035 g / cm^3
# Si number density = 27.292472 Si / 1000 Ang^3
#
#
#
# Elastic Constant Matrix: (Units=GPa)
#
#
# Indices 1 2 3 4 5 6 
#
# 1 76.6573 10.9577 21.5727 0.0000 -21.5478 0.0000
# 2 10.9577 83.7553 21.4098 0.0000 12.7138 0.0000
# 3 21.5727 21.4098 171.5081 0.0000 -40.6676 0.0000
# 4 0.0000 0.0000 0.0000 44.5610 0.0000 -1.0938
# 5 -21.5478 12.7138 -40.6676 0.0000 70.3752 0.0000
# 6 0.0000 0.0000 0.0000 -1.0938 0.0000 20.6062
#
#
#
# Elastic Compliance Matrix: (Units=1/GPa)
#
#
# Indices 1 2 3 4 5 6 
#
# 1 0.014871 -0.002563 -0.000418 0.000000 0.004775 0.000000
# 2 -0.002563 0.013622 -0.002489 0.000000 -0.004684 0.000000
# 3 -0.000418 -0.002489 0.007266 0.000000 0.004520 0.000000
# 4 0.000000 0.000000 0.000000 0.022470 0.000000 0.001193
# 5 0.004775 -0.004684 0.004520 0.000000 0.019130 0.000000
# 6 0.000000 0.000000 0.000000 0.001193 0.000000 0.048592
#
#
# Mechanical properties :
#
#
# Convention : Reuss Voigt Hill
#
# Bulk Modulus (GPa) = 40.29313 48.86678 44.57995
# Shear Modulus (GPa) = 34.44343 45.64051 40.04197
#
# Velocity S-wave (km/s) = 3.55633 4.09378 3.83449
# Velocity P-wave (km/s) = 5.62662 6.34737 5.99783
#
# Compressibility (1/GPa) = 0.02481813
#
# Stress axis : x y z
#
# Youngs Moduli (GPa) = 67.24325 73.41008 137.63247
#
# Poissons Ratio (x) = 0.18818 0.05758
# Poissons Ratio (y) = 0.17238 0.34252
# Poissons Ratio (z) = 0.02813 0.18270
#
# Static dielectric constant tensor:
#      x y z
#    x 2.129200 0.000000 -0.015730 
#    y 0.000000 2.163370 0.000000 
#    z -0.015730 0.000000 2.093670 
# 
# From -- ./inp_files/76832.got.cif
#   From: 2010.05.17/outbox.cif.g08.bks.cpg/sg14_39_cif.got.tgz:76832.got - 2010.06.03 17:49:19.
