data_PCOD9250835
_publ_section_title
;
Structure prediction by ZEFSAII (Michael W. Deem and Ramdas Pophale) SiO2 
 PCOD9250835
Probable space group: P 21/C
;
_chemical_formula_sum "Si O2"
_cell_formula_units_Z 32
_cell_length_a 16.214917
_cell_length_b 8.007321
_cell_length_c 26.636529
_cell_angle_alpha 90.000000
_cell_angle_beta 158.157516
_cell_angle_gamma 90.000000
_cell_volume 1286.732106
_symmetry_space_group_name_H-M "P 21/C"
_symmetry_group_IT_number 14
_symmetry_cell_setting 'monoclinic'
loop_
_space_group_symop_operation_xyz
x,y,z
-x,1/2+y,1/2-z
-x,-y,-z
x,1/2-y,1/2+z
loop_
_atom_site_type_symbol
_atom_site_label
_atom_site_fract_x
_atom_site_fract_y
_atom_site_fract_z
Si Si1 0.431915 0.064744 0.354877
Si Si2 0.957119 0.424695 0.738494
Si Si3 0.724020 0.980340 0.283521
Si Si4 0.988872 0.004191 0.064483
Si Si5 0.714313 0.290072 0.683182
Si Si6 0.735600 0.173050 0.009556
Si Si7 0.088638 0.768117 0.549984
Si Si8 0.692365 0.743942 0.614555
O O1 0.373544 0.879675 0.341754
O O2 0.371774 0.190941 0.366865
O O3 0.244434 0.067443 0.205826
O O4 0.912313 0.074116 0.074988
O O5 0.920985 0.287038 0.761957
O O6 0.801731 0.383767 0.602736
O O7 0.879694 0.600671 0.717851
O O8 0.203537 0.402722 0.856201
O O9 0.765155 0.073039 0.253886
O O10 0.706141 0.125240 0.314953
O O11 0.496331 0.889391 0.144445
O O12 0.927119 0.875600 0.422400
O O13 0.979832 0.814434 0.039140
O O14 0.675993 0.372638 0.976155
O O15 0.843854 0.109949 0.944091
O O16 0.512717 0.330073 0.531794
#
# Coordination Sequence:
#
# PCOD9250835 Si02
#       8
#     4   4   4   4   4   4   4   4
#     4  12  24  44  68 104 145 190 234 298 358 423
#     4  12  26  41  68 105 143 195 236 283 351 440
#     4  11  23  45  71 101 137 183 238 299 364 421
#     4  11  24  46  74 101 139 186 238 304 362 430
#     4  12  25  43  69 101 148 191 235 293 354 429
#     4  12  25  43  72 102 140 190 241 288 365 438
#     4  10  24  47  71  97 138 181 235 310 366 412
#     4  12  25  42  67 100 148 190 239 288 350 429
#
# _framework density 24.869199999999999
#
# number of rings (size 3 to 8) (size 9 to 14) (size 15 to 20)
#    0.000    0.500    6.250    2.250    1.750    1.000 
#    0.000    1.250    0.000    0.000    0.000    0.000 
#    0.000    0.000    0.000    0.000    0.000    0.000 
#
# Total GULP energy -178475.887018 kJ/mol
# GULP energy per Si atom -5577.371469 kJ/mol
# Density = 2.481260 g / cm^3
# Si number density = 24.869200 Si / 1000 Ang^3
#
#
#
# Elastic Constant Matrix: (Units=GPa)
#
#
# Indices 1 2 3 4 5 6 
#
# 1 59.5233 21.1288 25.1610 0.0000 -10.3858 0.0000
# 2 21.1288 91.6255 14.1137 0.0000 -14.3364 0.0000
# 3 25.1610 14.1137 115.4130 0.0000 -17.6968 0.0000
# 4 0.0000 0.0000 0.0000 34.8386 0.0000 -18.8040
# 5 -10.3858 -14.3364 -17.6968 0.0000 23.7706 0.0000
# 6 0.0000 0.0000 0.0000 -18.8040 0.0000 45.7718
#
#
#
# Elastic Compliance Matrix: (Units=1/GPa)
#
#
# Indices 1 2 3 4 5 6 
#
# 1 0.020180 -0.003477 -0.003323 0.000000 0.004246 0.000000
# 2 -0.003477 0.012667 0.000167 0.000000 0.006245 0.000000
# 3 -0.003323 0.000167 0.010342 0.000000 0.006348 0.000000
# 4 0.000000 0.000000 0.000000 0.036882 0.000000 0.015152
# 5 0.004246 0.006245 0.006348 0.000000 0.052416 0.000000
# 6 0.000000 0.000000 0.000000 0.015152 0.000000 0.028072
#
#
# Mechanical properties :
#
#
# Convention : Reuss Voigt Hill
#
# Bulk Modulus (GPa) = 33.42084 43.04097 38.23090
# Shear Modulus (GPa) = 27.20331 34.62008 30.91170
#
# Velocity S-wave (km/s) = 3.31094 3.73512 3.52940
# Velocity P-wave (km/s) = 5.29945 5.99549 5.65819
#
# Compressibility (1/GPa) = 0.02992145
#
# Stress axis : x y z
#
# Youngs Moduli (GPa) = 49.55396 78.94359 96.69303
#
# Poissons Ratio (x) = 0.27451 0.32133
# Poissons Ratio (y) = 0.17231 -0.01610
# Poissons Ratio (z) = 0.16468 -0.01314
#
# Static dielectric constant tensor:
#      x y z
#    x 2.026990 0.000000 -0.008440 
#    y 0.000000 2.184080 0.000000 
#    z -0.008440 0.000000 1.970940 
# 
# From -- ./inp_files/80535.got.cif
#   From: 2010.05.17/outbox.cif.g08.bks.cpg/sg14_41_cif.got.tgz:80535.got - 2010.06.03 17:49:19.
