data_PCOD9250463
_publ_section_title
;
Structure prediction by ZEFSAII (Michael W. Deem and Ramdas Pophale) SiO2 
 PCOD9250463
Probable space group: P 21/C
;
_chemical_formula_sum "Si O2"
_cell_formula_units_Z 20
_cell_length_a 8.299762
_cell_length_b 12.827280
_cell_length_c 9.731382
_cell_angle_alpha 90.000000
_cell_angle_beta 129.193133
_cell_angle_gamma 90.000000
_cell_volume 802.948655
_symmetry_space_group_name_H-M "P 21/C"
_symmetry_group_IT_number 14
_symmetry_cell_setting 'monoclinic'
loop_
_space_group_symop_operation_xyz
x,y,z
-x,1/2+y,1/2-z
-x,-y,-z
x,1/2-y,1/2+z
loop_
_atom_site_type_symbol
_atom_site_label
_atom_site_fract_x
_atom_site_fract_y
_atom_site_fract_z
Si Si1 0.978675 0.166558 0.819348
Si Si2 0.784870 0.684679 0.844423
Si Si3 0.319707 0.758466 0.533669
Si Si4 0.204397 0.966491 0.964915
Si Si5 0.655239 0.462189 0.777034
O O1 0.088904 0.177889 0.729031
O O2 0.748379 0.205966 0.656264
O O3 0.011091 0.044790 0.871991
O O4 0.109572 0.241201 0.988225
O O5 0.557674 0.724380 0.677157
O O6 0.757327 0.567975 0.889283
O O7 0.193725 0.653194 0.506553
O O8 0.289927 0.859447 0.611453
O O9 0.267111 0.955095 0.837915
O O10 0.406246 0.021056 0.140799
#
# Coordination Sequence:
#
# PCOD9250463 Si02
#       5
#     4   4   4   4   4
#     4  11  24  41  67  95 129 168 217 261 315 384
#     4  10  24  43  63  95 130 165 217 266 310 383
#     4  11  23  37  70  91 124 170 210 264 321 368
#     4   9  20  40  62  92 125 163 222 257 304 393
#     4   9  19  40  65  87 124 172 210 261 317 373
#
# _framework density 24.908193000000001
#
# number of rings (size 3 to 8) (size 9 to 14) (size 15 to 20)
#    0.000    2.000    2.000    1.200    5.600    1.600 
#    0.000    4.000    0.000    0.000    0.000    0.000 
#    0.000    0.000    0.000    0.000    0.000    0.000 
#
# Total GULP energy -112065.444242 kJ/mol
# GULP energy per Si atom -5603.272212 kJ/mol
# Density = 2.485150 g / cm^3
# Si number density = 24.908193 Si / 1000 Ang^3
#
#
#
# Elastic Constant Matrix: (Units=GPa)
#
#
# Indices 1 2 3 4 5 6 
#
# 1 31.3828 32.9060 20.0174 0.0000 11.4752 0.0000
# 2 32.9060 228.6490 108.6444 0.0000 1.4799 0.0000
# 3 20.0174 108.6444 154.4229 0.0000 10.2512 0.0000
# 4 0.0000 0.0000 0.0000 52.1280 0.0000 -3.5651
# 5 11.4752 1.4799 10.2512 0.0000 28.3355 0.0000
# 6 0.0000 0.0000 0.0000 -3.5651 0.0000 40.1381
#
#
#
# Elastic Compliance Matrix: (Units=1/GPa)
#
#
# Indices 1 2 3 4 5 6 
#
# 1 0.045114 -0.006251 -0.000265 0.000000 -0.017848 0.000000
# 2 -0.006251 0.007488 -0.004713 0.000000 0.003845 0.000000
# 3 -0.000265 -0.004713 0.010044 0.000000 -0.003280 0.000000
# 4 0.000000 0.000000 0.000000 0.019301 0.000000 0.001714
# 5 -0.017848 0.003845 -0.003280 0.000000 0.043505 0.000000
# 6 0.000000 0.000000 0.000000 0.001714 0.000000 0.025066
#
#
# Mechanical properties :
#
#
# Convention : Reuss Voigt Hill
#
# Bulk Modulus (GPa) = 24.88363 81.95446 53.41904
# Shear Modulus (GPa) = 26.82809 40.97945 33.90377
#
# Velocity S-wave (km/s) = 3.28545 4.06053 3.69338
# Velocity P-wave (km/s) = 4.94005 7.41336 6.29928
#
# Compressibility (1/GPa) = 0.04018706
#
# Stress axis : x y z
#
# Youngs Moduli (GPa) = 22.16593 133.55405 99.56580
#
# Poissons Ratio (x) = 0.83485 0.02642
# Poissons Ratio (y) = 0.13856 0.46924
# Poissons Ratio (z) = 0.00588 0.62943
#
# Static dielectric constant tensor:
#      x y z
#    x 2.042560 0.000000 -0.010340 
#    y 0.000000 1.958470 0.000000 
#    z -0.010340 0.000000 2.005400 
# 
# From -- ./inp_files/23549.got.cif
#   From: 2010.05.17/outbox.cif.g08.bks.cpg/sg14_12_cif.got.tgz:23549.got - 2010.06.03 17:49:19.
