data_PCOD9250104
_publ_section_title
;
Structure prediction by ZEFSAII (Michael W. Deem and Ramdas Pophale) SiO2 
 PCOD9250104
Probable space group: P 21/C
;
_chemical_formula_sum "Si O2"
_cell_formula_units_Z 18
_cell_length_a 6.331021
_cell_length_b 13.707162
_cell_length_c 8.816932
_cell_angle_alpha 90.000000
_cell_angle_beta 120.843441
_cell_angle_gamma 90.000000
_cell_volume 656.924140
_symmetry_space_group_name_H-M "P 21/C"
_symmetry_group_IT_number 14
_symmetry_cell_setting 'monoclinic'
loop_
_space_group_symop_operation_xyz
x,y,z
-x,1/2+y,1/2-z
-x,-y,-z
x,1/2-y,1/2+z
loop_
_atom_site_type_symbol
_atom_site_label
_atom_site_fract_x
_atom_site_fract_y
_atom_site_fract_z
Si Si1 0.490112 0.610171 0.119910
Si Si2 0.592539 0.264910 0.625072
Si Si3 0.951791 0.390316 0.592234
Si Si4 0.158528 0.098952 0.857221
Si Si5 0.000000 0.500000 0.000000
O O1 0.458801 0.655200 0.942205
O O2 0.439524 0.700572 0.215619
O O3 0.774588 0.582896 0.247652
O O4 0.293564 0.530145 0.095761
O O5 0.852113 0.303353 0.657384
O O6 0.388988 0.331264 0.462316
O O7 0.795406 0.487076 0.569209
O O8 0.972808 0.366253 0.423317
O O9 0.061223 0.084448 0.652713
#
# Coordination Sequence:
#
# PCOD9250104 Si02
#       5
#     4   4   4   4   2
#     4  11  28  44  73 104 148 186 246 293 368 423
#     4  11  25  48  70 106 143 190 241 305 349 437
#     4  10  23  46  73 101 134 195 233 295 368 426
#     4  10  24  44  73  99 143 180 244 291 360 428
#     4  12  26  46  68 112 148 188 238 302 348 450
#
# _framework density 27.400423
#
# number of rings (size 3 to 8) (size 9 to 14) (size 15 to 20)
#    0.000    1.333    2.222    0.667   12.444    4.444 
#    0.000    0.000    0.000    0.000    0.000    0.000 
#    0.000    0.000    0.000    0.000    0.000    0.000 
#
# Total GULP energy -100411.289821 kJ/mol
# GULP energy per Si atom -5578.404990 kJ/mol
# Density = 2.733806 g / cm^3
# Si number density = 27.400423 Si / 1000 Ang^3
#
#
#
# Elastic Constant Matrix: (Units=GPa)
#
#
# Indices 1 2 3 4 5 6 
#
# 1 128.8229 64.1817 44.4210 0.0000 20.4790 0.0000
# 2 64.1817 89.2332 16.7940 0.0000 -9.1043 0.0000
# 3 44.4210 16.7940 108.2517 0.0000 9.4984 0.0000
# 4 0.0000 0.0000 0.0000 45.3045 0.0000 -12.7449
# 5 20.4790 -9.1043 9.4984 0.0000 47.9750 0.0000
# 6 0.0000 0.0000 0.0000 -12.7449 0.0000 62.6113
#
#
#
# Elastic Compliance Matrix: (Units=1/GPa)
#
#
# Indices 1 2 3 4 5 6 
#
# 1 0.016506 -0.011953 -0.004174 0.000000 -0.008488 0.000000
# 2 -0.011953 0.020524 0.000948 0.000000 0.008809 0.000000
# 3 -0.004174 0.000948 0.010819 0.000000 -0.000180 0.000000
# 4 0.000000 0.000000 0.000000 0.023414 0.000000 0.004766
# 5 -0.008488 0.008809 -0.000180 0.000000 0.026175 0.000000
# 6 0.000000 0.000000 0.000000 0.004766 0.000000 0.016942
#
#
# Mechanical properties :
#
#
# Convention : Reuss Voigt Hill
#
# Bulk Modulus (GPa) = 57.17101 64.12237 60.64669
# Shear Modulus (GPa) = 33.20735 44.57224 38.88979
#
# Velocity S-wave (km/s) = 3.48505 4.03761 3.77146
# Velocity P-wave (km/s) = 6.09134 6.72229 6.41458
#
# Compressibility (1/GPa) = 0.01749138
#
# Stress axis : x y z
#
# Youngs Moduli (GPa) = 60.58281 48.72314 92.42618
#
# Poissons Ratio (x) = 0.58237 0.38581
# Poissons Ratio (y) = 0.72413 -0.08760
# Poissons Ratio (z) = 0.25289 -0.04618
#
# Static dielectric constant tensor:
#      x y z
#    x 2.096090 0.000000 -0.034620 
#    y 0.000000 2.107240 0.000000 
#    z -0.034620 0.000000 2.171920 
# 
# From -- ./inp_files/5577.got.cif
#   From: 2010.05.17/outbox.cif.g08.bks.cpg/sg14_3_cif.got.tgz:5577.got - 2010.06.03 17:49:19.
