data_PCOD9250151
_publ_section_title
;
Structure prediction by ZEFSAII (Michael W. Deem and Ramdas Pophale) SiO2 
 PCOD9250151
Probable space group: P 21/C
;
_chemical_formula_sum "Si O2"
_cell_formula_units_Z 16
_cell_length_a 5.101948
_cell_length_b 12.304198
_cell_length_c 10.742889
_cell_angle_alpha 90.000000
_cell_angle_beta 94.692383
_cell_angle_gamma 90.000000
_cell_volume 672.128553
_symmetry_space_group_name_H-M "P 21/C"
_symmetry_group_IT_number 14
_symmetry_cell_setting 'monoclinic'
loop_
_space_group_symop_operation_xyz
x,y,z
-x,1/2+y,1/2-z
-x,-y,-z
x,1/2-y,1/2+z
loop_
_atom_site_type_symbol
_atom_site_label
_atom_site_fract_x
_atom_site_fract_y
_atom_site_fract_z
Si Si1 0.783342 0.523796 0.385405
Si Si2 0.372697 0.330796 0.422580
Si Si3 0.536559 0.622832 0.958683
Si Si4 0.977098 0.112210 0.702688
O O1 0.561329 0.429156 0.384670
O O2 0.673990 0.636728 0.433289
O O3 0.915512 0.508730 0.256410
O O4 0.000000 0.500000 0.500000
O O5 0.478096 0.209557 0.431070
O O6 0.113918 0.331961 0.327011
O O7 0.299422 0.654448 0.857020
O O8 0.814393 0.621046 0.898910
O O9 0.500000 0.500000 0.000000
#
# Coordination Sequence:
#
# PCOD9250151 Si02
#       4
#     4   4   4   4
#     4   9  20  44  74  99 135 174 250 279 325 415
#     4  10  23  47  71 105 135 187 238 282 334 428
#     4  12  28  47  68 107 149 175 226 293 357 412
#     4  11  24  48  68 103 137 191 226 279 357 395
#
# _framework density 23.804970000000001
#
# number of rings (size 3 to 8) (size 9 to 14) (size 15 to 20)
#    0.000    1.500    2.500    0.750    7.000    2.000 
#   13.500    0.000    0.000    0.000    0.000    0.000 
#    0.000    0.000    0.000    0.000    0.000    0.000 
#
# Total GULP energy -89284.446764 kJ/mol
# GULP energy per Si atom -5580.277923 kJ/mol
# Density = 2.375079 g / cm^3
# Si number density = 23.804970 Si / 1000 Ang^3
#
#
#
# Elastic Constant Matrix: (Units=GPa)
#
#
# Indices 1 2 3 4 5 6 
#
# 1 95.0029 6.1580 6.8903 0.0000 11.4939 0.0000
# 2 6.1580 115.0690 10.9670 0.0000 8.0890 0.0000
# 3 6.8903 10.9670 45.3770 0.0000 15.1730 0.0000
# 4 0.0000 0.0000 0.0000 28.4416 0.0000 2.6014
# 5 11.4939 8.0890 15.1730 0.0000 53.0724 0.0000
# 6 0.0000 0.0000 0.0000 2.6014 0.0000 18.2160
#
#
#
# Elastic Compliance Matrix: (Units=1/GPa)
#
#
# Indices 1 2 3 4 5 6 
#
# 1 0.010860 -0.000354 -0.000879 0.000000 -0.002047 0.000000
# 2 -0.000354 0.008939 -0.001854 0.000000 -0.000756 0.000000
# 3 -0.000879 -0.001854 0.024835 0.000000 -0.006627 0.000000
# 4 0.000000 0.000000 0.000000 0.035625 0.000000 -0.005088
# 5 -0.002047 -0.000756 -0.006627 0.000000 0.021295 0.000000
# 6 0.000000 0.000000 0.000000 -0.005088 0.000000 0.055623
#
#
# Mechanical properties :
#
#
# Convention : Reuss Voigt Hill
#
# Bulk Modulus (GPa) = 26.00035 33.71993 29.86014
# Shear Modulus (GPa) = 28.38128 35.37491 31.87809
#
# Velocity S-wave (km/s) = 3.45663 3.85909 3.66339
# Velocity P-wave (km/s) = 5.18430 5.83546 5.51949
#
# Compressibility (1/GPa) = 0.03846102
#
# Stress axis : x y z
#
# Youngs Moduli (GPa) = 92.07841 111.86688 40.26550
#
# Poissons Ratio (x) = 0.03955 0.03540
# Poissons Ratio (y) = 0.03255 0.07465
# Poissons Ratio (z) = 0.08096 0.20741
#
# Static dielectric constant tensor:
#      x y z
#    x 1.958290 0.000000 -0.048540 
#    y 0.000000 1.998000 0.000000 
#    z -0.048540 0.000000 1.989530 
# 
# From -- ./inp_files/20275.got.cif
#   From: 2010.05.17/outbox.cif.g08.bks.cpg/sg14_11_cif.got.tgz:20275.got - 2010.06.03 17:49:19.
