data_PCOD9250625
_publ_section_title
;
Structure prediction by ZEFSAII (Michael W. Deem and Ramdas Pophale) SiO2 
 PCOD9250625
Probable space group: P 21/C
;
_chemical_formula_sum "Si O2"
_cell_formula_units_Z 16
_cell_length_a 8.053081
_cell_length_b 17.253570
_cell_length_c 5.385423
_cell_angle_alpha 90.000000
_cell_angle_beta 120.149209
_cell_angle_gamma 90.000000
_cell_volume 647.048076
_symmetry_space_group_name_H-M "P 21/C"
_symmetry_group_IT_number 14
_symmetry_cell_setting 'monoclinic'
loop_
_space_group_symop_operation_xyz
x,y,z
-x,1/2+y,1/2-z
-x,-y,-z
x,1/2-y,1/2+z
loop_
_atom_site_type_symbol
_atom_site_label
_atom_site_fract_x
_atom_site_fract_y
_atom_site_fract_z
Si Si1 0.317694 0.461642 0.217884
Si Si2 0.365335 0.205704 0.504775
Si Si3 0.037922 0.932959 0.214290
Si Si4 0.822622 0.217223 0.810067
O O1 0.500000 0.500000 0.500000
O O2 0.352343 0.387234 0.058858
O O3 0.157205 0.424947 0.278679
O O4 0.213474 0.535941 0.014061
O O5 0.293966 0.241846 0.186884
O O6 0.594067 0.218948 0.651830
O O7 0.098990 0.865981 0.073282
O O8 0.000000 0.000000 0.000000
O O9 0.887961 0.227285 0.576776
#
# Coordination Sequence:
#
# PCOD9250625 Si02
#       4
#     4   4   4   4
#     4  11  27  46  74 105 145 191 240 300 357 430
#     4  10  24  44  71 107 141 188 241 293 361 429
#     4  11  27  46  72 107 143 191 243 294 363 427
#     4  10  24  44  73 104 145 188 236 300 357 426
#
# _framework density 24.727682999999999
#
# number of rings (size 3 to 8) (size 9 to 14) (size 15 to 20)
#    0.000    1.500    0.000    1.500   21.000    4.000 
#    0.000    0.000    0.000    0.000    0.000    0.000 
#    0.000    0.000    0.000    0.000    0.000    0.000 
#
# Total GULP energy -89301.938348 kJ/mol
# GULP energy per Si atom -5581.371147 kJ/mol
# Density = 2.467140 g / cm^3
# Si number density = 24.727683 Si / 1000 Ang^3
#
#
#
# Elastic Constant Matrix: (Units=GPa)
#
#
# Indices 1 2 3 4 5 6 
#
# 1 83.0590 -9.1707 44.6858 0.0000 13.6635 0.0000
# 2 -9.1707 39.7655 -48.1326 0.0000 18.9085 0.0000
# 3 44.6858 -48.1326 -59.2111 0.0000 48.8025 0.0000
# 4 0.0000 0.0000 0.0000 36.2029 0.0000 -6.0819
# 5 13.6635 18.9085 48.8025 0.0000 27.7213 0.0000
# 6 0.0000 0.0000 0.0000 -6.0819 0.0000 34.6086
#
#
#
# Elastic Compliance Matrix: (Units=1/GPa)
#
#
# Indices 1 2 3 4 5 6 
#
# 1 0.014971 0.006204 -0.001352 0.000000 -0.009230 0.000000
# 2 0.006204 0.016355 -0.008294 0.000000 0.000387 0.000000
# 3 -0.001352 -0.008294 -0.002430 0.000000 0.010601 0.000000
# 4 0.000000 0.000000 0.000000 0.028462 0.000000 0.005002
# 5 -0.009230 0.000387 0.010601 0.000000 0.021695 0.000000
# 6 0.000000 0.000000 0.000000 0.005002 0.000000 0.029774
#
#
# Mechanical properties :
#
#
# Convention : Reuss Voigt Hill
#
# Bulk Modulus (GPa) = 45.43000 4.26427 24.84713
# Shear Modulus (GPa) = 40.63429 24.78861 32.71145
#
# Velocity S-wave (km/s) = 4.05813 3.16961 3.64107
# Velocity P-wave (km/s) = 6.35373 3.88889 5.26751
#
# Compressibility (1/GPa) = 0.02201189
#
# Stress axis : x y z
#
# Youngs Moduli (GPa) = 66.79766 61.14253 -411.56469
#
# Poissons Ratio (x) = -0.37934 -0.55663
# Poissons Ratio (y) = -0.41442 -3.41343
# Poissons Ratio (z) = 0.09034 0.50710
#
# Static dielectric constant tensor:
#      x y z
#    x 1.839240 0.000000 0.094880 
#    y 0.000000 1.861640 0.000000 
#    z 0.094880 0.000000 1.730000 
# 
# From -- ./inp_files/917.got.cif
#   From: 2010.05.17/outbox.cif.g08.bks.cpg/sg14_1_cif.got.tgz:917.got - 2010.06.03 17:49:19.
