data_PCOD9250119
_publ_section_title
;
Structure prediction by ZEFSAII (Michael W. Deem and Ramdas Pophale) SiO2 
 PCOD9250119
Probable space group: P 21/C
;
_chemical_formula_sum "Si O2"
_cell_formula_units_Z 20
_cell_length_a 7.903131
_cell_length_b 4.789999
_cell_length_c 19.512549
_cell_angle_alpha 90.000000
_cell_angle_beta 112.565582
_cell_angle_gamma 90.000000
_cell_volume 682.115182
_symmetry_space_group_name_H-M "P 21/C"
_symmetry_group_IT_number 14
_symmetry_cell_setting 'monoclinic'
loop_
_space_group_symop_operation_xyz
x,y,z
-x,1/2+y,1/2-z
-x,-y,-z
x,1/2-y,1/2+z
loop_
_atom_site_type_symbol
_atom_site_label
_atom_site_fract_x
_atom_site_fract_y
_atom_site_fract_z
Si Si1 0.500000 0.500000 0.500000
Si Si2 0.815210 0.432926 0.080033
Si Si3 0.853572 0.983985 0.886118
Si Si4 0.000000 0.500000 0.000000
Si Si5 0.548626 0.611648 0.657695
Si Si6 0.770684 0.406035 0.224995
O O1 0.348549 0.722646 0.449011
O O2 0.542342 0.685108 0.576615
O O3 0.855918 0.495092 0.164946
O O4 0.004551 0.273160 0.076013
O O5 0.807186 0.639840 0.014678
O O6 0.637687 0.942310 0.858849
O O7 0.885488 0.043016 0.810905
O O8 0.880624 0.252240 0.937604
O O9 0.712565 0.412637 0.707784
O O10 0.587961 0.901701 0.701608
#
# Coordination Sequence:
#
# PCOD9250119 Si02
#       6
#     2   4   4   2   4   4
#     4  10  24  42  68 112 148 192 254 318 378 462
#     4   9  23  45  76 110 155 204 259 323 394 463
#     4  10  23  46  76 111 154 202 267 318 393 469
#     4   8  22  46  78 114 148 210 254 334 380 472
#     4  11  26  43  78 107 153 202 251 325 387 464
#     4  11  25  48  72 112 152 203 257 319 393 463
#
# _framework density 29.32056
#
# number of rings (size 3 to 8) (size 9 to 14) (size 15 to 20)
#    1.200    0.800    0.000    1.200    5.600    5.600 
#    0.000    4.000    0.000    3.600    0.000    0.000 
#    0.000    0.000    0.000    0.000    0.000    0.000 
#
# Total GULP energy -111351.107644 kJ/mol
# GULP energy per Si atom -5567.555382 kJ/mol
# Density = 2.925383 g / cm^3
# Si number density = 29.320560 Si / 1000 Ang^3
#
#
#
# Elastic Constant Matrix: (Units=GPa)
#
#
# Indices 1 2 3 4 5 6 
#
# 1 64.8634 4.1479 36.3599 0.0000 -4.2426 0.0000
# 2 4.1479 141.3862 52.1672 0.0000 15.5747 0.0000
# 3 36.3599 52.1672 271.6925 0.0000 -48.4297 0.0000
# 4 0.0000 0.0000 0.0000 53.6826 0.0000 13.8778
# 5 -4.2426 15.5747 -48.4297 0.0000 49.9846 0.0000
# 6 0.0000 0.0000 0.0000 13.8778 0.0000 47.4974
#
#
#
# Elastic Compliance Matrix: (Units=1/GPa)
#
#
# Indices 1 2 3 4 5 6 
#
# 1 0.016743 0.000601 -0.002582 0.000000 -0.001268 0.000000
# 2 0.000601 0.008612 -0.002663 0.000000 -0.005213 0.000000
# 3 -0.002582 -0.002663 0.005616 0.000000 0.006052 0.000000
# 4 0.000000 0.000000 0.000000 0.020150 0.000000 -0.005887
# 5 -0.001268 -0.005213 0.006052 0.000000 0.027387 0.000000
# 6 0.000000 0.000000 0.000000 -0.005887 0.000000 0.022774
#
#
# Mechanical properties :
#
#
# Convention : Reuss Voigt Hill
#
# Bulk Modulus (GPa) = 46.11861 73.69912 59.90887
# Shear Modulus (GPa) = 42.44536 55.91739 49.18137
#
# Velocity S-wave (km/s) = 3.80890 4.37178 4.10001
# Velocity P-wave (km/s) = 5.92511 7.11853 6.54906
#
# Compressibility (1/GPa) = 0.02168322
#
# Stress axis : x y z
#
# Youngs Moduli (GPa) = 59.72612 116.11607 178.04980
#
# Poissons Ratio (x) = -0.06981 0.45975
# Poissons Ratio (y) = -0.03591 0.47419
# Poissons Ratio (z) = 0.15422 0.30925
#
# Static dielectric constant tensor:
#      x y z
#    x 4.406430 0.000000 -0.524300 
#    y 0.000000 1.758620 0.000000 
#    z -0.524300 0.000000 2.603560 
# 
# From -- ./inp_files/53851.got.cif
#   From: 2010.05.17/outbox.cif.g08.bks.cpg/sg14_27_cif.got.tgz:53851.got - 2010.06.03 17:49:19.
