data_PCOD9250349
_publ_section_title
;
Structure prediction by ZEFSAII (Michael W. Deem and Ramdas Pophale) SiO2 
 PCOD9250349
Probable space group: P 21/C
;
_chemical_formula_sum "Si O2"
_cell_formula_units_Z 26
_cell_length_a 5.621298
_cell_length_b 13.062906
_cell_length_c 14.283340
_cell_angle_alpha 90.000000
_cell_angle_beta 89.113907
_cell_angle_gamma 90.000000
_cell_volume 1048.707193
_symmetry_space_group_name_H-M "P 21/C"
_symmetry_group_IT_number 14
_symmetry_cell_setting 'monoclinic'
loop_
_space_group_symop_operation_xyz
x,y,z
-x,1/2+y,1/2-z
-x,-y,-z
x,1/2-y,1/2+z
loop_
_atom_site_type_symbol
_atom_site_label
_atom_site_fract_x
_atom_site_fract_y
_atom_site_fract_z
Si Si1 0.370757 0.805837 0.575245
Si Si2 0.053409 0.802180 0.749448
Si Si3 0.392993 0.967628 0.849069
Si Si4 0.316012 0.043545 0.320468
Si Si5 0.997889 0.191941 0.574239
Si Si6 0.000000 0.000000 0.500000
Si Si7 0.282590 0.129568 0.989373
O O1 0.167152 0.774181 0.649826
O O2 0.478140 0.908474 0.617200
O O3 0.245827 0.833898 0.478727
O O4 0.549239 0.713962 0.559933
O O5 0.234638 0.878943 0.802460
O O6 0.014222 0.705762 0.816062
O O7 0.809531 0.861409 0.732246
O O8 0.550945 0.017035 0.763967
O O9 0.231756 0.046079 0.909859
O O10 0.571301 0.921076 0.925998
O O11 0.110497 0.003815 0.390629
O O12 0.156521 0.102216 0.530165
O O13 0.073016 0.303406 0.534693
#
# Coordination Sequence:
#
# PCOD9250349 Si02
#       7
#     4   4   4   4   4   2   4
#     4  11  23  45  67  98 139 184 232 291 356 425
#     4  11  23  45  67 101 140 186 238 290 351 435
#     4  10  24  41  71 101 139 184 235 295 359 418
#     4  11  24  47  65 101 146 180 244 290 357 433
#     4  12  25  45  71  98 140 186 235 294 358 423
#     4  12  26  46  66 102 140 184 230 302 352 426
#     4  11  22  44  67 104 138 180 237 298 351 426
#
# _framework density 24.79243
#
# number of rings (size 3 to 8) (size 9 to 14) (size 15 to 20)
#    0.000    0.923    6.154    0.000    2.154    2.462 
#    2.769    0.000    0.000    0.000    0.000    0.000 
#    0.000    0.000    0.000    0.000    0.000    0.000 
#
# Total GULP energy -144924.569075 kJ/mol
# GULP energy per Si atom -5574.021887 kJ/mol
# Density = 2.473600 g / cm^3
# Si number density = 24.792430 Si / 1000 Ang^3
#
#
#
# Elastic Constant Matrix: (Units=GPa)
#
#
# Indices 1 2 3 4 5 6 
#
# 1 51.3149 -14.4997 31.6428 0.0000 8.5547 0.0000
# 2 -14.4997 68.4019 8.5104 0.0000 1.4991 0.0000
# 3 31.6428 8.5104 194.5768 0.0000 -8.9692 0.0000
# 4 0.0000 0.0000 0.0000 64.7990 0.0000 -1.5019
# 5 8.5547 1.4991 -8.9692 0.0000 48.2955 0.0000
# 6 0.0000 0.0000 0.0000 -1.5019 0.0000 36.7050
#
#
#
# Elastic Compliance Matrix: (Units=1/GPa)
#
#
# Indices 1 2 3 4 5 6 
#
# 1 0.024891 0.005963 -0.004559 0.000000 -0.005441 0.000000
# 2 0.005963 0.016144 -0.001763 0.000000 -0.001885 0.000000
# 3 -0.004559 -0.001763 0.006049 0.000000 0.001986 0.000000
# 4 0.000000 0.000000 0.000000 0.015447 0.000000 0.000632
# 5 -0.005441 -0.001885 0.001986 0.000000 0.022097 0.000000
# 6 0.000000 0.000000 0.000000 0.000632 0.000000 0.027270
#
#
# Mechanical properties :
#
#
# Convention : Reuss Voigt Hill
#
# Bulk Modulus (GPa) = 21.56757 40.62229 31.09493
# Shear Modulus (GPa) = 39.04040 49.20257 44.12149
#
# Velocity S-wave (km/s) = 3.97254 4.45970 4.22315
# Velocity P-wave (km/s) = 5.45524 6.55279 6.02904
#
# Compressibility (1/GPa) = 0.04636591
#
# Stress axis : x y z
#
# Youngs Moduli (GPa) = 40.17519 61.94226 165.30373
#
# Poissons Ratio (x) = -0.36935 0.75370
# Poissons Ratio (y) = -0.23956 0.29138
# Poissons Ratio (z) = 0.18318 0.10918
#
# Static dielectric constant tensor:
#      x y z
#    x 1.735630 0.000000 -0.026780 
#    y 0.000000 2.161560 0.000000 
#    z -0.026780 0.000000 1.945470 
# 
# From -- ./inp_files/37321.got.cif
#   From: 2010.05.17/outbox.cif.g08.bks.cpg/sg14_19_cif.got.tgz:37321.got - 2010.06.03 17:49:19.
