data_PCOD9250638
_publ_section_title
;
Structure prediction by ZEFSAII (Michael W. Deem and Ramdas Pophale) SiO2 
 PCOD9250638
Probable space group: P 21/C
;
_chemical_formula_sum "Si O2"
_cell_formula_units_Z 26
_cell_length_a 20.630996
_cell_length_b 4.744135
_cell_length_c 21.114331
_cell_angle_alpha 90.000000
_cell_angle_beta 151.377718
_cell_angle_gamma 90.000000
_cell_volume 989.965891
_symmetry_space_group_name_H-M "P 21/C"
_symmetry_group_IT_number 14
_symmetry_cell_setting 'monoclinic'
loop_
_space_group_symop_operation_xyz
x,y,z
-x,1/2+y,1/2-z
-x,-y,-z
x,1/2-y,1/2+z
loop_
_atom_site_type_symbol
_atom_site_label
_atom_site_fract_x
_atom_site_fract_y
_atom_site_fract_z
Si Si1 0.279500 0.428706 0.419465
Si Si2 0.596403 0.763835 0.840448
Si Si3 0.107223 0.055580 0.173915
Si Si4 0.903006 0.357380 0.164657
Si Si5 0.808872 0.366474 0.454302
Si Si6 0.500000 0.000000 0.000000
Si Si7 0.217346 0.526016 0.195976
O O1 0.334110 0.282699 0.530833
O O2 0.406904 0.505831 0.485094
O O3 0.188807 0.225129 0.297702
O O4 0.180497 0.778141 0.212634
O O5 0.462893 0.961376 0.727092
O O6 0.696812 0.901926 0.875043
O O7 0.192962 0.700592 0.367291
O O8 0.111665 0.275109 0.118509
O O9 0.956493 0.998489 0.068170
O O10 0.040279 0.170375 0.281815
O O11 0.830982 0.319030 0.035850
O O12 0.779221 0.170039 0.369144
O O13 0.364382 0.084832 0.842132
#
# Coordination Sequence:
#
# PCOD9250638 Si02
#       7
#     4   4   4   4   4   2   4
#     4  10  24  45  71 104 141 190 238 296 363 431
#     4  11  27  47  70 103 142 190 244 298 362 438
#     4  11  25  45  73 108 145 185 245 303 367 438
#     4  11  25  43  71 103 143 183 235 299 360 430
#     4  11  25  46  77 103 150 186 245 307 368 431
#     4  10  24  44  72  96 150 190 238 288 350 438
#     4  11  26  44  70 108 146 197 240 297 365 439
#
# _framework density 26.263528999999998
#
# number of rings (size 3 to 8) (size 9 to 14) (size 15 to 20)
#    0.000    1.231    1.538    1.846    4.308   16.000 
#    0.000    0.000    0.000    0.000    0.000    0.000 
#    0.000    0.000    0.000    0.000    0.000    0.000 
#
# Total GULP energy -145458.339107 kJ/mol
# GULP energy per Si atom -5594.551504 kJ/mol
# Density = 2.620375 g / cm^3
# Si number density = 26.263529 Si / 1000 Ang^3
#
#
#
# Elastic Constant Matrix: (Units=GPa)
#
#
# Indices 1 2 3 4 5 6 
#
# 1 193.7063 22.5489 41.9410 0.0000 8.0866 0.0000
# 2 22.5489 95.0833 2.1090 0.0000 -0.2270 0.0000
# 3 41.9410 2.1090 114.0005 0.0000 -0.5261 0.0000
# 4 0.0000 0.0000 0.0000 33.0109 0.0000 -7.7967
# 5 8.0866 -0.2270 -0.5261 0.0000 60.2643 0.0000
# 6 0.0000 0.0000 0.0000 -7.7967 0.0000 37.0544
#
#
#
# Elastic Compliance Matrix: (Units=1/GPa)
#
#
# Indices 1 2 3 4 5 6 
#
# 1 0.005809 -0.001333 -0.002116 0.000000 -0.000803 0.000000
# 2 -0.001333 0.010827 0.000291 0.000000 0.000222 0.000000
# 3 -0.002116 0.000291 0.009547 0.000000 0.000368 0.000000
# 4 0.000000 0.000000 0.000000 0.031877 0.000000 0.006707
# 5 -0.000803 0.000222 0.000368 0.000000 0.016705 0.000000
# 6 0.000000 0.000000 0.000000 0.006707 0.000000 0.028399
#
#
# Mechanical properties :
#
#
# Convention : Reuss Voigt Hill
#
# Bulk Modulus (GPa) = 50.33366 59.55423 54.94394
# Shear Modulus (GPa) = 43.06523 48.47867 45.77195
#
# Velocity S-wave (km/s) = 4.05376 4.30100 4.17921
# Velocity P-wave (km/s) = 6.41226 6.88402 6.65232
#
# Compressibility (1/GPa) = 0.01986742
#
# Stress axis : x y z
#
# Youngs Moduli (GPa) = 172.13684 92.35992 104.74706
#
# Poissons Ratio (x) = 0.12308 0.22168
# Poissons Ratio (y) = 0.22940 -0.03048
# Poissons Ratio (z) = 0.36430 -0.02688
#
# Static dielectric constant tensor:
#      x y z
#    x 2.096790 0.000000 -0.033710 
#    y 0.000000 2.046990 0.000000 
#    z -0.033710 0.000000 2.025410 
# 
# From -- ./inp_files/69624.got.cif
#   From: 2010.05.17/outbox.cif.g08.bks.cpg/sg14_35_cif.got.tgz:69624.got - 2010.06.03 17:49:19.
