data_PCOD9250673
_publ_section_title
;
Structure prediction by ZEFSAII (Michael W. Deem and Ramdas Pophale) SiO2 
 PCOD9250673
Probable space group: P 21/C
;
_chemical_formula_sum "Si O2"
_cell_formula_units_Z 32
_cell_length_a 12.562556
_cell_length_b 9.394977
_cell_length_c 20.974611
_cell_angle_alpha 90.000000
_cell_angle_beta 145.842018
_cell_angle_gamma 90.000000
_cell_volume 1389.950629
_symmetry_space_group_name_H-M "P 21/C"
_symmetry_group_IT_number 14
_symmetry_cell_setting 'monoclinic'
loop_
_space_group_symop_operation_xyz
x,y,z
-x,1/2+y,1/2-z
-x,-y,-z
x,1/2-y,1/2+z
loop_
_atom_site_type_symbol
_atom_site_label
_atom_site_fract_x
_atom_site_fract_y
_atom_site_fract_z
Si Si1 0.904021 0.678333 0.561116
Si Si2 0.921069 0.587482 0.866935
Si Si3 0.542661 0.731984 0.318112
Si Si4 0.237847 0.136291 0.388564
Si Si5 0.646618 0.310744 0.046490
Si Si6 0.249318 0.834334 0.770658
Si Si7 0.313375 0.521957 0.128236
Si Si8 0.950813 0.139042 0.130924
O O1 0.764136 0.694502 0.432440
O O2 0.818042 0.767468 0.578604
O O3 0.927661 0.515425 0.590614
O O4 0.107784 0.750814 0.652668
O O5 0.932439 0.751300 0.854750
O O6 0.845114 0.489852 0.770847
O O7 0.780023 0.544594 0.853877
O O8 0.133389 0.544215 0.993649
O O9 0.449726 0.662380 0.334933
O O10 0.427755 0.663861 0.203054
O O11 0.540209 0.902121 0.322532
O O12 0.421289 0.198593 0.442739
O O13 0.066047 0.128779 0.253984
O O14 0.296539 0.975093 0.436170
O O15 0.729134 0.256162 0.155073
O O16 0.747885 0.211656 0.045060
#
# Coordination Sequence:
#
# PCOD9250673 Si02
#       8
#     4   4   4   4   4   4   4   4
#     4  12  24  41  65  98 133 171 215 267 322 384
#     4  10  24  45  68  88 132 175 216 271 329 386
#     4  11  25  44  70  94 129 165 218 282 322 391
#     4  11  23  42  61  94 140 170 212 257 318 392
#     4  11  24  39  65  97 131 177 214 250 323 395
#     4  11  21  42  67  95 127 175 210 258 336 377
#     4  10  24  46  68  94 122 173 222 274 335 377
#     4  12  25  39  65  97 133 172 216 262 317 393
#
# _framework density 23.022400000000001
#
# number of rings (size 3 to 8) (size 9 to 14) (size 15 to 20)
#    0.000    1.000    5.000    0.750    3.500    3.500 
#    0.000    1.250    0.000    0.000    0.000    0.000 
#    0.000    0.000    0.000    0.000    0.000    0.000 
#
# Total GULP energy -179002.921505 kJ/mol
# GULP energy per Si atom -5593.841297 kJ/mol
# Density = 2.297000 g / cm^3
# Si number density = 23.022400 Si / 1000 Ang^3
#
#
#
# Elastic Constant Matrix: (Units=GPa)
#
#
# Indices 1 2 3 4 5 6 
#
# 1 33.0048 6.8801 1.7552 0.0000 -3.4705 0.0000
# 2 6.8801 128.9424 9.7466 0.0000 -1.9599 0.0000
# 3 1.7552 9.7466 58.9030 0.0000 8.6314 0.0000
# 4 0.0000 0.0000 0.0000 34.1535 0.0000 -2.3309
# 5 -3.4705 -1.9599 8.6314 0.0000 19.5138 0.0000
# 6 0.0000 0.0000 0.0000 -2.3309 0.0000 30.3161
#
#
#
# Elastic Compliance Matrix: (Units=1/GPa)
#
#
# Indices 1 2 3 4 5 6 
#
# 1 0.031332 -0.001458 -0.001590 0.000000 0.006129 0.000000
# 2 -0.001458 0.007961 -0.001447 0.000000 0.001180 0.000000
# 3 -0.001590 -0.001447 0.018527 0.000000 -0.008623 0.000000
# 4 0.000000 0.000000 0.000000 0.029434 0.000000 0.002263
# 5 0.006129 0.001180 -0.008623 0.000000 0.056269 0.000000
# 6 0.000000 0.000000 0.000000 0.002263 0.000000 0.033160
#
#
# Mechanical properties :
#
#
# Convention : Reuss Voigt Hill
#
# Bulk Modulus (GPa) = 20.47984 28.62379 24.55181
# Shear Modulus (GPa) = 24.75866 30.29455 27.52660
#
# Velocity S-wave (km/s) = 3.28291 3.63143 3.46156
# Velocity P-wave (km/s) = 4.82545 5.48116 5.16372
#
# Compressibility (1/GPa) = 0.04882851
#
# Stress axis : x y z
#
# Youngs Moduli (GPa) = 31.91656 125.62008 53.97394
#
# Poissons Ratio (x) = 0.18320 0.08585
# Poissons Ratio (y) = 0.04655 0.07808
# Poissons Ratio (z) = 0.05076 0.18173
#
# Static dielectric constant tensor:
#      x y z
#    x 1.880980 0.000000 -0.001690 
#    y 0.000000 1.852890 0.000000 
#    z -0.001690 0.000000 1.842490 
# 
# From -- ./inp_files/51342.got.cif
#   From: 2010.05.17/outbox.cif.g08.bks.cpg/sg14_26_cif.got.tgz:51342.got - 2010.06.03 17:49:19.
