data_PCOD9250917
_publ_section_title
;
Structure prediction by ZEFSAII (Michael W. Deem and Ramdas Pophale) SiO2 
 PCOD9250917
Probable space group: P 21/C
;
_chemical_formula_sum "Si O2"
_cell_formula_units_Z 24
_cell_length_a 4.968974
_cell_length_b 21.121238
_cell_length_c 8.907209
_cell_angle_alpha 90.000000
_cell_angle_beta 75.933509
_cell_angle_gamma 90.000000
_cell_volume 906.788254
_symmetry_space_group_name_H-M "P 21/C"
_symmetry_group_IT_number 14
_symmetry_cell_setting 'monoclinic'
loop_
_space_group_symop_operation_xyz
x,y,z
-x,1/2+y,1/2-z
-x,-y,-z
x,1/2-y,1/2+z
loop_
_atom_site_type_symbol
_atom_site_label
_atom_site_fract_x
_atom_site_fract_y
_atom_site_fract_z
Si Si1 0.767796 0.554445 0.051271
Si Si2 0.481880 0.873468 0.319570
Si Si3 0.285713 0.733970 0.367718
Si Si4 0.463807 0.945185 0.888106
Si Si5 0.816473 0.835231 0.750710
Si Si6 0.913816 0.131672 0.893424
O O1 0.413529 0.419883 0.062986
O O2 0.542028 0.535485 0.209600
O O3 0.911052 0.617867 0.104845
O O4 0.000000 0.500000 0.000000
O O5 0.355603 0.806341 0.388595
O O6 0.770149 0.861097 0.192991
O O7 0.252252 0.895009 0.229060
O O8 0.550256 0.705944 0.243365
O O9 0.025317 0.711385 0.303921
O O10 0.221462 0.697462 0.532611
O O11 0.670501 0.885959 0.882102
O O12 0.163032 0.916367 0.961147
O O13 0.500000 0.000000 0.000000
#
# Coordination Sequence:
#
# PCOD9250917 Si02
#       6
#     4   4   4   4   4   4
#     4  10  24  50  81 126 168 218 271 349 425 497
#     4  12  27  47  78 117 161 210 275 340 413 491
#     4  11  23  49  74 111 155 214 273 338 409 490
#     4   9  20  46  79 113 161 211 267 327 406 496
#     4   9  23  44  77 109 156 210 268 337 409 486
#     4  11  25  46  74 113 154 207 274 327 410 490
#
# _framework density 26.467037999999999
#
# number of rings (size 3 to 8) (size 9 to 14) (size 15 to 20)
#    1.000    0.667    0.000    4.000    2.333    1.333 
#    9.000    7.500    0.000    0.000    0.000    0.000 
#    0.000    0.000    0.000    0.000    0.000    0.000 
#
# Total GULP energy -134233.456108 kJ/mol
# GULP energy per Si atom -5593.060671 kJ/mol
# Density = 2.640680 g / cm^3
# Si number density = 26.467038 Si / 1000 Ang^3
#
#
#
# Elastic Constant Matrix: (Units=GPa)
#
#
# Indices 1 2 3 4 5 6 
#
# 1 147.5072 19.6122 28.7982 0.0000 -4.0603 0.0000
# 2 19.6122 103.2586 61.7618 0.0000 -8.7059 0.0000
# 3 28.7982 61.7618 136.0829 0.0000 4.6613 0.0000
# 4 0.0000 0.0000 0.0000 59.1129 0.0000 -4.3216
# 5 -4.0603 -8.7059 4.6613 0.0000 37.2255 0.0000
# 6 0.0000 0.0000 0.0000 -4.3216 0.0000 39.9787
#
#
#
# Elastic Compliance Matrix: (Units=1/GPa)
#
#
# Indices 1 2 3 4 5 6 
#
# 1 0.007124 -0.000501 -0.001308 0.000000 0.000824 0.000000
# 2 -0.000501 0.013911 -0.006344 0.000000 0.003993 0.000000
# 3 -0.001308 -0.006344 0.010606 0.000000 -0.002955 0.000000
# 4 0.000000 0.000000 0.000000 0.017052 0.000000 0.001843
# 5 0.000824 0.003993 -0.002955 0.000000 0.028257 0.000000
# 6 0.000000 0.000000 0.000000 0.001843 0.000000 0.025213
#
#
# Mechanical properties :
#
#
# Convention : Reuss Voigt Hill
#
# Bulk Modulus (GPa) = 65.21693 67.46590 66.34142
# Shear Modulus (GPa) = 40.45938 45.70851 43.08395
#
# Velocity S-wave (km/s) = 3.91406 4.16022 4.03902
# Velocity P-wave (km/s) = 6.71720 6.97298 6.84629
#
# Compressibility (1/GPa) = 0.01533344
#
# Stress axis : x y z
#
# Youngs Moduli (GPa) = 140.36917 71.88579 94.28673
#
# Poissons Ratio (x) = 0.03602 0.12337
# Poissons Ratio (y) = 0.07033 0.59818
# Poissons Ratio (z) = 0.18366 0.45606
#
# Static dielectric constant tensor:
#      x y z
#    x 2.051120 0.000000 0.035160 
#    y 0.000000 2.173750 0.000000 
#    z 0.035160 0.000000 2.139630 
# 
# From -- ./inp_files/21447.got.cif
#   From: 2010.05.17/outbox.cif.g08.bks.cpg/sg14_11_cif.got.tgz:21447.got - 2010.06.03 17:49:19.
