data_PCOD9250256
_publ_section_title
;
Structure prediction by ZEFSAII (Michael W. Deem and Ramdas Pophale) SiO2 
 PCOD9250256
Probable space group: P 21/C
;
_chemical_formula_sum "Si O2"
_cell_formula_units_Z 20
_cell_length_a 6.613032
_cell_length_b 10.236535
_cell_length_c 23.514101
_cell_angle_alpha 90.000000
_cell_angle_beta 143.893272
_cell_angle_gamma 90.000000
_cell_volume 938.019698
_symmetry_space_group_name_H-M "P 21/C"
_symmetry_group_IT_number 14
_symmetry_cell_setting 'monoclinic'
loop_
_space_group_symop_operation_xyz
x,y,z
-x,1/2+y,1/2-z
-x,-y,-z
x,1/2-y,1/2+z
loop_
_atom_site_type_symbol
_atom_site_label
_atom_site_fract_x
_atom_site_fract_y
_atom_site_fract_z
Si Si1 0.501278 0.256080 0.887802
Si Si2 0.701582 0.802174 0.401976
Si Si3 0.667692 0.009873 0.599579
Si Si4 0.388692 0.481876 0.607500
Si Si5 0.388803 0.144586 0.748831
O O1 0.262410 0.364068 0.861524
O O2 0.492467 0.259177 0.816762
O O3 0.411146 0.102352 0.877038
O O4 0.886511 0.282177 0.998570
O O5 0.590641 0.922120 0.415401
O O6 0.525105 0.667579 0.383136
O O7 0.584598 0.825175 0.310889
O O8 0.999178 0.100030 0.671101
O O9 0.500000 0.000000 0.500000
O O10 0.404032 0.521322 0.677707
O O11 0.000000 0.500000 0.500000
#
# Coordination Sequence:
#
# PCOD9250256 Si02
#       5
#     4   4   4   4   4
#     4   9  22  43  63  93 133 164 226 267 318 395
#     4  11  22  43  69  91 131 180 214 272 331 387
#     4  12  25  41  67  97 133 173 220 273 325 392
#     4   8  20  41  64  91 126 170 217 261 326 383
#     4  10  24  39  68  97 132 169 224 267 330 394
#
# _framework density 21.321515000000002
#
# number of rings (size 3 to 8) (size 9 to 14) (size 15 to 20)
#    1.200    0.800    2.000    0.600    5.600    0.000 
#    0.000    1.000    0.000    0.000    0.000    0.000 
#    0.000    0.000    0.000    0.000    0.000    0.000 
#
# Total GULP energy -111396.431745 kJ/mol
# GULP energy per Si atom -5569.821587 kJ/mol
# Density = 2.127299 g / cm^3
# Si number density = 21.321515 Si / 1000 Ang^3
#
#
#
# Elastic Constant Matrix: (Units=GPa)
#
#
# Indices 1 2 3 4 5 6 
#
# 1 33.5987 19.1920 20.0105 0.0000 -21.3395 0.0000
# 2 19.1920 114.2236 0.6944 0.0000 -12.6313 0.0000
# 3 20.0105 0.6944 134.5333 0.0000 -34.3714 0.0000
# 4 0.0000 0.0000 0.0000 32.6830 0.0000 -8.4870
# 5 -21.3395 -12.6313 -34.3714 0.0000 33.7879 0.0000
# 6 0.0000 0.0000 0.0000 -8.4870 0.0000 19.9219
#
#
#
# Elastic Compliance Matrix: (Units=1/GPa)
#
#
# Indices 1 2 3 4 5 6 
#
# 1 0.052713 -0.005372 0.000243 0.000000 0.031531 0.000000
# 2 -0.005372 0.009805 0.001105 0.000000 0.001398 0.000000
# 3 0.000243 0.001105 0.010182 0.000000 0.010925 0.000000
# 4 0.000000 0.000000 0.000000 0.034403 0.000000 0.014656
# 5 0.031531 0.001398 0.010925 0.000000 0.061146 0.000000
# 6 0.000000 0.000000 0.000000 0.014656 0.000000 0.056440
#
#
# Mechanical properties :
#
#
# Convention : Reuss Voigt Hill
#
# Bulk Modulus (GPa) = 15.46696 40.23879 27.85288
# Shear Modulus (GPa) = 19.66282 33.44248 26.55265
#
# Velocity S-wave (km/s) = 3.04008 3.96471 3.53277
# Velocity P-wave (km/s) = 4.42636 6.31442 5.45273
#
# Compressibility (1/GPa) = 0.06465394
#
# Stress axis : x y z
#
# Youngs Moduli (GPa) = 18.97075 101.98756 98.20824
#
# Poissons Ratio (x) = 0.54783 -0.02386
# Poissons Ratio (y) = 0.10190 -0.10856
# Poissons Ratio (z) = -0.00461 -0.11274
#
# Static dielectric constant tensor:
#      x y z
#    x 1.737260 0.000000 -0.004370 
#    y 0.000000 1.679340 0.000000 
#    z -0.004370 0.000000 1.768000 
# 
# From -- ./inp_files/63408.got.cif
#   From: 2010.05.17/outbox.cif.g08.bks.cpg/sg14_32_cif.got.tgz:63408.got - 2010.06.03 17:49:19.
