data_PCOD9250414
_publ_section_title
;
Structure prediction by ZEFSAII (Michael W. Deem and Ramdas Pophale) SiO2 
 PCOD9250414
Probable space group: P 21/C
;
_chemical_formula_sum "Si O2"
_cell_formula_units_Z 28
_cell_length_a 29.896782
_cell_length_b 5.185152
_cell_length_c 8.923134
_cell_angle_alpha 90.000000
_cell_angle_beta 115.127037
_cell_angle_gamma 90.000000
_cell_volume 1252.358719
_symmetry_space_group_name_H-M "P 21/C"
_symmetry_group_IT_number 14
_symmetry_cell_setting 'monoclinic'
loop_
_space_group_symop_operation_xyz
x,y,z
-x,1/2+y,1/2-z
-x,-y,-z
x,1/2-y,1/2+z
loop_
_atom_site_type_symbol
_atom_site_label
_atom_site_fract_x
_atom_site_fract_y
_atom_site_fract_z
Si Si1 0.635438 0.920398 0.335931
Si Si2 0.327678 0.926122 0.941116
Si Si3 0.162479 0.201042 0.387590
Si Si4 0.786450 0.439930 0.782140
Si Si5 0.877734 0.070614 0.919705
Si Si6 0.015402 0.873762 0.861436
Si Si7 0.481268 0.421686 0.308396
O O1 0.649409 0.166450 0.457981
O O2 0.663780 0.665165 0.433374
O O3 0.648508 0.991571 0.183471
O O4 0.577146 0.871117 0.267954
O O5 0.269784 0.878044 0.829441
O O6 0.193247 0.358865 0.309883
O O7 0.134007 0.370268 0.467426
O O8 0.119139 0.054828 0.238618
O O9 0.203395 0.042294 0.536771
O O10 0.826190 0.216167 0.828619
O O11 0.927443 0.212574 0.033244
O O12 0.988730 0.615521 0.761351
O O13 0.000000 0.000000 0.000000
O O14 0.492658 0.663762 0.216040
O O15 0.500000 0.500000 0.500000
#
# Coordination Sequence:
#
# PCOD9250414 Si02
#       7
#     4   4   4   4   4   4   4
#     4  12  26  48  70 108 146 190 236 302 355 423
#     4  12  28  45  73 101 152 187 239 290 369 421
#     4  10  24  42  68  99 134 174 236 281 340 404
#     4  11  25  42  70  98 136 185 233 281 346 421
#     4  11  25  43  73  98 139 176 239 281 348 421
#     4  12  29  49  76 107 145 187 235 296 369 423
#     4  12  25  45  76 105 142 189 248 295 355 421
#
# _framework density 22.357810000000001
#
# number of rings (size 3 to 8) (size 9 to 14) (size 15 to 20)
#    0.000    0.571    0.000    6.857   16.000    0.000 
#    0.000    0.000    0.000    0.000    0.000    0.000 
#    0.000    0.000    0.000    0.000    0.000    0.000 
#
# Total GULP energy -156659.099671 kJ/mol
# GULP energy per Si atom -5594.967845 kJ/mol
# Density = 2.230692 g / cm^3
# Si number density = 22.357810 Si / 1000 Ang^3
#
#
#
# Elastic Constant Matrix: (Units=GPa)
#
#
# Indices 1 2 3 4 5 6 
#
# 1 46.7634 -9.8309 6.2027 0.0000 10.5594 0.0000
# 2 -9.8309 78.8580 16.4059 0.0000 2.8288 0.0000
# 3 6.2027 16.4059 99.8663 0.0000 0.2464 0.0000
# 4 0.0000 0.0000 0.0000 11.0399 0.0000 15.0617
# 5 10.5594 2.8288 0.2464 0.0000 41.7204 0.0000
# 6 0.0000 0.0000 0.0000 15.0617 0.0000 21.8302
#
#
#
# Elastic Compliance Matrix: (Units=1/GPa)
#
#
# Indices 1 2 3 4 5 6 
#
# 1 0.023834 0.003625 -0.002060 0.000000 -0.006266 0.000000
# 2 0.003625 0.013713 -0.002473 0.000000 -0.001833 0.000000
# 3 -0.002060 -0.002473 0.010546 0.000000 0.000627 0.000000
# 4 0.000000 0.000000 0.000000 1.543034 0.000000 -1.064616
# 5 -0.006266 -0.001833 0.000627 0.000000 0.025676 0.000000
# 6 0.000000 0.000000 0.000000 -1.064616 0.000000 0.780340
#
#
# Mechanical properties :
#
#
# Convention : Reuss Voigt Hill
#
# Bulk Modulus (GPa) = 21.60953 27.89366 24.75160
# Shear Modulus (GPa) = 2.07092 29.09875 15.58484
#
# Velocity S-wave (km/s) = 0.96347 3.61155 2.64306
# Velocity P-wave (km/s) = 3.30515 5.46755 4.51764
#
# Compressibility (1/GPa) = 0.04627587
#
# Stress axis : x y z
#
# Youngs Moduli (GPa) = 41.95603 72.92225 94.82139
#
# Poissons Ratio (x) = -0.26433 0.19537
# Poissons Ratio (y) = -0.15208 0.23453
# Poissons Ratio (z) = 0.08644 0.18037
#
# Static dielectric constant tensor:
#      x y z
#    x 1.839640 0.000000 0.004600 
#    y 0.000000 5.366630 0.000000 
#    z 0.004600 0.000000 1.801890 
# 
# From -- ./inp_files/19862.got.cif
#   From: 2010.05.17/outbox.cif.g08.bks.cpg/sg14_10_cif.got.tgz:19862.got - 2010.06.03 17:49:19.
