data_PCOD9250641
_publ_section_title
;
Structure prediction by ZEFSAII (Michael W. Deem and Ramdas Pophale) SiO2 
 PCOD9250641
Probable space group: P 21/C
;
_chemical_formula_sum "Si O2"
_cell_formula_units_Z 20
_cell_length_a 15.441182
_cell_length_b 10.019215
_cell_length_c 10.812379
_cell_angle_alpha 90.000000
_cell_angle_beta 32.795852
_cell_angle_gamma 90.000000
_cell_volume 906.049917
_symmetry_space_group_name_H-M "P 21/C"
_symmetry_group_IT_number 14
_symmetry_cell_setting 'monoclinic'
loop_
_space_group_symop_operation_xyz
x,y,z
-x,1/2+y,1/2-z
-x,-y,-z
x,1/2-y,1/2+z
loop_
_atom_site_type_symbol
_atom_site_label
_atom_site_fract_x
_atom_site_fract_y
_atom_site_fract_z
Si Si1 0.703251 0.528197 0.516592
Si Si2 0.613703 0.495317 0.983850
Si Si3 0.188862 0.182582 0.600018
Si Si4 0.690904 0.481773 0.254106
Si Si5 0.186326 0.815360 0.915267
O O1 0.767389 0.667810 0.489842
O O2 0.757900 0.510285 0.311012
O O3 0.759424 0.406337 0.534095
O O4 0.510598 0.537152 0.758531
O O5 0.703193 0.630580 0.914587
O O6 0.742720 0.383936 0.793897
O O7 0.500000 0.500000 0.000000
O O8 0.232847 0.082414 0.436281
O O9 0.004147 0.181406 0.857592
O O10 0.500000 0.500000 0.500000
O O11 0.740098 0.331275 0.161390
#
# Coordination Sequence:
#
# PCOD9250641 Si02
#       5
#     4   4   4   4   4
#     4  11  27  48  73 107 144 189 253 296 361 444
#     4  10  24  44  74 100 141 189 245 294 358 434
#     4  12  26  46  74 108 148 190 242 306 372 425
#     4  12  27  46  79 104 146 198 248 299 367 442
#     4  11  27  47  71 109 148 190 240 308 370 431
#
# _framework density 22.073837000000001
#
# number of rings (size 3 to 8) (size 9 to 14) (size 15 to 20)
#    0.000    0.800    2.000    3.000   14.000    3.200 
#    0.000    0.000    0.000    0.000    0.000    0.000 
#    0.000    0.000    0.000    0.000    0.000    0.000 
#
# Total GULP energy -111904.423380 kJ/mol
# GULP energy per Si atom -5595.221169 kJ/mol
# Density = 2.202360 g / cm^3
# Si number density = 22.073837 Si / 1000 Ang^3
#
#
#
# Elastic Constant Matrix: (Units=GPa)
#
#
# Indices 1 2 3 4 5 6 
#
# 1 67.6744 32.3405 42.7724 0.0000 15.2704 0.0000
# 2 32.3405 171.1261 63.5855 0.0000 8.6319 0.0000
# 3 42.7724 63.5855 147.2354 0.0000 -32.5970 0.0000
# 4 0.0000 0.0000 0.0000********** 0.000017542.9045
# 5 15.2704 8.6319 -32.5970 0.0000 39.5151 0.0000
# 6 0.0000 0.0000 0.000017542.9045 0.0000**********
#
#
#
# Elastic Compliance Matrix: (Units=1/GPa)
#
#
# Indices 1 2 3 4 5 6 
#
# 1 0.027623 0.000763 -0.013157 0.000000 -0.021695 0.000000
# 2 0.000763 0.007852 -0.004964 0.000000 -0.006105 0.000000
# 3 -0.013157 -0.004964 0.017280 0.000000 0.020423 0.000000
# 4 0.000000 0.000000 0.000000 0.015897 0.000000 0.009535
# 5 -0.021695 -0.006105 0.020423 0.000000 0.051872 0.000000
# 6 0.000000 0.000000 0.000000 0.009535 0.000000 0.005685
#
#
# Mechanical properties :
#
#
# Convention : Reuss Voigt Hill
#
# Bulk Modulus (GPa) = 55.44022 73.71474 64.57748
# Shear Modulus (GPa) = 29.95108 -7917.12231 -3943.58561
#
# Velocity S-wave (km/s) = 3.68755 -59.95365 -42.31337
# Velocity P-wave (km/s) = 6.58035 68.98638 48.55831
#
# Compressibility (1/GPa) = 0.01803745
#
# Stress axis : x y z
#
# Youngs Moduli (GPa) = 36.20122 127.35607 57.87197
#
# Poissons Ratio (x) = -0.09714 0.76144
# Poissons Ratio (y) = -0.02761 0.28729
# Poissons Ratio (z) = 0.47631 0.63222
#
# Static dielectric constant tensor:
#      x y z
#    x 1.872580 0.000000 -0.000520 
#    y 0.000000 1.755970 0.000000 
#    z -0.000520 0.000000 1.821440 
# 
# From -- ./inp_files/33655.got.cif
#   From: 2010.05.17/outbox.cif.g08.bks.cpg/sg14_17_cif.got.tgz:33655.got - 2010.06.03 17:49:19.
