data_PCOD9250255
_publ_section_title
;
Structure prediction by ZEFSAII (Michael W. Deem and Ramdas Pophale) SiO2 
 PCOD9250255
Probable space group: P 21/C
;
_chemical_formula_sum "Si O2"
_cell_formula_units_Z 24
_cell_length_a 5.477180
_cell_length_b 19.039961
_cell_length_c 10.914911
_cell_angle_alpha 90.000000
_cell_angle_beta 68.301617
_cell_angle_gamma 90.000000
_cell_volume 1057.610683
_symmetry_space_group_name_H-M "P 21/C"
_symmetry_group_IT_number 14
_symmetry_cell_setting 'monoclinic'
loop_
_space_group_symop_operation_xyz
x,y,z
-x,1/2+y,1/2-z
-x,-y,-z
x,1/2-y,1/2+z
loop_
_atom_site_type_symbol
_atom_site_label
_atom_site_fract_x
_atom_site_fract_y
_atom_site_fract_z
Si Si1 0.792425 0.296756 0.872958
Si Si2 0.093123 0.053307 0.780640
Si Si3 0.566510 0.582154 0.999185
Si Si4 0.452595 0.523798 0.647284
Si Si5 0.624334 0.657784 0.232132
Si Si6 0.325688 0.857115 0.030035
O O1 0.682484 0.365535 0.964664
O O2 0.612654 0.296919 0.783765
O O3 0.727088 0.224854 0.953116
O O4 0.101640 0.303959 0.793129
O O5 0.227916 0.096738 0.647551
O O6 0.544167 0.109517 0.871358
O O7 0.949069 0.100191 0.911068
O O8 0.316419 0.007120 0.803185
O O9 0.500000 0.500000 0.000000
O O10 0.500000 0.500000 0.500000
O O11 0.324926 0.397442 0.887304
O O12 0.148155 0.509071 0.731777
O O13 0.504910 0.627984 0.379278
#
# Coordination Sequence:
#
# PCOD9250255 Si02
#       6
#     4   4   4   4   4   4
#     4  10  26  41  69  98 137 175 226 277 339 401
#     4  10  25  40  69  96 134 179 221 278 339 398
#     4  10  26  46  70 100 141 180 227 277 344 404
#     4  10  24  39  67  98 134 172 226 275 333 398
#     4  10  26  43  68  99 132 177 225 277 339 400
#     4  10  26  42  74  95 141 175 232 278 340 402
#
# _framework density 22.69266
#
# number of rings (size 3 to 8) (size 9 to 14) (size 15 to 20)
#    2.000    0.000    0.000    0.500   11.667    3.333 
#    0.000    0.000    0.000    0.000    0.000    0.000 
#    0.000    0.000    0.000    0.000    0.000    0.000 
#
# Total GULP energy -133665.951303 kJ/mol
# GULP energy per Si atom -5569.414638 kJ/mol
# Density = 2.264101 g / cm^3
# Si number density = 22.692660 Si / 1000 Ang^3
#
#
#
# Elastic Constant Matrix: (Units=GPa)
#
#
# Indices 1 2 3 4 5 6 
#
# 1 165.2091 20.7524 44.8869 0.0000 -16.6779 0.0000
# 2 20.7524 74.5959 3.2374 0.0000 -1.8618 0.0000
# 3 44.8869 3.2374 118.1108 0.0000 -15.4504 0.0000
# 4 0.0000 0.0000 0.0000 31.6427 0.0000 1.9598
# 5 -16.6779 -1.8618 -15.4504 0.0000 22.7056 0.0000
# 6 0.0000 0.0000 0.0000 1.9598 0.0000 8.8029
#
#
#
# Elastic Compliance Matrix: (Units=1/GPa)
#
#
# Indices 1 2 3 4 5 6 
#
# 1 0.007258 -0.001831 -0.002229 0.000000 0.003665 0.000000
# 2 -0.001831 0.013902 0.000316 0.000000 0.000010 0.000000
# 3 -0.002229 0.000316 0.009983 0.000000 0.005182 0.000000
# 4 0.000000 0.000000 0.000000 0.032045 0.000000 -0.007134
# 5 0.003665 0.000010 0.005182 0.000000 0.050261 0.000000
# 6 0.000000 0.000000 0.000000 -0.007134 0.000000 0.115187
#
#
# Mechanical properties :
#
#
# Convention : Reuss Voigt Hill
#
# Bulk Modulus (GPa) = 42.27412 55.07435 48.67424
# Shear Modulus (GPa) = 20.49113 31.89952 26.19532
#
# Velocity S-wave (km/s) = 3.00823 3.75336 3.40126
# Velocity P-wave (km/s) = 5.54395 6.56551 6.07624
#
# Compressibility (1/GPa) = 0.02365513
#
# Stress axis : x y z
#
# Youngs Moduli (GPa) = 137.76957 71.93467 100.17146
#
# Poissons Ratio (x) = 0.13172 0.22328
# Poissons Ratio (y) = 0.25227 -0.03167
# Poissons Ratio (z) = 0.30708 -0.02274
#
# Static dielectric constant tensor:
#      x y z
#    x 1.903550 0.000000 -0.007730 
#    y 0.000000 1.976560 0.000000 
#    z -0.007730 0.000000 1.826680 
# 
# From -- ./inp_files/21450.got.cif
#   From: 2010.05.17/outbox.cif.g08.bks.cpg/sg14_11_cif.got.tgz:21450.got - 2010.06.03 17:49:19.
