data_PCOD9250196
_publ_section_title
;
Structure prediction by ZEFSAII (Michael W. Deem and Ramdas Pophale) SiO2 
 PCOD9250196
Probable space group: P 21/C
;
_chemical_formula_sum "Si O2"
_cell_formula_units_Z 28
_cell_length_a 5.263263
_cell_length_b 7.933018
_cell_length_c 25.508496
_cell_angle_alpha 90.000000
_cell_angle_beta 104.604845
_cell_angle_gamma 90.000000
_cell_volume 1030.655805
_symmetry_space_group_name_H-M "P 21/C"
_symmetry_group_IT_number 14
_symmetry_cell_setting 'monoclinic'
loop_
_space_group_symop_operation_xyz
x,y,z
-x,1/2+y,1/2-z
-x,-y,-z
x,1/2-y,1/2+z
loop_
_atom_site_type_symbol
_atom_site_label
_atom_site_fract_x
_atom_site_fract_y
_atom_site_fract_z
Si Si1 0.132695 0.876794 0.237920
Si Si2 0.233032 0.259889 0.366897
Si Si3 0.305519 0.650133 0.053050
Si Si4 0.259156 0.279564 0.013935
Si Si5 0.996463 0.411099 0.146593
Si Si6 0.572429 0.675719 0.300469
Si Si7 0.347956 0.896697 0.899012
O O1 0.359702 0.735930 0.247579
O O2 0.880238 0.803280 0.195966
O O3 0.097551 0.909042 0.297527
O O4 0.223284 0.045812 0.213522
O O5 0.540013 0.213463 0.387559
O O6 0.072401 0.095470 0.377339
O O7 0.197683 0.429070 0.399611
O O8 0.256315 0.449107 0.049811
O O9 0.531138 0.682798 0.020979
O O10 0.038145 0.738323 0.020948
O O11 0.393228 0.129003 0.053037
O O12 0.833511 0.268665 0.106628
O O13 0.287668 0.341040 0.168544
O O14 0.435731 0.592598 0.343150
#
# Coordination Sequence:
#
# PCOD9250196 Si02
#       7
#     4   4   4   4   4   4   4
#     4  11  25  41  69 101 145 189 244 300 368 443
#     4  12  25  44  73 106 141 192 250 302 373 449
#     4  10  24  44  76 108 144 199 247 309 386 454
#     4  10  23  48  73 106 152 193 248 312 385 451
#     4  11  24  47  66  99 148 191 236 305 367 442
#     4  11  25  44  70 105 141 201 242 311 372 448
#     4  11  26  44  71 105 143 189 245 306 369 449
#
# _framework density 27.167169999999999
#
# number of rings (size 3 to 8) (size 9 to 14) (size 15 to 20)
#    0.000    1.143    2.857    1.714    8.000    3.429 
#    0.000    0.000    0.000    0.000    0.000    0.000 
#    0.000    0.000    0.000    0.000    0.000    0.000 
#
# Total GULP energy -157118.909610 kJ/mol
# GULP energy per Si atom -5611.389629 kJ/mol
# Density = 2.710534 g / cm^3
# Si number density = 27.167170 Si / 1000 Ang^3
#
#
#
# Elastic Constant Matrix: (Units=GPa)
#
#
# Indices 1 2 3 4 5 6 
#
# 1 121.5921 46.0780 67.4961 0.0000 40.6186 0.0000
# 2 46.0780 172.0939 64.5649 0.0000 20.1622 0.0000
# 3 67.4961 64.5649 158.4716 0.0000 57.3181 0.0000
# 4 0.0000 0.0000 0.0000 47.0841 0.0000 16.6677
# 5 40.6186 20.1622 57.3181 0.0000 61.3864 0.0000
# 6 0.0000 0.0000 0.0000 16.6677 0.0000 46.0550
#
#
#
# Elastic Compliance Matrix: (Units=1/GPa)
#
#
# Indices 1 2 3 4 5 6 
#
# 1 0.011951 -0.001630 -0.002657 0.000000 -0.004892 0.000000
# 2 -0.001630 0.007093 -0.002632 0.000000 0.001206 0.000000
# 3 -0.002657 -0.002632 0.011424 0.000000 -0.008044 0.000000
# 4 0.000000 0.000000 0.000000 0.024359 0.000000 -0.008816
# 5 -0.004892 0.001206 -0.008044 0.000000 0.026642 0.000000
# 6 0.000000 0.000000 0.000000 -0.008816 0.000000 0.024904
#
#
# Mechanical properties :
#
#
# Convention : Reuss Voigt Hill
#
# Bulk Modulus (GPa) = 60.13120 89.82617 74.97868
# Shear Modulus (GPa) = 39.76024 49.17300 44.46662
#
# Velocity S-wave (km/s) = 3.82977 4.25904 4.05010
# Velocity P-wave (km/s) = 6.46050 7.57113 7.03776
#
# Compressibility (1/GPa) = 0.01663030
#
# Stress axis : x y z
#
# Youngs Moduli (GPa) = 83.67685 140.97687 87.53709
#
# Poissons Ratio (x) = 0.22979 0.23256
# Poissons Ratio (y) = 0.13639 0.23041
# Poissons Ratio (z) = 0.22230 0.37106
#
# Static dielectric constant tensor:
#      x y z
#    x 2.084010 0.000000 -0.022500 
#    y 0.000000 2.123120 0.000000 
#    z -0.022500 0.000000 2.106540 
# 
# From -- ./inp_files/78856.got.cif
#   From: 2010.05.17/outbox.cif.g08.bks.cpg/sg14_40_cif.got.tgz:78856.got - 2010.06.03 17:49:19.
