data_PCOD9250064
_publ_section_title
;
Structure prediction by ZEFSAII (Michael W. Deem and Ramdas Pophale) SiO2 
 PCOD9250064
Probable space group: P 21/C
;
_chemical_formula_sum "Si O2"
_cell_formula_units_Z 20
_cell_length_a 17.425331
_cell_length_b 6.603893
_cell_length_c 11.686373
_cell_angle_alpha 90.000000
_cell_angle_beta 141.636764
_cell_angle_gamma 90.000000
_cell_volume 834.649091
_symmetry_space_group_name_H-M "P 21/C"
_symmetry_group_IT_number 14
_symmetry_cell_setting 'monoclinic'
loop_
_space_group_symop_operation_xyz
x,y,z
-x,1/2+y,1/2-z
-x,-y,-z
x,1/2-y,1/2+z
loop_
_atom_site_type_symbol
_atom_site_label
_atom_site_fract_x
_atom_site_fract_y
_atom_site_fract_z
Si Si1 0.386405 0.383345 0.633106
Si Si2 0.809613 0.913446 0.479973
Si Si3 0.241155 0.661856 0.618840
Si Si4 0.598850 0.542125 0.015429
Si Si5 0.991182 0.933032 0.119557
O O1 0.303628 0.225584 0.611110
O O2 0.320731 0.588927 0.601839
O O3 0.529517 0.421760 0.832684
O O4 0.383023 0.272545 0.506203
O O5 0.915257 0.777711 0.543158
O O6 0.755315 0.102394 0.348599
O O7 0.878480 0.024266 0.666845
O O8 0.102960 0.591190 0.432049
O O9 0.282193 0.546050 0.782779
O O10 0.500000 0.500000 0.000000
O O11 0.000000 0.000000 0.000000
#
# Coordination Sequence:
#
# PCOD9250064 Si02
#       5
#     4   4   4   4   4
#     4  10  24  43  70 100 145 184 232 301 355 427
#     4  11  23  45  72 104 143 189 239 296 350 436
#     4  10  23  46  69 103 139 186 242 294 356 427
#     4  10  23  46  67 102 142 183 243 291 361 429
#     4  11  23  44  69 104 146 185 240 290 360 420
#
# _framework density 23.962167000000001
#
# number of rings (size 3 to 8) (size 9 to 14) (size 15 to 20)
#    0.000    1.600    2.000    1.200    5.600    1.600 
#   10.800    0.000    0.000    0.000    0.000    0.000 
#    0.000    0.000    0.000    0.000    0.000    0.000 
#
# Total GULP energy -111450.741018 kJ/mol
# GULP energy per Si atom -5572.537051 kJ/mol
# Density = 2.390763 g / cm^3
# Si number density = 23.962167 Si / 1000 Ang^3
#
#
#
# Elastic Constant Matrix: (Units=GPa)
#
#
# Indices 1 2 3 4 5 6 
#
# 1 94.1384 46.0897 16.1483 0.0000 -8.4398 0.0000
# 2 46.0897 144.9694 30.3489 0.0000 -6.4899 0.0000
# 3 16.1483 30.3489 84.6977 0.0000 10.1912 0.0000
# 4 0.0000 0.0000 0.0000 42.3427 0.0000 -8.6699
# 5 -8.4398 -6.4899 10.1912 0.0000 35.6353 0.0000
# 6 0.0000 0.0000 0.0000 -8.6699 0.0000 37.3744
#
#
#
# Elastic Compliance Matrix: (Units=1/GPa)
#
#
# Indices 1 2 3 4 5 6 
#
# 1 0.012929 -0.003673 -0.001488 0.000000 0.002819 0.000000
# 2 -0.003673 0.008671 -0.002581 0.000000 0.001447 0.000000
# 3 -0.001488 -0.002581 0.013581 0.000000 -0.004707 0.000000
# 4 0.000000 0.000000 0.000000 0.024795 0.000000 0.005752
# 5 0.002819 0.001447 -0.004707 0.000000 0.030339 0.000000
# 6 0.000000 0.000000 0.000000 0.005752 0.000000 0.028091
#
#
# Mechanical properties :
#
#
# Convention : Reuss Voigt Hill
#
# Bulk Modulus (GPa) = 50.76733 56.55324 53.66028
# Shear Modulus (GPa) = 35.59870 38.48505 37.04188
#
# Velocity S-wave (km/s) = 3.85856 4.01193 3.93599
# Velocity P-wave (km/s) = 6.40966 6.71663 6.56494
#
# Compressibility (1/GPa) = 0.01969771
#
# Stress axis : x y z
#
# Youngs Moduli (GPa) = 77.34692 115.33051 73.62960
#
# Poissons Ratio (x) = 0.42357 0.10957
# Poissons Ratio (y) = 0.28407 0.19002
# Poissons Ratio (z) = 0.11510 0.29765
#
# Static dielectric constant tensor:
#      x y z
#    x 2.000360 0.000000 0.046440 
#    y 0.000000 1.994010 0.000000 
#    z 0.046440 0.000000 2.047330 
# 
# From -- ./inp_files/34631.got.cif
#   From: 2010.05.17/outbox.cif.g08.bks.cpg/sg14_18_cif.got.tgz:34631.got - 2010.06.03 17:49:19.
