data_PCOD9250195
_publ_section_title
;
Structure prediction by ZEFSAII (Michael W. Deem and Ramdas Pophale) SiO2 
 PCOD9250195
Probable space group: P 21/C
;
_chemical_formula_sum "Si O2"
_cell_formula_units_Z 30
_cell_length_a 14.945647
_cell_length_b 9.444818
_cell_length_c 9.483902
_cell_angle_alpha 90.000000
_cell_angle_beta 65.140061
_cell_angle_gamma 90.000000
_cell_volume 1214.687486
_symmetry_space_group_name_H-M "P 21/C"
_symmetry_group_IT_number 14
_symmetry_cell_setting 'monoclinic'
loop_
_space_group_symop_operation_xyz
x,y,z
-x,1/2+y,1/2-z
-x,-y,-z
x,1/2-y,1/2+z
loop_
_atom_site_type_symbol
_atom_site_label
_atom_site_fract_x
_atom_site_fract_y
_atom_site_fract_z
Si Si1 0.880470 0.919303 0.225178
Si Si2 0.094085 0.827558 0.004129
Si Si3 0.115232 0.503850 0.960046
Si Si4 0.562295 0.353492 0.470193
Si Si5 0.500000 0.000000 0.500000
Si Si6 0.760604 0.025066 0.873453
Si Si7 0.318495 0.126882 0.799792
Si Si8 0.533055 0.656251 0.194364
O O1 0.782835 0.863008 0.215754
O O2 0.979000 0.831542 0.123599
O O3 0.867976 0.932386 0.400520
O O4 0.896634 0.073884 0.140914
O O5 0.134790 0.671777 0.954775
O O6 0.157038 0.895458 0.088896
O O7 0.181358 0.447394 0.788858
O O8 0.000000 0.500000 0.000000
O O9 0.500000 0.500000 0.500000
O O10 0.674992 0.379104 0.360490
O O11 0.506385 0.223805 0.428222
O O12 0.554787 0.324218 0.640147
O O13 0.393062 0.032754 0.656744
O O14 0.445113 0.002355 0.378416
O O15 0.704071 0.932063 0.028355
O O16 0.375441 0.271895 0.793540
#
# Coordination Sequence:
#
# PCOD9250195 Si02
#       8
#     4   4   4   4   2   4   4   4
#     4  10  24  47  75 107 152 199 248 314 383 458
#     4  10  23  48  73 105 153 194 251 314 376 458
#     4  12  25  45  74 114 147 197 252 315 382 457
#     4  12  26  47  73 110 149 197 252 317 372 457
#     4  12  24  46  74 108 152 194 260 304 380 454
#     4  11  24  46  75 105 147 192 253 307 376 449
#     4  11  25  50  73 109 151 201 248 310 380 451
#     4  12  25  48  74 104 152 196 249 313 377 450
#
# _framework density 24.697710000000001
#
# number of rings (size 3 to 8) (size 9 to 14) (size 15 to 20)
#    0.000    0.800    5.333    0.800    1.867    3.200 
#    7.200    0.000    0.000    0.000    0.000    0.000 
#    0.000    0.000    0.000    0.000    0.000    0.000 
#
# Total GULP energy -167525.530880 kJ/mol
# GULP energy per Si atom -5584.184363 kJ/mol
# Density = 2.464150 g / cm^3
# Si number density = 24.697710 Si / 1000 Ang^3
#
#
#
# Elastic Constant Matrix: (Units=GPa)
#
#
# Indices 1 2 3 4 5 6 
#
# 1 140.0587 3.6101 45.6039 0.0000 -15.5875 0.0000
# 2 3.6101 55.3888 18.7312 0.0000 -9.1384 0.0000
# 3 45.6039 18.7312 172.7755 0.0000 -13.7449 0.0000
# 4 0.0000 0.0000 0.0000 20.7624 0.0000 2.7268
# 5 -15.5875 -9.1384 -13.7449 0.0000 46.1547 0.0000
# 6 0.0000 0.0000 0.0000 2.7268 0.0000 28.3925
#
#
#
# Elastic Compliance Matrix: (Units=1/GPa)
#
#
# Indices 1 2 3 4 5 6 
#
# 1 0.008024 0.000518 -0.001998 0.000000 0.002218 0.000000
# 2 0.000518 0.019242 -0.001952 0.000000 0.003404 0.000000
# 3 -0.001998 -0.001952 0.006599 0.000000 0.000904 0.000000
# 4 0.000000 0.000000 0.000000 0.048779 0.000000 -0.004685
# 5 0.002218 0.003404 0.000904 0.000000 0.023358 0.000000
# 6 0.000000 0.000000 0.000000 -0.004685 0.000000 0.035671
#
#
# Mechanical properties :
#
#
# Convention : Reuss Voigt Hill
#
# Bulk Modulus (GPa) = 37.03457 56.01259 46.52358
# Shear Modulus (GPa) = 31.73880 39.08045 35.40963
#
# Velocity S-wave (km/s) = 3.58871 3.98219 3.79056
# Velocity P-wave (km/s) = 5.67446 6.62362 6.16732
#
# Compressibility (1/GPa) = 0.02700180
#
# Stress axis : x y z
#
# Youngs Moduli (GPa) = 124.63016 51.96930 151.54528
#
# Poissons Ratio (x) = -0.02694 0.30273
# Poissons Ratio (y) = -0.06461 0.29584
# Poissons Ratio (z) = 0.24897 0.10145
#
# Static dielectric constant tensor:
#      x y z
#    x 1.866380 0.000000 -0.004570 
#    y 0.000000 1.782510 0.000000 
#    z -0.004570 0.000000 1.903810 
# 
# From -- ./inp_files/15703.got.cif
#   From: 2010.05.17/outbox.cif.g08.bks.cpg/sg14_8_cif.got.tgz:15703.got - 2010.06.03 17:49:19.
