data_PCOD9250284
_publ_section_title
;
Structure prediction by ZEFSAII (Michael W. Deem and Ramdas Pophale) SiO2 
 PCOD9250284
Probable space group: P 21/C
;
_chemical_formula_sum "Si O2"
_cell_formula_units_Z 32
_cell_length_a 27.780568
_cell_length_b 4.919534
_cell_length_c 8.669604
_cell_angle_alpha 90.000000
_cell_angle_beta 105.765323
_cell_angle_gamma 90.000000
_cell_volume 1140.281595
_symmetry_space_group_name_H-M "P 21/C"
_symmetry_group_IT_number 14
_symmetry_cell_setting 'monoclinic'
loop_
_space_group_symop_operation_xyz
x,y,z
-x,1/2+y,1/2-z
-x,-y,-z
x,1/2-y,1/2+z
loop_
_atom_site_type_symbol
_atom_site_label
_atom_site_fract_x
_atom_site_fract_y
_atom_site_fract_z
Si Si1 0.560880 0.296861 0.615860
Si Si2 0.966952 0.530182 0.233148
Si Si3 0.637967 0.508812 0.366996
Si Si4 0.164634 0.025233 0.912242
Si Si5 0.295777 0.138669 0.804594
Si Si6 0.901243 0.291158 0.909756
Si Si7 0.767933 0.029056 0.533792
Si Si8 0.547038 0.866155 0.349192
O O1 0.509869 0.186152 0.654942
O O2 0.550086 0.602354 0.664689
O O3 0.613058 0.227317 0.745431
O O4 0.562008 0.130623 0.460403
O O5 0.941180 0.406203 0.361935
O O6 0.984838 0.838773 0.257686
O O7 0.928911 0.472627 0.061075
O O8 0.677875 0.463478 0.537434
O O9 0.663924 0.707107 0.267170
O O10 0.590725 0.649156 0.411284
O O11 0.125864 0.976223 0.740745
O O12 0.211869 0.829115 0.918007
O O13 0.184031 0.330030 0.945365
O O14 0.139290 0.901351 0.042280
O O15 0.263933 0.375843 0.862369
O O16 0.262728 0.977540 0.652169
#
# Coordination Sequence:
#
# PCOD9250284 Si02
#       8
#     4   4   4   4   4   4   4   4
#     4  11  24  40  64  91 124 168 208 262 321 379
#     4  11  24  41  62  95 148 189 222 271 330 397
#     4  11  22  46  58  94 128 156 214 258 312 413
#     4  11  24  44  72  96 132 164 234 292 334 397
#     4  10  24  44  64  89 128 165 206 266 344 424
#     4  10  24  40  68 103 128 183 234 278 332 390
#     4  11  24  47  68  97 128 175 214 289 360 399
#     4  11  24  40  64  91 124 168 208 262 321 379
#
# _framework density 28.063244999999998
#
# number of rings (size 3 to 8) (size 9 to 14) (size 15 to 20)
#    0.000    1.250    2.500    2.250    1.750    6.500 
#   13.500    0.000    0.000    0.000    0.000    0.000 
#    0.000    0.000    0.000    0.000    0.000    0.000 
#
# Total GULP energy -179669.797645 kJ/mol
# GULP energy per Si atom -5614.681176 kJ/mol
# Density = 2.799937 g / cm^3
# Si number density = 28.063245 Si / 1000 Ang^3
#
#
#
# Elastic Constant Matrix: (Units=GPa)
#
#
# Indices 1 2 3 4 5 6 
#
# 1 122.5069 17.2176 20.7833 0.0000 1.8070 0.0000
# 2 17.2176 88.9641 13.0492 0.0000 9.8691 0.0000
# 3 20.7833 13.0492 105.9290 0.0000 21.1890 0.0000
# 4 0.0000 0.0000 0.0000 21.3461 0.0000 -1.3657
# 5 1.8070 9.8691 21.1890 0.0000 48.5969 0.0000
# 6 0.0000 0.0000 0.0000 -1.3657 0.0000 38.1467
#
#
#
# Elastic Compliance Matrix: (Units=1/GPa)
#
#
# Indices 1 2 3 4 5 6 
#
# 1 0.008645 -0.001509 -0.001651 0.000000 0.000705 0.000000
# 2 -0.001509 0.011869 -0.000762 0.000000 -0.002022 0.000000
# 3 -0.001651 -0.000762 0.010753 0.000000 -0.004472 0.000000
# 4 0.000000 0.000000 0.000000 0.046955 0.000000 0.001681
# 5 0.000705 -0.002022 -0.004472 0.000000 0.022912 0.000000
# 6 0.000000 0.000000 0.000000 0.001681 0.000000 0.026275
#
#
# Mechanical properties :
#
#
# Convention : Reuss Voigt Hill
#
# Bulk Modulus (GPa) = 42.69427 46.61114 44.65271
# Shear Modulus (GPa) = 34.95086 39.37458 37.16272
#
# Velocity S-wave (km/s) = 3.53290 3.74982 3.64297
# Velocity P-wave (km/s) = 5.64698 5.94925 5.80008
#
# Compressibility (1/GPa) = 0.02342234
#
# Stress axis : x y z
#
# Youngs Moduli (GPa) = 115.67886 84.25625 93.00029
#
# Poissons Ratio (x) = 0.12715 0.15356
# Poissons Ratio (y) = 0.17456 0.07082
# Poissons Ratio (z) = 0.19101 0.06416
#
# Static dielectric constant tensor:
#      x y z
#    x 2.180610 0.000000 -0.045630 
#    y 0.000000 2.178300 0.000000 
#    z -0.045630 0.000000 2.224790 
# 
# From -- ./inp_files/19896.got.cif
#   From: 2010.05.17/outbox.cif.g08.bks.cpg/sg14_10_cif.got.tgz:19896.got - 2010.06.03 17:49:19.
