data_PCOD9250117
_publ_section_title
;
Structure prediction by ZEFSAII (Michael W. Deem and Ramdas Pophale) SiO2 
 PCOD9250117
Probable space group: P 21/C
;
_chemical_formula_sum "Si O2"
_cell_formula_units_Z 18
_cell_length_a 10.061589
_cell_length_b 9.133487
_cell_length_c 9.991292
_cell_angle_alpha 90.000000
_cell_angle_beta 135.270984
_cell_angle_gamma 90.000000
_cell_volume 646.168932
_symmetry_space_group_name_H-M "P 21/C"
_symmetry_group_IT_number 14
_symmetry_cell_setting 'monoclinic'
loop_
_space_group_symop_operation_xyz
x,y,z
-x,1/2+y,1/2-z
-x,-y,-z
x,1/2-y,1/2+z
loop_
_atom_site_type_symbol
_atom_site_label
_atom_site_fract_x
_atom_site_fract_y
_atom_site_fract_z
Si Si1 0.930280 0.961698 0.261464
Si Si2 0.000000 0.000000 0.000000
Si Si3 0.459298 0.622289 0.722175
Si Si4 0.324399 0.189989 0.346562
Si Si5 0.279967 0.615333 0.177638
O O1 0.835486 0.808377 0.231343
O O2 0.129482 0.971210 0.479595
O O3 0.795472 0.087499 0.226927
O O4 0.958352 0.966909 0.126523
O O5 0.784468 0.938813 0.804487
O O6 0.542152 0.726215 0.662736
O O7 0.519541 0.464238 0.704623
O O8 0.271105 0.715738 0.627305
O O9 0.569167 0.640662 0.943010
#
# Coordination Sequence:
#
# PCOD9250117 Si02
#       5
#     4   2   4   4   4
#     4  10  23  46  76 105 142 197 249 302 364 451
#     4  12  22  46  82 104 144 198 250 308 358 452
#     4  11  24  46  70 104 152 187 241 312 370 439
#     4  11  24  45  70 108 145 190 249 305 371 439
#     4  10  24  47  72 108 150 191 244 304 373 439
#
# _framework density 27.856491999999999
#
# number of rings (size 3 to 8) (size 9 to 14) (size 15 to 20)
#    0.000    1.333    4.444    0.000    0.000    6.222 
#    8.000    0.000    0.000    0.000    0.000    0.000 
#    0.000    0.000    0.000    0.000    0.000    0.000 
#
# Total GULP energy -100484.077335 kJ/mol
# GULP energy per Si atom -5582.448741 kJ/mol
# Density = 2.779309 g / cm^3
# Si number density = 27.856492 Si / 1000 Ang^3
#
#
#
# Elastic Constant Matrix: (Units=GPa)
#
#
# Indices 1 2 3 4 5 6 
#
# 1 73.3291 16.1627 32.5926 0.0000 -33.1026 0.0000
# 2 16.1627 114.5854 -19.0739 0.0000 -3.1320 0.0000
# 3 32.5926 -19.0739 147.8607 0.0000 -13.7630 0.0000
# 4 0.0000 0.0000 0.0000 36.0615 0.0000 -0.0844
# 5 -33.1026 -3.1320 -13.7630 0.0000 65.5677 0.0000
# 6 0.0000 0.0000 0.0000 -0.0844 0.0000 49.7570
#
#
#
# Elastic Compliance Matrix: (Units=1/GPa)
#
#
# Indices 1 2 3 4 5 6 
#
# 1 0.020343 -0.003290 -0.004046 0.000000 0.009264 0.000000
# 2 -0.003290 0.009481 0.001872 0.000000 -0.000815 0.000000
# 3 -0.004046 0.001872 0.007868 0.000000 -0.000302 0.000000
# 4 0.000000 0.000000 0.000000 0.027731 0.000000 0.000047
# 5 0.009264 -0.000815 -0.000302 0.000000 0.019826 0.000000
# 6 0.000000 0.000000 0.000000 0.000047 0.000000 0.020098
#
#
# Mechanical properties :
#
#
# Convention : Reuss Voigt Hill
#
# Bulk Modulus (GPa) = 37.36318 43.90420 40.63369
# Shear Modulus (GPa) = 39.93788 50.68347 45.31067
#
# Velocity S-wave (km/s) = 3.79053 4.27013 4.03746
# Velocity P-wave (km/s) = 5.70959 6.33301 6.02936
#
# Compressibility (1/GPa) = 0.02676432
#
# Stress axis : x y z
#
# Youngs Moduli (GPa) = 49.15814 105.47943 127.08993
#
# Poissons Ratio (x) = 0.34700 0.51422
# Poissons Ratio (y) = 0.16172 -0.23795
# Poissons Ratio (z) = 0.19890 -0.19748
#
# Static dielectric constant tensor:
#      x y z
#    x 2.142500 0.000000 0.074710 
#    y 0.000000 2.223560 0.000000 
#    z 0.074710 0.000000 2.089770 
# 
# From -- ./inp_files/7747.got.cif
#   From: 2010.05.17/outbox.cif.g08.bks.cpg/sg14_4_cif.got.tgz:7747.got - 2010.06.03 17:49:19.
