data_PCOD9250201
_publ_section_title
;
Structure prediction by ZEFSAII (Michael W. Deem and Ramdas Pophale) SiO2 
 PCOD9250201
Probable space group: P 21/C
;
_chemical_formula_sum "Si O2"
_cell_formula_units_Z 22
_cell_length_a 10.967265
_cell_length_b 8.266242
_cell_length_c 8.935154
_cell_angle_alpha 90.000000
_cell_angle_beta 97.903024
_cell_angle_gamma 90.000000
_cell_volume 802.350158
_symmetry_space_group_name_H-M "P 21/C"
_symmetry_group_IT_number 14
_symmetry_cell_setting 'monoclinic'
loop_
_space_group_symop_operation_xyz
x,y,z
-x,1/2+y,1/2-z
-x,-y,-z
x,1/2-y,1/2+z
loop_
_atom_site_type_symbol
_atom_site_label
_atom_site_fract_x
_atom_site_fract_y
_atom_site_fract_z
Si Si1 0.420087 0.675416 0.437876
Si Si2 0.845006 0.070789 0.121689
Si Si3 0.287270 0.478881 0.983132
Si Si4 0.602184 0.728336 0.725195
Si Si5 0.000000 0.000000 0.500000
Si Si6 0.038263 0.673888 0.649816
O O1 0.299760 0.564145 0.405384
O O2 0.512347 0.646548 0.589103
O O3 0.501643 0.674616 0.304479
O O4 0.366720 0.859936 0.457389
O O5 0.880598 0.229364 0.220002
O O6 0.850674 0.036690 0.503917
O O7 0.883940 0.069920 0.954258
O O8 0.333541 0.383877 0.139218
O O9 0.307172 0.350279 0.850132
O O10 0.973195 0.810266 0.542191
O O11 0.936896 0.938826 0.213333
#
# Coordination Sequence:
#
# PCOD9250201 Si02
#       6
#     4   4   4   4   2   4
#     4  11  23  50  79 116 170 219 273 349 406 494
#     4  11  24  46  77 120 160 230 267 334 425 479
#     4  11  26  51  80 116 169 220 270 358 414 490
#     4  10  23  48  81 118 158 221 281 330 420 490
#     4  12  26  52  76 116 168 212 272 350 402 500
#     4  11  25  46  76 114 170 209 276 341 411 486
#
# _framework density 27.419450000000001
#
# number of rings (size 3 to 8) (size 9 to 14) (size 15 to 20)
#    0.000    1.091    1.818    4.364    0.000    2.909 
#   13.091    7.273    0.000    4.364    0.000    0.000 
#    0.000    0.000    0.000    0.000    0.000    0.000 
#
# Total GULP energy -122995.961926 kJ/mol
# GULP energy per Si atom -5590.725542 kJ/mol
# Density = 2.735704 g / cm^3
# Si number density = 27.419450 Si / 1000 Ang^3
#
#
#
# Elastic Constant Matrix: (Units=GPa)
#
#
# Indices 1 2 3 4 5 6 
#
# 1 203.5991 66.7212 74.1047 0.0000 -12.6307 0.0000
# 2 66.7212 89.7012 29.8681 0.0000 1.5272 0.0000
# 3 74.1047 29.8681 144.2537 0.0000 -24.6270 0.0000
# 4 0.0000 0.0000 0.0000 58.7262 0.0000 9.5675
# 5 -12.6307 1.5272 -24.6270 0.0000 47.1920 0.0000
# 6 0.0000 0.0000 0.0000 9.5675 0.0000 50.6360
#
#
#
# Elastic Compliance Matrix: (Units=1/GPa)
#
#
# Indices 1 2 3 4 5 6 
#
# 1 0.007489 -0.004664 -0.002759 0.000000 0.000715 0.000000
# 2 -0.004664 0.015026 -0.001111 0.000000 -0.002314 0.000000
# 3 -0.002759 -0.001111 0.009287 0.000000 0.004144 0.000000
# 4 0.000000 0.000000 0.000000 0.017569 0.000000 -0.003320
# 5 0.000715 -0.002314 0.004144 0.000000 0.023619 0.000000
# 6 0.000000 0.000000 0.000000 -0.003320 0.000000 0.020376
#
#
# Mechanical properties :
#
#
# Convention : Reuss Voigt Hill
#
# Bulk Modulus (GPa) = 67.86507 86.54911 77.20709
# Shear Modulus (GPa) = 43.34863 49.10150 46.22506
#
# Velocity S-wave (km/s) = 3.98042 4.23632 4.11036
# Velocity P-wave (km/s) = 6.77713 7.45399 7.12360
#
# Compressibility (1/GPa) = 0.01473512
#
# Stress axis : x y z
#
# Youngs Moduli (GPa) = 133.53700 66.55083 107.67663
#
# Poissons Ratio (x) = 0.31036 0.29711
# Poissons Ratio (y) = 0.62275 0.11958
# Poissons Ratio (z) = 0.36846 0.07391
#
# Static dielectric constant tensor:
#      x y z
#    x 2.133620 0.000000 0.177350 
#    y 0.000000 2.174210 0.000000 
#    z 0.177350 0.000000 2.599500 
# 
# From -- ./inp_files/14963.got.cif
#   From: 2010.05.17/outbox.cif.g08.bks.cpg/sg14_8_cif.got.tgz:14963.got - 2010.06.03 17:49:19.
