data_PCOD9250807
_publ_section_title
;
Structure prediction by ZEFSAII (Michael W. Deem and Ramdas Pophale) SiO2 
 PCOD9250807
Probable space group: P 21/C
;
_chemical_formula_sum "Si O2"
_cell_formula_units_Z 32
_cell_length_a 13.282201
_cell_length_b 7.909955
_cell_length_c 18.730649
_cell_angle_alpha 90.000000
_cell_angle_beta 134.580042
_cell_angle_gamma 90.000000
_cell_volume 1401.657472
_symmetry_space_group_name_H-M "P 21/C"
_symmetry_group_IT_number 14
_symmetry_cell_setting 'monoclinic'
loop_
_space_group_symop_operation_xyz
x,y,z
-x,1/2+y,1/2-z
-x,-y,-z
x,1/2-y,1/2+z
loop_
_atom_site_type_symbol
_atom_site_label
_atom_site_fract_x
_atom_site_fract_y
_atom_site_fract_z
Si Si1 0.554527 0.269048 0.997294
Si Si2 0.377273 0.100971 0.025508
Si Si3 0.895524 0.408985 0.391266
Si Si4 0.603832 0.561041 0.203845
Si Si5 0.135958 0.835923 0.381997
Si Si6 0.152958 0.933334 0.553859
Si Si7 0.399489 0.199198 0.674560
Si Si8 0.931897 0.943297 0.159547
O O1 0.449857 0.389195 0.901065
O O2 0.576353 0.091919 0.964807
O O3 0.490262 0.215427 0.040626
O O4 0.711564 0.343031 0.079806
O O5 0.357692 0.153229 0.097792
O O6 0.225617 0.129141 0.912761
O O7 0.769567 0.528641 0.299631
O O8 0.829696 0.244855 0.396914
O O9 0.000000 0.500000 0.500000
O O10 0.986951 0.361049 0.366956
O O11 0.555274 0.714842 0.230211
O O12 0.520422 0.403179 0.194617
O O13 0.154012 0.908634 0.469500
O O14 0.089361 0.641153 0.367251
O O15 0.020488 0.924177 0.275371
O O16 0.272696 0.071020 0.628875
O O17 0.000000 0.000000 0.500000
#
# Coordination Sequence:
#
# PCOD9250807 Si02
#       8
#     4   4   4   4   4   4   4   4
#     4  10  24  48  70 103 142 183 239 291 352 421
#     4  10  24  46  74  99 142 189 229 292 350 422
#     4  12  26  47  72 104 140 185 235 298 358 424
#     4  12  26  43  72 101 140 181 233 286 355 419
#     4  11  26  46  69 106 142 187 236 298 343 431
#     4  12  26  46  71 101 146 187 235 296 355 420
#     4  12  26  43  71 102 140 181 233 289 347 427
#     4  11  26  44  73 103 146 184 239 286 362 422
#
# _framework density 22.830113000000001
#
# number of rings (size 3 to 8) (size 9 to 14) (size 15 to 20)
#    0.000    0.750    2.500    3.750    8.750    0.500 
#    2.250    0.000    0.000    0.000    0.000    0.000 
#    0.000    0.000    0.000    0.000    0.000    0.000 
#
# Total GULP energy -179274.380305 kJ/mol
# GULP energy per Si atom -5602.324385 kJ/mol
# Density = 2.277815 g / cm^3
# Si number density = 22.830113 Si / 1000 Ang^3
#
#
#
# Elastic Constant Matrix: (Units=GPa)
#
#
# Indices 1 2 3 4 5 6 
#
# 1 75.7132 18.8664 10.3803 0.0000 15.4280 0.0000
# 2 18.8664 52.9497 8.3559 0.0000 -1.7816 0.0000
# 3 10.3803 8.3559 75.1603 0.0000 9.2079 0.0000
# 4 0.0000 0.0000 0.0000 40.4059 0.0000 -1.8030
# 5 15.4280 -1.7816 9.2079 0.0000 35.2942 0.0000
# 6 0.0000 0.0000 0.0000 -1.8030 0.0000 43.0375
#
#
#
# Elastic Compliance Matrix: (Units=1/GPa)
#
#
# Indices 1 2 3 4 5 6 
#
# 1 0.016251 -0.005922 -0.000701 0.000000 -0.007220 0.000000
# 2 -0.005922 0.021467 -0.002085 0.000000 0.004216 0.000000
# 3 -0.000701 -0.002085 0.014058 0.000000 -0.003466 0.000000
# 4 0.000000 0.000000 0.000000 0.024795 0.000000 0.001039
# 5 -0.007220 0.004216 -0.003466 0.000000 0.032606 0.000000
# 6 0.000000 0.000000 0.000000 0.001039 0.000000 0.023279
#
#
# Mechanical properties :
#
#
# Convention : Reuss Voigt Hill
#
# Bulk Modulus (GPa) = 29.10554 31.00315 30.05435
# Shear Modulus (GPa) = 30.99284 34.82888 32.91086
#
# Velocity S-wave (km/s) = 3.68848 3.91009 3.80090
# Velocity P-wave (km/s) = 5.56024 5.83048 5.69696
#
# Compressibility (1/GPa) = 0.03435772
#
# Stress axis : x y z
#
# Youngs Moduli (GPa) = 61.53541 46.58306 71.13258
#
# Poissons Ratio (x) = 0.27589 0.04990
# Poissons Ratio (y) = 0.36444 0.14833
# Poissons Ratio (z) = 0.04317 0.09714
#
# Static dielectric constant tensor:
#      x y z
#    x 1.813940 0.000000 0.013890 
#    y 0.000000 1.864430 0.000000 
#    z 0.013890 0.000000 1.819480 
# 
# From -- ./inp_files/68108.got.cif
#   From: 2010.05.17/outbox.cif.g08.bks.cpg/sg14_35_cif.got.tgz:68108.got - 2010.06.03 17:49:19.
