data_PCOD9250731
_publ_section_title
;
Structure prediction by ZEFSAII (Michael W. Deem and Ramdas Pophale) SiO2 
 PCOD9250731
Probable space group: P 21/C
;
_chemical_formula_sum "Si O2"
_cell_formula_units_Z 16
_cell_length_a 7.943329
_cell_length_b 7.631388
_cell_length_c 11.366588
_cell_angle_alpha 90.000000
_cell_angle_beta 65.212954
_cell_angle_gamma 90.000000
_cell_volume 625.548468
_symmetry_space_group_name_H-M "P 21/C"
_symmetry_group_IT_number 14
_symmetry_cell_setting 'monoclinic'
loop_
_space_group_symop_operation_xyz
x,y,z
-x,1/2+y,1/2-z
-x,-y,-z
x,1/2-y,1/2+z
loop_
_atom_site_type_symbol
_atom_site_label
_atom_site_fract_x
_atom_site_fract_y
_atom_site_fract_z
Si Si1 0.359246 0.076820 0.742718
Si Si2 0.052023 0.206806 0.987675
Si Si3 0.389149 0.079553 0.140008
Si Si4 0.963739 0.479794 0.823856
O O1 0.256643 0.192562 0.873108
O O2 0.424835 0.213032 0.626458
O O3 0.518943 0.982276 0.765056
O O4 0.198365 0.968363 0.724909
O O5 0.941702 0.320887 0.922625
O O6 0.045935 0.334557 0.102728
O O7 0.000000 0.000000 0.000000
O O8 0.170419 0.035203 0.208048
O O9 0.500000 0.000000 0.000000
#
# Coordination Sequence:
#
# PCOD9250731 Si02
#       4
#     4   4   4   4
#     4  11  26  45  75 110 145 196 249 297 381 439
#     4  10  24  45  77 105 143 197 243 306 373 430
#     4  11  27  48  74 109 151 193 246 311 372 438
#     4  10  25  49  72 108 147 192 253 300 368 448
#
# _framework density 25.577552000000001
#
# number of rings (size 3 to 8) (size 9 to 14) (size 15 to 20)
#    0.000    1.500    0.000    1.500   14.000    0.000 
#    0.000   12.500    0.000    0.000    0.000    0.000 
#    0.000    0.000    0.000    0.000    0.000    0.000 
#
# Total GULP energy -89511.691656 kJ/mol
# GULP energy per Si atom -5594.480728 kJ/mol
# Density = 2.551934 g / cm^3
# Si number density = 25.577552 Si / 1000 Ang^3
#
#
#
# Elastic Constant Matrix: (Units=GPa)
#
#
# Indices 1 2 3 4 5 6 
#
# 1 143.6274 55.3272 39.6543 0.0000 35.0098 0.0000
# 2 55.3272 185.7644 48.9128 0.0000 9.9231 0.0000
# 3 39.6543 48.9128 84.4154 0.0000 11.2152 0.0000
# 4 0.0000 0.0000 0.0000 49.7363 0.0000 4.6303
# 5 35.0098 9.9231 11.2152 0.0000 39.4352 0.0000
# 6 0.0000 0.0000 0.0000 4.6303 0.0000 46.2324
#
#
#
# Elastic Compliance Matrix: (Units=1/GPa)
#
#
# Indices 1 2 3 4 5 6 
#
# 1 0.010407 -0.001965 -0.002690 0.000000 -0.007980 0.000000
# 2 -0.001965 0.006736 -0.003104 0.000000 0.000932 0.000000
# 3 -0.002690 -0.003104 0.015056 0.000000 -0.001113 0.000000
# 4 0.000000 0.000000 0.000000 0.020295 0.000000 -0.002033
# 5 -0.007980 0.000932 -0.001113 0.000000 0.032524 0.000000
# 6 0.000000 0.000000 0.000000 -0.002033 0.000000 0.021833
#
#
# Mechanical properties :
#
#
# Convention : Reuss Voigt Hill
#
# Bulk Modulus (GPa) = 59.94658 77.95509 68.95084
# Shear Modulus (GPa) = 39.08379 45.07497 42.07938
#
# Velocity S-wave (km/s) = 3.91327 4.20251 4.06047
# Velocity P-wave (km/s) = 6.62618 7.35474 6.99995
#
# Compressibility (1/GPa) = 0.01668152
#
# Stress axis : x y z
#
# Youngs Moduli (GPa) = 96.08682 148.45921 66.41855
#
# Poissons Ratio (x) = 0.29174 0.17867
# Poissons Ratio (y) = 0.18882 0.20614
# Poissons Ratio (z) = 0.25847 0.46077
#
# Static dielectric constant tensor:
#      x y z
#    x 2.017400 0.000000 0.014410 
#    y 0.000000 2.287880 0.000000 
#    z 0.014410 0.000000 2.142450 
# 
# From -- ./inp_files/27289.got.cif
#   From: 2010.05.17/outbox.cif.g08.bks.cpg/sg14_14_cif.got.tgz:27289.got - 2010.06.03 17:49:19.
