data_PCOD9250839
_publ_section_title
;
Structure prediction by ZEFSAII (Michael W. Deem and Ramdas Pophale) SiO2 
 PCOD9250839
Probable space group: P 21/C
;
_chemical_formula_sum "Si O2"
_cell_formula_units_Z 20
_cell_length_a 8.335630
_cell_length_b 17.805528
_cell_length_c 6.195979
_cell_angle_alpha 90.000000
_cell_angle_beta 122.100141
_cell_angle_gamma 90.000000
_cell_volume 779.019758
_symmetry_space_group_name_H-M "P 21/C"
_symmetry_group_IT_number 14
_symmetry_cell_setting 'monoclinic'
loop_
_space_group_symop_operation_xyz
x,y,z
-x,1/2+y,1/2-z
-x,-y,-z
x,1/2-y,1/2+z
loop_
_atom_site_type_symbol
_atom_site_label
_atom_site_fract_x
_atom_site_fract_y
_atom_site_fract_z
Si Si1 0.951735 0.086177 0.527395
Si Si2 0.698085 0.770547 0.670632
Si Si3 0.669899 0.448206 0.208039
Si Si4 0.719742 0.907288 0.951274
Si Si5 0.376692 0.655709 0.449132
O O1 0.811941 0.078560 0.630064
O O2 0.144148 0.120583 0.760283
O O3 0.837330 0.140094 0.281419
O O4 0.000000 0.000000 0.500000
O O5 0.762822 0.755822 0.466380
O O6 0.483215 0.735389 0.514902
O O7 0.730852 0.858650 0.742581
O O8 0.769668 0.507226 0.440127
O O9 0.604815 0.378429 0.301327
O O10 0.500000 0.500000 0.000000
O O11 0.509665 0.896622 0.893296
#
# Coordination Sequence:
#
# PCOD9250839 Si02
#       5
#     4   4   4   4   4
#     4  12  25  42  70 114 146 188 247 318 381 447
#     4  10  24  47  72  99 145 201 247 297 371 452
#     4  12  22  40  73 106 144 190 241 313 380 437
#     4  11  23  45  70 106 144 192 248 308 376 451
#     4  11  24  45  70 101 146 191 247 303 377 447
#
# _framework density 25.673292
#
# number of rings (size 3 to 8) (size 9 to 14) (size 15 to 20)
#    0.000    0.800    4.000    3.600    2.800    1.600 
#    0.000    8.000    0.000    0.000    0.000    0.000 
#    0.000    0.000    0.000    0.000    0.000    0.000 
#
# Total GULP energy -111602.759153 kJ/mol
# GULP energy per Si atom -5580.137958 kJ/mol
# Density = 2.561486 g / cm^3
# Si number density = 25.673292 Si / 1000 Ang^3
#
#
#
# Elastic Constant Matrix: (Units=GPa)
#
#
# Indices 1 2 3 4 5 6 
#
# 1 58.2061 -7.0930 21.4143 0.0000 -5.7552 0.0000
# 2 -7.0930 100.1282 31.6698 0.0000 -5.2255 0.0000
# 3 21.4143 31.6698 158.5248 0.0000 11.2561 0.0000
# 4 0.0000 0.0000 0.0000 55.3609 0.0000 -13.1346
# 5 -5.7552 -5.2255 11.2561 0.0000 49.2986 0.0000
# 6 0.0000 0.0000 0.0000 -13.1346 0.0000 34.8874
#
#
#
# Elastic Compliance Matrix: (Units=1/GPa)
#
#
# Indices 1 2 3 4 5 6 
#
# 1 0.019034 0.002566 -0.003315 0.000000 0.003251 0.000000
# 2 0.002566 0.011139 -0.002721 0.000000 0.002102 0.000000
# 3 -0.003315 -0.002721 0.007469 0.000000 -0.002381 0.000000
# 4 0.000000 0.000000 0.000000 0.019835 0.000000 0.007468
# 5 0.003251 0.002102 -0.002381 0.000000 0.021430 0.000000
# 6 0.000000 0.000000 0.000000 0.007468 0.000000 0.031475
#
#
# Mechanical properties :
#
#
# Convention : Reuss Voigt Hill
#
# Bulk Modulus (GPa) = 32.57029 45.42681 38.99855
# Shear Modulus (GPa) = 39.19838 45.96723 42.58281
#
# Velocity S-wave (km/s) = 3.91169 4.23598 4.07706
# Velocity P-wave (km/s) = 5.75463 6.45425 6.11445
#
# Compressibility (1/GPa) = 0.03070283
#
# Stress axis : x y z
#
# Youngs Moduli (GPa) = 52.53740 89.77123 133.89313
#
# Poissons Ratio (x) = -0.23039 0.44383
# Poissons Ratio (y) = -0.13484 0.36437
# Poissons Ratio (z) = 0.17415 0.24430
#
# Static dielectric constant tensor:
#      x y z
#    x 2.026530 0.000000 -0.194740 
#    y 0.000000 2.079570 0.000000 
#    z -0.194740 0.000000 2.921630 
# 
# From -- ./inp_files/1377.got.cif
#   From: 2010.05.17/outbox.cif.g08.bks.cpg/sg14_1_cif.got.tgz:1377.got - 2010.06.03 17:49:19.
