data_PCOD9250408
_publ_section_title
;
Structure prediction by ZEFSAII (Michael W. Deem and Ramdas Pophale) SiO2 
 PCOD9250408
Probable space group: P 21/C
;
_chemical_formula_sum "Si O2"
_cell_formula_units_Z 20
_cell_length_a 13.313142
_cell_length_b 5.110810
_cell_length_c 21.766938
_cell_angle_alpha 90.000000
_cell_angle_beta 32.437947
_cell_angle_gamma 90.000000
_cell_volume 794.410497
_symmetry_space_group_name_H-M "P 21/C"
_symmetry_group_IT_number 14
_symmetry_cell_setting 'monoclinic'
loop_
_space_group_symop_operation_xyz
x,y,z
-x,1/2+y,1/2-z
-x,-y,-z
x,1/2-y,1/2+z
loop_
_atom_site_type_symbol
_atom_site_label
_atom_site_fract_x
_atom_site_fract_y
_atom_site_fract_z
Si Si1 0.953050 0.034971 0.736277
Si Si2 0.773392 0.171170 0.606024
Si Si3 0.296062 0.161232 0.934465
Si Si4 0.961149 0.679239 0.624592
Si Si5 0.331762 0.789245 0.702033
O O1 0.943154 0.777332 0.784756
O O2 0.035241 0.898509 0.632558
O O3 0.760092 0.157515 0.809989
O O4 0.712654 0.910060 0.604317
O O5 0.015418 0.761443 0.527466
O O6 0.659478 0.410036 0.632099
O O7 0.745444 0.174455 0.692939
O O8 0.449938 0.231193 0.905754
O O9 0.096748 0.069936 0.064069
O O10 0.752845 0.584100 0.748280
#
# Coordination Sequence:
#
# PCOD9250408 Si02
#       5
#     4   4   4   4   4
#     4  12  27  46  70  98 134 189 247 290 328 400
#     4  10  24  42  68 111 145 169 222 284 346 431
#     4  10  25  42  67 111 145 174 221 283 349 426
#     4  10  25  44  71 102 146 177 233 282 349 410
#     4  12  24  45  77 100 142 190 224 280 361 404
#
# _framework density 25.175899999999999
#
# number of rings (size 3 to 8) (size 9 to 14) (size 15 to 20)
#    1.200    0.000    2.000    3.000    5.600    1.600 
#    0.000    2.000    0.000    0.000    0.000    0.000 
#    0.000    0.000    0.000    0.000    0.000    0.000 
#
# Total GULP energy -111716.126765 kJ/mol
# GULP energy per Si atom -5585.806338 kJ/mol
# Density = 2.511860 g / cm^3
# Si number density = 25.175900 Si / 1000 Ang^3
#
#
#
# Elastic Constant Matrix: (Units=GPa)
#
#
# Indices 1 2 3 4 5 6 
#
# 1 145.9479 57.2534 4.5959 0.0000 -15.8593 0.0000
# 2 57.2534 190.5219 0.8045 0.0000 -2.3830 0.0000
# 3 4.5959 0.8045 33.7599 0.0000 -12.9612 0.0000
# 4 0.0000 0.0000 0.0000 4.8820 0.0000 14.5414
# 5 -15.8593 -2.3830 -12.9612 0.0000 47.3688 0.0000
# 6 0.0000 0.0000 0.0000 14.5414 0.0000 60.5825
#
#
#
# Elastic Compliance Matrix: (Units=1/GPa)
#
#
# Indices 1 2 3 4 5 6 
#
# 1 0.008071 -0.002393 -0.000056 0.000000 0.002566 0.000000
# 2 -0.002393 0.005962 -0.000010 0.000000 -0.000504 0.000000
# 3 -0.000056 -0.000010 0.033098 0.000000 0.009037 0.000000
# 4 0.000000 0.000000 0.000000 0.718537 0.000000 -0.172467
# 5 0.002566 -0.000504 0.009037 0.000000 0.024418 0.000000
# 6 0.000000 0.000000 0.000000 -0.172467 0.000000 0.057903
#
#
# Mechanical properties :
#
#
# Convention : Reuss Voigt Hill
#
# Bulk Modulus (GPa) = 23.68962 55.05969 39.37466
# Shear Modulus (GPa) = 5.76716 43.07173 24.41944
#
# Velocity S-wave (km/s) = 1.51516 4.14071 3.11779
# Velocity P-wave (km/s) = 3.53426 6.69164 5.35113
#
# Compressibility (1/GPa) = 0.04221258
#
# Stress axis : x y z
#
# Youngs Moduli (GPa) = 123.89718 167.73930 30.21296
#
# Poissons Ratio (x) = 0.40142 0.00170
# Poissons Ratio (y) = 0.29650 0.00030
# Poissons Ratio (z) = 0.00699 0.00164
#
# Static dielectric constant tensor:
#      x y z
#    x 2.006980 0.000000 -0.013540 
#    y 0.000000 2.085390 0.000000 
#    z -0.013540 0.000000 2.074560 
# 
# From -- ./inp_files/72705.got.cif
#   From: 2010.05.17/outbox.cif.g08.bks.cpg/sg14_37_cif.got.tgz:72705.got - 2010.06.03 17:49:19.
