data_PCOD9250809
_publ_section_title
;
Structure prediction by ZEFSAII (Michael W. Deem and Ramdas Pophale) SiO2 
 PCOD9250809
Probable space group: P 21/C
;
_chemical_formula_sum "Si O2"
_cell_formula_units_Z 20
_cell_length_a 8.395086
_cell_length_b 8.868412
_cell_length_c 10.977419
_cell_angle_alpha 90.000000
_cell_angle_beta 120.989871
_cell_angle_gamma 90.000000
_cell_volume 700.620708
_symmetry_space_group_name_H-M "P 21/C"
_symmetry_group_IT_number 14
_symmetry_cell_setting 'monoclinic'
loop_
_space_group_symop_operation_xyz
x,y,z
-x,1/2+y,1/2-z
-x,-y,-z
x,1/2-y,1/2+z
loop_
_atom_site_type_symbol
_atom_site_label
_atom_site_fract_x
_atom_site_fract_y
_atom_site_fract_z
Si Si1 0.950565 0.646998 0.357876
Si Si2 0.055477 0.143846 0.412146
Si Si3 0.617710 0.426106 0.436177
Si Si4 0.368048 0.840966 0.730335
Si Si5 0.309230 0.934690 0.376075
O O1 0.816326 0.505608 0.282457
O O2 0.931367 0.727040 0.216382
O O3 0.898378 0.749363 0.454263
O O4 0.160377 0.582167 0.452937
O O5 0.841598 0.100657 0.343416
O O6 0.173148 0.993056 0.431526
O O7 0.500000 0.500000 0.500000
O O8 0.634346 0.227526 0.654324
O O9 0.518370 0.530607 0.296262
O O10 0.413720 0.740726 0.630037
O O11 0.500000 0.000000 0.500000
#
# Coordination Sequence:
#
# PCOD9250809 Si02
#       5
#     4   4   4   4   4
#     4   9  21  46  88 122 169 225 288 369 438 523
#     4   9  21  47  83 121 165 224 288 359 443 512
#     4  11  23  49  84 124 178 232 289 359 448 527
#     4  11  25  46  81 128 169 227 293 354 435 534
#     4  10  24  46  75 116 166 224 286 355 435 525
#
# _framework density 28.546116999999999
#
# number of rings (size 3 to 8) (size 9 to 14) (size 15 to 20)
#    1.200    0.800    2.000    0.000    0.000    8.000 
#    0.000    3.000    0.000   10.800    0.000    0.000 
#    0.000    0.000    0.000    0.000    0.000    0.000 
#
# Total GULP energy -111790.458593 kJ/mol
# GULP energy per Si atom -5589.522930 kJ/mol
# Density = 2.848114 g / cm^3
# Si number density = 28.546117 Si / 1000 Ang^3
#
#
#
# Elastic Constant Matrix: (Units=GPa)
#
#
# Indices 1 2 3 4 5 6 
#
# 1 140.3628 70.8128 48.9052 0.0000 -17.5704 0.0000
# 2 70.8128 137.6317 41.9061 0.0000 7.5551 0.0000
# 3 48.9052 41.9061 146.4523 0.0000 -24.9998 0.0000
# 4 0.0000 0.0000 0.0000 59.0134 0.0000 -14.4052
# 5 -17.5704 7.5551 -24.9998 0.0000 68.5498 0.0000
# 6 0.0000 0.0000 0.0000 -14.4052 0.0000 74.8218
#
#
#
# Elastic Compliance Matrix: (Units=1/GPa)
#
#
# Indices 1 2 3 4 5 6 
#
# 1 0.010603 -0.005110 -0.001619 0.000000 0.002690 0.000000
# 2 -0.005110 0.010641 -0.001879 0.000000 -0.003168 0.000000
# 3 -0.001619 -0.001879 0.008394 0.000000 0.002853 0.000000
# 4 0.000000 0.000000 0.000000 0.017781 0.000000 0.003423
# 5 0.002690 -0.003168 0.002853 0.000000 0.016667 0.000000
# 6 0.000000 0.000000 0.000000 0.003423 0.000000 0.014024
#
#
# Mechanical properties :
#
#
# Convention : Reuss Voigt Hill
#
# Bulk Modulus (GPa) = 80.51009 83.07721 81.79365
# Shear Modulus (GPa) = 50.26726 57.99852 54.13289
#
# Velocity S-wave (km/s) = 4.20088 4.51238 4.35941
# Velocity P-wave (km/s) = 7.19684 7.50432 7.35219
#
# Compressibility (1/GPa) = 0.01242080
#
# Stress axis : x y z
#
# Youngs Moduli (GPa) = 94.30852 93.97523 119.13760
#
# Poissons Ratio (x) = 0.48024 0.19292
# Poissons Ratio (y) = 0.48194 0.22388
# Poissons Ratio (z) = 0.15272 0.17659
#
# Static dielectric constant tensor:
#      x y z
#    x 2.260160 0.000000 -0.219270 
#    y 0.000000 2.263260 0.000000 
#    z -0.219270 0.000000 2.387130 
# 
# From -- ./inp_files/23940.got.cif
#   From: 2010.05.17/outbox.cif.g08.bks.cpg/sg14_12_cif.got.tgz:23940.got - 2010.06.03 17:49:19.
