data_PCOD9250944
_publ_section_title
;
Structure prediction by ZEFSAII (Michael W. Deem and Ramdas Pophale) SiO2 
 PCOD9250944
Probable space group: P 21/C
;
_chemical_formula_sum "Si O2"
_cell_formula_units_Z 24
_cell_length_a 9.523326
_cell_length_b 13.118473
_cell_length_c 13.876815
_cell_angle_alpha 90.000000
_cell_angle_beta 41.216142
_cell_angle_gamma 90.000000
_cell_volume 1142.305254
_symmetry_space_group_name_H-M "P 21/C"
_symmetry_group_IT_number 14
_symmetry_cell_setting 'monoclinic'
loop_
_space_group_symop_operation_xyz
x,y,z
-x,1/2+y,1/2-z
-x,-y,-z
x,1/2-y,1/2+z
loop_
_atom_site_type_symbol
_atom_site_label
_atom_site_fract_x
_atom_site_fract_y
_atom_site_fract_z
Si Si1 0.552988 0.885854 0.426868
Si Si2 0.194679 0.921805 0.903743
Si Si3 0.961790 0.737067 0.646522
Si Si4 0.359265 0.516812 0.852069
Si Si5 0.980932 0.631193 0.947494
Si Si6 0.818095 0.200836 0.286113
O O1 0.783506 0.840123 0.281237
O O2 0.438095 0.896089 0.382628
O O3 0.425356 0.801824 0.553707
O O4 0.500000 0.000000 0.500000
O O5 0.185870 0.877729 0.799912
O O6 0.425196 0.970766 0.802399
O O7 0.146009 0.836051 0.008291
O O8 0.000000 0.000000 0.000000
O O9 0.905857 0.803988 0.580485
O O10 0.041936 0.812392 0.689530
O O11 0.179605 0.559905 0.874404
O O12 0.225969 0.430812 0.978327
O O13 0.078161 0.700900 0.815212
#
# Coordination Sequence:
#
# PCOD9250944 Si02
#       6
#     4   4   4   4   4   4
#     4  12  22  41  67  92 129 170 210 264 321 384
#     4  11  23  43  67  92 126 174 212 263 323 390
#     4  11  24  41  63  98 128 163 220 264 322 383
#     4  11  22  43  65  89 132 169 216 256 327 377
#     4  10  25  42  65  94 130 173 208 272 316 382
#     4  11  24  40  64  98 126 162 218 261 322 379
#
# _framework density 21.010147
#
# number of rings (size 3 to 8) (size 9 to 14) (size 15 to 20)
#    0.000    1.000    5.000    1.000    2.333    1.333 
#    0.000    0.833    0.000    0.000    0.000    0.000 
#    0.000    0.000    0.000    0.000    0.000    0.000 
#
# Total GULP energy -133735.588353 kJ/mol
# GULP energy per Si atom -5572.316181 kJ/mol
# Density = 2.096233 g / cm^3
# Si number density = 21.010147 Si / 1000 Ang^3
#
#
#
# Elastic Constant Matrix: (Units=GPa)
#
#
# Indices 1 2 3 4 5 6 
#
# 1 72.8814 7.3198 35.9748 0.0000 -5.1755 0.0000
# 2 7.3198 38.4444 39.7107 0.0000 -5.8269 0.0000
# 3 35.9748 39.7107 151.6314 0.0000 -6.4167 0.0000
# 4 0.0000 0.0000 0.0000 29.8428 0.0000 -19.6854
# 5 -5.1755 -5.8269 -6.4167 0.0000 32.6775 0.0000
# 6 0.0000 0.0000 0.0000 -19.6854 0.0000 21.8531
#
#
#
# Elastic Compliance Matrix: (Units=1/GPa)
#
#
# Indices 1 2 3 4 5 6 
#
# 1 0.015700 0.001466 -0.004026 0.000000 0.001957 0.000000
# 2 0.001466 0.036482 -0.009698 0.000000 0.004833 0.000000
# 3 -0.004026 -0.009698 0.010073 0.000000 -0.000389 0.000000
# 4 0.000000 0.000000 0.000000 0.082577 0.000000 0.074386
# 5 0.001957 0.004833 -0.000389 0.000000 0.031698 0.000000
# 6 0.000000 0.000000 0.000000 0.074386 0.000000 0.112768
#
#
# Mechanical properties :
#
#
# Convention : Reuss Voigt Hill
#
# Bulk Modulus (GPa) = 26.49688 47.66308 37.07998
# Shear Modulus (GPa) = 15.31899 28.87145 22.09522
#
# Velocity S-wave (km/s) = 2.70316 3.71100 3.24643
# Velocity P-wave (km/s) = 4.73092 6.41069 5.63376
#
# Compressibility (1/GPa) = 0.03774029
#
# Stress axis : x y z
#
# Youngs Moduli (GPa) = 63.69456 27.41076 99.27199
#
# Poissons Ratio (x) = -0.04018 0.39966
# Poissons Ratio (y) = -0.09337 0.96269
# Poissons Ratio (z) = 0.25643 0.26582
#
# Static dielectric constant tensor:
#      x y z
#    x 1.776110 0.000000 0.020300 
#    y 0.000000 1.597750 0.000000 
#    z 0.020300 0.000000 1.783360 
# 
# From -- ./inp_files/41079.got.cif
#   From: 2010.05.17/outbox.cif.g08.bks.cpg/sg14_21_cif.got.tgz:41079.got - 2010.06.03 17:49:19.
