data_PCOD9250237
_publ_section_title
;
Structure prediction by ZEFSAII (Michael W. Deem and Ramdas Pophale) SiO2 
 PCOD9250237
Probable space group: P 21/C
;
_chemical_formula_sum "Si O2"
_cell_formula_units_Z 22
_cell_length_a 23.346949
_cell_length_b 5.604506
_cell_length_c 12.827137
_cell_angle_alpha 90.000000
_cell_angle_beta 152.300834
_cell_angle_gamma 90.000000
_cell_volume 780.172376
_symmetry_space_group_name_H-M "P 21/C"
_symmetry_group_IT_number 14
_symmetry_cell_setting 'monoclinic'
loop_
_space_group_symop_operation_xyz
x,y,z
-x,1/2+y,1/2-z
-x,-y,-z
x,1/2-y,1/2+z
loop_
_atom_site_type_symbol
_atom_site_label
_atom_site_fract_x
_atom_site_fract_y
_atom_site_fract_z
Si Si1 0.498612 0.136247 0.840979
Si Si2 0.227823 0.134456 0.309252
Si Si3 0.431906 0.630849 0.776066
Si Si4 0.064940 0.949836 0.461919
Si Si5 0.197601 0.630234 0.542951
Si Si6 0.000000 0.500000 0.500000
O O1 0.361128 0.157976 0.571361
O O2 0.507838 0.385240 0.916224
O O3 0.586074 0.138386 0.880508
O O4 0.502903 0.882657 0.904617
O O5 0.148632 0.982380 0.264088
O O6 0.127890 0.351106 0.136682
O O7 0.233115 0.031814 0.200732
O O8 0.302902 0.617351 0.626807
O O9 0.171092 0.890093 0.549454
O O10 0.025911 0.700584 0.450072
O O11 0.937744 0.056351 0.215289
#
# Coordination Sequence:
#
# PCOD9250237 Si02
#       6
#     4   4   4   4   4   2
#     4  10  24  45  68  97 130 169 238 267 332 393
#     4  11  24  39  63  95 130 173 220 276 325 406
#     4  10  24  45  70  94 128 182 215 286 328 391
#     4  11  23  41  59  98 131 176 217 270 335 399
#     4  11  24  40  65  92 137 171 217 269 343 391
#     4  10  24  38  62  92 126 174 218 272 324 392
#
# _framework density 28.198896999999999
#
# number of rings (size 3 to 8) (size 9 to 14) (size 15 to 20)
#    0.000    1.455    1.818    1.636   10.182    0.727 
#    0.000    0.909    0.000    0.000    0.000    0.000 
#    0.000    0.000    0.000    0.000    0.000    0.000 
#
# Total GULP energy -122719.659539 kJ/mol
# GULP energy per Si atom -5578.166343 kJ/mol
# Density = 2.813472 g / cm^3
# Si number density = 28.198897 Si / 1000 Ang^3
#
#
#
# Elastic Constant Matrix: (Units=GPa)
#
#
# Indices 1 2 3 4 5 6 
#
# 1 181.6690 50.1055 32.6126 0.0000 53.7089 0.0000
# 2 50.1055 119.8170 25.4937 0.0000 -8.8102 0.0000
# 3 32.6126 25.4937 144.7510 0.0000 12.2665 0.0000
# 4 0.0000 0.0000 0.0000 32.1277 0.0000 -2.3784
# 5 53.7089 -8.8102 12.2665 0.0000 50.9634 0.0000
# 6 0.0000 0.0000 0.0000 -2.3784 0.0000 62.4917
#
#
#
# Elastic Compliance Matrix: (Units=1/GPa)
#
#
# Indices 1 2 3 4 5 6 
#
# 1 0.010526 -0.005179 -0.000453 0.000000 -0.011880 0.000000
# 2 -0.005179 0.011404 -0.001502 0.000000 0.007791 0.000000
# 3 -0.000453 -0.001502 0.007408 0.000000 -0.001565 0.000000
# 4 0.000000 0.000000 0.000000 0.031214 0.000000 0.001188
# 5 -0.011880 0.007791 -0.001565 0.000000 0.033866 0.000000
# 6 0.000000 0.000000 0.000000 0.001188 0.000000 0.016047
#
#
# Mechanical properties :
#
#
# Convention : Reuss Voigt Hill
#
# Bulk Modulus (GPa) = 66.35378 73.62895 69.99137
# Shear Modulus (GPa) = 38.53381 51.65157 45.09269
#
# Velocity S-wave (km/s) = 3.70063 4.28447 4.00321
# Velocity P-wave (km/s) = 6.46848 7.11637 6.80015
#
# Compressibility (1/GPa) = 0.01507073
#
# Stress axis : x y z
#
# Youngs Moduli (GPa) = 94.99900 87.68575 134.99664
#
# Poissons Ratio (x) = 0.45414 0.06112
# Poissons Ratio (y) = 0.49202 0.20275
# Poissons Ratio (z) = 0.04301 0.13170
#
# Static dielectric constant tensor:
#      x y z
#    x 1.914490 0.000000 0.024200 
#    y 0.000000 1.731070 0.000000 
#    z 0.024200 0.000000 2.108650 
# 
# From -- ./inp_files/42653.got.cif
#   From: 2010.05.17/outbox.cif.g08.bks.cpg/sg14_22_cif.got.tgz:42653.got - 2010.06.03 17:49:19.
