data_PCOD9250828
_publ_section_title
;
Structure prediction by ZEFSAII (Michael W. Deem and Ramdas Pophale) SiO2 
 PCOD9250828
Probable space group: P 21/C
;
_chemical_formula_sum "Si O2"
_cell_formula_units_Z 28
_cell_length_a 13.712084
_cell_length_b 7.459700
_cell_length_c 20.542172
_cell_angle_alpha 90.000000
_cell_angle_beta 32.701532
_cell_angle_gamma 90.000000
_cell_volume 1135.210163
_symmetry_space_group_name_H-M "P 21/C"
_symmetry_group_IT_number 14
_symmetry_cell_setting 'monoclinic'
loop_
_space_group_symop_operation_xyz
x,y,z
-x,1/2+y,1/2-z
-x,-y,-z
x,1/2-y,1/2+z
loop_
_atom_site_type_symbol
_atom_site_label
_atom_site_fract_x
_atom_site_fract_y
_atom_site_fract_z
Si Si1 0.936605 0.877375 0.244452
Si Si2 0.016773 0.887629 0.351148
Si Si3 0.077124 0.204262 0.465136
Si Si4 0.332344 0.849298 0.677269
Si Si5 0.587203 0.812133 0.934646
Si Si6 0.833025 0.261221 0.493895
Si Si7 0.438664 0.325337 0.195163
O O1 0.983763 0.869775 0.293296
O O2 0.802393 0.706271 0.312275
O O3 0.111978 0.878351 0.099833
O O4 0.807834 0.035352 0.288739
O O5 0.921309 0.758846 0.458809
O O6 0.225593 0.836417 0.249245
O O7 0.926545 0.075639 0.419399
O O8 0.272128 0.230614 0.323967
O O9 0.939481 0.319938 0.498571
O O10 0.000000 0.000000 0.500000
O O11 0.509099 0.814947 0.535191
O O12 0.384689 0.968065 0.710345
O O13 0.530064 0.748940 0.895396
O O14 0.500000 0.000000 0.000000
O O15 0.626499 0.217774 0.623989
#
# Coordination Sequence:
#
# PCOD9250828 Si02
#       7
#     4   4   4   4   4   4   4
#     4  11  21  41  66  99 135 178 227 292 353 410
#     4  11  23  40  68  99 134 179 230 281 350 417
#     4  10  24  47  69  96 140 186 224 289 348 425
#     4  11  23  40  69 102 141 177 234 297 350 414
#     4  11  22  38  67 102 137 177 236 293 344 416
#     4  11  22  46  72  95 136 184 230 289 354 416
#     4  11  23  46  69 100 140 185 232 287 354 418
#
# _framework density 24.665037999999999
#
# number of rings (size 3 to 8) (size 9 to 14) (size 15 to 20)
#    0.000    1.143    2.857    6.000    2.000    1.714 
#    7.714    0.000    0.000    0.000    0.000    0.000 
#    0.000    0.000    0.000    0.000    0.000    0.000 
#
# Total GULP energy -156438.617194 kJ/mol
# GULP energy per Si atom -5587.093471 kJ/mol
# Density = 2.460890 g / cm^3
# Si number density = 24.665038 Si / 1000 Ang^3
#
#
#
# Elastic Constant Matrix: (Units=GPa)
#
#
# Indices 1 2 3 4 5 6 
#
# 1 97.7338 15.4062 39.3231 0.0000 -0.1685 0.0000
# 2 15.4062 62.7109 22.1411 0.0000 -5.5833 0.0000
# 3 39.3231 22.1411 164.6702 0.0000 -21.5735 0.0000
# 4 0.0000 0.0000 0.0000 46.5105 0.0000 1.6976
# 5 -0.1685 -5.5833 -21.5735 0.0000 53.6609 0.0000
# 6 0.0000 0.0000 0.0000 1.6976 0.0000 10.9876
#
#
#
# Elastic Compliance Matrix: (Units=1/GPa)
#
#
# Indices 1 2 3 4 5 6 
#
# 1 0.011622 -0.002025 -0.002666 0.000000 -0.001246 0.000000
# 2 -0.002025 0.017133 -0.001676 0.000000 0.001103 0.000000
# 3 -0.002666 -0.001676 0.007295 0.000000 0.002750 0.000000
# 4 0.000000 0.000000 0.000000 0.021622 0.000000 -0.003341
# 5 -0.001246 0.001103 0.002750 0.000000 0.019852 0.000000
# 6 0.000000 0.000000 0.000000 -0.003341 0.000000 0.091528
#
#
# Mechanical properties :
#
#
# Convention : Reuss Voigt Hill
#
# Bulk Modulus (GPa) = 42.88766 53.20621 48.04693
# Shear Modulus (GPa) = 26.37713 38.78143 32.57928
#
# Velocity S-wave (km/s) = 3.27374 3.96956 3.63832
# Velocity P-wave (km/s) = 5.63166 6.52903 6.09687
#
# Compressibility (1/GPa) = 0.02331673
#
# Stress axis : x y z
#
# Youngs Moduli (GPa) = 86.04635 58.36551 137.07909
#
# Poissons Ratio (x) = 0.11817 0.36549
# Poissons Ratio (y) = 0.17421 0.22971
# Poissons Ratio (z) = 0.22942 0.09781
#
# Static dielectric constant tensor:
#      x y z
#    x 2.013040 0.000000 0.033730 
#    y 0.000000 1.386080 0.000000 
#    z 0.033730 0.000000 1.948310 
# 
# From -- ./inp_files/43467.got.cif
#   From: 2010.05.17/outbox.cif.g08.bks.cpg/sg14_22_cif.got.tgz:43467.got - 2010.06.03 17:49:19.
