data_PCOD9250768
_publ_section_title
;
Structure prediction by ZEFSAII (Michael W. Deem and Ramdas Pophale) SiO2 
 PCOD9250768
Probable space group: P 21/C
;
_chemical_formula_sum "Si O2"
_cell_formula_units_Z 26
_cell_length_a 15.950440
_cell_length_b 8.511074
_cell_length_c 17.149033
_cell_angle_alpha 90.000000
_cell_angle_beta 153.771100
_cell_angle_gamma 90.000000
_cell_volume 1028.911538
_symmetry_space_group_name_H-M "P 21/C"
_symmetry_group_IT_number 14
_symmetry_cell_setting 'monoclinic'
loop_
_space_group_symop_operation_xyz
x,y,z
-x,1/2+y,1/2-z
-x,-y,-z
x,1/2-y,1/2+z
loop_
_atom_site_type_symbol
_atom_site_label
_atom_site_fract_x
_atom_site_fract_y
_atom_site_fract_z
Si Si1 0.211608 0.523067 0.617764
Si Si2 0.501105 0.207317 0.424833
Si Si3 0.616338 0.338945 0.680309
Si Si4 0.479959 0.544654 0.692935
Si Si5 0.000000 0.500000 0.000000
Si Si6 0.087205 0.079610 0.400284
Si Si7 0.099622 0.924412 0.245627
O O1 0.255525 0.686327 0.695807
O O2 0.988111 0.249016 0.325911
O O3 0.998004 0.502829 0.410801
O O4 0.305317 0.376283 0.740315
O O5 0.504895 0.299961 0.509033
O O6 0.673138 0.081616 0.572555
O O7 0.492465 0.386594 0.651336
O O8 0.439276 0.681175 0.596949
O O9 0.769799 0.476363 0.799676
O O10 0.329251 0.529898 0.634868
O O11 0.684982 0.581154 0.901098
O O12 0.980625 0.485332 0.080196
O O13 0.045098 0.006667 0.281129
#
# Coordination Sequence:
#
# PCOD9250768 Si02
#       7
#     4   4   4   4   2   4   4
#     4  12  26  46  73 109 149 182 250 299 361 437
#     4  12  24  49  68 106 149 185 245 299 363 433
#     4  11  26  46  75 105 144 199 233 307 365 424
#     4  11  24  46  73 102 146 192 243 297 355 443
#     4  10  24  46  70 106 148 182 252 288 356 442
#     4  11  24  46  72 106 145 197 241 298 367 427
#     4  12  26  45  74 109 144 197 243 298 366 435
#
# _framework density 25.269423
#
# number of rings (size 3 to 8) (size 9 to 14) (size 15 to 20)
#    0.000    0.615    4.615    2.769    6.462    0.615 
#    0.000    3.077    0.000    0.000    0.000    0.000 
#    0.000    0.000    0.000    0.000    0.000    0.000 
#
# Total GULP energy -145354.794279 kJ/mol
# GULP energy per Si atom -5590.569011 kJ/mol
# Density = 2.521191 g / cm^3
# Si number density = 25.269423 Si / 1000 Ang^3
#
#
#
# Elastic Constant Matrix: (Units=GPa)
#
#
# Indices 1 2 3 4 5 6 
#
# 1 91.9367 10.3967 48.5205 0.0000 -5.7312 0.0000
# 2 10.3967 50.8805 31.4576 0.0000 -16.1897 0.0000
# 3 48.5205 31.4576 143.5396 0.0000 -43.8076 0.0000
# 4 0.0000 0.0000 0.0000 28.6240 0.0000 -31.4678
# 5 -5.7312 -16.1897 -43.8076 0.0000 47.1082 0.0000
# 6 0.0000 0.0000 0.0000 -31.4678 0.0000 21.4357
#
#
#
# Elastic Compliance Matrix: (Units=1/GPa)
#
#
# Indices 1 2 3 4 5 6 
#
# 1 0.013691 -0.000492 -0.005674 0.000000 -0.003780 0.000000
# 2 -0.000492 0.023437 -0.003533 0.000000 0.004710 0.000000
# 3 -0.005674 -0.003533 0.012675 0.000000 0.009883 0.000000
# 4 0.000000 0.000000 0.000000 -0.056912 0.000000 -0.083547
# 5 -0.003780 0.004710 0.009883 0.000000 0.031577 0.000000
# 6 0.000000 0.000000 0.000000 -0.083547 0.000000 -0.075997
#
#
# Mechanical properties :
#
#
# Convention : Reuss Voigt Hill
#
# Bulk Modulus (GPa) = 32.88826 51.90072 42.39449
# Shear Modulus (GPa) = -227.31777 32.49905 -97.40936
#
# Velocity S-wave (km/s) = -9.49489 3.59012 -6.21546
# Velocity P-wave (km/s) = 10.35184 6.14563 5.89032
#
# Compressibility (1/GPa) = 0.03040599
#
# Stress axis : x y z
#
# Youngs Moduli (GPa) = 73.03805 42.66725 78.89617
#
# Poissons Ratio (x) = 0.02101 0.44764
# Poissons Ratio (y) = 0.03597 0.27871
# Poissons Ratio (z) = 0.41440 0.15072
#
# Static dielectric constant tensor:
#      x y z
#    x 1.986400 0.000000 0.008310 
#    y 0.000000 2.054670 0.000000 
#    z 0.008310 0.000000 1.962960 
# 
# From -- ./inp_files/60694.got.cif
#   From: 2010.05.17/outbox.cif.g08.bks.cpg/sg14_31_cif.got.tgz:60694.got - 2010.06.03 17:49:19.
