data_PCOD9250105
_publ_section_title
;
Structure prediction by ZEFSAII (Michael W. Deem and Ramdas Pophale) SiO2 
 PCOD9250105
Probable space group: P 21/C
;
_chemical_formula_sum "Si O2"
_cell_formula_units_Z 32
_cell_length_a 18.282128
_cell_length_b 5.897867
_cell_length_c 20.131809
_cell_angle_alpha 90.000000
_cell_angle_beta 140.559208
_cell_angle_gamma 90.000000
_cell_volume 1379.018361
_symmetry_space_group_name_H-M "P 21/C"
_symmetry_group_IT_number 14
_symmetry_cell_setting 'monoclinic'
loop_
_space_group_symop_operation_xyz
x,y,z
-x,1/2+y,1/2-z
-x,-y,-z
x,1/2-y,1/2+z
loop_
_atom_site_type_symbol
_atom_site_label
_atom_site_fract_x
_atom_site_fract_y
_atom_site_fract_z
Si Si1 0.250718 0.242331 0.321346
Si Si2 0.668346 0.853079 0.910312
Si Si3 0.091285 0.532577 0.461151
Si Si4 0.986061 0.692782 0.775610
Si Si5 0.576824 0.934318 0.471186
Si Si6 0.520223 0.671628 0.685041
Si Si7 0.148051 0.917058 0.154550
Si Si8 0.369024 0.636005 0.343852
O O1 0.143465 0.323707 0.288407
O O2 0.315140 0.037680 0.404155
O O3 0.342292 0.441355 0.377713
O O4 0.203605 0.156446 0.217343
O O5 0.634226 0.709183 0.950979
O O6 0.605627 0.749565 0.802297
O O7 0.601915 0.091638 0.871503
O O8 0.803509 0.889266 0.994789
O O9 0.123032 0.596139 0.559070
O O10 0.066932 0.745176 0.395636
O O11 0.969745 0.400155 0.385557
O O12 0.010865 0.441925 0.761344
O O13 0.472458 0.802850 0.433561
O O14 0.513294 0.141899 0.392243
O O15 0.583784 0.472253 0.691044
O O16 0.245325 0.740853 0.241668
#
# Coordination Sequence:
#
# PCOD9250105 Si02
#       8
#     4   4   4   4   4   4   4   4
#     4  11  25  44  71  99 142 189 242 300 366 433
#     4  11  22  41  67  98 141 176 238 286 362 436
#     4  10  23  46  73 101 140 187 241 293 369 436
#     4  11  27  50  75 111 149 196 247 307 369 445
#     4  11  24  41  66 101 139 186 233 295 366 436
#     4  11  24  41  66 104 134 185 228 299 362 434
#     4  10  24  46  68 103 138 183 240 301 357 437
#     4  11  24  43  69  98 139 180 241 298 362 434
#
# _framework density 23.204913000000001
#
# number of rings (size 3 to 8) (size 9 to 14) (size 15 to 20)
#    0.000    1.250    1.250    3.375    7.000    4.000 
#    4.500    3.750    0.000    0.000    0.000    0.000 
#    0.000    0.000    0.000    0.000    0.000    0.000 
#
# Total GULP energy -178838.820012 kJ/mol
# GULP energy per Si atom -5588.713125 kJ/mol
# Density = 2.315210 g / cm^3
# Si number density = 23.204913 Si / 1000 Ang^3
#
#
#
# Elastic Constant Matrix: (Units=GPa)
#
#
# Indices 1 2 3 4 5 6 
#
# 1 96.7687 33.7149 33.3891 0.0000 17.3315 0.0000
# 2 33.7149 65.4351 25.1176 0.0000 6.6628 0.0000
# 3 33.3891 25.1176 117.7295 0.0000 8.9156 0.0000
# 4 0.0000 0.0000 0.0000 74.1691 0.0000 39.0039
# 5 17.3315 6.6628 8.9156 0.0000 46.1673 0.0000
# 6 0.0000 0.0000 0.0000 39.0039 0.0000 75.2632
#
#
#
# Elastic Compliance Matrix: (Units=1/GPa)
#
#
# Indices 1 2 3 4 5 6 
#
# 1 0.013897 -0.005841 -0.002399 0.000000 -0.003911 0.000000
# 2 -0.005841 0.019240 -0.002440 0.000000 -0.000113 0.000000
# 3 -0.002399 -0.002440 0.009743 0.000000 -0.000629 0.000000
# 4 0.000000 0.000000 0.000000 0.018534 0.000000 -0.009605
# 5 -0.003911 -0.000113 -0.000629 0.000000 0.023266 0.000000
# 6 0.000000 0.000000 0.000000 -0.009605 0.000000 0.018264
#
#
# Mechanical properties :
#
#
# Convention : Reuss Voigt Hill
#
# Bulk Modulus (GPa) = 46.46886 51.59738 49.03312
# Shear Modulus (GPa) = 38.02944 51.63403 44.83174
#
# Velocity S-wave (km/s) = 4.05267 4.72225 4.40021
# Velocity P-wave (km/s) = 6.47825 7.21226 6.85509
#
# Compressibility (1/GPa) = 0.02151979
#
# Stress axis : x y z
#
# Youngs Moduli (GPa) = 71.95659 51.97507 102.64277
#
# Poissons Ratio (x) = 0.30361 0.24624
# Poissons Ratio (y) = 0.42033 0.25041
# Poissons Ratio (z) = 0.17262 0.12680
#
# Static dielectric constant tensor:
#      x y z
#    x 1.872580 0.000000 -0.041390 
#    y 0.000000 1.942910 0.000000 
#    z -0.041390 0.000000 1.848410 
# 
# From -- ./inp_files/74544.got.cif
#   From: 2010.05.17/outbox.cif.g08.bks.cpg/sg14_38_cif.got.tgz:74544.got - 2010.06.03 17:49:19.
