data_PCOD9250741
_publ_section_title
;
Structure prediction by ZEFSAII (Michael W. Deem and Ramdas Pophale) SiO2 
 PCOD9250741
Probable space group: P 21/C
;
_chemical_formula_sum "Si O2"
_cell_formula_units_Z 28
_cell_length_a 9.446793
_cell_length_b 8.685838
_cell_length_c 27.300587
_cell_angle_alpha 90.000000
_cell_angle_beta 143.183191
_cell_angle_gamma 90.000000
_cell_volume 1342.401106
_symmetry_space_group_name_H-M "P 21/C"
_symmetry_group_IT_number 14
_symmetry_cell_setting 'monoclinic'
loop_
_space_group_symop_operation_xyz
x,y,z
-x,1/2+y,1/2-z
-x,-y,-z
x,1/2-y,1/2+z
loop_
_atom_site_type_symbol
_atom_site_label
_atom_site_fract_x
_atom_site_fract_y
_atom_site_fract_z
Si Si1 0.237278 0.059092 0.417062
Si Si2 0.737121 0.983593 0.031210
Si Si3 0.107632 0.315482 0.982200
Si Si4 0.139906 0.013822 0.221476
Si Si5 0.454292 0.278758 0.405897
Si Si6 0.638267 0.050378 0.381552
Si Si7 0.976927 0.846356 0.267015
O O1 0.086248 0.949748 0.340052
O O2 0.500000 0.000000 0.500000
O O3 0.121922 0.078044 0.437760
O O4 0.287209 0.221920 0.404083
O O5 0.767320 0.840209 0.002343
O O6 0.969745 0.988891 0.128623
O O7 0.500000 0.000000 0.000000
O O8 0.691153 0.136867 0.986941
O O9 0.830541 0.324269 0.917947
O O10 0.236294 0.396062 0.064052
O O11 0.125509 0.881631 0.259155
O O12 0.415675 0.029042 0.284253
O O13 0.040237 0.170138 0.219819
O O14 0.515574 0.123018 0.395241
O O15 0.290993 0.381836 0.325150
#
# Coordination Sequence:
#
# PCOD9250741 Si02
#       7
#     4   4   4   4   4   4   4
#     4  12  20  37  67  94 119 166 220 268 321 389
#     4  12  24  39  67 103 130 162 229 284 320 385
#     4  11  24  44  67  93 128 176 222 262 336 403
#     4  11  23  40  63  99 132 168 217 280 330 390
#     4  11  22  41  64  97 126 165 216 272 333 381
#     4  10  24  46  65  90 135 178 212 265 337 413
#     4  11  21  36  64  92 129 166 215 267 327 383
#
# _framework density 20.858149000000001
#
# number of rings (size 3 to 8) (size 9 to 14) (size 15 to 20)
#    0.000    0.857    7.143    0.857    2.000    0.571 
#    5.143    0.000    0.000    0.000    0.000    0.000 
#    0.000    0.000    0.000    0.000    0.000    0.000 
#
# Total GULP energy -156065.293506 kJ/mol
# GULP energy per Si atom -5573.760482 kJ/mol
# Density = 2.081067 g / cm^3
# Si number density = 20.858149 Si / 1000 Ang^3
#
#
#
# Elastic Constant Matrix: (Units=GPa)
#
#
# Indices 1 2 3 4 5 6 
#
# 1 43.6480 2.8961 11.1385 0.0000 11.8101 0.0000
# 2 2.8961 75.6033 35.5525 0.0000 4.5820 0.0000
# 3 11.1385 35.5525 141.2905 0.0000 8.9739 0.0000
# 4 0.0000 0.0000 0.0000 32.9668 0.0000 -1.9641
# 5 11.8101 4.5820 8.9739 0.0000 31.4037 0.0000
# 6 0.0000 0.0000 0.0000 -1.9641 0.0000 25.1929
#
#
#
# Elastic Compliance Matrix: (Units=1/GPa)
#
#
# Indices 1 2 3 4 5 6 
#
# 1 0.025797 0.000288 -0.001515 0.000000 -0.009311 0.000000
# 2 0.000288 0.015045 -0.003730 0.000000 -0.001238 0.000000
# 3 -0.001515 -0.003730 0.008214 0.000000 -0.001233 0.000000
# 4 0.000000 0.000000 0.000000 0.030475 0.000000 0.002376
# 5 -0.009311 -0.001238 -0.001233 0.000000 0.035878 0.000000
# 6 0.000000 0.000000 0.000000 0.002376 0.000000 0.039879
#
#
# Mechanical properties :
#
#
# Convention : Reuss Voigt Hill
#
# Bulk Modulus (GPa) = 25.54699 39.96845 32.75772
# Shear Modulus (GPa) = 28.05073 31.97632 30.01353
#
# Velocity S-wave (km/s) = 3.67118 3.91965 3.79745
# Velocity P-wave (km/s) = 5.49951 6.29988 5.91325
#
# Compressibility (1/GPa) = 0.03914355
#
# Stress axis : x y z
#
# Youngs Moduli (GPa) = 38.76373 66.46794 121.74491
#
# Poissons Ratio (x) = -0.01918 0.18444
# Poissons Ratio (y) = -0.01118 0.45409
# Poissons Ratio (z) = 0.05872 0.24791
#
# Static dielectric constant tensor:
#      x y z
#    x 1.764790 0.000000 -0.015730 
#    y 0.000000 1.839080 0.000000 
#    z -0.015730 0.000000 1.814180 
# 
# From -- ./inp_files/76390.got.cif
#   From: 2010.05.17/outbox.cif.g08.bks.cpg/sg14_39_cif.got.tgz:76390.got - 2010.06.03 17:49:19.
