data_PCOD9250546
_publ_section_title
;
Structure prediction by ZEFSAII (Michael W. Deem and Ramdas Pophale) SiO2 
 PCOD9250546
Probable space group: P 21/C
;
_chemical_formula_sum "Si O2"
_cell_formula_units_Z 28
_cell_length_a 7.753821
_cell_length_b 4.909612
_cell_length_c 28.268320
_cell_angle_alpha 90.000000
_cell_angle_beta 86.173575
_cell_angle_gamma 90.000000
_cell_volume 1073.726644
_symmetry_space_group_name_H-M "P 21/C"
_symmetry_group_IT_number 14
_symmetry_cell_setting 'monoclinic'
loop_
_space_group_symop_operation_xyz
x,y,z
-x,1/2+y,1/2-z
-x,-y,-z
x,1/2-y,1/2+z
loop_
_atom_site_type_symbol
_atom_site_label
_atom_site_fract_x
_atom_site_fract_y
_atom_site_fract_z
Si Si1 0.409040 0.712103 0.234165
Si Si2 0.925867 0.535802 0.228120
Si Si3 0.677575 0.390312 0.363835
Si Si4 0.156661 0.938106 0.555536
Si Si5 0.772216 0.700906 0.040894
Si Si6 0.655419 0.314755 0.597714
Si Si7 0.997041 0.275576 0.638818
O O1 0.436327 0.419495 0.256269
O O2 0.251926 0.881063 0.259384
O O3 0.384885 0.702120 0.178151
O O4 0.972377 0.484592 0.172737
O O5 0.941444 0.842005 0.245223
O O6 0.529144 0.610234 0.377777
O O7 0.853268 0.536006 0.343335
O O8 0.726263 0.232579 0.410841
O O9 0.255118 0.065075 0.509463
O O10 0.076134 0.182193 0.587674
O O11 0.981619 0.781536 0.542609
O O12 0.692251 0.494281 0.081376
O O13 0.689631 0.992711 0.051688
O O14 0.808822 0.395093 0.631464
#
# Coordination Sequence:
#
# PCOD9250546 Si02
#       7
#     4   4   4   4   4   4   4
#     4  12  28  48  71 105 145 185 238 306 361 427
#     4  12  25  46  73 101 139 185 239 297 362 436
#     4  12  26  46  74 104 141 191 240 292 363 428
#     4  10  24  43  78  99 148 186 238 293 356 425
#     4  10  24  47  69 109 143 189 233 293 359 421
#     4  11  26  44  71 102 148 184 237 292 352 423
#     4  11  25  46  70 104 138 190 239 292 358 430
#
# _framework density 26.077403
#
# number of rings (size 3 to 8) (size 9 to 14) (size 15 to 20)
#    0.000    0.857    2.857    2.571    6.000    5.143 
#    0.000    0.000    0.000    0.000    0.000    0.000 
#    0.000    0.000    0.000    0.000    0.000    0.000 
#
# Total GULP energy -157046.080381 kJ/mol
# GULP energy per Si atom -5608.788585 kJ/mol
# Density = 2.601805 g / cm^3
# Si number density = 26.077403 Si / 1000 Ang^3
#
#
#
# Elastic Constant Matrix: (Units=GPa)
#
#
# Indices 1 2 3 4 5 6 
#
# 1 136.8563 23.4021 18.1409 0.0000 5.1676 0.0000
# 2 23.4021 93.7776 8.7478 0.0000 6.9966 0.0000
# 3 18.1409 8.7478 111.8560 0.0000 9.3009 0.0000
# 4 0.0000 0.0000 0.0000 31.8521 0.0000 1.2578
# 5 5.1676 6.9966 9.3009 0.0000 29.6985 0.0000
# 6 0.0000 0.0000 0.0000 1.2578 0.0000 35.0598
#
#
#
# Elastic Compliance Matrix: (Units=1/GPa)
#
#
# Indices 1 2 3 4 5 6 
#
# 1 0.007779 -0.001797 -0.001072 0.000000 -0.000595 0.000000
# 2 -0.001797 0.011316 -0.000409 0.000000 -0.002225 0.000000
# 3 -0.001072 -0.000409 0.009366 0.000000 -0.002651 0.000000
# 4 0.000000 0.000000 0.000000 0.031440 0.000000 -0.001128
# 5 -0.000595 -0.002225 -0.002651 0.000000 0.035130 0.000000
# 6 0.000000 0.000000 0.000000 -0.001128 0.000000 0.028563
#
#
# Mechanical properties :
#
#
# Convention : Reuss Voigt Hill
#
# Bulk Modulus (GPa) = 45.64745 49.23017 47.43881
# Shear Modulus (GPa) = 36.37697 38.80202 37.58950
#
# Velocity S-wave (km/s) = 3.73897 3.86159 3.80077
# Velocity P-wave (km/s) = 6.01519 6.22912 6.12309
#
# Compressibility (1/GPa) = 0.02190703
#
# Stress axis : x y z
#
# Youngs Moduli (GPa) = 128.55644 88.36988 106.76686
#
# Poissons Ratio (x) = 0.15879 0.11441
# Poissons Ratio (y) = 0.23100 0.04362
# Poissons Ratio (z) = 0.13776 0.03610
#
# Static dielectric constant tensor:
#      x y z
#    x 2.124930 0.000000 0.054010 
#    y 0.000000 1.996980 0.000000 
#    z 0.054010 0.000000 2.025800 
# 
# From -- ./inp_files/79023.got.cif
#   From: 2010.05.17/outbox.cif.g08.bks.cpg/sg14_40_cif.got.tgz:79023.got - 2010.06.03 17:49:19.
