data_PCOD9250994
_publ_section_title
;
Structure prediction by ZEFSAII (Michael W. Deem and Ramdas Pophale) SiO2 
 PCOD9250994
Probable space group: P 21/C
;
_chemical_formula_sum "Si O2"
_cell_formula_units_Z 32
_cell_length_a 9.466364
_cell_length_b 14.741481
_cell_length_c 9.223474
_cell_angle_alpha 90.000000
_cell_angle_beta 94.432918
_cell_angle_gamma 90.000000
_cell_volume 1283.269021
_symmetry_space_group_name_H-M "P 21/C"
_symmetry_group_IT_number 14
_symmetry_cell_setting 'monoclinic'
loop_
_space_group_symop_operation_xyz
x,y,z
-x,1/2+y,1/2-z
-x,-y,-z
x,1/2-y,1/2+z
loop_
_atom_site_type_symbol
_atom_site_label
_atom_site_fract_x
_atom_site_fract_y
_atom_site_fract_z
Si Si1 0.186548 0.902929 0.761642
Si Si2 0.763904 0.054203 0.808154
Si Si3 0.894294 0.864066 0.870137
Si Si4 0.194397 0.294383 0.959949
Si Si5 0.022371 0.068176 0.632547
Si Si6 0.523528 0.744565 0.868477
Si Si7 0.319654 0.743677 0.596284
Si Si8 0.490160 0.449362 0.650562
O O1 0.212918 0.820144 0.647185
O O2 0.350508 0.927775 0.795017
O O3 0.062194 0.862135 0.852392
O O4 0.123304 0.004435 0.735103
O O5 0.739751 0.142246 0.902698
O O6 0.871359 0.084656 0.692624
O O7 0.840966 0.967253 0.884273
O O8 0.610224 0.011101 0.756032
O O9 0.829113 0.826360 0.708350
O O10 0.853227 0.808183 0.010166
O O11 0.095146 0.347018 0.065714
O O12 0.351747 0.308848 0.040533
O O13 0.000000 0.000000 0.500000
O O14 0.467728 0.732263 0.700835
O O15 0.572583 0.849261 0.877081
O O16 0.377175 0.731706 0.943643
O O17 0.500000 0.500000 0.500000
#
# Coordination Sequence:
#
# PCOD9250994 Si02
#       8
#     4   4   4   4   4   4   4   4
#     4  10  25  44  69 103 140 183 241 290 360 423
#     4  11  23  46  70 103 143 191 234 300 358 433
#     4  11  25  46  73 103 144 189 239 298 365 437
#     4  12  24  45  73 102 148 187 241 301 362 430
#     4  11  24  45  70 100 143 185 244 295 361 431
#     4  11  25  41  69 109 137 186 242 298 366 430
#     4  11  25  43  71 100 148 185 241 299 367 429
#     4  11  23  46  71  98 149 181 240 300 362 431
#
# _framework density 24.936315
#
# number of rings (size 3 to 8) (size 9 to 14) (size 15 to 20)
#    0.000    1.000    5.000    1.500    5.250    3.000 
#    2.250    3.125    0.000    0.000    0.000    0.000 
#    0.000    0.000    0.000    0.000    0.000    0.000 
#
# Total GULP energy -178663.104381 kJ/mol
# GULP energy per Si atom -5583.222012 kJ/mol
# Density = 2.487956 g / cm^3
# Si number density = 24.936315 Si / 1000 Ang^3
#
#
#
# Elastic Constant Matrix: (Units=GPa)
#
#
# Indices 1 2 3 4 5 6 
#
# 1 150.7980 27.2113 29.1956 0.0000 -12.5867 0.0000
# 2 27.2113 104.7110 15.2244 0.0000 -0.7889 0.0000
# 3 29.1956 15.2244 55.6147 0.0000 3.0013 0.0000
# 4 0.0000 0.0000 0.0000 18.9720 0.0000 -15.3127
# 5 -12.5867 -0.7889 3.0013 0.0000 36.9324 0.0000
# 6 0.0000 0.0000 0.0000 -15.3127 0.0000 39.4377
#
#
#
# Elastic Compliance Matrix: (Units=1/GPa)
#
#
# Indices 1 2 3 4 5 6 
#
# 1 0.007901 -0.001462 -0.003908 0.000000 0.002979 0.000000
# 2 -0.001462 0.010224 -0.002025 0.000000 -0.000116 0.000000
# 3 -0.003908 -0.002025 0.020752 0.000000 -0.003061 0.000000
# 4 0.000000 0.000000 0.000000 0.076767 0.000000 0.029807
# 5 0.002979 -0.000116 -0.003061 0.000000 0.028338 0.000000
# 6 0.000000 0.000000 0.000000 0.029807 0.000000 0.036930
#
#
# Mechanical properties :
#
#
# Convention : Reuss Voigt Hill
#
# Bulk Modulus (GPa) = 41.51819 50.48738 46.00279
# Shear Modulus (GPa) = 24.54236 35.03457 29.78847
#
# Velocity S-wave (km/s) = 3.14060 3.75235 3.46002
# Velocity P-wave (km/s) = 5.46233 6.25012 5.86945
#
# Compressibility (1/GPa) = 0.02408583
#
# Stress axis : x y z
#
# Youngs Moduli (GPa) = 126.57393 97.81229 48.18855
#
# Poissons Ratio (x) = 0.14305 0.18831
# Poissons Ratio (y) = 0.18511 0.09757
# Poissons Ratio (z) = 0.49463 0.19804
#
# Static dielectric constant tensor:
#      x y z
#    x 2.042080 0.000000 0.063330 
#    y 0.000000 1.924710 0.000000 
#    z 0.063330 0.000000 2.006460 
# 
# From -- ./inp_files/25499.got.cif
#   From: 2010.05.17/outbox.cif.g08.bks.cpg/sg14_13_cif.got.tgz:25499.got - 2010.06.03 17:49:19.
