data_PCOD9250342
_publ_section_title
;
Structure prediction by ZEFSAII (Michael W. Deem and Ramdas Pophale) SiO2 
 PCOD9250342
Probable space group: P 21/C
;
_chemical_formula_sum "Si O2"
_cell_formula_units_Z 20
_cell_length_a 9.233076
_cell_length_b 7.699519
_cell_length_c 24.918586
_cell_angle_alpha 90.000000
_cell_angle_beta 35.941694
_cell_angle_gamma 90.000000
_cell_volume 1039.784022
_symmetry_space_group_name_H-M "P 21/C"
_symmetry_group_IT_number 14
_symmetry_cell_setting 'monoclinic'
loop_
_space_group_symop_operation_xyz
x,y,z
-x,1/2+y,1/2-z
-x,-y,-z
x,1/2-y,1/2+z
loop_
_atom_site_type_symbol
_atom_site_label
_atom_site_fract_x
_atom_site_fract_y
_atom_site_fract_z
Si Si1 0.505729 0.679458 0.105005
Si Si2 0.210392 0.549270 0.283640
Si Si3 0.046401 0.835049 0.948790
Si Si4 0.492280 0.194974 0.632715
Si Si5 0.321497 0.495423 0.605010
O O1 0.408954 0.675697 0.195571
O O2 0.481918 0.475920 0.097895
O O3 0.331878 0.810160 0.125161
O O4 0.785052 0.743914 0.016003
O O5 0.313161 0.358981 0.235878
O O6 0.168196 0.595677 0.357508
O O7 0.947945 0.563050 0.332642
O O8 0.237584 0.714076 0.923068
O O9 0.000000 0.000000 0.000000
O O10 0.420111 0.364307 0.621066
O O11 0.500000 0.500000 0.500000
#
# Coordination Sequence:
#
# PCOD9250342 Si02
#       5
#     4   4   4   4   4
#     4  10  24  41  69  95 133 172 222 270 328 397
#     4  10  25  41  67  99 132 175 220 271 331 394
#     4  12  22  45  67  98 134 173 221 271 332 393
#     4  10  25  40  68  95 131 176 222 270 333 393
#     4  12  21  46  66  96 136 171 223 277 328 391
#
# _framework density 19.234763999999998
#
# number of rings (size 3 to 8) (size 9 to 14) (size 15 to 20)
#    1.200    0.000    4.000    1.800    2.800    0.800 
#    0.000    2.000    0.000    0.000    0.000    0.000 
#    0.000    0.000    0.000    0.000    0.000    0.000 
#
# Total GULP energy -111452.251205 kJ/mol
# GULP energy per Si atom -5572.612560 kJ/mol
# Density = 1.919098 g / cm^3
# Si number density = 19.234764 Si / 1000 Ang^3
#
#
#
# Elastic Constant Matrix: (Units=GPa)
#
#
# Indices 1 2 3 4 5 6 
#
# 1 32.9886 19.8202 0.5281 0.0000 7.0280 0.0000
# 2 19.8202 79.2144 15.6065 0.0000 8.7010 0.0000
# 3 0.5281 15.6065 109.7231 0.0000 19.4900 0.0000
# 4 0.0000 0.0000 0.0000 33.9992 0.0000 -3.8674
# 5 7.0280 8.7010 19.4900 0.0000 35.5226 0.0000
# 6 0.0000 0.0000 0.0000 -3.8674 0.0000 17.4023
#
#
#
# Elastic Compliance Matrix: (Units=1/GPa)
#
#
# Indices 1 2 3 4 5 6 
#
# 1 0.037044 -0.009011 0.002231 0.000000 -0.006346 0.000000
# 2 -0.009011 0.015368 -0.001984 0.000000 -0.000893 0.000000
# 3 0.002231 -0.001984 0.010390 0.000000 -0.005656 0.000000
# 4 0.000000 0.000000 0.000000 0.030175 0.000000 0.006706
# 5 -0.006346 -0.000893 -0.005656 0.000000 0.032728 0.000000
# 6 0.000000 0.000000 0.000000 0.006706 0.000000 0.058954
#
#
# Mechanical properties :
#
#
# Convention : Reuss Voigt Hill
#
# Bulk Modulus (GPa) = 22.08849 32.64842 27.36845
# Shear Modulus (GPa) = 23.01194 29.78291 26.39743
#
# Velocity S-wave (km/s) = 3.46261 3.93923 3.70859
# Velocity P-wave (km/s) = 5.24355 6.14007 5.70944
#
# Compressibility (1/GPa) = 0.04527245
#
# Stress axis : x y z
#
# Youngs Moduli (GPa) = 26.99507 65.07210 96.24685
#
# Poissons Ratio (x) = 0.58638 -0.21469
# Poissons Ratio (y) = 0.24326 0.19094
# Poissons Ratio (z) = -0.06021 0.12909
#
# Static dielectric constant tensor:
#      x y z
#    x 1.636870 0.000000 -0.026860 
#    y 0.000000 1.678830 0.000000 
#    z -0.026860 0.000000 1.673350 
# 
# From -- ./inp_files/71852.got.cif
#   From: 2010.05.17/outbox.cif.g08.bks.cpg/sg14_36_cif.got.tgz:71852.got - 2010.06.03 17:49:19.
