data_PCOD9250639
_publ_section_title
;
Structure prediction by ZEFSAII (Michael W. Deem and Ramdas Pophale) SiO2 
 PCOD9250639
Probable space group: P 21/C
;
_chemical_formula_sum "Si O2"
_cell_formula_units_Z 20
_cell_length_a 16.306016
_cell_length_b 5.038461
_cell_length_c 15.568184
_cell_angle_alpha 90.000000
_cell_angle_beta 34.211267
_cell_angle_gamma 90.000000
_cell_volume 719.134465
_symmetry_space_group_name_H-M "P 21/C"
_symmetry_group_IT_number 14
_symmetry_cell_setting 'monoclinic'
loop_
_space_group_symop_operation_xyz
x,y,z
-x,1/2+y,1/2-z
-x,-y,-z
x,1/2-y,1/2+z
loop_
_atom_site_type_symbol
_atom_site_label
_atom_site_fract_x
_atom_site_fract_y
_atom_site_fract_z
Si Si1 0.143419 0.200152 0.112826
Si Si2 0.934367 0.406131 0.943323
Si Si3 0.555490 0.497116 0.655773
Si Si4 0.341374 0.745648 0.707894
Si Si5 0.751821 0.749785 0.804239
O O1 0.110728 0.294713 0.044925
O O2 0.228902 0.360338 0.115427
O O3 0.993154 0.155126 0.294805
O O4 0.269689 0.976562 0.997459
O O5 0.078458 0.312365 0.869277
O O6 0.795599 0.287694 0.109289
O O7 0.482658 0.213851 0.736887
O O8 0.478659 0.642547 0.642127
O O9 0.313875 0.540229 0.654382
O O10 0.334343 0.039828 0.677274
#
# Coordination Sequence:
#
# PCOD9250639 Si02
#       5
#     4   4   4   4   4
#     4  10  26  44  73 108 142 189 239 293 348 422
#     4  10  24  44  73 104 144 185 240 284 357 416
#     4  12  27  47  73 103 142 192 241 287 355 426
#     4  12  24  47  71 104 144 186 229 296 353 425
#     4  10  27  42  74 105 143 180 236 292 360 405
#
# _framework density 27.811212000000001
#
# number of rings (size 3 to 8) (size 9 to 14) (size 15 to 20)
#    1.200    0.000    2.000    2.400    5.600    3.200 
#    0.000    0.000    0.000    0.000    0.000    0.000 
#    0.000    0.000    0.000    0.000    0.000    0.000 
#
# Total GULP energy -111565.681812 kJ/mol
# GULP energy per Si atom -5578.284091 kJ/mol
# Density = 2.774791 g / cm^3
# Si number density = 27.811212 Si / 1000 Ang^3
#
#
#
# Elastic Constant Matrix: (Units=GPa)
#
#
# Indices 1 2 3 4 5 6 
#
# 1 145.6931 25.9023 20.2695 0.0000 -7.3906 0.0000
# 2 25.9023 98.0867 15.9963 0.0000 5.6114 0.0000
# 3 20.2695 15.9963 150.2616 0.0000 -33.4531 0.0000
# 4 0.0000 0.0000 0.0000 17.3803 0.0000 12.2650
# 5 -7.3906 5.6114 -33.4531 0.0000 41.1898 0.0000
# 6 0.0000 0.0000 0.0000 12.2650 0.0000 58.4034
#
#
#
# Elastic Compliance Matrix: (Units=1/GPa)
#
#
# Indices 1 2 3 4 5 6 
#
# 1 0.007336 -0.001916 -0.000530 0.000000 0.001147 0.000000
# 2 -0.001916 0.011151 -0.001640 0.000000 -0.003195 0.000000
# 3 -0.000530 -0.001640 0.008459 0.000000 0.006999 0.000000
# 4 0.000000 0.000000 0.000000 0.067547 0.000000 -0.014185
# 5 0.001147 -0.003195 0.006999 0.000000 0.030603 0.000000
# 6 0.000000 0.000000 0.000000 -0.014185 0.000000 0.020101
#
#
# Mechanical properties :
#
#
# Convention : Reuss Voigt Hill
#
# Bulk Modulus (GPa) = 53.26609 57.59751 55.43180
# Shear Modulus (GPa) = 31.32256 45.51958 38.42107
#
# Velocity S-wave (km/s) = 3.35962 4.05005 3.72088
# Velocity P-wave (km/s) = 5.85181 6.52883 6.19957
#
# Compressibility (1/GPa) = 0.01877367
#
# Stress axis : x y z
#
# Youngs Moduli (GPa) = 136.30630 89.67500 118.21297
#
# Poissons Ratio (x) = 0.17186 0.06269
# Poissons Ratio (y) = 0.26123 0.19386
# Poissons Ratio (z) = 0.07229 0.14706
#
# Static dielectric constant tensor:
#      x y z
#    x 2.245940 0.000000 0.097620 
#    y 0.000000 2.602690 0.000000 
#    z 0.097620 0.000000 2.241870 
# 
# From -- ./inp_files/59933.got.cif
#   From: 2010.05.17/outbox.cif.g08.bks.cpg/sg14_30_cif.got.tgz:59933.got - 2010.06.03 17:49:19.
