data_PCOD9250997
_publ_section_title
;
Structure prediction by ZEFSAII (Michael W. Deem and Ramdas Pophale) SiO2 
 PCOD9250997
Probable space group: P 21/C
;
_chemical_formula_sum "Si O2"
_cell_formula_units_Z 24
_cell_length_a 12.244423
_cell_length_b 10.085693
_cell_length_c 25.591501
_cell_angle_alpha 90.000000
_cell_angle_beta 158.983012
_cell_angle_gamma 90.000000
_cell_volume 1133.455020
_symmetry_space_group_name_H-M "P 21/C"
_symmetry_group_IT_number 14
_symmetry_cell_setting 'monoclinic'
loop_
_space_group_symop_operation_xyz
x,y,z
-x,1/2+y,1/2-z
-x,-y,-z
x,1/2-y,1/2+z
loop_
_atom_site_type_symbol
_atom_site_label
_atom_site_fract_x
_atom_site_fract_y
_atom_site_fract_z
Si Si1 0.770790 0.432683 0.549881
Si Si2 0.208632 0.129836 0.603103
Si Si3 0.653887 0.915154 0.523532
Si Si4 0.442903 0.998072 0.326097
Si Si5 0.275958 0.654999 0.355030
Si Si6 0.647496 0.214544 0.885848
O O1 0.501735 0.535958 0.440901
O O2 0.794914 0.349148 0.614414
O O3 0.700114 0.348282 0.466390
O O4 0.090860 0.507477 0.684691
O O5 0.421227 0.127290 0.749387
O O6 0.972706 0.251803 0.503704
O O7 0.443930 0.121058 0.660152
O O8 0.000000 0.000000 0.500000
O O9 0.439357 0.791376 0.415594
O O10 0.971668 0.863834 0.686561
O O11 0.500000 0.000000 0.500000
O O12 0.660730 0.999019 0.473859
O O13 0.488391 0.141695 0.320177
#
# Coordination Sequence:
#
# PCOD9250997 Si02
#       6
#     4   4   4   4   4   4
#     4  11  24  44  72 103 143 192 237 288 364 422
#     4  10  25  44  69 106 138 178 245 293 353 423
#     4  12  25  45  72 103 152 185 237 295 356 422
#     4  11  24  46  69 103 139 190 236 294 361 416
#     4  11  27  42  69 112 145 186 242 292 352 430
#     4  11  23  46  74 101 138 189 238 296 357 434
#
# _framework density 21.174198000000001
#
# number of rings (size 3 to 8) (size 9 to 14) (size 15 to 20)
#    0.000    1.000    3.333    2.000    7.000    3.333 
#    3.000    0.000    0.000    0.000    0.000    0.000 
#    0.000    0.000    0.000    0.000    0.000    0.000 
#
# Total GULP energy -134123.154365 kJ/mol
# GULP energy per Si atom -5588.464765 kJ/mol
# Density = 2.112600 g / cm^3
# Si number density = 21.174198 Si / 1000 Ang^3
#
#
#
# Elastic Constant Matrix: (Units=GPa)
#
#
# Indices 1 2 3 4 5 6 
#
# 1 104.7719 18.4221 39.2860 0.0000 -7.0905 0.0000
# 2 18.4221 51.6842 31.3461 0.0000 -3.3122 0.0000
# 3 39.2860 31.3461 149.4934 0.0000 -8.4899 0.0000
# 4 0.0000 0.0000 0.0000 35.1923 0.0000 -2.4290
# 5 -7.0905 -3.3122 -8.4899 0.0000 39.6751 0.0000
# 6 0.0000 0.0000 0.0000 -2.4290 0.0000 39.3326
#
#
#
# Elastic Compliance Matrix: (Units=1/GPa)
#
#
# Indices 1 2 3 4 5 6 
#
# 1 0.010914 -0.002421 -0.002289 0.000000 0.001259 0.000000
# 2 -0.002421 0.022734 -0.004097 0.000000 0.000588 0.000000
# 3 -0.002289 -0.004097 0.008207 0.000000 0.001005 0.000000
# 4 0.000000 0.000000 0.000000 0.028537 0.000000 0.001762
# 5 0.001259 0.000588 0.001005 0.000000 0.025694 0.000000
# 6 0.000000 0.000000 0.000000 0.001762 0.000000 0.025533
#
#
# Mechanical properties :
#
#
# Convention : Reuss Voigt Hill
#
# Bulk Modulus (GPa) = 41.25414 53.78420 47.51917
# Shear Modulus (GPa) = 33.94135 37.29969 35.62052
#
# Velocity S-wave (km/s) = 4.00804 4.20165 4.10599
# Velocity P-wave (km/s) = 6.39880 6.99960 6.70594
#
# Compressibility (1/GPa) = 0.02423999
#
# Stress axis : x y z
#
# Youngs Moduli (GPa) = 91.62794 43.98715 121.84781
#
# Poissons Ratio (x) = 0.10650 0.27890
# Poissons Ratio (y) = 0.22185 0.49923
# Poissons Ratio (z) = 0.20973 0.18022
#
# Static dielectric constant tensor:
#      x y z
#    x 1.799070 0.000000 0.022180 
#    y 0.000000 1.757610 0.000000 
#    z 0.022180 0.000000 1.751020 
# 
# From -- ./inp_files/73332.got.cif
#   From: 2010.05.17/outbox.cif.g08.bks.cpg/sg14_37_cif.got.tgz:73332.got - 2010.06.03 17:49:19.
