data_PCOD9250346
_publ_section_title
;
Structure prediction by ZEFSAII (Michael W. Deem and Ramdas Pophale) SiO2 
 PCOD9250346
Probable space group: P 21/C
;
_chemical_formula_sum "Si O2"
_cell_formula_units_Z 32
_cell_length_a 10.578326
_cell_length_b 16.390081
_cell_length_c 9.623647
_cell_angle_alpha 90.000000
_cell_angle_beta 54.427677
_cell_angle_gamma 90.000000
_cell_volume 1357.163639
_symmetry_space_group_name_H-M "P 21/C"
_symmetry_group_IT_number 14
_symmetry_cell_setting 'monoclinic'
loop_
_space_group_symop_operation_xyz
x,y,z
-x,1/2+y,1/2-z
-x,-y,-z
x,1/2-y,1/2+z
loop_
_atom_site_type_symbol
_atom_site_label
_atom_site_fract_x
_atom_site_fract_y
_atom_site_fract_z
Si Si1 0.427706 0.313925 0.531056
Si Si2 0.662694 0.611078 0.147268
Si Si3 0.028015 0.148747 0.943050
Si Si4 0.247842 0.819006 0.282943
Si Si5 0.366288 0.352881 0.246976
Si Si6 0.322662 0.562661 0.981235
Si Si7 0.937096 0.778473 0.357361
Si Si8 0.297377 0.626380 0.300798
O O1 0.333092 0.375264 0.689774
O O2 0.609983 0.337554 0.412051
O O3 0.383059 0.323928 0.397268
O O4 0.406439 0.225442 0.621496
O O5 0.716189 0.525108 0.053542
O O6 0.477177 0.617169 0.231726
O O7 0.779057 0.677691 0.006675
O O8 0.917943 0.330367 0.179666
O O9 0.866220 0.103382 0.019036
O O10 0.037456 0.191410 0.087531
O O11 0.044820 0.221771 0.819261
O O12 0.259524 0.870275 0.414815
O O13 0.276573 0.724237 0.300718
O O14 0.491942 0.422346 0.141801
O O15 0.197732 0.390387 0.322720
O O16 0.277369 0.584103 0.164989
#
# Coordination Sequence:
#
# PCOD9250346 Si02
#       8
#     4   4   4   4   4   4   4   4
#     4  11  22  39  69  96 134 172 219 288 318 402
#     4  12  25  43  65  98 142 181 218 270 352 401
#     4  11  24  40  68 103 130 172 230 287 329 382
#     4  10  24  41  69  99 131 174 231 277 328 385
#     4  11  22  41  67 102 129 172 234 272 336 389
#     4  11  25  43  69  99 135 184 217 272 346 412
#     4  11  25  40  67 102 135 169 227 283 333 396
#     4  11  24  42  69  98 136 172 230 280 331 395
#
# _framework density 23.578586000000001
#
# number of rings (size 3 to 8) (size 9 to 14) (size 15 to 20)
#    0.000    1.000    2.500    4.125    7.000    2.500 
#    0.000    3.750    0.000    0.000    0.000    0.000 
#    0.000    0.000    0.000    0.000    0.000    0.000 
#
# Total GULP energy -178738.104353 kJ/mol
# GULP energy per Si atom -5585.565761 kJ/mol
# Density = 2.352492 g / cm^3
# Si number density = 23.578586 Si / 1000 Ang^3
#
#
#
# Elastic Constant Matrix: (Units=GPa)
#
#
# Indices 1 2 3 4 5 6 
#
# 1 113.7109 1.3581 27.6249 0.0000 -26.3088 0.0000
# 2 1.3581 52.9150 -0.6985 0.0000 3.6144 0.0000
# 3 27.6249 -0.6985 107.1810 0.0000 3.8601 0.0000
# 4 0.0000 0.0000 0.0000 15.7412 0.0000 11.6694
# 5 -26.3088 3.6144 3.8601 0.0000 40.5168 0.0000
# 6 0.0000 0.0000 0.0000 11.6694 0.0000 -7.2074
#
#
#
# Elastic Compliance Matrix: (Units=1/GPa)
#
#
# Indices 1 2 3 4 5 6 
#
# 1 0.011386 -0.000866 -0.003221 0.000000 0.007778 0.000000
# 2 -0.000866 0.019084 0.000431 0.000000 -0.002306 0.000000
# 3 -0.003221 0.000431 0.010275 0.000000 -0.003108 0.000000
# 4 0.000000 0.000000 0.000000 0.028873 0.000000 0.046747
# 5 0.007778 -0.002306 -0.003108 0.000000 0.030233 0.000000
# 6 0.000000 0.000000 0.000000 0.046747 0.000000 -0.063058
#
#
# Mechanical properties :
#
#
# Convention : Reuss Voigt Hill
#
# Bulk Modulus (GPa) = 29.91047 36.70842 33.30945
# Shear Modulus (GPa) = 90.50042 26.17828 58.33935
#
# Velocity S-wave (km/s) = 6.20208 3.33567 4.97958
# Velocity P-wave (km/s) = 8.00004 5.51706 6.87163
#
# Compressibility (1/GPa) = 0.03343311
#
# Stress axis : x y z
#
# Youngs Moduli (GPa) = 87.82372 52.40090 97.32525
#
# Poissons Ratio (x) = 0.04538 0.31344
# Poissons Ratio (y) = 0.07606 -0.04191
# Poissons Ratio (z) = 0.28284 -0.02256
#
# Static dielectric constant tensor:
#      x y z
#    x 1.984340 0.000000 -0.043300 
#    y 0.000000 1.879690 0.000000 
#    z -0.043300 0.000000 1.946140 
# 
# From -- ./inp_files/13885.got.cif
#   From: 2010.05.17/outbox.cif.g08.bks.cpg/sg14_7_cif.got.tgz:13885.got - 2010.06.03 17:49:19.
