data_PCOD9250238
_publ_section_title
;
Structure prediction by ZEFSAII (Michael W. Deem and Ramdas Pophale) SiO2 
 PCOD9250238
Probable space group: P 21/C
;
_chemical_formula_sum "Si O2"
_cell_formula_units_Z 16
_cell_length_a 7.338337
_cell_length_b 13.493119
_cell_length_c 10.122811
_cell_angle_alpha 90.000000
_cell_angle_beta 40.542212
_cell_angle_gamma 90.000000
_cell_volume 651.523214
_symmetry_space_group_name_H-M "P 21/C"
_symmetry_group_IT_number 14
_symmetry_cell_setting 'monoclinic'
loop_
_space_group_symop_operation_xyz
x,y,z
-x,1/2+y,1/2-z
-x,-y,-z
x,1/2-y,1/2+z
loop_
_atom_site_type_symbol
_atom_site_label
_atom_site_fract_x
_atom_site_fract_y
_atom_site_fract_z
Si Si1 0.310694 0.851507 0.658717
Si Si2 0.111659 0.049377 0.271036
Si Si3 0.322261 0.934412 0.920301
Si Si4 0.963438 0.833846 0.321679
O O1 0.634816 0.821842 0.478328
O O2 0.172938 0.892888 0.600861
O O3 0.116997 0.758454 0.801908
O O4 0.291212 0.936757 0.781496
O O5 0.254683 0.031442 0.045446
O O6 0.359854 0.095434 0.218497
O O7 0.037337 0.937340 0.354028
O O8 0.115734 0.853422 0.097182
#
# Coordination Sequence:
#
# PCOD9250238 Si02
#       4
#     4   4   4   4
#     4  12  22  41  66  89 124 173 199 248 324 351
#     4   9  21  46  61  92 127 155 212 258 295 367
#     4   9  22  43  64  87 126 160 199 264 298 365
#     4  10  24  38  62  97 123 157 212 254 294 376
#
# _framework density 24.557836000000002
#
# number of rings (size 3 to 8) (size 9 to 14) (size 15 to 20)
#    1.500    0.500    0.000    3.000    0.000    5.000 
#    0.000    0.000    0.000    0.000    0.000    0.000 
#    0.000    0.000    0.000    0.000    0.000    0.000 
#
# Total GULP energy -89323.333696 kJ/mol
# GULP energy per Si atom -5582.708356 kJ/mol
# Density = 2.450194 g / cm^3
# Si number density = 24.557836 Si / 1000 Ang^3
#
#
#
# Elastic Constant Matrix: (Units=GPa)
#
#
# Indices 1 2 3 4 5 6 
#
# 1 131.9446 9.6097 45.1980 0.0000 -47.3940 0.0000
# 2 9.6097 73.2888 0.9417 0.0000 -16.8248 0.0000
# 3 45.1980 0.9417 114.5051 0.0000 -42.0198 0.0000
# 4 0.0000 0.0000 0.0000 18.8060 0.0000 -8.7980
# 5 -47.3940 -16.8248 -42.0198 0.0000 49.2987 0.0000
# 6 0.0000 0.0000 0.0000 -8.7980 0.0000 36.6229
#
#
#
# Elastic Compliance Matrix: (Units=1/GPa)
#
#
# Indices 1 2 3 4 5 6 
#
# 1 0.011685 0.001029 -0.000538 0.000000 0.011126 0.000000
# 2 0.001029 0.015413 0.002562 0.000000 0.008433 0.000000
# 3 -0.000538 0.002562 0.013177 0.000000 0.011589 0.000000
# 4 0.000000 0.000000 0.000000 0.059907 0.000000 0.014392
# 5 0.011126 0.008433 0.011589 0.000000 0.043736 0.000000
# 6 0.000000 0.000000 0.000000 0.014392 0.000000 0.030763
#
#
# Mechanical properties :
#
#
# Convention : Reuss Voigt Hill
#
# Bulk Modulus (GPa) = 21.56101 47.91527 34.73814
# Shear Modulus (GPa) = 27.16871 38.54479 32.85675
#
# Velocity S-wave (km/s) = 3.32974 3.96605 3.66175
# Velocity P-wave (km/s) = 4.85609 6.36603 5.66162
#
# Compressibility (1/GPa) = 0.04638001
#
# Stress axis : x y z
#
# Youngs Moduli (GPa) = 85.58272 64.88162 75.88885
#
# Poissons Ratio (x) = -0.06676 0.04081
# Poissons Ratio (y) = -0.08806 -0.19440
# Poissons Ratio (z) = 0.04603 -0.16620
#
# Static dielectric constant tensor:
#      x y z
#    x 1.948060 0.000000 0.054610 
#    y 0.000000 1.975230 0.000000 
#    z 0.054610 0.000000 2.036960 
# 
# From -- ./inp_files/5254.got.cif
#   From: 2010.05.17/outbox.cif.g08.bks.cpg/sg14_3_cif.got.tgz:5254.got - 2010.06.03 17:49:19.
