data_PCOD9250795
_publ_section_title
;
Structure prediction by ZEFSAII (Michael W. Deem and Ramdas Pophale) SiO2 
 PCOD9250795
Probable space group: P 21/C
;
_chemical_formula_sum "Si O2"
_cell_formula_units_Z 20
_cell_length_a 8.057730
_cell_length_b 12.010528
_cell_length_c 7.785507
_cell_angle_alpha 90.000000
_cell_angle_beta 72.920873
_cell_angle_gamma 90.000000
_cell_volume 720.234970
_symmetry_space_group_name_H-M "P 21/C"
_symmetry_group_IT_number 14
_symmetry_cell_setting 'monoclinic'
loop_
_space_group_symop_operation_xyz
x,y,z
-x,1/2+y,1/2-z
-x,-y,-z
x,1/2-y,1/2+z
loop_
_atom_site_type_symbol
_atom_site_label
_atom_site_fract_x
_atom_site_fract_y
_atom_site_fract_z
Si Si1 0.058716 0.873578 0.995366
Si Si2 0.040740 0.340539 0.842507
Si Si3 0.453000 0.616798 0.424414
Si Si4 0.751640 0.479598 0.087498
Si Si5 0.455602 0.146434 0.505722
O O1 0.068968 0.836836 0.795526
O O2 0.247735 0.862939 0.022294
O O3 0.923165 0.785238 0.115787
O O4 0.000000 0.000000 0.000000
O O5 0.912512 0.397283 0.019191
O O6 0.195126 0.430579 0.783072
O O7 0.500000 0.500000 0.500000
O O8 0.473668 0.620934 0.209714
O O9 0.557200 0.722680 0.466612
O O10 0.585846 0.399993 0.111756
O O11 0.716171 0.569557 0.943936
#
# Coordination Sequence:
#
# PCOD9250795 Si02
#       5
#     4   4   4   4   4
#     4  12  28  46  72 106 139 185 238 284 350 417
#     4  11  26  46  75 100 145 181 236 287 350 409
#     4  12  28  46  72 106 139 185 238 284 350 417
#     4  10  24  46  74 100 136 192 226 286 350 406
#     4  11  26  46  75 100 145 181 236 287 350 409
#
# _framework density 27.768719000000001
#
# number of rings (size 3 to 8) (size 9 to 14) (size 15 to 20)
#    0.000    0.800    4.000    0.000   16.800    0.000 
#    0.000    0.000    0.000    0.000    0.000    0.000 
#    0.000    0.000    0.000    0.000    0.000    0.000 
#
# Total GULP energy -111901.320817 kJ/mol
# GULP energy per Si atom -5595.066041 kJ/mol
# Density = 2.770552 g / cm^3
# Si number density = 27.768719 Si / 1000 Ang^3
#
#
#
# Elastic Constant Matrix: (Units=GPa)
#
#
# Indices 1 2 3 4 5 6 
#
# 1 89.7889 30.1482 18.0355 0.0000 26.2054 0.0000
# 2 30.1482 267.8885 66.7106 0.0000 2.3455 0.0000
# 3 18.0355 66.7106 83.1399 0.0000 -0.3042 0.0000
# 4 0.0000 0.0000 0.0000 56.7151 0.0000 5.9482
# 5 26.2054 2.3455 -0.3042 0.0000 41.8047 0.0000
# 6 0.0000 0.0000 0.0000 5.9482 0.0000 45.6747
#
#
#
# Elastic Compliance Matrix: (Units=1/GPa)
#
#
# Indices 1 2 3 4 5 6 
#
# 1 0.014610 -0.000958 -0.002434 0.000000 -0.009122 0.000000
# 2 -0.000958 0.004731 -0.003587 0.000000 0.000309 0.000000
# 3 -0.002434 -0.003587 0.015441 0.000000 0.001839 0.000000
# 4 0.000000 0.000000 0.000000 0.017876 0.000000 -0.002328
# 5 -0.009122 0.000309 0.001839 0.000000 0.029635 0.000000
# 6 0.000000 0.000000 0.000000 -0.002328 0.000000 0.022197
#
#
# Mechanical properties :
#
#
# Convention : Reuss Voigt Hill
#
# Bulk Modulus (GPa) = 48.02221 74.51178 61.26700
# Shear Modulus (GPa) = 39.87506 50.56712 45.22109
#
# Velocity S-wave (km/s) = 3.79353 4.27196 4.03983
# Velocity P-wave (km/s) = 6.04310 7.15710 6.62356
#
# Compressibility (1/GPa) = 0.02082370
#
# Stress axis : x y z
#
# Youngs Moduli (GPa) = 68.44477 211.35471 64.76210
#
# Poissons Ratio (x) = 0.20254 0.15762
# Poissons Ratio (y) = 0.06559 0.23233
# Poissons Ratio (z) = 0.16659 0.75821
#
# Static dielectric constant tensor:
#      x y z
#    x 2.249060 0.000000 -0.081220 
#    y 0.000000 2.136820 0.000000 
#    z -0.081220 0.000000 2.203890 
# 
# From -- ./inp_files/7987.got.cif
#   From: 2010.05.17/outbox.cif.g08.bks.cpg/sg14_4_cif.got.tgz:7987.got - 2010.06.03 17:49:19.
