data_PCOD9250010
_publ_section_title
;
Structure prediction by ZEFSAII (Michael W. Deem and Ramdas Pophale) SiO2 
 PCOD9250010
Probable space group: P 21/C
;
_chemical_formula_sum "Si O2"
_cell_formula_units_Z 28
_cell_length_a 14.297243
_cell_length_b 5.556779
_cell_length_c 17.004690
_cell_angle_alpha 90.000000
_cell_angle_beta 63.852805
_cell_angle_gamma 90.000000
_cell_volume 1212.713972
_symmetry_space_group_name_H-M "P 21/C"
_symmetry_group_IT_number 14
_symmetry_cell_setting 'monoclinic'
loop_
_space_group_symop_operation_xyz
x,y,z
-x,1/2+y,1/2-z
-x,-y,-z
x,1/2-y,1/2+z
loop_
_atom_site_type_symbol
_atom_site_label
_atom_site_fract_x
_atom_site_fract_y
_atom_site_fract_z
Si Si1 0.815704 0.093911 0.197678
Si Si2 0.670145 0.538209 0.887079
Si Si3 0.092012 0.039660 0.527115
Si Si4 0.470111 0.792480 0.948113
Si Si5 0.271506 0.797479 0.936731
Si Si6 0.930002 0.909177 0.696799
Si Si7 0.162237 0.408436 0.603038
O O1 0.765997 0.077650 0.129499
O O2 0.879222 0.344769 0.180991
O O3 0.730333 0.112552 0.299080
O O4 0.876493 0.841889 0.190827
O O5 0.581649 0.698263 0.878238
O O6 0.755124 0.707182 0.897809
O O7 0.600318 0.396674 0.976118
O O8 0.205332 0.951824 0.457891
O O9 0.048013 0.907308 0.621819
O O10 0.098826 0.312375 0.551663
O O11 0.000000 0.000000 0.500000
O O12 0.394751 0.831984 0.901617
O O13 0.500000 0.000000 0.000000
O O14 0.231698 0.892817 0.036341
O O15 0.913946 0.941841 0.795664
#
# Coordination Sequence:
#
# PCOD9250010 Si02
#       7
#     4   4   4   4   4   4   4
#     4  11  26  48  72 105 148 186 232 304 359 434
#     4  10  23  45  70 102 139 182 239 295 361 425
#     4  12  26  45  69 104 147 191 239 298 362 434
#     4  11  22  44  72 103 134 185 238 299 355 439
#     4  12  25  44  73 102 146 188 240 296 371 426
#     4  11  27  46  72 106 145 190 244 290 356 429
#     4  11  25  42  74 100 141 192 240 296 355 434
#
# _framework density 23.088709999999999
#
# number of rings (size 3 to 8) (size 9 to 14) (size 15 to 20)
#    0.000    0.857    4.286    1.714    8.000    1.143 
#    2.571    0.000    0.000    0.000    0.000    0.000 
#    0.000    0.000    0.000    0.000    0.000    0.000 
#
# Total GULP energy -156255.357904 kJ/mol
# GULP energy per Si atom -5580.548497 kJ/mol
# Density = 2.303616 g / cm^3
# Si number density = 23.088710 Si / 1000 Ang^3
#
#
#
# Elastic Constant Matrix: (Units=GPa)
#
#
# Indices 1 2 3 4 5 6 
#
# 1 137.3841 33.2044 10.0307 0.0000 6.9898 0.0000
# 2 33.2044 66.3831 2.3008 0.0000 5.1337 0.0000
# 3 10.0307 2.3008 73.8007 0.0000 1.4635 0.0000
# 4 0.0000 0.0000 0.0000 36.6896 0.0000 -2.3531
# 5 6.9898 5.1337 1.4635 0.0000 37.6217 0.0000
# 6 0.0000 0.0000 0.0000 -2.3531 0.0000 34.0115
#
#
#
# Elastic Compliance Matrix: (Units=1/GPa)
#
#
# Indices 1 2 3 4 5 6 
#
# 1 0.008388 -0.004087 -0.000994 0.000000 -0.000962 0.000000
# 2 -0.004087 0.017230 0.000050 0.000000 -0.001594 0.000000
# 3 -0.000994 0.000050 0.013691 0.000000 -0.000355 0.000000
# 4 0.000000 0.000000 0.000000 0.027377 0.000000 0.001894
# 5 -0.000962 -0.001594 -0.000355 0.000000 0.026990 0.000000
# 6 0.000000 0.000000 0.000000 0.001894 0.000000 0.029533
#
#
# Mechanical properties :
#
#
# Convention : Reuss Voigt Hill
#
# Bulk Modulus (GPa) = 34.19102 40.95995 37.57549
# Shear Modulus (GPa) = 34.96037 37.13336 36.04687
#
# Velocity S-wave (km/s) = 3.89546 4.01470 3.95553
# Velocity P-wave (km/s) = 5.92229 6.26651 6.09683
#
# Compressibility (1/GPa) = 0.02924745
#
# Stress axis : x y z
#
# Youngs Moduli (GPa) = 119.21642 58.03895 73.04320
#
# Poissons Ratio (x) = 0.23720 0.07258
# Poissons Ratio (y) = 0.48722 -0.00365
# Poissons Ratio (z) = 0.11845 -0.00290
#
# Static dielectric constant tensor:
#      x y z
#    x 2.002800 0.000000 0.015070 
#    y 0.000000 2.024110 0.000000 
#    z 0.015070 0.000000 1.879260 
# 
# From -- ./inp_files/58406.got.cif
#   From: 2010.05.17/outbox.cif.g08.bks.cpg/sg14_30_cif.got.tgz:58406.got - 2010.06.03 17:49:19.
