data_PCOD9250147
_publ_section_title
;
Structure prediction by ZEFSAII (Michael W. Deem and Ramdas Pophale) SiO2 
 PCOD9250147
Probable space group: P 21/C
;
_chemical_formula_sum "Si O2"
_cell_formula_units_Z 20
_cell_length_a 8.982362
_cell_length_b 9.780328
_cell_length_c 9.284534
_cell_angle_alpha 90.000000
_cell_angle_beta 106.105954
_cell_angle_gamma 90.000000
_cell_volume 783.636448
_symmetry_space_group_name_H-M "P 21/C"
_symmetry_group_IT_number 14
_symmetry_cell_setting 'monoclinic'
loop_
_space_group_symop_operation_xyz
x,y,z
-x,1/2+y,1/2-z
-x,-y,-z
x,1/2-y,1/2+z
loop_
_atom_site_type_symbol
_atom_site_label
_atom_site_fract_x
_atom_site_fract_y
_atom_site_fract_z
Si Si1 0.069202 0.280109 0.556520
Si Si2 0.380173 0.325471 0.086858
Si Si3 0.849403 0.998845 0.129670
Si Si4 0.581017 0.162991 0.909735
Si Si5 0.799459 0.423442 0.940636
O O1 0.247140 0.254572 0.639199
O O2 0.085887 0.352260 0.403139
O O3 0.983598 0.392861 0.627485
O O4 0.963232 0.144787 0.527319
O O5 0.500786 0.377974 0.238807
O O6 0.285316 0.454713 0.994525
O O7 0.462348 0.225104 0.995956
O O8 0.809415 0.019644 0.282948
O O9 0.695956 0.047533 0.001945
O O10 0.688806 0.292940 0.906965
#
# Coordination Sequence:
#
# PCOD9250147 Si02
#       5
#     4   4   4   4   4
#     4  10  25  44  68 102 138 189 235 282 354 416
#     4  12  25  43  71 105 141 183 230 296 345 423
#     4  10  23  47  70  98 142 190 230 288 347 426
#     4  11  25  45  71 106 143 182 233 285 364 408
#     4  11  24  45  69 103 140 185 237 289 346 418
#
# _framework density 25.522037000000001
#
# number of rings (size 3 to 8) (size 9 to 14) (size 15 to 20)
#    0.000    1.200    2.000    2.400    8.400    1.600 
#    0.000    0.000    0.000    0.000    0.000    0.000 
#    0.000    0.000    0.000    0.000    0.000    0.000 
#
# Total GULP energy -111997.010507 kJ/mol
# GULP energy per Si atom -5599.850525 kJ/mol
# Density = 2.546395 g / cm^3
# Si number density = 25.522037 Si / 1000 Ang^3
#
#
#
# Elastic Constant Matrix: (Units=GPa)
#
#
# Indices 1 2 3 4 5 6 
#
# 1 137.4840 46.4823 23.2637 0.0000 -0.7773 0.0000
# 2 46.4823 129.8825 22.4627 0.0000 4.1852 0.0000
# 3 23.2637 22.4627 42.1311 0.0000 -4.2663 0.0000
# 4 0.0000 0.0000 0.0000 17.2581 0.0000 12.6062
# 5 -0.7773 4.1852 -4.2663 0.0000 36.7426 0.0000
# 6 0.0000 0.0000 0.0000 12.6062 0.0000 19.8532
#
#
#
# Elastic Compliance Matrix: (Units=1/GPa)
#
#
# Indices 1 2 3 4 5 6 
#
# 1 0.008712 -0.002522 -0.003459 0.000000 0.000070 0.000000
# 2 -0.002522 0.009295 -0.003719 0.000000 -0.001544 0.000000
# 3 -0.003459 -0.003719 0.027993 0.000000 0.003601 0.000000
# 4 0.000000 0.000000 0.000000 0.108067 0.000000 -0.068619
# 5 0.000070 -0.001544 0.003601 0.000000 0.027812 0.000000
# 6 0.000000 0.000000 0.000000 -0.068619 0.000000 0.093940
#
#
# Mechanical properties :
#
#
# Convention : Reuss Voigt Hill
#
# Bulk Modulus (GPa) = 37.59486 54.87945 46.23716
# Shear Modulus (GPa) = 16.44277 29.25669 22.84973
#
# Velocity S-wave (km/s) = 2.54098 3.38942 2.99539
# Velocity P-wave (km/s) = 4.83436 6.07182 5.48808
#
# Compressibility (1/GPa) = 0.02659938
#
# Stress axis : x y z
#
# Youngs Moduli (GPa) = 114.78606 107.58689 35.72314
#
# Poissons Ratio (x) = 0.27132 0.12356
# Poissons Ratio (y) = 0.28947 0.13287
# Poissons Ratio (z) = 0.39702 0.40017
#
# Static dielectric constant tensor:
#      x y z
#    x 2.035400 0.000000 0.021830 
#    y 0.000000 2.046200 0.000000 
#    z 0.021830 0.000000 1.973070 
# 
# From -- ./inp_files/23134.got.cif
#   From: 2010.05.17/outbox.cif.g08.bks.cpg/sg14_12_cif.got.tgz:23134.got - 2010.06.03 17:49:19.
