data_PCOD9250450
_publ_section_title
;
Structure prediction by ZEFSAII (Michael W. Deem and Ramdas Pophale) SiO2 
 PCOD9250450
Probable space group: P 21/C
;
_chemical_formula_sum "Si O2"
_cell_formula_units_Z 26
_cell_length_a 5.874927
_cell_length_b 12.710196
_cell_length_c 14.061323
_cell_angle_alpha 90.000000
_cell_angle_beta 92.247835
_cell_angle_gamma 90.000000
_cell_volume 1049.171771
_symmetry_space_group_name_H-M "P 21/C"
_symmetry_group_IT_number 14
_symmetry_cell_setting 'monoclinic'
loop_
_space_group_symop_operation_xyz
x,y,z
-x,1/2+y,1/2-z
-x,-y,-z
x,1/2-y,1/2+z
loop_
_atom_site_type_symbol
_atom_site_label
_atom_site_fract_x
_atom_site_fract_y
_atom_site_fract_z
Si Si1 0.247236 0.710369 0.914753
Si Si2 0.359051 0.167365 0.430146
Si Si3 0.000000 0.500000 0.000000
Si Si4 0.907164 0.638283 0.490108
Si Si5 0.465549 0.190097 0.770047
Si Si6 0.790482 0.021039 0.855678
Si Si7 0.070521 0.047532 0.676153
O O1 0.362971 0.708152 0.814181
O O2 0.114819 0.817911 0.930306
O O3 0.061006 0.614539 0.911275
O O4 0.428707 0.687070 0.997376
O O5 0.192402 0.261864 0.459626
O O6 0.414665 0.201681 0.323171
O O7 0.225462 0.062411 0.452075
O O8 0.163788 0.534151 0.102618
O O9 0.731216 0.582607 0.415043
O O10 0.007911 0.567057 0.575255
O O11 0.591562 0.106293 0.841529
O O12 0.245898 0.129274 0.724851
O O13 0.903676 0.006022 0.754357
#
# Coordination Sequence:
#
# PCOD9250450 Si02
#       7
#     4   4   2   4   4   4   4
#     4  11  23  45  72 104 146 192 245 306 377 454
#     4  12  25  45  75 104 146 200 245 314 377 445
#     4  12  26  46  70 104 150 196 246 308 370 458
#     4  11  22  45  73 106 144 184 244 314 378 445
#     4  11  23  46  74 106 149 199 254 307 377 458
#     4  10  24  42  73 107 142 185 246 313 376 441
#     4  11  24  46  67 103 147 193 253 305 367 459
#
# _framework density 24.781455000000001
#
# number of rings (size 3 to 8) (size 9 to 14) (size 15 to 20)
#    0.000    0.923    6.154    0.000    0.000    4.923 
#    2.769    0.000    0.000    0.000    0.000    0.000 
#    0.000    0.000    0.000    0.000    0.000    0.000 
#
# Total GULP energy -145133.779805 kJ/mol
# GULP energy per Si atom -5582.068454 kJ/mol
# Density = 2.472505 g / cm^3
# Si number density = 24.781455 Si / 1000 Ang^3
#
#
#
# Elastic Constant Matrix: (Units=GPa)
#
#
# Indices 1 2 3 4 5 6 
#
# 1 53.5363 11.8391 27.9442 0.0000 10.7162 0.0000
# 2 11.8391 62.0154 41.1741 0.0000 -2.8515 0.0000
# 3 27.9442 41.1741 136.0423 0.0000 7.7180 0.0000
# 4 0.0000 0.0000 0.0000 43.4593 0.0000 2.4420
# 5 10.7162 -2.8515 7.7180 0.0000 47.8118 0.0000
# 6 0.0000 0.0000 0.0000 2.4420 0.0000 42.5021
#
#
#
# Elastic Compliance Matrix: (Units=1/GPa)
#
#
# Indices 1 2 3 4 5 6 
#
# 1 0.021908 -0.001960 -0.003655 0.000000 -0.004437 0.000000
# 2 -0.001960 0.020589 -0.005978 0.000000 0.002632 0.000000
# 3 -0.003655 -0.005978 0.009976 0.000000 -0.001148 0.000000
# 4 0.000000 0.000000 0.000000 0.023085 0.000000 -0.001326
# 5 -0.004437 0.002632 -0.001148 0.000000 0.022252 0.000000
# 6 0.000000 0.000000 0.000000 -0.001326 0.000000 0.023604
#
#
# Mechanical properties :
#
#
# Convention : Reuss Voigt Hill
#
# Bulk Modulus (GPa) = 34.14452 45.94542 40.04497
# Shear Modulus (GPa) = 32.39102 38.13040 35.26071
#
# Velocity S-wave (km/s) = 3.61926 3.92684 3.77618
# Velocity P-wave (km/s) = 5.59228 6.25624 5.93355
#
# Compressibility (1/GPa) = 0.02928727
#
# Stress axis : x y z
#
# Youngs Moduli (GPa) = 45.64461 48.56878 100.24072
#
# Poissons Ratio (x) = 0.09517 0.36642
# Poissons Ratio (y) = 0.08944 0.59927
# Poissons Ratio (z) = 0.16685 0.29036
#
# Static dielectric constant tensor:
#      x y z
#    x 2.013390 0.000000 -0.009500 
#    y 0.000000 2.269850 0.000000 
#    z -0.009500 0.000000 2.084740 
# 
# From -- ./inp_files/37352.got.cif
#   From: 2010.05.17/outbox.cif.g08.bks.cpg/sg14_19_cif.got.tgz:37352.got - 2010.06.03 17:49:19.
