data_PCOD9250276
_publ_section_title
;
Structure prediction by ZEFSAII (Michael W. Deem and Ramdas Pophale) SiO2 
 PCOD9250276
Probable space group: P 21/C
;
_chemical_formula_sum "Si O2"
_cell_formula_units_Z 22
_cell_length_a 21.504660
_cell_length_b 4.938933
_cell_length_c 8.265448
_cell_angle_alpha 90.000000
_cell_angle_beta 109.574151
_cell_angle_gamma 90.000000
_cell_volume 827.140377
_symmetry_space_group_name_H-M "P 21/C"
_symmetry_group_IT_number 14
_symmetry_cell_setting 'monoclinic'
loop_
_space_group_symop_operation_xyz
x,y,z
-x,1/2+y,1/2-z
-x,-y,-z
x,1/2-y,1/2+z
loop_
_atom_site_type_symbol
_atom_site_label
_atom_site_fract_x
_atom_site_fract_y
_atom_site_fract_z
Si Si1 0.096164 0.821898 0.854539
Si Si2 0.727449 0.447342 0.717076
Si Si3 0.546267 0.760803 0.580166
Si Si4 0.000000 0.000000 0.500000
Si Si5 0.354996 0.223581 0.575758
Si Si6 0.819047 0.550789 0.288495
O O1 0.066444 0.971731 0.673291
O O2 0.140921 0.575319 0.827429
O O3 0.135694 0.008115 0.014308
O O4 0.033719 0.703483 0.896175
O O5 0.689976 0.541723 0.848176
O O6 0.682299 0.507507 0.519863
O O7 0.756505 0.149899 0.751495
O O8 0.789270 0.652077 0.748536
O O9 0.500000 0.500000 0.500000
O O10 0.571550 0.744982 0.785836
O O11 0.618778 0.868246 0.576391
O O12 0.500000 0.000000 0.500000
#
# Coordination Sequence:
#
# PCOD9250276 Si02
#       6
#     4   4   4   2   4   4
#     4  10  24  42  69 101 140 184 232 288 354 420
#     4  11  24  42  65  97 132 171 225 278 342 412
#     4  11  24  41  62  91 127 170 219 272 336 406
#     4  10  24  44  64 102 140 182 236 290 348 428
#     4  10  24  40  65  93 128 172 218 278 338 404
#     4  11  24  43  69  99 135 180 226 284 348 418
#
# _framework density 26.597657999999999
#
# number of rings (size 3 to 8) (size 9 to 14) (size 15 to 20)
#    0.000    1.455    0.000    3.273    0.000   17.455 
#    0.000    0.000    0.000    0.000    0.000    0.000 
#    0.000    0.000    0.000    0.000    0.000    0.000 
#
# Total GULP energy -122517.142836 kJ/mol
# GULP energy per Si atom -5568.961038 kJ/mol
# Density = 2.653712 g / cm^3
# Si number density = 26.597658 Si / 1000 Ang^3
#
#
#
# Elastic Constant Matrix: (Units=GPa)
#
#
# Indices 1 2 3 4 5 6 
#
# 1 120.7495 43.8691 2.7673 0.0000 10.3754 0.0000
# 2 43.8691 88.0296 34.5829 0.0000 10.1367 0.0000
# 3 2.7673 34.5829 69.7755 0.0000 27.1352 0.0000
# 4 0.0000 0.0000 0.0000 22.0880 0.0000 -8.5304
# 5 10.3754 10.1367 27.1352 0.0000 45.1353 0.0000
# 6 0.0000 0.0000 0.0000 -8.5304 0.0000 31.0802
#
#
#
# Elastic Compliance Matrix: (Units=1/GPa)
#
#
# Indices 1 2 3 4 5 6 
#
# 1 0.010933 -0.006722 0.004292 0.000000 -0.003584 0.000000
# 2 -0.006722 0.018303 -0.010189 0.000000 0.003561 0.000000
# 3 0.004292 -0.010189 0.024413 0.000000 -0.013375 0.000000
# 4 0.000000 0.000000 0.000000 0.050641 0.000000 0.013899
# 5 -0.003584 0.003561 -0.013375 0.000000 0.030221 0.000000
# 6 0.000000 0.000000 0.000000 0.013899 0.000000 0.035990
#
#
# Mechanical properties :
#
#
# Convention : Reuss Voigt Hill
#
# Bulk Modulus (GPa) = 35.19905 48.99924 42.09914
# Shear Modulus (GPa) = 24.36525 32.81640 28.59082
#
# Velocity S-wave (km/s) = 3.02994 3.51637 3.28218
# Velocity P-wave (km/s) = 5.05009 5.91176 5.49783
#
# Compressibility (1/GPa) = 0.02840986
#
# Stress axis : x y z
#
# Youngs Moduli (GPa) = 91.46375 54.63703 40.96139
#
# Poissons Ratio (x) = 0.36726 -0.17579
# Poissons Ratio (y) = 0.61481 0.41737
# Poissons Ratio (z) = -0.39253 0.55672
#
# Static dielectric constant tensor:
#      x y z
#    x 1.985480 0.000000 -0.079810 
#    y 0.000000 2.081610 0.000000 
#    z -0.079810 0.000000 2.089030 
# 
# From -- ./inp_files/18352.got.cif
#   From: 2010.05.17/outbox.cif.g08.bks.cpg/sg14_10_cif.got.tgz:18352.got - 2010.06.03 17:49:19.
