data_PCOD9250555
_publ_section_title
;
Structure prediction by ZEFSAII (Michael W. Deem and Ramdas Pophale) SiO2 
 PCOD9250555
Probable space group: P 21/C
;
_chemical_formula_sum "Si O2"
_cell_formula_units_Z 24
_cell_length_a 8.846373
_cell_length_b 22.086774
_cell_length_c 10.724517
_cell_angle_alpha 90.000000
_cell_angle_beta 29.750350
_cell_angle_gamma 90.000000
_cell_volume 1039.803135
_symmetry_space_group_name_H-M "P 21/C"
_symmetry_group_IT_number 14
_symmetry_cell_setting 'monoclinic'
loop_
_space_group_symop_operation_xyz
x,y,z
-x,1/2+y,1/2-z
-x,-y,-z
x,1/2-y,1/2+z
loop_
_atom_site_type_symbol
_atom_site_label
_atom_site_fract_x
_atom_site_fract_y
_atom_site_fract_z
Si Si1 0.159963 0.813579 0.541910
Si Si2 0.304704 0.020744 0.925853
Si Si3 0.645198 0.908264 0.604555
Si Si4 0.446134 0.299983 0.662104
Si Si5 0.329532 0.576019 0.073227
Si Si6 0.705651 0.396895 0.292803
O O1 0.382573 0.759796 0.419476
O O2 0.161442 0.861795 0.653123
O O3 0.262439 0.854548 0.352035
O O4 0.838043 0.787572 0.725915
O O5 0.480301 0.049159 0.679209
O O6 0.442950 0.055739 0.946499
O O7 0.404104 0.951042 0.848749
O O8 0.945048 0.032690 0.185100
O O9 0.555830 0.911744 0.524944
O O10 0.980411 0.931142 0.401990
O O11 0.646209 0.839183 0.651046
O O12 0.642742 0.348576 0.445052
#
# Coordination Sequence:
#
# PCOD9250555 Si02
#       6
#     4   4   4   4   4   4
#     4  10  25  44  64  97 134 181 232 290 338 419
#     4  11  24  47  72 100 149 180 232 287 343 418
#     4  11  26  41  69 107 132 187 232 284 351 414
#     4  11  25  43  68  95 136 181 233 283 350 409
#     4  11  25  45  71 103 141 186 230 286 347 407
#     4  10  24  44  65 101 134 183 232 283 358 401
#
# _framework density 23.081292000000001
#
# number of rings (size 3 to 8) (size 9 to 14) (size 15 to 20)
#    0.000    1.333    1.667    1.500    9.333    3.333 
#    0.000    0.000    0.000    0.000    0.000    0.000 
#    0.000    0.000    0.000    0.000    0.000    0.000 
#
# Total GULP energy -134287.645661 kJ/mol
# GULP energy per Si atom -5595.318569 kJ/mol
# Density = 2.302876 g / cm^3
# Si number density = 23.081292 Si / 1000 Ang^3
#
#
#
# Elastic Constant Matrix: (Units=GPa)
#
#
# Indices 1 2 3 4 5 6 
#
# 1 136.1962 75.4322 42.4408 0.0000 -26.5411 0.0000
# 2 75.4322 101.7923 22.1861 0.0000 -31.3780 0.0000
# 3 42.4408 22.1861 75.8822 0.0000 -10.9639 0.0000
# 4 0.0000 0.0000 0.0000 28.7094 0.0000 -21.7064
# 5 -26.5411 -31.3780 -10.9639 0.0000 31.6477 0.0000
# 6 0.0000 0.0000 0.0000 -21.7064 0.0000 37.8463
#
#
#
# Elastic Compliance Matrix: (Units=1/GPa)
#
#
# Indices 1 2 3 4 5 6 
#
# 1 0.014157 -0.009019 -0.005114 0.000000 0.001159 0.000000
# 2 -0.009019 0.020259 0.000980 0.000000 0.012862 0.000000
# 3 -0.005114 0.000980 0.016077 0.000000 0.002253 0.000000
# 4 0.000000 0.000000 0.000000 0.061501 0.000000 0.035273
# 5 0.001159 0.012862 0.002253 0.000000 0.046102 0.000000
# 6 0.000000 0.000000 0.000000 0.035273 0.000000 0.046653
#
#
# Mechanical properties :
#
#
# Convention : Reuss Voigt Hill
#
# Bulk Modulus (GPa) = 41.34505 65.99878 53.67192
# Shear Modulus (GPa) = 20.91024 31.22814 26.06919
#
# Velocity S-wave (km/s) = 3.01315 3.68226 3.36438
# Velocity P-wave (km/s) = 5.48244 6.83629 6.19645
#
# Compressibility (1/GPa) = 0.02418669
#
# Stress axis : x y z
#
# Youngs Moduli (GPa) = 70.63734 49.36190 62.19924
#
# Poissons Ratio (x) = 0.44520 0.31806
# Poissons Ratio (y) = 0.63708 -0.06093
# Poissons Ratio (z) = 0.36121 -0.04835
#
# Static dielectric constant tensor:
#      x y z
#    x 1.880860 0.000000 0.032160 
#    y 0.000000 1.818200 0.000000 
#    z 0.032160 0.000000 1.915420 
# 
# From -- ./inp_files/22024.got.cif
#   From: 2010.05.17/outbox.cif.g08.bks.cpg/sg14_12_cif.got.tgz:22024.got - 2010.06.03 17:49:19.
