data_PCOD9250417
_publ_section_title
;
Structure prediction by ZEFSAII (Michael W. Deem and Ramdas Pophale) SiO2 
 PCOD9250417
Probable space group: P 21/C
;
_chemical_formula_sum "Si O2"
_cell_formula_units_Z 28
_cell_length_a 9.273258
_cell_length_b 11.510485
_cell_length_c 14.304946
_cell_angle_alpha 90.000000
_cell_angle_beta 127.290536
_cell_angle_gamma 90.000000
_cell_volume 1214.765736
_symmetry_space_group_name_H-M "P 21/C"
_symmetry_group_IT_number 14
_symmetry_cell_setting 'monoclinic'
loop_
_space_group_symop_operation_xyz
x,y,z
-x,1/2+y,1/2-z
-x,-y,-z
x,1/2-y,1/2+z
loop_
_atom_site_type_symbol
_atom_site_label
_atom_site_fract_x
_atom_site_fract_y
_atom_site_fract_z
Si Si1 0.756878 0.031307 0.125078
Si Si2 0.693325 0.771758 0.035880
Si Si3 0.133904 0.557410 0.749180
Si Si4 0.947005 0.227591 0.928287
Si Si5 0.441344 0.383651 0.855381
Si Si6 0.804036 0.274516 0.064259
Si Si7 0.579593 0.343902 0.711514
O O1 0.718148 0.148190 0.051494
O O2 0.647675 0.045960 0.178397
O O3 0.708960 0.910247 0.058337
O O4 0.974702 0.027696 0.221256
O O5 0.663386 0.710545 0.122711
O O6 0.871786 0.730483 0.051451
O O7 0.523702 0.757785 0.899662
O O8 0.085867 0.597594 0.624831
O O9 0.330932 0.500727 0.831366
O O10 0.119199 0.669085 0.811372
O O11 0.764426 0.289895 0.822266
O O12 0.948414 0.249565 0.039315
O O13 0.448210 0.367344 0.746677
O O14 0.649715 0.364731 0.968798
#
# Coordination Sequence:
#
# PCOD9250417 Si02
#       7
#     4   4   4   4   4   4   4
#     4  11  24  42  69  96 139 173 226 282 343 398
#     4  11  24  42  69 102 135 181 229 282 338 410
#     4  11  24  43  73  95 139 177 226 285 334 412
#     4  10  24  42  69 101 135 178 225 277 345 403
#     4  11  25  41  70 100 134 182 232 273 346 400
#     4  11  24  46  67 100 139 176 223 289 337 404
#     4  11  23  43  66 101 138 177 225 284 335 408
#
# _framework density 23.049712
#
# number of rings (size 3 to 8) (size 9 to 14) (size 15 to 20)
#    0.000    1.143    2.857    1.714    6.000    2.286 
#    0.000    9.286    0.000    0.000    0.000    0.000 
#    0.000    0.000    0.000    0.000    0.000    0.000 
#
# Total GULP energy -156403.649366 kJ/mol
# GULP energy per Si atom -5585.844620 kJ/mol
# Density = 2.299725 g / cm^3
# Si number density = 23.049712 Si / 1000 Ang^3
#
#
#
# Elastic Constant Matrix: (Units=GPa)
#
#
# Indices 1 2 3 4 5 6 
#
# 1 190.9956 41.3701 44.2660 0.0000 -32.4481 0.0000
# 2 41.3701 56.9387 14.8886 0.0000 -12.6421 0.0000
# 3 44.2660 14.8886 49.5043 0.0000 -16.4865 0.0000
# 4 0.0000 0.0000 0.0000 22.8304 0.0000 1.5381
# 5 -32.4481 -12.6421 -16.4865 0.0000 40.8904 0.0000
# 6 0.0000 0.0000 0.0000 1.5381 0.0000 36.9169
#
#
#
# Elastic Compliance Matrix: (Units=1/GPa)
#
#
# Indices 1 2 3 4 5 6 
#
# 1 0.007633 -0.003639 -0.004722 0.000000 0.003028 0.000000
# 2 -0.003639 0.021422 -0.002247 0.000000 0.002830 0.000000
# 3 -0.004722 -0.002247 0.027283 0.000000 0.006558 0.000000
# 4 0.000000 0.000000 0.000000 0.043925 0.000000 -0.001830
# 5 0.003028 0.002830 0.006558 0.000000 0.030377 0.000000
# 6 0.000000 0.000000 0.000000 -0.001830 0.000000 0.027164
#
#
# Mechanical properties :
#
#
# Convention : Reuss Voigt Hill
#
# Bulk Modulus (GPa) = 28.47206 55.38755 41.92980
# Shear Modulus (GPa) = 26.21552 33.25514 29.73533
#
# Velocity S-wave (km/s) = 3.37612 3.80249 3.59563
# Velocity P-wave (km/s) = 5.25136 6.58485 5.95555
#
# Compressibility (1/GPa) = 0.03512216
#
# Stress axis : x y z
#
# Youngs Moduli (GPa) = 131.01443 46.68037 36.65329
#
# Poissons Ratio (x) = 0.16985 0.17309
# Poissons Ratio (y) = 0.47671 0.08235
# Poissons Ratio (z) = 0.61870 0.10488
#
# Static dielectric constant tensor:
#      x y z
#    x 1.897530 0.000000 0.015600 
#    y 0.000000 1.864620 0.000000 
#    z 0.015600 0.000000 1.899580 
# 
# From -- ./inp_files/40156.got.cif
#   From: 2010.05.17/outbox.cif.g08.bks.cpg/sg14_21_cif.got.tgz:40156.got - 2010.06.03 17:49:19.
