data_PCOD9250308
_publ_section_title
;
Structure prediction by ZEFSAII (Michael W. Deem and Ramdas Pophale) SiO2 
 PCOD9250308
Probable space group: P 21/C
;
_chemical_formula_sum "Si O2"
_cell_formula_units_Z 20
_cell_length_a 9.875593
_cell_length_b 9.363986
_cell_length_c 9.443320
_cell_angle_alpha 90.000000
_cell_angle_beta 75.843215
_cell_angle_gamma 90.000000
_cell_volume 846.749078
_symmetry_space_group_name_H-M "P 21/C"
_symmetry_group_IT_number 14
_symmetry_cell_setting 'monoclinic'
loop_
_space_group_symop_operation_xyz
x,y,z
-x,1/2+y,1/2-z
-x,-y,-z
x,1/2-y,1/2+z
loop_
_atom_site_type_symbol
_atom_site_label
_atom_site_fract_x
_atom_site_fract_y
_atom_site_fract_z
Si Si1 0.533290 0.598973 0.855628
Si Si2 0.602138 0.932728 0.860183
Si Si3 0.842654 0.215703 0.546790
Si Si4 0.086942 0.953369 0.198169
Si Si5 0.213490 0.574816 0.220483
O O1 0.550643 0.768721 0.865011
O O2 0.430504 0.529872 0.767571
O O3 0.691938 0.558192 0.770606
O O4 0.500000 0.500000 0.000000
O O5 0.767062 0.959828 0.849824
O O6 0.500000 0.000000 0.000000
O O7 0.916124 0.332365 0.424174
O O8 0.768074 0.123210 0.445883
O O9 0.745132 0.304305 0.678283
O O10 0.923114 0.118599 0.641681
O O11 0.950407 0.048717 0.216851
#
# Coordination Sequence:
#
# PCOD9250308 Si02
#       5
#     4   4   4   4   4
#     4  12  29  48  75 108 148 194 247 300 367 436
#     4  12  29  48  75 108 148 194 247 300 367 436
#     4  10  24  40  76 100 146 180 240 296 378 406
#     4  11  25  47  74 104 144 190 247 302 361 432
#     4  11  25  47  74 104 144 190 247 302 361 432
#
# _framework density 23.619748000000001
#
# number of rings (size 3 to 8) (size 9 to 14) (size 15 to 20)
#    0.000    0.800    0.000    4.800   22.400    0.000 
#    0.000    0.000    0.000    0.000    0.000    0.000 
#    0.000    0.000    0.000    0.000    0.000    0.000 
#
# Total GULP energy -111695.816787 kJ/mol
# GULP energy per Si atom -5584.790839 kJ/mol
# Density = 2.356599 g / cm^3
# Si number density = 23.619748 Si / 1000 Ang^3
#
#
#
# Elastic Constant Matrix: (Units=GPa)
#
#
# Indices 1 2 3 4 5 6 
#
# 1 161.9666 56.2397 18.8601 0.0000 -14.7077 0.0000
# 2 56.2397 148.9733 6.1594 0.0000 -10.6849 0.0000
# 3 18.8601 6.1594 110.9647 0.0000 1.7539 0.0000
# 4 0.0000 0.0000 0.0000 46.0549 0.0000 -5.6480
# 5 -14.7077 -10.6849 1.7539 0.0000 18.0399 0.0000
# 6 0.0000 0.0000 0.0000 -5.6480 0.0000 27.8698
#
#
#
# Elastic Compliance Matrix: (Units=1/GPa)
#
#
# Indices 1 2 3 4 5 6 
#
# 1 0.007620 -0.002477 -0.001235 0.000000 0.004865 0.000000
# 2 -0.002477 0.007838 -0.000056 0.000000 0.002629 0.000000
# 3 -0.001235 -0.000056 0.009255 0.000000 -0.001939 0.000000
# 4 0.000000 0.000000 0.000000 0.022267 0.000000 0.004512
# 5 0.004865 0.002629 -0.001939 0.000000 0.061145 0.000000
# 6 0.000000 0.000000 0.000000 0.004512 0.000000 0.036796
#
#
# Mechanical properties :
#
#
# Convention : Reuss Voigt Hill
#
# Bulk Modulus (GPa) = 58.20737 64.93591 61.57164
# Shear Modulus (GPa) = 31.60939 41.10261 36.35600
#
# Velocity S-wave (km/s) = 3.66219 4.17607 3.92755
# Velocity P-wave (km/s) = 6.52528 7.12774 6.83315
#
# Compressibility (1/GPa) = 0.01717995
#
# Stress axis : x y z
#
# Youngs Moduli (GPa) = 131.24063 127.57715 108.04448
#
# Poissons Ratio (x) = 0.31595 0.13338
# Poissons Ratio (y) = 0.32502 0.00602
# Poissons Ratio (z) = 0.16202 0.00711
#
# Static dielectric constant tensor:
#      x y z
#    x 1.906710 0.000000 0.015980 
#    y 0.000000 1.867910 0.000000 
#    z 0.015980 0.000000 1.650690 
# 
# From -- ./inp_files/11771.got.cif
#   From: 2010.05.17/outbox.cif.g08.bks.cpg/sg14_6_cif.got.tgz:11771.got - 2010.06.03 17:49:19.
