data_PCOD9250686
_publ_section_title
;
Structure prediction by ZEFSAII (Michael W. Deem and Ramdas Pophale) SiO2 
 PCOD9250686
Probable space group: P 21/C
;
_chemical_formula_sum "Si O2"
_cell_formula_units_Z 20
_cell_length_a 14.397464
_cell_length_b 10.996232
_cell_length_c 8.967292
_cell_angle_alpha 90.000000
_cell_angle_beta 34.189327
_cell_angle_gamma 90.000000
_cell_volume 797.761154
_symmetry_space_group_name_H-M "P 21/C"
_symmetry_group_IT_number 14
_symmetry_cell_setting 'monoclinic'
loop_
_space_group_symop_operation_xyz
x,y,z
-x,1/2+y,1/2-z
-x,-y,-z
x,1/2-y,1/2+z
loop_
_atom_site_type_symbol
_atom_site_label
_atom_site_fract_x
_atom_site_fract_y
_atom_site_fract_z
Si Si1 0.002903 0.011519 0.318565
Si Si2 0.732621 0.146892 0.538412
Si Si3 0.677347 0.902141 0.753795
Si Si4 0.690164 0.501238 0.797699
Si Si5 0.579316 0.768991 0.606631
O O1 0.911858 0.134277 0.375868
O O2 0.175605 0.996104 0.009362
O O3 0.000000 0.000000 0.500000
O O4 0.871497 0.905708 0.450654
O O5 0.612801 0.262684 0.690691
O O6 0.639233 0.041815 0.760202
O O7 0.732164 0.097541 0.369626
O O8 0.589205 0.803716 0.765589
O O9 0.653186 0.859521 0.955331
O O10 0.500000 0.500000 0.000000
O O11 0.692522 0.630735 0.878408
#
# Coordination Sequence:
#
# PCOD9250686 Si02
#       5
#     4   4   4   4   4
#     4  10  24  45  70 101 146 191 237 304 354 428
#     4   9  22  42  69 100 142 183 243 289 360 419
#     4   9  23  38  68 100 146 179 244 287 368 416
#     4  11  24  43  71 103 146 187 240 296 369 426
#     4  11  21  41  70 101 137 191 233 300 350 440
#
# _framework density 25.070163000000001
#
# number of rings (size 3 to 8) (size 9 to 14) (size 15 to 20)
#    1.200    0.800    0.000    2.400    5.600    1.600 
#    3.600    0.000    0.000    0.000    0.000    0.000 
#    0.000    0.000    0.000    0.000    0.000    0.000 
#
# Total GULP energy -111552.246656 kJ/mol
# GULP energy per Si atom -5577.612333 kJ/mol
# Density = 2.501310 g / cm^3
# Si number density = 25.070163 Si / 1000 Ang^3
#
#
#
# Elastic Constant Matrix: (Units=GPa)
#
#
# Indices 1 2 3 4 5 6 
#
# 1 146.6170 30.6280 71.2510 0.0000 4.0827 0.0000
# 2 30.6280 61.9309 34.1929 0.0000 1.9801 0.0000
# 3 71.2510 34.1929 161.6804 0.0000 1.7937 0.0000
# 4 0.0000 0.0000 0.0000 33.8669 0.0000 -4.9881
# 5 4.0827 1.9801 1.7937 0.0000 39.2547 0.0000
# 6 0.0000 0.0000 0.0000 -4.9881 0.0000 43.5146
#
#
#
# Elastic Compliance Matrix: (Units=1/GPa)
#
#
# Indices 1 2 3 4 5 6 
#
# 1 0.009043 -0.002553 -0.003438 0.000000 -0.000655 0.000000
# 2 -0.002553 0.019024 -0.002892 0.000000 -0.000562 0.000000
# 3 -0.003438 -0.002892 0.008310 0.000000 0.000124 0.000000
# 4 0.000000 0.000000 0.000000 0.030034 0.000000 0.003443
# 5 -0.000655 -0.000562 0.000124 0.000000 0.025565 0.000000
# 6 0.000000 0.000000 0.000000 0.003443 0.000000 0.023375
#
#
# Mechanical properties :
#
#
# Convention : Reuss Voigt Hill
#
# Bulk Modulus (GPa) = 53.73017 71.37470 62.55243
# Shear Modulus (GPa) = 35.88798 38.93766 37.41282
#
# Velocity S-wave (km/s) = 3.78762 3.94527 3.86725
# Velocity P-wave (km/s) = 6.37233 7.02035 6.70418
#
# Compressibility (1/GPa) = 0.01861152
#
# Stress axis : x y z
#
# Youngs Moduli (GPa) = 110.58609 52.56426 120.33248
#
# Poissons Ratio (x) = 0.13420 0.41368
# Poissons Ratio (y) = 0.28233 0.34800
# Poissons Ratio (z) = 0.38018 0.15202
#
# Static dielectric constant tensor:
#      x y z
#    x 2.165190 0.000000 -0.088950 
#    y 0.000000 2.058950 0.000000 
#    z -0.088950 0.000000 2.044220 
# 
# From -- ./inp_files/15968.got.cif
#   From: 2010.05.17/outbox.cif.g08.bks.cpg/sg14_8_cif.got.tgz:15968.got - 2010.06.03 17:49:19.
