data_PCOD9250257
_publ_section_title
;
Structure prediction by ZEFSAII (Michael W. Deem and Ramdas Pophale) SiO2 
 PCOD9250257
Probable space group: P 21/C
;
_chemical_formula_sum "Si O2"
_cell_formula_units_Z 16
_cell_length_a 10.278854
_cell_length_b 9.643735
_cell_length_c 9.785350
_cell_angle_alpha 90.000000
_cell_angle_beta 41.485790
_cell_angle_gamma 90.000000
_cell_volume 642.553253
_symmetry_space_group_name_H-M "P 21/C"
_symmetry_group_IT_number 14
_symmetry_cell_setting 'monoclinic'
loop_
_space_group_symop_operation_xyz
x,y,z
-x,1/2+y,1/2-z
-x,-y,-z
x,1/2-y,1/2+z
loop_
_atom_site_type_symbol
_atom_site_label
_atom_site_fract_x
_atom_site_fract_y
_atom_site_fract_z
Si Si1 0.553710 0.846886 0.913458
Si Si2 0.060496 0.260640 0.491395
Si Si3 0.806270 0.309364 0.945747
Si Si4 0.311832 0.418477 0.094730
O O1 0.761381 0.845491 0.671847
O O2 0.380451 0.779033 0.959308
O O3 0.604693 0.737266 0.995626
O O4 0.500000 0.000000 0.000000
O O5 0.987352 0.270435 0.702631
O O6 0.873838 0.221881 0.545246
O O7 0.160407 0.394443 0.339931
O O8 0.774686 0.471560 0.942020
O O9 0.500000 0.500000 0.000000
#
# Coordination Sequence:
#
# PCOD9250257 Si02
#       4
#     4   4   4   4
#     4   9  22  41  60  99 130 164 212 272 320 385
#     4  10  24  39  69  92 129 168 218 263 325 384
#     4  11  22  44  64  95 126 174 215 265 326 386
#     4   8  19  43  62  90 129 174 212 263 323 393
#
# _framework density 24.900659999999998
#
# number of rings (size 3 to 8) (size 9 to 14) (size 15 to 20)
#    1.500    1.000    0.000    0.750    3.500    3.000 
#    0.000    0.000    0.000    0.000    0.000    0.000 
#    0.000    0.000    0.000    0.000    0.000    0.000 
#
# Total GULP energy -89357.060277 kJ/mol
# GULP energy per Si atom -5584.816267 kJ/mol
# Density = 2.484399 g / cm^3
# Si number density = 24.900660 Si / 1000 Ang^3
#
#
#
# Elastic Constant Matrix: (Units=GPa)
#
#
# Indices 1 2 3 4 5 6 
#
# 1 29.6859 2.7148 76.9646 0.0000 -2.8373 0.0000
# 2 2.7148 150.9076 49.5147 0.0000 -0.2214 0.0000
# 3 76.9646 49.5147 60.7375 0.0000 -22.9118 0.0000
# 4 0.0000 0.0000 0.0000 42.5914 0.0000 -17.1810
# 5 -2.8373 -0.2214 -22.9118 0.0000 40.5573 0.0000
# 6 0.0000 0.0000 0.0000 -17.1810 0.0000 27.0975
#
#
#
# Elastic Compliance Matrix: (Units=1/GPa)
#
#
# Indices 1 2 3 4 5 6 
#
# 1 -0.006852 -0.005158 0.016135 0.000000 0.008608 0.000000
# 2 -0.005158 0.006130 0.001799 0.000000 0.000689 0.000000
# 3 0.016135 0.001799 -0.006378 0.000000 -0.002464 0.000000
# 4 0.000000 0.000000 0.000000 0.031548 0.000000 0.020003
# 5 0.008608 0.000689 -0.002464 0.000000 0.023870 0.000000
# 6 0.000000 0.000000 0.000000 0.020003 0.000000 0.049586
#
#
# Mechanical properties :
#
#
# Convention : Reuss Voigt Hill
#
# Bulk Modulus (GPa) = 54.19608 55.52435 54.86021
# Shear Modulus (GPa) = 63.69161 29.52504 46.60832
#
# Velocity S-wave (km/s) = 5.06298 3.44715 4.33109
# Velocity P-wave (km/s) = 7.48269 6.17985 6.86226
#
# Compressibility (1/GPa) = 0.01845152
#
# Stress axis : x y z
#
# Youngs Moduli (GPa) = -145.93516 163.12714 -156.79363
#
# Poissons Ratio (x) = 0.84146 2.52991
# Poissons Ratio (y) = -0.75277 0.28203
# Poissons Ratio (z) = 2.35471 -0.29342
#
# Static dielectric constant tensor:
#      x y z
#    x 2.036670 0.000000 0.073820 
#    y 0.000000 2.041420 0.000000 
#    z 0.073820 0.000000 1.991840 
# 
# From -- ./inp_files/22852.got.cif
#   From: 2010.05.17/outbox.cif.g08.bks.cpg/sg14_12_cif.got.tgz:22852.got - 2010.06.03 17:49:19.
