data_PCOD9250503
_publ_section_title
;
Structure prediction by ZEFSAII (Michael W. Deem and Ramdas Pophale) SiO2 
 PCOD9250503
Probable space group: P 21/C
;
_chemical_formula_sum "Si O2"
_cell_formula_units_Z 28
_cell_length_a 22.121936
_cell_length_b 9.280802
_cell_length_c 9.825841
_cell_angle_alpha 90.000000
_cell_angle_beta 38.499743
_cell_angle_gamma 90.000000
_cell_volume 1255.814488
_symmetry_space_group_name_H-M "P 21/C"
_symmetry_group_IT_number 14
_symmetry_cell_setting 'monoclinic'
loop_
_space_group_symop_operation_xyz
x,y,z
-x,1/2+y,1/2-z
-x,-y,-z
x,1/2-y,1/2+z
loop_
_atom_site_type_symbol
_atom_site_label
_atom_site_fract_x
_atom_site_fract_y
_atom_site_fract_z
Si Si1 0.946703 0.248974 0.443868
Si Si2 0.557637 0.090791 0.511567
Si Si3 0.888661 0.583551 0.198541
Si Si4 0.912339 0.494204 0.846436
Si Si5 0.768046 0.874946 0.405413
Si Si6 0.544048 0.600266 0.306433
Si Si7 0.216436 0.928324 0.873813
O O1 0.959127 0.162226 0.279879
O O2 0.835264 0.301247 0.624092
O O3 0.004594 0.144587 0.446550
O O4 0.005847 0.395851 0.344090
O O5 0.513271 0.249994 0.606037
O O6 0.673076 0.105411 0.280334
O O7 0.500000 0.000000 0.500000
O O8 0.545079 0.996338 0.669382
O O9 0.819942 0.723239 0.333805
O O10 0.847771 0.470353 0.381840
O O11 0.880487 0.535233 0.056130
O O12 0.822495 0.510299 0.905662
O O13 0.655959 0.863822 0.640208
O O14 0.779675 0.932756 0.231749
O O15 0.500000 0.500000 0.500000
#
# Coordination Sequence:
#
# PCOD9250503 Si02
#       7
#     4   4   4   4   4   4   4
#     4  11  24  41  64  96 136 169 223 267 330 388
#     4  11  25  47  74 102 139 183 231 300 352 422
#     4  11  23  43  66  98 133 179 223 269 333 397
#     4  11  25  41  69  95 131 181 220 278 326 397
#     4  10  24  43  68  95 133 176 220 274 341 404
#     4  11  25  47  70 105 137 180 232 288 361 416
#     4  11  25  43  66 100 134 175 227 276 339 401
#
# _framework density 22.296287
#
# number of rings (size 3 to 8) (size 9 to 14) (size 15 to 20)
#    0.000    1.143    1.429    3.857    4.000    5.714 
#    2.571    0.000    0.000    0.000    0.000    0.000 
#    0.000    0.000    0.000    0.000    0.000    0.000 
#
# Total GULP energy -156533.356401 kJ/mol
# GULP energy per Si atom -5590.477014 kJ/mol
# Density = 2.224554 g / cm^3
# Si number density = 22.296287 Si / 1000 Ang^3
#
#
#
# Elastic Constant Matrix: (Units=GPa)
#
#
# Indices 1 2 3 4 5 6 
#
# 1 141.6365 24.9731 54.2839 0.0000 -27.9914 0.0000
# 2 24.9731 86.1653 4.4442 0.0000 -16.8477 0.0000
# 3 54.2839 4.4442 100.6578 0.0000 -15.2294 0.0000
# 4 0.0000 0.0000 0.0000 25.5649 0.0000 4.9089
# 5 -27.9914 -16.8477 -15.2294 0.0000 38.6189 0.0000
# 6 0.0000 0.0000 0.0000 4.9089 0.0000 46.0586
#
#
#
# Elastic Compliance Matrix: (Units=1/GPa)
#
#
# Indices 1 2 3 4 5 6 
#
# 1 0.010082 -0.001762 -0.004647 0.000000 0.004706 0.000000
# 2 -0.001762 0.013004 0.001107 0.000000 0.004833 0.000000
# 3 -0.004647 0.001107 0.012714 0.000000 0.002128 0.000000
# 4 0.000000 0.000000 0.000000 0.039933 0.000000 -0.004256
# 5 0.004706 0.004833 0.002128 0.000000 0.032253 0.000000
# 6 0.000000 0.000000 0.000000 -0.004256 0.000000 0.022165
#
#
# Mechanical properties :
#
#
# Convention : Reuss Voigt Hill
#
# Bulk Modulus (GPa) = 39.68904 55.09580 47.39242
# Shear Modulus (GPa) = 33.52218 38.36571 35.94394
#
# Velocity S-wave (km/s) = 3.88169 4.15266 4.01946
# Velocity P-wave (km/s) = 6.15868 6.91066 6.54548
#
# Compressibility (1/GPa) = 0.02519587
#
# Stress axis : x y z
#
# Youngs Moduli (GPa) = 99.18344 76.89876 78.65274
#
# Poissons Ratio (x) = 0.13551 0.36554
# Poissons Ratio (y) = 0.17478 -0.08710
# Poissons Ratio (z) = 0.46095 -0.08515
#
# Static dielectric constant tensor:
#      x y z
#    x 1.836320 0.000000 0.021940 
#    y 0.000000 1.875070 0.000000 
#    z 0.021940 0.000000 1.848170 
# 
# From -- ./inp_files/18699.got.cif
#   From: 2010.05.17/outbox.cif.g08.bks.cpg/sg14_10_cif.got.tgz:18699.got - 2010.06.03 17:49:19.
