data_PCOD9250946
_publ_section_title
;
Structure prediction by ZEFSAII (Michael W. Deem and Ramdas Pophale) SiO2 
 PCOD9250946
Probable space group: P 21/C
;
_chemical_formula_sum "Si O2"
_cell_formula_units_Z 24
_cell_length_a 25.249774
_cell_length_b 10.371996
_cell_length_c 9.338841
_cell_angle_alpha 90.000000
_cell_angle_beta 25.185815
_cell_angle_gamma 90.000000
_cell_volume 1040.803601
_symmetry_space_group_name_H-M "P 21/C"
_symmetry_group_IT_number 14
_symmetry_cell_setting 'monoclinic'
loop_
_space_group_symop_operation_xyz
x,y,z
-x,1/2+y,1/2-z
-x,-y,-z
x,1/2-y,1/2+z
loop_
_atom_site_type_symbol
_atom_site_label
_atom_site_fract_x
_atom_site_fract_y
_atom_site_fract_z
Si Si1 0.602534 0.741588 0.065389
Si Si2 0.232981 0.481775 0.200037
Si Si3 0.910456 0.375321 0.225283
Si Si4 0.461717 0.857699 0.642329
Si Si5 0.036179 0.632324 0.221616
Si Si6 0.739559 0.013842 0.687657
O O1 0.478860 0.773099 0.459418
O O2 0.562542 0.696458 0.007058
O O3 0.677315 0.628794 0.960754
O O4 0.685252 0.871434 0.852287
O O5 0.207789 0.580507 0.391673
O O6 0.099829 0.419096 0.484206
O O7 0.277025 0.537586 0.940682
O O8 0.972190 0.259017 0.160920
O O9 0.895340 0.337581 0.097062
O O10 0.000000 0.500000 0.000000
O O11 0.500000 0.000000 0.500000
O O12 0.335241 0.880326 0.037245
O O13 0.119276 0.528670 0.103842
#
# Coordination Sequence:
#
# PCOD9250946 Si02
#       6
#     4   4   4   4   4   4
#     4  11  24  46  75 103 141 191 240 306 363 432
#     4  11  25  41  77 106 146 193 239 291 376 435
#     4  10  25  42  66 104 149 194 233 290 350 433
#     4  10  25  47  71 104 140 187 247 299 356 429
#     4  11  25  43  70 108 154 185 242 294 364 435
#     4  11  25  45  73 103 146 190 242 302 360 428
#
# _framework density 23.059107000000001
#
# number of rings (size 3 to 8) (size 9 to 14) (size 15 to 20)
#    0.000    1.333    1.667    1.500   14.000    3.333 
#    3.000    0.000    0.000    0.000    0.000    0.000 
#    0.000    0.000    0.000    0.000    0.000    0.000 
#
# Total GULP energy -134236.606576 kJ/mol
# GULP energy per Si atom -5593.191941 kJ/mol
# Density = 2.300662 g / cm^3
# Si number density = 23.059107 Si / 1000 Ang^3
#
#
#
# Elastic Constant Matrix: (Units=GPa)
#
#
# Indices 1 2 3 4 5 6 
#
# 1 89.8548 39.7258 8.5255 0.0000 31.9333 0.0000
# 2 39.7258 89.6926 29.3144 0.0000 1.4018 0.0000
# 3 8.5255 29.3144 73.1678 0.0000 28.4009 0.0000
# 4 0.0000 0.0000 0.0000 40.2599 0.0000 -1.7129
# 5 31.9333 1.4018 28.4009 0.0000 43.1409 0.0000
# 6 0.0000 0.0000 0.0000 -1.7129 0.0000 45.8597
#
#
#
# Elastic Compliance Matrix: (Units=1/GPa)
#
#
# Indices 1 2 3 4 5 6 
#
# 1 0.027738 -0.016751 0.015095 0.000000 -0.029925 0.000000
# 2 -0.016751 0.023477 -0.016080 0.000000 0.022222 0.000000
# 3 0.015095 -0.016080 0.030203 0.000000 -0.030534 0.000000
# 4 0.000000 0.000000 0.000000 0.024878 0.000000 0.000929
# 5 -0.029925 0.022222 -0.030534 0.000000 0.064710 0.000000
# 6 0.000000 0.000000 0.000000 0.000929 0.000000 0.021840
#
#
# Mechanical properties :
#
#
# Convention : Reuss Voigt Hill
#
# Bulk Modulus (GPa) = 21.76512 45.31630 33.54071
# Shear Modulus (GPa) = 20.52272 37.52873 29.02572
#
# Velocity S-wave (km/s) = 2.98653 4.03861 3.55174
# Velocity P-wave (km/s) = 4.62080 6.43755 5.60330
#
# Compressibility (1/GPa) = 0.04594508
#
# Stress axis : x y z
#
# Youngs Moduli (GPa) = 36.05214 42.59578 33.10944
#
# Poissons Ratio (x) = 0.71353 -0.49978
# Poissons Ratio (y) = 0.60391 0.53239
# Poissons Ratio (z) = -0.54420 0.68493
#
# Static dielectric constant tensor:
#      x y z
#    x 1.812620 0.000000 0.047990 
#    y 0.000000 1.681000 0.000000 
#    z 0.047990 0.000000 1.934710 
# 
# From -- ./inp_files/19458.got.cif
#   From: 2010.05.17/outbox.cif.g08.bks.cpg/sg14_10_cif.got.tgz:19458.got - 2010.06.03 17:49:19.
