data_PCOD9250386
_publ_section_title
;
Structure prediction by ZEFSAII (Michael W. Deem and Ramdas Pophale) SiO2 
 PCOD9250386
Probable space group: P 21/C
;
_chemical_formula_sum "Si O2"
_cell_formula_units_Z 32
_cell_length_a 16.130424
_cell_length_b 11.186992
_cell_length_c 8.838280
_cell_angle_alpha 90.000000
_cell_angle_beta 116.557167
_cell_angle_gamma 90.000000
_cell_volume 1426.598410
_symmetry_space_group_name_H-M "P 21/C"
_symmetry_group_IT_number 14
_symmetry_cell_setting 'monoclinic'
loop_
_space_group_symop_operation_xyz
x,y,z
-x,1/2+y,1/2-z
-x,-y,-z
x,1/2-y,1/2+z
loop_
_atom_site_type_symbol
_atom_site_label
_atom_site_fract_x
_atom_site_fract_y
_atom_site_fract_z
Si Si1 0.429504 0.104903 0.784648
Si Si2 0.076430 0.090999 0.114402
Si Si3 0.295221 0.888676 0.697413
Si Si4 0.352725 0.638537 0.588869
Si Si5 0.081955 0.591484 0.014091
Si Si6 0.735605 0.919530 0.835156
Si Si7 0.000161 0.242514 0.313222
Si Si8 0.669622 0.727145 0.536511
O O1 0.538264 0.123020 0.855052
O O2 0.399184 0.141008 0.929080
O O3 0.384709 0.198484 0.632357
O O4 0.376758 0.980112 0.713107
O O5 0.172079 0.027741 0.160691
O O6 0.053820 0.143586 0.258807
O O7 0.069436 0.201004 0.991698
O O8 0.000000 0.000000 0.000000
O O9 0.318147 0.762244 0.636059
O O10 0.190701 0.939195 0.578386
O O11 0.303493 0.875277 0.885846
O O12 0.330662 0.529402 0.684396
O O13 0.080812 0.684513 0.153398
O O14 0.041962 0.659721 0.834617
O O15 0.000000 0.500000 0.000000
O O16 0.708061 0.820040 0.689881
O O17 0.743319 0.852019 0.003791
#
# Coordination Sequence:
#
# PCOD9250386 Si02
#       8
#     4   4   4   4   4   4   4   4
#     4  11  25  47  73 104 138 184 238 294 357 417
#     4  11  24  40  66  92 132 177 225 280 337 410
#     4  12  28  46  73 104 148 187 239 294 360 427
#     4  12  28  46  73 103 145 187 236 295 359 430
#     4  11  25  45  71 101 140 184 233 284 348 416
#     4  11  25  43  70 101 137 182 236 288 362 419
#     4  10  24  42  66  95 135 178 228 279 343 405
#     4  10  24  45  73  99 138 175 235 295 352 421
#
# _framework density 22.430976999999999
#
# number of rings (size 3 to 8) (size 9 to 14) (size 15 to 20)
#    0.000    1.000    1.250    3.375   12.250    6.500 
#    0.000    0.000    0.000    0.000    0.000    0.000 
#    0.000    0.000    0.000    0.000    0.000    0.000 
#
# Total GULP energy -178801.924968 kJ/mol
# GULP energy per Si atom -5587.560155 kJ/mol
# Density = 2.237992 g / cm^3
# Si number density = 22.430977 Si / 1000 Ang^3
#
#
#
# Elastic Constant Matrix: (Units=GPa)
#
#
# Indices 1 2 3 4 5 6 
#
# 1 114.8979 10.5722 23.6881 0.0000 13.1266 0.0000
# 2 10.5722 75.0030 7.2865 0.0000 -2.0114 0.0000
# 3 23.6881 7.2865 61.8678 0.0000 -23.7320 0.0000
# 4 0.0000 0.0000 0.0000 31.3399 0.0000 -5.6515
# 5 13.1266 -2.0114 -23.7320 0.0000 25.7219 0.0000
# 6 0.0000 0.0000 0.0000 -5.6515 0.0000 29.8356
#
#
#
# Elastic Compliance Matrix: (Units=1/GPa)
#
#
# Indices 1 2 3 4 5 6 
#
# 1 0.013241 -0.001203 -0.011695 0.000000 -0.017642 0.000000
# 2 -0.001203 0.013603 -0.000770 0.000000 0.000967 0.000000
# 3 -0.011695 -0.000770 0.035597 0.000000 0.038751 0.000000
# 4 0.000000 0.000000 0.000000 0.033037 0.000000 0.006258
# 5 -0.017642 0.000967 0.038751 0.000000 0.083709 0.000000
# 6 0.000000 0.000000 0.000000 0.006258 0.000000 0.034702
#
#
# Mechanical properties :
#
#
# Convention : Reuss Voigt Hill
#
# Bulk Modulus (GPa) = 28.48775 37.20694 32.84734
# Shear Modulus (GPa) = 19.76853 31.39426 25.58140
#
# Velocity S-wave (km/s) = 2.97190 3.74517 3.38072
# Velocity P-wave (km/s) = 4.95015 5.94349 5.46942
#
# Compressibility (1/GPa) = 0.03510281
#
# Stress axis : x y z
#
# Youngs Moduli (GPa) = 75.52461 73.51208 28.09257
#
# Poissons Ratio (x) = 0.08846 0.32854
# Poissons Ratio (y) = 0.09088 0.02164
# Poissons Ratio (z) = 0.88327 0.05664
#
# Static dielectric constant tensor:
#      x y z
#    x 1.838300 0.000000 0.023930 
#    y 0.000000 1.895470 0.000000 
#    z 0.023930 0.000000 1.856870 
# 
# From -- ./inp_files/15845.got.cif
#   From: 2010.05.17/outbox.cif.g08.bks.cpg/sg14_8_cif.got.tgz:15845.got - 2010.06.03 17:49:19.
