data_PCOD9250026
_publ_section_title
;
Structure prediction by ZEFSAII (Michael W. Deem and Ramdas Pophale) SiO2 
 PCOD9250026
Probable space group: P 21/C
;
_chemical_formula_sum "Si O2"
_cell_formula_units_Z 16
_cell_length_a 13.264786
_cell_length_b 7.492649
_cell_length_c 17.329763
_cell_angle_alpha 90.000000
_cell_angle_beta 21.697080
_cell_angle_gamma 90.000000
_cell_volume 636.761813
_symmetry_space_group_name_H-M "P 21/C"
_symmetry_group_IT_number 14
_symmetry_cell_setting 'monoclinic'
loop_
_space_group_symop_operation_xyz
x,y,z
-x,1/2+y,1/2-z
-x,-y,-z
x,1/2-y,1/2+z
loop_
_atom_site_type_symbol
_atom_site_label
_atom_site_fract_x
_atom_site_fract_y
_atom_site_fract_z
Si Si1 0.989435 0.696411 0.470305
Si Si2 0.910151 0.597039 0.248086
Si Si3 0.800680 0.006288 0.320989
Si Si4 0.640201 0.000240 0.779736
O O1 0.000000 0.500000 0.500000
O O2 0.043686 0.652176 0.341655
O O3 0.232122 0.812154 0.337977
O O4 0.726018 0.823617 0.671722
O O5 0.671419 0.530379 0.476590
O O6 0.811150 0.518990 0.238024
O O7 0.182394 0.548805 0.100348
O O8 0.908190 0.807062 0.236516
O O9 0.500000 0.000000 0.500000
#
# Coordination Sequence:
#
# PCOD9250026 Si02
#       4
#     4   4   4   4
#     4  11  22  43  68 107 148 185 234 311 361 436
#     4  11  24  45  74 104 141 198 246 305 361 452
#     4  12  25  45  75 107 146 195 252 300 371 447
#     4  10  23  45  72 104 146 186 249 296 371 436
#
# _framework density 25.127136
#
# number of rings (size 3 to 8) (size 9 to 14) (size 15 to 20)
#    0.000    1.000    5.000    1.500    3.500    0.000 
#    4.500    2.500    0.000    0.000    0.000    0.000 
#    0.000    0.000    0.000    0.000    0.000    0.000 
#
# Total GULP energy -89426.475269 kJ/mol
# GULP energy per Si atom -5589.154704 kJ/mol
# Density = 2.506995 g / cm^3
# Si number density = 25.127136 Si / 1000 Ang^3
#
#
#
# Elastic Constant Matrix: (Units=GPa)
#
#
# Indices 1 2 3 4 5 6 
#
# 1 98.3221 27.0074 23.5579 0.0000 -29.1222 0.0000
# 2 27.0074 194.4396 26.8998 0.0000 4.3984 0.0000
# 3 23.5579 26.8998 78.7559 0.0000 7.3464 0.0000
# 4 0.0000 0.0000 0.0000 35.0856 0.0000 16.9283
# 5 -29.1222 4.3984 7.3464 0.0000 37.7014 0.0000
# 6 0.0000 0.0000 0.0000 16.9283 0.0000 50.2659
#
#
#
# Elastic Compliance Matrix: (Units=1/GPa)
#
#
# Indices 1 2 3 4 5 6 
#
# 1 0.016002 -0.001777 -0.005451 0.000000 0.013630 0.000000
# 2 -0.001777 0.005598 -0.001214 0.000000 -0.001789 0.000000
# 3 -0.005451 -0.001214 0.015402 0.000000 -0.007070 0.000000
# 4 0.000000 0.000000 0.000000 0.034031 0.000000 -0.011461
# 5 0.013630 -0.001789 -0.007070 0.000000 0.038639 0.000000
# 6 0.000000 0.000000 0.000000 -0.011461 0.000000 0.023754
#
#
# Mechanical properties :
#
#
# Convention : Reuss Voigt Hill
#
# Bulk Modulus (GPa) = 49.70460 58.49421 54.09940
# Shear Modulus (GPa) = 31.84379 44.21408 38.02894
#
# Velocity S-wave (km/s) = 3.56379 4.19933 3.89454
# Velocity P-wave (km/s) = 6.06286 6.84414 6.46531
#
# Compressibility (1/GPa) = 0.02011886
#
# Stress axis : x y z
#
# Youngs Moduli (GPa) = 62.49245 178.62988 64.92610
#
# Poissons Ratio (x) = 0.31740 0.35392
# Poissons Ratio (y) = 0.11104 0.07880
# Poissons Ratio (z) = 0.34065 0.21681
#
# Static dielectric constant tensor:
#      x y z
#    x 2.039450 0.000000 0.114390 
#    y 0.000000 1.999510 0.000000 
#    z 0.114390 0.000000 2.108760 
# 
# From -- ./inp_files/33454.got.cif
#   From: 2010.05.17/outbox.cif.g08.bks.cpg/sg14_17_cif.got.tgz:33454.got - 2010.06.03 17:49:19.
