data_PCOD9250810
_publ_section_title
;
Structure prediction by ZEFSAII (Michael W. Deem and Ramdas Pophale) SiO2 
 PCOD9250810
Probable space group: P 21/C
;
_chemical_formula_sum "Si O2"
_cell_formula_units_Z 20
_cell_length_a 8.991312
_cell_length_b 10.060536
_cell_length_c 10.015726
_cell_angle_alpha 90.000000
_cell_angle_beta 97.484698
_cell_angle_gamma 90.000000
_cell_volume 898.277337
_symmetry_space_group_name_H-M "P 21/C"
_symmetry_group_IT_number 14
_symmetry_cell_setting 'monoclinic'
loop_
_space_group_symop_operation_xyz
x,y,z
-x,1/2+y,1/2-z
-x,-y,-z
x,1/2-y,1/2+z
loop_
_atom_site_type_symbol
_atom_site_label
_atom_site_fract_x
_atom_site_fract_y
_atom_site_fract_z
Si Si1 0.022854 0.156367 0.138718
Si Si2 0.496406 0.629818 0.656796
Si Si3 0.075507 0.555772 0.875320
Si Si4 0.753449 0.525343 0.520320
Si Si5 0.419918 0.633964 0.947495
O O1 0.007504 0.308640 0.178784
O O2 0.142381 0.137095 0.033803
O O3 0.069603 0.057688 0.262839
O O4 0.864146 0.096523 0.068090
O O5 0.658798 0.572227 0.636947
O O6 0.370810 0.520880 0.601850
O O7 0.476359 0.670533 0.806466
O O8 0.462025 0.752035 0.555715
O O9 0.244346 0.601891 0.922713
O O10 0.000000 0.500000 0.000000
O O11 0.500000 0.500000 0.000000
#
# Coordination Sequence:
#
# PCOD9250810 Si02
#       5
#     4   4   4   4   4
#     4  11  26  49  76 111 151 196 257 309 386 451
#     4  11  26  49  75 109 150 199 255 311 383 445
#     4  12  30  47  77 111 152 200 255 316 378 459
#     4  10  24  46  76 104 150 203 245 315 372 453
#     4  12  30  49  76 110 152 198 261 312 379 461
#
# _framework density 22.264838000000001
#
# number of rings (size 3 to 8) (size 9 to 14) (size 15 to 20)
#    0.000    0.800    4.000    0.000   19.600    0.000 
#    0.000    0.000    0.000    0.000    0.000    0.000 
#    0.000    0.000    0.000    0.000    0.000    0.000 
#
# Total GULP energy -112067.620669 kJ/mol
# GULP energy per Si atom -5603.381033 kJ/mol
# Density = 2.221416 g / cm^3
# Si number density = 22.264838 Si / 1000 Ang^3
#
#
#
# Elastic Constant Matrix: (Units=GPa)
#
#
# Indices 1 2 3 4 5 6 
#
# 1 136.0607 42.4981 43.0503 0.0000 -25.0592 0.0000
# 2 42.4981 126.3797 37.4515 0.0000 -9.3590 0.0000
# 3 43.0503 37.4515 137.4988 0.0000 -31.4260 0.0000
# 4 0.0000 0.0000 0.0000 43.5442 0.0000 6.5102
# 5 -25.0592 -9.3590 -31.4260 0.0000 33.0381 0.0000
# 6 0.0000 0.0000 0.0000 6.5102 0.0000 18.9318
#
#
#
# Elastic Compliance Matrix: (Units=1/GPa)
#
#
# Indices 1 2 3 4 5 6 
#
# 1 0.009459 -0.002468 -0.001034 0.000000 0.005492 0.000000
# 2 -0.002468 0.009253 -0.002014 0.000000 -0.001167 0.000000
# 3 -0.001034 -0.002014 0.010012 0.000000 0.008169 0.000000
# 4 0.000000 0.000000 0.000000 0.024210 0.000000 -0.008325
# 5 0.005492 -0.001167 0.008169 0.000000 0.041873 0.000000
# 6 0.000000 0.000000 0.000000 -0.008325 0.000000 0.055684
#
#
# Mechanical properties :
#
#
# Convention : Reuss Voigt Hill
#
# Bulk Modulus (GPa) = 56.52318 71.77101 64.14709
# Shear Modulus (GPa) = 29.86476 37.56543 33.71510
#
# Velocity S-wave (km/s) = 3.66641 4.11202 3.89559
# Velocity P-wave (km/s) = 6.58523 7.40608 7.00769
#
# Compressibility (1/GPa) = 0.01769186
#
# Stress axis : x y z
#
# Youngs Moduli (GPa) = 105.71769 108.07301 99.87773
#
# Poissons Ratio (x) = 0.26669 0.10330
# Poissons Ratio (y) = 0.26088 0.20118
# Poissons Ratio (z) = 0.10934 0.21769
#
# Static dielectric constant tensor:
#      x y z
#    x 1.822840 0.000000 0.018470 
#    y 0.000000 1.818840 0.000000 
#    z 0.018470 0.000000 1.876830 
# 
# From -- ./inp_files/23069.got.cif
#   From: 2010.05.17/outbox.cif.g08.bks.cpg/sg14_12_cif.got.tgz:23069.got - 2010.06.03 17:49:19.
