data_PCOD9250325
_publ_section_title
;
Structure prediction by ZEFSAII (Michael W. Deem and Ramdas Pophale) SiO2 
 PCOD9250325
Probable space group: P 21/C
;
_chemical_formula_sum "Si O2"
_cell_formula_units_Z 32
_cell_length_a 15.807476
_cell_length_b 8.997158
_cell_length_c 28.166107
_cell_angle_alpha 90.000000
_cell_angle_beta 19.289040
_cell_angle_gamma 90.000000
_cell_volume 1323.267910
_symmetry_space_group_name_H-M "P 21/C"
_symmetry_group_IT_number 14
_symmetry_cell_setting 'monoclinic'
loop_
_space_group_symop_operation_xyz
x,y,z
-x,1/2+y,1/2-z
-x,-y,-z
x,1/2-y,1/2+z
loop_
_atom_site_type_symbol
_atom_site_label
_atom_site_fract_x
_atom_site_fract_y
_atom_site_fract_z
Si Si1 0.776352 0.510329 0.269730
Si Si2 0.819848 0.815075 0.050567
Si Si3 0.018119 0.761133 0.781128
Si Si4 0.681816 0.007405 0.312292
Si Si5 0.597178 0.784515 0.069133
Si Si6 0.915609 0.221614 0.935499
Si Si7 0.676549 0.355384 0.659344
Si Si8 0.371808 0.768839 0.007426
O O1 0.931448 0.394863 0.219295
O O2 0.618844 0.408814 0.316556
O O3 0.588216 0.608638 0.402526
O O4 0.950686 0.624433 0.148834
O O5 0.795423 0.813952 0.006324
O O6 0.613395 0.690831 0.175672
O O7 0.714029 0.969765 0.128695
O O8 0.110601 0.803567 0.914815
O O9 0.173964 0.890704 0.725564
O O10 0.129267 0.740868 0.670191
O O11 0.725890 0.796110 0.948586
O O12 0.519153 0.120523 0.366726
O O13 0.504078 0.891046 0.434101
O O14 0.868820 0.906361 0.181373
O O15 0.723750 0.189372 0.994242
O O16 0.768043 0.223162 0.062497
#
# Coordination Sequence:
#
# PCOD9250325 Si02
#       8
#     4   4   4   4   4   4   4   4
#     4  10  24  41  66  95 139 176 233 284 351 414
#     4  11  28  48  77 110 146 189 243 301 363 432
#     4  11  23  41  66  99 137 180 231 284 349 420
#     4  10  24  41  67  94 142 177 231 285 353 412
#     4  11  25  44  67  99 136 182 229 292 351 421
#     4  11  25  45  68  98 136 183 228 291 352 425
#     4  11  28  49  76 110 146 189 243 300 364 433
#     4  11  23  41  66  98 137 182 230 283 349 420
#
# _framework density 24.182555000000001
#
# number of rings (size 3 to 8) (size 9 to 14) (size 15 to 20)
#    0.000    1.250    0.000    3.750   12.250    9.500 
#    0.000    0.000    0.000    0.000    0.000    0.000 
#    0.000    0.000    0.000    0.000    0.000    0.000 
#
# Total GULP energy -179331.918663 kJ/mol
# GULP energy per Si atom -5604.122458 kJ/mol
# Density = 2.412751 g / cm^3
# Si number density = 24.182555 Si / 1000 Ang^3
#
#
#
# Elastic Constant Matrix: (Units=GPa)
#
#
# Indices 1 2 3 4 5 6 
#
# 1 107.7675 -24.4428 3.1009 0.0000 22.4288 0.0000
# 2 -24.4428 141.0572 10.9699 0.0000 -19.6659 0.0000
# 3 3.1009 10.9699 62.9947 0.0000 13.8243 0.0000
# 4 0.0000 0.0000 0.0000 41.9142 0.0000 -9.4658
# 5 22.4288 -19.6659 13.8243 0.0000 41.8338 0.0000
# 6 0.0000 0.0000 0.0000 -9.4658 0.0000 19.8396
#
#
#
# Elastic Compliance Matrix: (Units=1/GPa)
#
#
# Indices 1 2 3 4 5 6 
#
# 1 0.010619 0.001058 0.000467 0.000000 -0.005351 0.000000
# 2 0.001058 0.008005 -0.002315 0.000000 0.003961 0.000000
# 3 0.000467 -0.002315 0.017842 0.000000 -0.007235 0.000000
# 4 0.000000 0.000000 0.000000 0.026739 0.000000 0.012758
# 5 -0.005351 0.003961 -0.007235 0.000000 0.031026 0.000000
# 6 0.000000 0.000000 0.000000 0.012758 0.000000 0.056491
#
#
# Mechanical properties :
#
#
# Convention : Reuss Voigt Hill
#
# Bulk Modulus (GPa) = 28.66475 32.34173 30.50324
# Shear Modulus (GPa) = 30.50043 42.19694 36.34868
#
# Velocity S-wave (km/s) = 3.55527 4.18177 3.88118
# Velocity P-wave (km/s) = 5.36027 6.05965 5.72066
#
# Compressibility (1/GPa) = 0.03488606
#
# Stress axis : x y z
#
# Youngs Moduli (GPa) = 94.16830 124.92307 56.04658
#
# Poissons Ratio (x) = -0.13215 -0.02619
# Poissons Ratio (y) = -0.09961 0.12977
# Poissons Ratio (z) = -0.04400 0.28924
#
# Static dielectric constant tensor:
#      x y z
#    x 1.922330 0.000000 -0.016450 
#    y 0.000000 1.905100 0.000000 
#    z -0.016450 0.000000 1.954480 
# 
# From -- ./inp_files/80400.got.cif
#   From: 2010.05.17/outbox.cif.g08.bks.cpg/sg14_41_cif.got.tgz:80400.got - 2010.06.03 17:49:19.
