data_PCOD9250913
_publ_section_title
;
Structure prediction by ZEFSAII (Michael W. Deem and Ramdas Pophale) SiO2 
 PCOD9250913
Probable space group: P 21/C
;
_chemical_formula_sum "Si O2"
_cell_formula_units_Z 14
_cell_length_a 18.104330
_cell_length_b 5.320547
_cell_length_c 8.500955
_cell_angle_alpha 90.000000
_cell_angle_beta 138.486145
_cell_angle_gamma 90.000000
_cell_volume 542.737342
_symmetry_space_group_name_H-M "P 21/C"
_symmetry_group_IT_number 14
_symmetry_cell_setting 'monoclinic'
loop_
_space_group_symop_operation_xyz
x,y,z
-x,1/2+y,1/2-z
-x,-y,-z
x,1/2-y,1/2+z
loop_
_atom_site_type_symbol
_atom_site_label
_atom_site_fract_x
_atom_site_fract_y
_atom_site_fract_z
Si Si1 0.804789 0.019553 0.928922
Si Si2 0.500000 0.000000 0.000000
Si Si3 0.992713 0.748833 0.090503
Si Si4 0.657674 0.344333 0.467212
O O1 0.734519 0.135645 0.674553
O O2 0.728912 0.982454 0.961956
O O3 0.900301 0.220897 0.127881
O O4 0.875916 0.777717 0.994282
O O5 0.407610 0.985095 0.999451
O O6 0.571717 0.205261 0.215413
O O7 0.000000 0.500000 0.000000
O O8 0.000000 0.000000 0.000000
#
# Coordination Sequence:
#
# PCOD9250913 Si02
#       4
#     4   2   4   4
#     4  11  24  49  80 117 174 226 280 344 445 508
#     4  10  24  50  76 114 162 212 290 360 426 490
#     4  12  26  49  77 124 175 218 279 351 411 538
#     4  10  24  51  80 118 169 219 281 368 426 514
#
# _framework density 25.795165000000001
#
# number of rings (size 3 to 8) (size 9 to 14) (size 15 to 20)
#    0.000    1.143    2.857    1.714    0.000    4.571 
#   15.429    0.000    0.000    0.000    0.000    0.000 
#    0.000    0.000    0.000    0.000    0.000    0.000 
#
# Total GULP energy -78037.024034 kJ/mol
# GULP energy per Si atom -5574.073145 kJ/mol
# Density = 2.573645 g / cm^3
# Si number density = 25.795165 Si / 1000 Ang^3
#
#
#
# Elastic Constant Matrix: (Units=GPa)
#
#
# Indices 1 2 3 4 5 6 
#
# 1 297.3516 77.6927 35.8395 0.0000 16.9633 0.0000
# 2 77.6927 137.9092 42.7895 0.0000 2.8850 0.0000
# 3 35.8395 42.7895 54.1652 0.0000 14.7397 0.0000
# 4 0.0000 0.0000 0.0000 32.9037 0.0000 5.1964
# 5 16.9633 2.8850 14.7397 0.0000 36.4153 0.0000
# 6 0.0000 0.0000 0.0000 5.1964 0.0000 59.6005
#
#
#
# Elastic Compliance Matrix: (Units=1/GPa)
#
#
# Indices 1 2 3 4 5 6 
#
# 1 0.004063 -0.002050 -0.000672 0.000000 -0.001458 0.000000
# 2 -0.002050 0.010863 -0.008149 0.000000 0.003393 0.000000
# 3 -0.000672 -0.008149 0.028188 0.000000 -0.010451 0.000000
# 4 0.000000 0.000000 0.000000 0.030816 0.000000 -0.002687
# 5 -0.001458 0.003393 -0.010451 0.000000 0.032102 0.000000
# 6 0.000000 0.000000 0.000000 -0.002687 0.000000 0.017013
#
#
# Mechanical properties :
#
#
# Convention : Reuss Voigt Hill
#
# Bulk Modulus (GPa) = 46.78829 89.11884 67.95356
# Shear Modulus (GPa) = 32.91423 47.99085 40.45254
#
# Velocity S-wave (km/s) = 3.57597 4.31798 3.96437
# Velocity P-wave (km/s) = 5.93530 7.71256 6.88155
#
# Compressibility (1/GPa) = 0.02137287
#
# Stress axis : x y z
#
# Youngs Moduli (GPa) = 246.13659 92.05346 35.47596
#
# Poissons Ratio (x) = 0.18869 0.02385
# Poissons Ratio (y) = 0.50452 0.28908
# Poissons Ratio (z) = 0.16545 0.75012
#
# Static dielectric constant tensor:
#      x y z
#    x 2.091260 0.000000 -0.030150 
#    y 0.000000 2.008900 0.000000 
#    z -0.030150 0.000000 2.053980 
# 
# From -- ./inp_files/17340.got.cif
#   From: 2010.05.17/outbox.cif.g08.bks.cpg/sg14_9_cif.got.tgz:17340.got - 2010.06.03 17:49:19.
