data_PCOD9250915
_publ_section_title
;
Structure prediction by ZEFSAII (Michael W. Deem and Ramdas Pophale) SiO2 
 PCOD9250915
Probable space group: P 21/C
;
_chemical_formula_sum "Si O2"
_cell_formula_units_Z 30
_cell_length_a 18.998037
_cell_length_b 15.387885
_cell_length_c 8.127509
_cell_angle_alpha 90.000000
_cell_angle_beta 26.038531
_cell_angle_gamma 90.000000
_cell_volume 1043.002580
_symmetry_space_group_name_H-M "P 21/C"
_symmetry_group_IT_number 14
_symmetry_cell_setting 'monoclinic'
loop_
_space_group_symop_operation_xyz
x,y,z
-x,1/2+y,1/2-z
-x,-y,-z
x,1/2-y,1/2+z
loop_
_atom_site_type_symbol
_atom_site_label
_atom_site_fract_x
_atom_site_fract_y
_atom_site_fract_z
Si Si1 0.362902 0.838585 0.317046
Si Si2 0.881126 0.598450 0.462939
Si Si3 0.682967 0.046534 0.270331
Si Si4 0.621537 0.751664 0.957444
Si Si5 0.000000 0.000000 0.000000
Si Si6 0.927913 0.280962 0.104046
Si Si7 0.597744 0.089837 0.080113
Si Si8 0.107362 0.362238 0.036413
O O1 0.311143 0.879847 0.602275
O O2 0.245736 0.759370 0.521880
O O3 0.546702 0.806283 0.960897
O O4 0.319385 0.912886 0.273374
O O5 0.831373 0.519770 0.449828
O O6 0.756395 0.676104 0.681148
O O7 0.874166 0.558766 0.657105
O O8 0.048243 0.649536 0.092088
O O9 0.538419 0.984237 0.633798
O O10 0.003165 0.169145 0.600056
O O11 0.709295 0.829405 0.875005
O O12 0.469806 0.688306 0.303571
O O13 0.927618 0.958192 0.328287
O O14 0.657086 0.418950 0.641682
O O15 0.035778 0.197595 0.833623
#
# Coordination Sequence:
#
# PCOD9250915 Si02
#       8
#     4   4   4   4   2   4   4   4
#     4  12  27  47  85 127 166 216 280 360 420 507
#     4  10  25  53  79 110 162 220 281 341 421 520
#     4  10  24  50  79 122 168 214 268 348 433 503
#     4  10  26  45  83 114 157 219 277 339 413 504
#     4  12  26  50  78 118 152 214 286 342 418 498
#     4  11  27  51  78 117 162 219 278 345 425 499
#     4  10  25  47  79 126 167 209 277 346 424 510
#     4  11  26  50  80 113 163 217 280 342 412 517
#
# _framework density 28.763109
#
# number of rings (size 3 to 8) (size 9 to 14) (size 15 to 20)
#    0.000    1.333    0.000    2.800   11.200    3.733 
#    9.600    1.333    0.000    0.000    0.000    0.000 
#    0.000    0.000    0.000    0.000    0.000    0.000 
#
# Total GULP energy -167302.083062 kJ/mol
# GULP energy per Si atom -5576.736102 kJ/mol
# Density = 2.869764 g / cm^3
# Si number density = 28.763109 Si / 1000 Ang^3
#
#
#
# Elastic Constant Matrix: (Units=GPa)
#
#
# Indices 1 2 3 4 5 6 
#
# 1 227.4525 61.4009 52.8498 0.0000 -11.4284 0.0000
# 2 61.4009 134.7015 53.9418 0.0000 -5.6989 0.0000
# 3 52.8498 53.9418 81.2403 0.0000 -3.9474 0.0000
# 4 0.0000 0.0000 0.0000 71.9028 0.0000 3.3384
# 5 -11.4284 -5.6989 -3.9474 0.0000 36.9341 0.0000
# 6 0.0000 0.0000 0.0000 3.3384 0.0000 57.6911
#
#
#
# Elastic Compliance Matrix: (Units=1/GPa)
#
#
# Indices 1 2 3 4 5 6 
#
# 1 0.005426 -0.001407 -0.002538 0.000000 0.001191 0.000000
# 2 -0.001407 0.010504 -0.006033 0.000000 0.000541 0.000000
# 3 -0.002538 -0.006033 0.017976 0.000000 0.000205 0.000000
# 4 0.000000 0.000000 0.000000 0.013945 0.000000 -0.000807
# 5 0.001191 0.000541 0.000205 0.000000 0.027549 0.000000
# 6 0.000000 0.000000 0.000000 -0.000807 0.000000 0.017380
#
#
# Mechanical properties :
#
#
# Convention : Reuss Voigt Hill
#
# Bulk Modulus (GPa) = 71.68170 86.64216 79.16193
# Shear Modulus (GPa) = 42.59487 51.65237 47.12362
#
# Velocity S-wave (km/s) = 3.85240 4.24227 4.05203
# Velocity P-wave (km/s) = 6.69055 7.36097 7.03375
#
# Compressibility (1/GPa) = 0.01395056
#
# Stress axis : x y z
#
# Youngs Moduli (GPa) = 184.30709 95.20377 55.63000
#
# Poissons Ratio (x) = 0.13391 0.14118
# Poissons Ratio (y) = 0.25923 0.33562
# Poissons Ratio (z) = 0.46775 0.57437
#
# Static dielectric constant tensor:
#      x y z
#    x 2.369990 0.000000 0.107570 
#    y 0.000000 -0.640410 0.000000 
#    z 0.107570 0.000000 2.466670 
# 
# From -- ./inp_files/36274.got.cif
#   From: 2010.05.17/outbox.cif.g08.bks.cpg/sg14_19_cif.got.tgz:36274.got - 2010.06.03 17:49:19.
