data_PCOD9250034
_publ_section_title
;
Structure prediction by ZEFSAII (Michael W. Deem and Ramdas Pophale) SiO2 
 PCOD9250034
Probable space group: P 21/C
;
_chemical_formula_sum "Si O2"
_cell_formula_units_Z 16
_cell_length_a 10.764332
_cell_length_b 7.454229
_cell_length_c 18.262614
_cell_angle_alpha 90.000000
_cell_angle_beta 27.784885
_cell_angle_gamma 90.000000
_cell_volume 683.095597
_symmetry_space_group_name_H-M "P 21/C"
_symmetry_group_IT_number 14
_symmetry_cell_setting 'monoclinic'
loop_
_space_group_symop_operation_xyz
x,y,z
-x,1/2+y,1/2-z
-x,-y,-z
x,1/2-y,1/2+z
loop_
_atom_site_type_symbol
_atom_site_label
_atom_site_fract_x
_atom_site_fract_y
_atom_site_fract_z
Si Si1 0.665516 0.893469 0.572349
Si Si2 0.197244 0.145622 0.864231
Si Si3 0.961621 0.658202 0.197965
Si Si4 0.449536 0.785355 0.541430
O O1 0.753544 0.791326 0.598765
O O2 0.493230 0.771884 0.605749
O O3 0.475684 0.056543 0.695413
O O4 0.914032 0.974003 0.397586
O O5 0.065118 0.221929 0.860206
O O6 0.000000 0.000000 0.000000
O O7 0.672893 0.665573 0.385492
O O8 0.167752 0.740608 0.149134
O O9 0.500000 0.000000 0.500000
#
# Coordination Sequence:
#
# PCOD9250034 Si02
#       4
#     4   4   4   4
#     4  11  26  48  72 110 147 195 250 303 369 441
#     4  12  26  46  74 105 152 194 247 301 373 449
#     4  11  22  48  75 104 146 192 249 308 362 437
#     4  10  23  45  73 106 147 186 245 306 365 429
#
# _framework density 23.422781000000001
#
# number of rings (size 3 to 8) (size 9 to 14) (size 15 to 20)
#    0.000    1.000    5.000    2.250    3.500    0.000 
#    4.500    6.250    0.000    0.000    0.000    0.000 
#    0.000    0.000    0.000    0.000    0.000    0.000 
#
# Total GULP energy -89593.835215 kJ/mol
# GULP energy per Si atom -5599.614701 kJ/mol
# Density = 2.336947 g / cm^3
# Si number density = 23.422781 Si / 1000 Ang^3
#
#
#
# Elastic Constant Matrix: (Units=GPa)
#
#
# Indices 1 2 3 4 5 6 
#
# 1 -114.5713 77.4772 29.7198 0.0000 6.5416 0.0000
# 2 77.4772 66.0463 56.0562 0.0000 -2.1245 0.0000
# 3 29.7198 56.0562 123.8074 0.0000 -0.0709 0.0000
# 4 0.0000 0.0000 0.0000 49.6498 0.0000 8.5093
# 5 6.5416 -2.1245 -0.0709 0.0000 39.6327 0.0000
# 6 0.0000 0.0000 0.0000 8.5093 0.0000 45.1748
#
#
#
# Elastic Compliance Matrix: (Units=1/GPa)
#
#
# Indices 1 2 3 4 5 6 
#
# 1 -0.004445 0.007056 -0.002127 0.000000 0.001108 0.000000
# 2 0.007056 0.013460 -0.007788 0.000000 -0.000457 0.000000
# 3 -0.002127 -0.007788 0.012114 0.000000 -0.000045 0.000000
# 4 0.000000 0.000000 0.000000 0.020813 0.000000 -0.003920
# 5 0.001108 -0.000457 -0.000045 0.000000 0.025024 0.000000
# 6 0.000000 0.000000 0.000000 -0.003920 0.000000 0.022875
#
#
# Mechanical properties :
#
#
# Convention : Reuss Voigt Hill
#
# Bulk Modulus (GPa) = 64.89565 44.64319 54.76942
# Shear Modulus (GPa) = 49.65508 21.02675 35.34091
#
# Velocity S-wave (km/s) = 4.60928 2.99942 3.88858
# Velocity P-wave (km/s) = 7.48957 5.57642 6.60266
#
# Compressibility (1/GPa) = 0.01540935
#
# Stress axis : x y z
#
# Youngs Moduli (GPa) = -224.95119 74.29688 82.55103
#
# Poissons Ratio (x) = -0.52420 0.17557
# Poissons Ratio (y) = 1.58715 0.64291
# Poissons Ratio (z) = -0.47842 0.57862
#
# Static dielectric constant tensor:
#      x y z
#    x 1.926970 0.000000 0.003520 
#    y 0.000000 1.912580 0.000000 
#    z 0.003520 0.000000 1.911850 
# 
# From -- ./inp_files/11565.got.cif
#   From: 2010.05.17/outbox.cif.g08.bks.cpg/sg14_6_cif.got.tgz:11565.got - 2010.06.03 17:49:19.
