data_PCOD9250923
_publ_section_title
;
Structure prediction by ZEFSAII (Michael W. Deem and Ramdas Pophale) SiO2 
 PCOD9250923
Probable space group: P 21/C
;
_chemical_formula_sum "Si O2"
_cell_formula_units_Z 16
_cell_length_a 7.638764
_cell_length_b 14.185571
_cell_length_c 9.520000
_cell_angle_alpha 90.000000
_cell_angle_beta 145.699226
_cell_angle_gamma 90.000000
_cell_volume 581.339000
_symmetry_space_group_name_H-M "P 21/C"
_symmetry_group_IT_number 14
_symmetry_cell_setting 'monoclinic'
loop_
_space_group_symop_operation_xyz
x,y,z
-x,1/2+y,1/2-z
-x,-y,-z
x,1/2-y,1/2+z
loop_
_atom_site_type_symbol
_atom_site_label
_atom_site_fract_x
_atom_site_fract_y
_atom_site_fract_z
Si Si1 0.488962 0.279680 0.852375
Si Si2 0.897901 0.048541 0.655452
Si Si3 0.970850 0.143754 0.184557
Si Si4 0.427030 0.912357 0.831282
O O1 0.413739 0.330587 0.657934
O O2 0.205513 0.283151 0.770503
O O3 0.746988 0.350909 0.093231
O O4 0.637758 0.180253 0.910183
O O5 0.712846 0.026197 0.389205
O O6 0.884290 0.959394 0.751694
O O7 0.271362 0.053060 0.882377
O O8 0.860449 0.133550 0.273715
#
# Coordination Sequence:
#
# PCOD9250923 Si02
#       4
#     4   4   4   4
#     4  10  27  44  73 111 141 193 240 293 361 421
#     4  10  24  52  73 107 142 191 238 299 355 423
#     4  12  23  49  75 105 150 189 238 300 354 429
#     4  10  25  49  71 106 142 183 245 288 362 418
#
# _framework density 27.522666999999998
#
# number of rings (size 3 to 8) (size 9 to 14) (size 15 to 20)
#    1.500    0.000    0.000    3.750    0.000    5.000 
#   13.500    0.000    0.000    0.000    0.000    0.000 
#    0.000    0.000    0.000    0.000    0.000    0.000 
#
# Total GULP energy -89091.814378 kJ/mol
# GULP energy per Si atom -5568.238399 kJ/mol
# Density = 2.746002 g / cm^3
# Si number density = 27.522667 Si / 1000 Ang^3
#
#
#
# Elastic Constant Matrix: (Units=GPa)
#
#
# Indices 1 2 3 4 5 6 
#
# 1 104.2864 3.3752 27.3621 0.0000 42.7901 0.0000
# 2 3.3752 29.5866 2.5632 0.0000 0.7364 0.0000
# 3 27.3621 2.5632 95.6273 0.0000 2.0561 0.0000
# 4 0.0000 0.0000 0.0000 18.8857 0.0000 25.9944
# 5 42.7901 0.7364 2.0561 0.0000 33.6737 0.0000
# 6 0.0000 0.0000 0.0000 25.9944 0.0000 28.9171
#
#
#
# Elastic Compliance Matrix: (Units=1/GPa)
#
#
# Indices 1 2 3 4 5 6 
#
# 1 0.023047 -0.001396 -0.005936 0.000000 -0.028893 0.000000
# 2 -0.001396 0.033978 -0.000534 0.000000 0.001063 0.000000
# 3 -0.005936 -0.000534 0.012023 0.000000 0.006820 0.000000
# 4 0.000000 0.000000 0.000000 -0.223138 0.000000 0.200586
# 5 -0.028893 0.001063 0.006820 0.000000 0.065973 0.000000
# 6 0.000000 0.000000 0.000000 0.200586 0.000000 -0.145731
#
#
# Mechanical properties :
#
#
# Convention : Reuss Voigt Hill
#
# Bulk Modulus (GPa) = 18.75584 32.90014 25.82799
# Shear Modulus (GPa) = -24.95700 29.37527 2.20914
#
# Velocity S-wave (km/s) = -3.01455 3.27052 0.89689
# Velocity P-wave (km/s) = 2.29938 5.12265 3.23685
#
# Compressibility (1/GPa) = 0.05331671
#
# Stress axis : x y z
#
# Youngs Moduli (GPa) = 43.38981 29.43073 83.17132
#
# Poissons Ratio (x) = 0.04108 0.49369
# Poissons Ratio (y) = 0.06056 0.04443
# Poissons Ratio (z) = 0.25755 0.01572
#
# Static dielectric constant tensor:
#      x y z
#    x 2.118150 0.000000 -0.024150 
#    y 0.000000 2.404750 0.000000 
#    z -0.024150 0.000000 2.134000 
# 
# From -- ./inp_files/26211.got.cif
#   From: 2010.05.17/outbox.cif.g08.bks.cpg/sg14_14_cif.got.tgz:26211.got - 2010.06.03 17:49:19.
