data_PCOD9250998
_publ_section_title
;
Structure prediction by ZEFSAII (Michael W. Deem and Ramdas Pophale) SiO2 
 PCOD9250998
Probable space group: P 21/C
;
_chemical_formula_sum "Si O2"
_cell_formula_units_Z 28
_cell_length_a 7.818442
_cell_length_b 15.008072
_cell_length_c 15.395097
_cell_angle_alpha 90.000000
_cell_angle_beta 41.116637
_cell_angle_gamma 90.000000
_cell_volume 1187.915134
_symmetry_space_group_name_H-M "P 21/C"
_symmetry_group_IT_number 14
_symmetry_cell_setting 'monoclinic'
loop_
_space_group_symop_operation_xyz
x,y,z
-x,1/2+y,1/2-z
-x,-y,-z
x,1/2-y,1/2+z
loop_
_atom_site_type_symbol
_atom_site_label
_atom_site_fract_x
_atom_site_fract_y
_atom_site_fract_z
Si Si1 0.026807 0.390063 0.599235
Si Si2 0.261554 0.439394 0.338340
Si Si3 0.649211 0.938210 0.874466
Si Si4 0.189188 0.810178 0.060204
Si Si5 0.001847 0.991214 0.396892
Si Si6 0.081756 0.197041 0.652558
Si Si7 0.400159 0.633430 0.944155
O O1 0.253441 0.416133 0.443401
O O2 0.087768 0.421345 0.673142
O O3 0.035918 0.283842 0.609850
O O4 0.793626 0.455423 0.657230
O O5 0.481339 0.398738 0.192874
O O6 0.007501 0.383195 0.402813
O O7 0.736736 0.972150 0.747998
O O8 0.473047 0.851466 0.937104
O O9 0.500000 0.000000 0.000000
O O10 0.109085 0.797036 0.190979
O O11 0.193361 0.713836 0.014153
O O12 0.755140 0.049259 0.459237
O O13 0.982681 0.890082 0.376558
O O14 0.000000 0.000000 0.500000
O O15 0.367742 0.173287 0.584304
#
# Coordination Sequence:
#
# PCOD9250998 Si02
#       7
#     4   4   4   4   4   4   4
#     4  11  23  44  73 102 140 186 248 282 366 425
#     4  10  25  44  69 106 144 191 233 308 356 424
#     4  12  22  46  72  95 138 187 234 283 346 436
#     4  11  23  42  73  98 138 189 241 284 360 426
#     4  12  29  44  71 107 146 180 235 301 362 414
#     4  11  24  45  68 103 134 195 235 292 359 435
#     4  11  25  45  69 103 148 181 238 295 363 419
#
# _framework density 23.570706999999999
#
# number of rings (size 3 to 8) (size 9 to 14) (size 15 to 20)
#    0.000    0.857    4.286    2.143    6.000    1.143 
#    0.000    0.000    0.000    0.000    0.000    0.000 
#    0.000    0.000    0.000    0.000    0.000    0.000 
#
# Total GULP energy -156444.159892 kJ/mol
# GULP energy per Si atom -5587.291425 kJ/mol
# Density = 2.351706 g / cm^3
# Si number density = 23.570707 Si / 1000 Ang^3
#
#
#
# Elastic Constant Matrix: (Units=GPa)
#
#
# Indices 1 2 3 4 5 6 
#
# 1 67.0440 39.5246 44.2787 0.0000 7.4934 0.0000
# 2 39.5246 193.3139 84.7300 0.0000 3.0989 0.0000
# 3 44.2787 84.7300 177.0103 0.0000 23.8328 0.0000
# 4 0.0000 0.0000 0.0000 34.2396 0.0000 11.3054
# 5 7.4934 3.0989 23.8328 0.0000 14.8329 0.0000
# 6 0.0000 0.0000 0.0000 11.3054 0.0000 16.5673
#
#
#
# Elastic Compliance Matrix: (Units=1/GPa)
#
#
# Indices 1 2 3 4 5 6 
#
# 1 0.018798 -0.002487 -0.002939 0.000000 -0.004255 0.000000
# 2 -0.002487 0.007140 -0.003527 0.000000 0.005432 0.000000
# 3 -0.002939 -0.003527 0.009920 0.000000 -0.013717 0.000000
# 4 0.000000 0.000000 0.000000 0.037700 0.000000 -0.025726
# 5 -0.004255 0.005432 -0.013717 0.000000 0.090472 0.000000
# 6 0.000000 0.000000 0.000000 -0.025726 0.000000 0.077915
#
#
# Mechanical properties :
#
#
# Convention : Reuss Voigt Hill
#
# Bulk Modulus (GPa) = 55.70379 86.04831 70.87605
# Shear Modulus (GPa) = 18.80858 31.05029 24.92943
#
# Velocity S-wave (km/s) = 2.82789 3.63344 3.25567
# Velocity P-wave (km/s) = 5.86059 7.36126 6.65337
#
# Compressibility (1/GPa) = 0.01795210
#
# Stress axis : x y z
#
# Youngs Moduli (GPa) = 53.19601 140.05041 100.80920
#
# Poissons Ratio (x) = 0.34832 0.29628
# Poissons Ratio (y) = 0.13230 0.35556
# Poissons Ratio (z) = 0.15634 0.49397
#
# Static dielectric constant tensor:
#      x y z
#    x 1.973490 0.000000 -0.057270 
#    y 0.000000 1.964530 0.000000 
#    z -0.057270 0.000000 1.856900 
# 
# From -- ./inp_files/41414.got.cif
#   From: 2010.05.17/outbox.cif.g08.bks.cpg/sg14_21_cif.got.tgz:41414.got - 2010.06.03 17:49:19.
