data_PCOD9250412
_publ_section_title
;
Structure prediction by ZEFSAII (Michael W. Deem and Ramdas Pophale) SiO2 
 PCOD9250412
Probable space group: P 21/C
;
_chemical_formula_sum "Si O2"
_cell_formula_units_Z 20
_cell_length_a 25.953955
_cell_length_b 9.001669
_cell_length_c 10.161713
_cell_angle_alpha 90.000000
_cell_angle_beta 23.224231
_cell_angle_gamma 90.000000
_cell_volume 936.168397
_symmetry_space_group_name_H-M "P 21/C"
_symmetry_group_IT_number 14
_symmetry_cell_setting 'monoclinic'
loop_
_space_group_symop_operation_xyz
x,y,z
-x,1/2+y,1/2-z
-x,-y,-z
x,1/2-y,1/2+z
loop_
_atom_site_type_symbol
_atom_site_label
_atom_site_fract_x
_atom_site_fract_y
_atom_site_fract_z
Si Si1 0.917014 0.435879 0.074092
Si Si2 0.682451 0.827109 0.836398
Si Si3 0.022240 0.115318 0.829131
Si Si4 0.637436 0.429842 0.633676
Si Si5 0.469084 0.171357 0.071949
O O1 0.761601 0.470396 0.432027
O O2 0.975129 0.515966 0.808294
O O3 0.000000 0.500000 0.000000
O O4 0.927288 0.256779 0.045782
O O5 0.836432 0.806065 0.486537
O O6 0.630451 0.800209 0.813825
O O7 0.598972 0.729218 0.135046
O O8 0.663562 0.998394 0.929848
O O9 0.000000 0.000000 0.000000
O O10 0.500000 0.500000 0.000000
O O11 0.602820 0.257950 0.724153
O O12 0.500000 0.000000 0.000000
#
# Coordination Sequence:
#
# PCOD9250412 Si02
#       5
#     4   4   4   4   4
#     4  11  25  45  73 101 138 188 229 294 353 419
#     4  10  24  42  68  97 140 178 228 286 347 417
#     4  11  26  45  68 102 141 181 240 286 352 425
#     4   9  22  44  64  99 137 173 230 278 340 418
#     4  11  23  42  70 100 135 182 228 289 349 412
#
# _framework density 21.363678
#
# number of rings (size 3 to 8) (size 9 to 14) (size 15 to 20)
#    0.000    1.600    0.000    2.400   14.000    0.000 
#   10.800    0.000    0.000    0.000    0.000    0.000 
#    0.000    0.000    0.000    0.000    0.000    0.000 
#
# Total GULP energy -111702.260388 kJ/mol
# GULP energy per Si atom -5585.113019 kJ/mol
# Density = 2.131505 g / cm^3
# Si number density = 21.363678 Si / 1000 Ang^3
#
#
#
# Elastic Constant Matrix: (Units=GPa)
#
#
# Indices 1 2 3 4 5 6 
#
# 1 137.1837 37.8864 25.3525 0.0000 -4.0406 0.0000
# 2 37.8864 148.1136 31.2719 0.0000 1.1252 0.0000
# 3 25.3525 31.2719 77.6593 0.0000 -14.7699 0.0000
# 4 0.0000 0.0000 0.0000 31.6643 0.0000 -4.7004
# 5 -4.0406 1.1252 -14.7699 0.0000 26.9020 0.0000
# 6 0.0000 0.0000 0.0000 -4.7004 0.0000 29.1263
#
#
#
# Elastic Compliance Matrix: (Units=1/GPa)
#
#
# Indices 1 2 3 4 5 6 
#
# 1 0.008115 -0.001669 -0.001934 0.000000 0.000227 0.000000
# 2 -0.001669 0.007837 -0.003038 0.000000 -0.002247 0.000000
# 3 -0.001934 -0.003038 0.016414 0.000000 0.008849 0.000000
# 4 0.000000 0.000000 0.000000 0.032356 0.000000 0.005222
# 5 0.000227 -0.002247 0.008849 0.000000 0.042158 0.000000
# 6 0.000000 0.000000 0.000000 0.005222 0.000000 0.035176
#
#
# Mechanical properties :
#
#
# Convention : Reuss Voigt Hill
#
# Bulk Modulus (GPa) = 52.40050 61.33092 56.86571
# Shear Modulus (GPa) = 30.92151 35.43492 33.17822
#
# Velocity S-wave (km/s) = 3.80858 4.07707 3.94511
# Velocity P-wave (km/s) = 6.62733 7.13679 6.88677
#
# Compressibility (1/GPa) = 0.01908379
#
# Stress axis : x y z
#
# Youngs Moduli (GPa) = 123.23609 127.59910 60.92218
#
# Poissons Ratio (x) = 0.21297 0.11781
# Poissons Ratio (y) = 0.20569 0.18509
# Poissons Ratio (z) = 0.23831 0.38767
#
# Static dielectric constant tensor:
#      x y z
#    x 1.753280 0.000000 -0.016360 
#    y 0.000000 1.850990 0.000000 
#    z -0.016360 0.000000 1.888940 
# 
# From -- ./inp_files/36371.got.cif
#   From: 2010.05.17/outbox.cif.g08.bks.cpg/sg14_19_cif.got.tgz:36371.got - 2010.06.03 17:49:19.
