data_PCOD9250039
_publ_section_title
;
Structure prediction by ZEFSAII (Michael W. Deem and Ramdas Pophale) SiO2 
 PCOD9250039
Probable space group: P 21/C
;
_chemical_formula_sum "Si O2"
_cell_formula_units_Z 32
_cell_length_a 19.085287
_cell_length_b 14.371615
_cell_length_c 13.961901
_cell_angle_alpha 90.000000
_cell_angle_beta 159.416659
_cell_angle_gamma 90.000000
_cell_volume 1346.356211
_symmetry_space_group_name_H-M "P 21/C"
_symmetry_group_IT_number 14
_symmetry_cell_setting 'monoclinic'
loop_
_space_group_symop_operation_xyz
x,y,z
-x,1/2+y,1/2-z
-x,-y,-z
x,1/2-y,1/2+z
loop_
_atom_site_type_symbol
_atom_site_label
_atom_site_fract_x
_atom_site_fract_y
_atom_site_fract_z
Si Si1 0.606861 0.600651 0.352404
Si Si2 0.582506 0.568215 0.714301
Si Si3 0.198091 0.273961 0.926856
Si Si4 0.447491 0.862636 0.848946
Si Si5 0.682602 0.005183 0.655177
Si Si6 0.158004 0.543011 0.275910
Si Si7 0.863878 0.258133 0.651642
Si Si8 0.004875 0.146930 0.010036
O O1 0.622261 0.702161 0.328779
O O2 0.592354 0.623274 0.445470
O O3 0.801634 0.537081 0.593070
O O4 0.431761 0.538783 0.086704
O O5 0.659504 0.465152 0.785511
O O6 0.561291 0.634639 0.594393
O O7 0.363900 0.561331 0.481103
O O8 0.727487 0.621010 0.970483
O O9 0.089178 0.270945 0.685050
O O10 0.049886 0.249426 0.820758
O O11 0.317279 0.775139 0.649033
O O12 0.500000 0.000000 0.500000
O O13 0.810110 0.911944 0.798094
O O14 0.857504 0.083398 0.887279
O O15 0.126497 0.638892 0.291684
O O16 0.000000 0.500000 0.000000
O O17 0.880809 0.188290 0.762706
#
# Coordination Sequence:
#
# PCOD9250039 Si02
#       8
#     4   4   4   4   4   4   4   4
#     4  11  24  48  68 101 140 194 240 305 366 453
#     4  10  25  45  74 104 142 197 241 307 373 451
#     4  12  28  43  74 108 146 193 250 307 384 445
#     4  10  23  45  73  99 143 188 240 303 365 446
#     4  11  25  48  76 104 146 199 243 305 387 444
#     4  11  26  46  72 103 145 192 249 303 375 449
#     4  12  27  44  72 109 145 193 243 311 377 448
#     4  11  26  49  73 110 151 190 253 317 367 462
#
# _framework density 23.767854
#
# number of rings (size 3 to 8) (size 9 to 14) (size 15 to 20)
#    0.000    1.000    1.250    3.750   14.000    0.000 
#    0.000    0.000    0.000    0.000    0.000    0.000 
#    0.000    0.000    0.000    0.000    0.000    0.000 
#
# Total GULP energy -178588.412176 kJ/mol
# GULP energy per Si atom -5580.887881 kJ/mol
# Density = 2.371376 g / cm^3
# Si number density = 23.767854 Si / 1000 Ang^3
#
#
#
# Elastic Constant Matrix: (Units=GPa)
#
#
# Indices 1 2 3 4 5 6 
#
# 1 97.1855 15.5367 7.1317 0.0000 14.2892 0.0000
# 2 15.5367 86.9056 17.4443 0.0000 -5.2036 0.0000
# 3 7.1317 17.4443 74.4957 0.0000 -3.7769 0.0000
# 4 0.0000 0.0000 0.0000 45.1273 0.0000 0.4300
# 5 14.2892 -5.2036 -3.7769 0.0000 34.2759 0.0000
# 6 0.0000 0.0000 0.0000 0.4300 0.0000 31.0195
#
#
#
# Elastic Compliance Matrix: (Units=1/GPa)
#
#
# Indices 1 2 3 4 5 6 
#
# 1 0.011468 -0.002192 -0.000849 0.000000 -0.005207 0.000000
# 2 -0.002192 0.012573 -0.002606 0.000000 0.002535 0.000000
# 3 -0.000849 -0.002606 0.014192 0.000000 0.001522 0.000000
# 4 0.000000 0.000000 0.000000 0.022162 0.000000 -0.000307
# 5 -0.005207 0.002535 0.001522 0.000000 0.031898 0.000000
# 6 0.000000 0.000000 0.000000 -0.000307 0.000000 0.032242
#
#
# Mechanical properties :
#
#
# Convention : Reuss Voigt Hill
#
# Bulk Modulus (GPa) = 37.11798 37.64583 37.38190
# Shear Modulus (GPa) = 34.52822 36.64949 35.58886
#
# Velocity S-wave (km/s) = 3.81560 3.93106 3.87376
# Velocity P-wave (km/s) = 5.92136 6.03968 5.98081
#
# Compressibility (1/GPa) = 0.02694112
#
# Stress axis : x y z
#
# Youngs Moduli (GPa) = 87.20042 79.53276 70.46114
#
# Poissons Ratio (x) = 0.17431 0.05980
# Poissons Ratio (y) = 0.19111 0.18362
# Poissons Ratio (z) = 0.07400 0.20726
#
# Static dielectric constant tensor:
#      x y z
#    x 1.931440 0.000000 0.043600 
#    y 0.000000 2.006750 0.000000 
#    z 0.043600 0.000000 1.940920 
# 
# From -- ./inp_files/50631.got.cif
#   From: 2010.05.17/outbox.cif.g08.bks.cpg/sg14_26_cif.got.tgz:50631.got - 2010.06.03 17:49:19.
