data_PCOD9250770
_publ_section_title
;
Structure prediction by ZEFSAII (Michael W. Deem and Ramdas Pophale) SiO2 
 PCOD9250770
Probable space group: P 21/C
;
_chemical_formula_sum "Si O2"
_cell_formula_units_Z 26
_cell_length_a 28.128570
_cell_length_b 6.318734
_cell_length_c 19.137982
_cell_angle_alpha 90.000000
_cell_angle_beta 162.646861
_cell_angle_gamma 90.000000
_cell_volume 1014.540133
_symmetry_space_group_name_H-M "P 21/C"
_symmetry_group_IT_number 14
_symmetry_cell_setting 'monoclinic'
loop_
_space_group_symop_operation_xyz
x,y,z
-x,1/2+y,1/2-z
-x,-y,-z
x,1/2-y,1/2+z
loop_
_atom_site_type_symbol
_atom_site_label
_atom_site_fract_x
_atom_site_fract_y
_atom_site_fract_z
Si Si1 0.517707 0.546156 0.621717
Si Si2 0.352029 0.333532 0.960171
Si Si3 0.076328 0.679935 0.250739
Si Si4 0.190684 0.697490 0.658008
Si Si5 0.171503 0.561383 0.004735
Si Si6 0.650254 0.617968 0.407532
Si Si7 0.000000 0.500000 0.000000
O O1 0.453102 0.317067 0.551910
O O2 0.365066 0.694471 0.401677
O O3 0.648395 0.523713 0.745192
O O4 0.611603 0.664253 0.815883
O O5 0.485106 0.486741 0.182185
O O6 0.277990 0.173923 0.914871
O O7 0.225064 0.471211 0.740289
O O8 0.126304 0.891620 0.361366
O O9 0.227095 0.518714 0.465205
O O10 0.931291 0.597545 0.093948
O O11 0.043875 0.677002 0.123118
O O12 0.149758 0.720756 0.518732
O O13 0.076183 0.841570 0.544569
#
# Coordination Sequence:
#
# PCOD9250770 Si02
#       7
#     4   4   4   4   4   4   2
#     4  11  22  41  70 101 137 175 225 285 340 414
#     4  11  22  39  69 101 137 172 225 285 344 404
#     4  11  24  46  68  98 138 182 231 281 345 409
#     4  10  25  45  68 103 140 178 229 284 350 408
#     4  11  24  46  66  97 139 184 227 283 348 418
#     4  11  22  39  67 103 132 176 226 281 342 405
#     4  10  24  46  70  98 138 178 234 288 326 414
#
# _framework density 25.627374
#
# number of rings (size 3 to 8) (size 9 to 14) (size 15 to 20)
#    0.000    1.231    3.077    2.308    4.308    0.615 
#   11.077    3.846    0.000    0.000    0.000    0.000 
#    0.000    0.000    0.000    0.000    0.000    0.000 
#
# Total GULP energy -145054.473303 kJ/mol
# GULP energy per Si atom -5579.018204 kJ/mol
# Density = 2.556905 g / cm^3
# Si number density = 25.627374 Si / 1000 Ang^3
#
#
#
# Elastic Constant Matrix: (Units=GPa)
#
#
# Indices 1 2 3 4 5 6 
#
# 1 152.7486 17.9728 38.3061 0.0000 15.5041 0.0000
# 2 17.9728 75.7148 13.7107 0.0000 13.8406 0.0000
# 3 38.3061 13.7107 63.1665 0.0000 23.4084 0.0000
# 4 0.0000 0.0000 0.0000 53.9409 0.0000 2.4065
# 5 15.5041 13.8406 23.4084 0.0000 59.7840 0.0000
# 6 0.0000 0.0000 0.0000 2.4065 0.0000 35.3847
#
#
#
# Elastic Compliance Matrix: (Units=1/GPa)
#
#
# Indices 1 2 3 4 5 6 
#
# 1 0.007798 -0.001033 -0.004496 0.000000 -0.000023 0.000000
# 2 -0.001033 0.014174 -0.001560 0.000000 -0.002403 0.000000
# 3 -0.004496 -0.001560 0.021442 0.000000 -0.006868 0.000000
# 4 0.000000 0.000000 0.000000 0.018595 0.000000 -0.001265
# 5 -0.000023 -0.002403 -0.006868 0.000000 0.019978 0.000000
# 6 0.000000 0.000000 0.000000 -0.001265 0.000000 0.028347
#
#
# Mechanical properties :
#
#
# Convention : Reuss Voigt Hill
#
# Bulk Modulus (GPa) = 34.20420 47.95657 41.08038
# Shear Modulus (GPa) = 37.24166 44.59795 40.91981
#
# Velocity S-wave (km/s) = 3.81622 4.17615 4.00024
# Velocity P-wave (km/s) = 5.72658 6.48130 6.11560
#
# Compressibility (1/GPa) = 0.02923618
#
# Stress axis : x y z
#
# Youngs Moduli (GPa) = 128.23574 70.55017 46.63770
#
# Poissons Ratio (x) = 0.07286 0.20971
# Poissons Ratio (y) = 0.13243 0.07275
# Poissons Ratio (z) = 0.57661 0.11005
#
# Static dielectric constant tensor:
#      x y z
#    x 1.976070 0.000000 -0.082560 
#    y 0.000000 1.867650 0.000000 
#    z -0.082560 0.000000 1.739780 
# 
# From -- ./inp_files/70650.got.cif
#   From: 2010.05.17/outbox.cif.g08.bks.cpg/sg14_36_cif.got.tgz:70650.got - 2010.06.03 17:49:19.
