data_PCOD9250787
_publ_section_title
;
Structure prediction by ZEFSAII (Michael W. Deem and Ramdas Pophale) SiO2 
 PCOD9250787
Probable space group: P 21/C
;
_chemical_formula_sum "Si O2"
_cell_formula_units_Z 26
_cell_length_a 8.130836
_cell_length_b 14.146324
_cell_length_c 13.975348
_cell_angle_alpha 90.000000
_cell_angle_beta 41.056949
_cell_angle_gamma 90.000000
_cell_volume 1055.797008
_symmetry_space_group_name_H-M "P 21/C"
_symmetry_group_IT_number 14
_symmetry_cell_setting 'monoclinic'
loop_
_space_group_symop_operation_xyz
x,y,z
-x,1/2+y,1/2-z
-x,-y,-z
x,1/2-y,1/2+z
loop_
_atom_site_type_symbol
_atom_site_label
_atom_site_fract_x
_atom_site_fract_y
_atom_site_fract_z
Si Si1 0.149243 0.327872 0.186207
Si Si2 0.418287 0.882795 0.789904
Si Si3 0.618420 0.689553 0.709338
Si Si4 0.932671 0.859159 0.890119
Si Si5 0.249679 0.950479 0.429244
Si Si6 0.255319 0.553392 0.570480
Si Si7 0.500000 0.000000 0.500000
O O1 0.225778 0.334861 0.264081
O O2 0.148181 0.221555 0.148164
O O3 0.868886 0.370584 0.305145
O O4 0.344804 0.398714 0.050952
O O5 0.626468 0.802388 0.699725
O O6 0.203106 0.843352 0.816212
O O7 0.523280 0.980115 0.702587
O O8 0.317234 0.901343 0.940781
O O9 0.737829 0.645165 0.563199
O O10 0.336612 0.650014 0.848842
O O11 0.939445 0.967243 0.852985
O O12 0.288235 0.945601 0.525696
O O13 0.000000 0.000000 0.500000
O O14 0.500000 0.500000 0.500000
#
# Coordination Sequence:
#
# PCOD9250787 Si02
#       7
#     4   4   4   4   4   4   2
#     4  11  26  49  74 111 150 198 256 322 388 471
#     4  12  26  47  74 108 150 201 254 318 390 469
#     4  11  25  48  73 108 149 199 256 310 388 474
#     4  12  25  48  79 104 155 207 255 322 398 466
#     4  11  26  47  76 107 153 200 250 315 393 464
#     4  12  27  48  75 110 152 197 255 325 394 464
#     4  10  24  46  72 110 148 186 254 316 374 460
#
# _framework density 24.625945999999999
#
# number of rings (size 3 to 8) (size 9 to 14) (size 15 to 20)
#    0.000    0.615    3.077    4.154    8.615    0.000 
#   13.846    0.000    0.000    0.000    0.000    0.000 
#    0.000    0.000    0.000    0.000    0.000    0.000 
#
# Total GULP energy -145079.132263 kJ/mol
# GULP energy per Si atom -5579.966626 kJ/mol
# Density = 2.456990 g / cm^3
# Si number density = 24.625946 Si / 1000 Ang^3
#
#
#
# Elastic Constant Matrix: (Units=GPa)
#
#
# Indices 1 2 3 4 5 6 
#
# 1 96.2019 -9.4081 13.3721 0.0000 -12.1700 0.0000
# 2 -9.4081 82.4197 -5.4996 0.0000 9.6191 0.0000
# 3 13.3721 -5.4996 65.8280 0.0000 11.0713 0.0000
# 4 0.0000 0.0000 0.0000 35.3498 0.0000 0.2914
# 5 -12.1700 9.6191 11.0713 0.0000 30.0061 0.0000
# 6 0.0000 0.0000 0.0000 0.2914 0.0000 36.4521
#
#
#
# Elastic Compliance Matrix: (Units=1/GPa)
#
#
# Indices 1 2 3 4 5 6 
#
# 1 0.011629 0.000431 -0.003301 0.000000 0.005797 0.000000
# 2 0.000431 0.012835 0.001756 0.000000 -0.004588 0.000000
# 3 -0.003301 0.001756 0.017409 0.000000 -0.008325 0.000000
# 4 0.000000 0.000000 0.000000 0.028291 0.000000 -0.000226
# 5 0.005797 -0.004588 -0.008325 0.000000 0.040220 0.000000
# 6 0.000000 0.000000 0.000000 -0.000226 0.000000 0.027435
#
#
# Mechanical properties :
#
#
# Convention : Reuss Voigt Hill
#
# Bulk Modulus (GPa) = 25.22434 26.81982 26.02208
# Shear Modulus (GPa) = 32.62403 36.76060 34.69232
#
# Velocity S-wave (km/s) = 3.64371 3.86782 3.75743
# Velocity P-wave (km/s) = 5.28842 5.55528 5.42349
#
# Compressibility (1/GPa) = 0.03964426
#
# Stress axis : x y z
#
# Youngs Moduli (GPa) = 85.99130 77.91302 57.44276
#
# Poissons Ratio (x) = -0.03355 0.18963
# Poissons Ratio (y) = -0.03703 -0.10089
# Poissons Ratio (z) = 0.28388 -0.13685
#
# Static dielectric constant tensor:
#      x y z
#    x 2.150640 0.000000 -0.044570 
#    y 0.000000 1.895780 0.000000 
#    z -0.044570 0.000000 2.067630 
# 
# From -- ./inp_files/41114.got.cif
#   From: 2010.05.17/outbox.cif.g08.bks.cpg/sg14_21_cif.got.tgz:41114.got - 2010.06.03 17:49:19.
