data_PCOD9250040
_publ_section_title
;
Structure prediction by ZEFSAII (Michael W. Deem and Ramdas Pophale) SiO2 
 PCOD9250040
Probable space group: P 21/C
;
_chemical_formula_sum "Si O2"
_cell_formula_units_Z 30
_cell_length_a 10.427833
_cell_length_b 16.227291
_cell_length_c 13.199790
_cell_angle_alpha 90.000000
_cell_angle_beta 35.773493
_cell_angle_gamma 90.000000
_cell_volume 1305.728367
_symmetry_space_group_name_H-M "P 21/C"
_symmetry_group_IT_number 14
_symmetry_cell_setting 'monoclinic'
loop_
_space_group_symop_operation_xyz
x,y,z
-x,1/2+y,1/2-z
-x,-y,-z
x,1/2-y,1/2+z
loop_
_atom_site_type_symbol
_atom_site_label
_atom_site_fract_x
_atom_site_fract_y
_atom_site_fract_z
Si Si1 0.792731 0.831978 0.015977
Si Si2 0.478980 0.560032 0.609138
Si Si3 0.163081 0.928007 0.861600
Si Si4 0.500000 0.000000 0.500000
Si Si5 0.513794 0.852211 0.392155
Si Si6 0.161091 0.162224 0.624979
Si Si7 0.407093 0.413968 0.781515
Si Si8 0.335339 0.818212 0.048137
O O1 0.710446 0.912328 0.007978
O O2 0.623455 0.822895 0.217704
O O3 0.801576 0.756429 0.933092
O O4 0.020943 0.848286 0.925569
O O5 0.500000 0.500000 0.500000
O O6 0.354869 0.503148 0.768719
O O7 0.371979 0.644084 0.636729
O O8 0.355217 0.911381 0.817160
O O9 0.283075 0.957308 0.684474
O O10 0.000000 0.000000 0.000000
O O11 0.543792 0.052271 0.580533
O O12 0.677224 0.863680 0.386647
O O13 0.350022 0.780205 0.529771
O O14 0.232478 0.114347 0.477350
O O15 0.910617 0.152297 0.820364
O O16 0.464511 0.353583 0.649157
#
# Coordination Sequence:
#
# PCOD9250040 Si02
#       8
#     4   4   4   2   4   4   4   4
#     4  12  24  44  71 103 140 188 230 295 358 413
#     4  10  23  45  73  99 144 185 236 290 352 428
#     4  12  23  40  70 100 136 178 230 290 355 405
#     4  12  24  38  66 100 134 166 232 286 332 420
#     4  12  24  45  68 103 137 179 241 288 348 431
#     4  12  26  43  71  98 142 185 233 291 359 422
#     4  11  23  46  70 101 139 184 237 292 341 430
#     4  11  25  46  69 101 139 188 228 290 357 418
#
# _framework density 22.975681999999999
#
# number of rings (size 3 to 8) (size 9 to 14) (size 15 to 20)
#    0.000    0.533    6.667    1.600    0.000    0.533 
#    2.400    0.000    2.933    0.000    0.000    0.000 
#    0.000    0.000    0.000    0.000    0.000    0.000 
#
# Total GULP energy -167046.136606 kJ/mol
# GULP energy per Si atom -5568.204554 kJ/mol
# Density = 2.292339 g / cm^3
# Si number density = 22.975682 Si / 1000 Ang^3
#
#
#
# Elastic Constant Matrix: (Units=GPa)
#
#
# Indices 1 2 3 4 5 6 
#
# 1 59.4449 -0.9413 8.0121 0.0000 16.3000 0.0000
# 2 -0.9413 75.3366 7.7783 0.0000 14.4463 0.0000
# 3 8.0121 7.7783 83.1834 0.0000 10.4659 0.0000
# 4 0.0000 0.0000 0.0000 33.4582 0.0000 10.7485
# 5 16.3000 14.4463 10.4659 0.0000 30.0987 0.0000
# 6 0.0000 0.0000 0.0000 10.7485 0.0000 10.1203
#
#
#
# Elastic Compliance Matrix: (Units=1/GPa)
#
#
# Indices 1 2 3 4 5 6 
#
# 1 0.020242 0.002621 -0.000687 0.000000 -0.011981 0.000000
# 2 0.002621 0.014979 -0.000596 0.000000 -0.008402 0.000000
# 3 -0.000687 -0.000596 0.012613 0.000000 -0.003727 0.000000
# 4 0.000000 0.000000 0.000000 0.045367 0.000000 -0.048183
# 5 -0.011981 -0.008402 -0.003727 0.000000 0.045041 0.000000
# 6 0.000000 0.000000 0.000000 -0.048183 0.000000 0.149985
#
#
# Mechanical properties :
#
#
# Convention : Reuss Voigt Hill
#
# Bulk Modulus (GPa) = 19.79836 27.51813 23.65824
# Shear Modulus (GPa) = 16.53511 28.27651 22.40581
#
# Velocity S-wave (km/s) = 2.68559 3.51196 3.12620
# Velocity P-wave (km/s) = 4.27228 5.33369 4.83221
#
# Compressibility (1/GPa) = 0.05050923
#
# Stress axis : x y z
#
# Youngs Moduli (GPa) = 49.40298 66.75942 79.28632
#
# Poissons Ratio (x) = -0.17500 0.05450
# Poissons Ratio (y) = -0.12950 0.04726
# Poissons Ratio (z) = 0.03396 0.03979
#
# Static dielectric constant tensor:
#      x y z
#    x 1.897280 0.000000 0.055740 
#    y 0.000000 3.125970 0.000000 
#    z 0.055740 0.000000 1.839940 
# 
# From -- ./inp_files/45380.got.cif
#   From: 2010.05.17/outbox.cif.g08.bks.cpg/sg14_23_cif.got.tgz:45380.got - 2010.06.03 17:49:19.
