data_PCOD9250018
_publ_section_title
;
Structure prediction by ZEFSAII (Michael W. Deem and Ramdas Pophale) SiO2 
 PCOD9250018
Probable space group: P 21/C
;
_chemical_formula_sum "Si O2"
_cell_formula_units_Z 24
_cell_length_a 7.808526
_cell_length_b 14.523349
_cell_length_c 17.228186
_cell_angle_alpha 90.000000
_cell_angle_beta 146.724666
_cell_angle_gamma 90.000000
_cell_volume 1071.966023
_symmetry_space_group_name_H-M "P 21/C"
_symmetry_group_IT_number 14
_symmetry_cell_setting 'monoclinic'
loop_
_space_group_symop_operation_xyz
x,y,z
-x,1/2+y,1/2-z
-x,-y,-z
x,1/2-y,1/2+z
loop_
_atom_site_type_symbol
_atom_site_label
_atom_site_fract_x
_atom_site_fract_y
_atom_site_fract_z
Si Si1 0.905757 0.080760 0.902513
Si Si2 0.165217 0.450867 0.888915
Si Si3 0.000150 0.709989 0.057160
Si Si4 0.283654 0.232972 0.202860
Si Si5 0.900724 0.430964 0.624522
Si Si6 0.352660 0.100919 0.806182
O O1 0.067206 0.180562 0.952301
O O2 0.573823 0.101166 0.814029
O O3 0.939793 0.028683 0.834629
O O4 0.000000 0.000000 0.000000
O O5 0.155478 0.368260 0.948453
O O6 0.993408 0.409866 0.747235
O O7 0.932091 0.534798 0.819715
O O8 0.500000 0.500000 0.000000
O O9 0.376652 0.701388 0.198399
O O10 0.887759 0.705279 0.926276
O O11 0.283770 0.290780 0.282896
O O12 0.072779 0.144759 0.137246
O O13 0.549982 0.430637 0.456458
#
# Coordination Sequence:
#
# PCOD9250018 Si02
#       6
#     4   4   4   4   4   4
#     4   9  18  42  76  98 122 180 250 288 339 430
#     4  12  30  44  64 108 157 189 226 306 376 431
#     4  11  25  44  72 105 138 186 245 298 361 428
#     4  11  22  46  76 103 130 186 254 301 342 430
#     4  11  23  46  68 104 140 187 239 295 366 438
#     4  10  23  45  70  98 135 194 239 292 359 434
#
# _framework density 22.388771999999999
#
# number of rings (size 3 to 8) (size 9 to 14) (size 15 to 20)
#    0.000    1.333    5.000    1.500    9.333    2.000 
#    3.000    0.000    0.000    0.000    0.000    0.000 
#    0.000    0.000    0.000    0.000    0.000    0.000 
#
# Total GULP energy -133674.850895 kJ/mol
# GULP energy per Si atom -5569.785454 kJ/mol
# Density = 2.233781 g / cm^3
# Si number density = 22.388772 Si / 1000 Ang^3
#
#
#
# Elastic Constant Matrix: (Units=GPa)
#
#
# Indices 1 2 3 4 5 6 
#
# 1 58.5379 46.2898 26.7426 0.0000 -0.5062 0.0000
# 2 46.2898 150.5750 34.6629 0.0000 9.7134 0.0000
# 3 26.7426 34.6629 80.3538 0.0000 11.1815 0.0000
# 4 0.0000 0.0000 0.0000 41.0887 0.0000 -3.1814
# 5 -0.5062 9.7134 11.1815 0.0000 27.9446 0.0000
# 6 0.0000 0.0000 0.0000 -3.1814 0.0000 40.8183
#
#
#
# Elastic Compliance Matrix: (Units=1/GPa)
#
#
# Indices 1 2 3 4 5 6 
#
# 1 0.025261 -0.006664 -0.006268 0.000000 0.005282 0.000000
# 2 -0.006664 0.009181 -0.001357 0.000000 -0.002769 0.000000
# 3 -0.006268 -0.001357 0.015955 0.000000 -0.006026 0.000000
# 4 0.000000 0.000000 0.000000 0.024485 0.000000 0.001908
# 5 0.005282 -0.002769 -0.006026 0.000000 0.039254 0.000000
# 6 0.000000 0.000000 0.000000 0.001908 0.000000 0.024648
#
#
# Mechanical properties :
#
#
# Convention : Reuss Voigt Hill
#
# Bulk Modulus (GPa) = 45.83019 56.09526 50.96272
# Shear Modulus (GPa) = 28.63110 34.08841 31.35975
#
# Velocity S-wave (km/s) = 3.57993 3.90624 3.74664
# Velocity P-wave (km/s) = 6.13209 6.74199 6.44426
#
# Compressibility (1/GPa) = 0.02181968
#
# Stress axis : x y z
#
# Youngs Moduli (GPa) = 39.58607 108.92224 62.67644
#
# Poissons Ratio (x) = 0.72583 0.39283
# Poissons Ratio (y) = 0.26379 0.08507
# Poissons Ratio (z) = 0.24811 0.14785
#
# Static dielectric constant tensor:
#      x y z
#    x 1.890010 0.000000 0.054110 
#    y 0.000000 2.281410 0.000000 
#    z 0.054110 0.000000 1.765600 
# 
# From -- ./inp_files/56008.got.cif
#   From: 2010.05.17/outbox.cif.g08.bks.cpg/sg14_29_cif.got.tgz:56008.got - 2010.06.03 17:49:19.
