data_PCOD9250362
_publ_section_title
;
Structure prediction by ZEFSAII (Michael W. Deem and Ramdas Pophale) SiO2 
 PCOD9250362
Probable space group: P 21/C
;
_chemical_formula_sum "Si O2"
_cell_formula_units_Z 24
_cell_length_a 22.165866
_cell_length_b 11.081763
_cell_length_c 7.865994
_cell_angle_alpha 90.000000
_cell_angle_beta 144.562126
_cell_angle_gamma 90.000000
_cell_volume 1120.315291
_symmetry_space_group_name_H-M "P 21/C"
_symmetry_group_IT_number 14
_symmetry_cell_setting 'monoclinic'
loop_
_space_group_symop_operation_xyz
x,y,z
-x,1/2+y,1/2-z
-x,-y,-z
x,1/2-y,1/2+z
loop_
_atom_site_type_symbol
_atom_site_label
_atom_site_fract_x
_atom_site_fract_y
_atom_site_fract_z
Si Si1 0.918998 0.525437 0.666539
Si Si2 0.698337 0.586768 0.581111
Si Si3 0.882410 0.079548 0.556161
Si Si4 0.381127 0.525143 0.270930
Si Si5 0.713478 0.855218 0.733805
Si Si6 0.799736 0.320161 0.218056
O O1 0.838001 0.629818 0.524786
O O2 0.850428 0.405924 0.477703
O O3 0.000000 0.500000 0.000000
O O4 0.995232 0.563304 0.688887
O O5 0.817711 0.541611 0.869902
O O6 0.637851 0.498235 0.572075
O O7 0.684466 0.717921 0.631949
O O8 0.671674 0.595313 0.319321
O O9 0.832624 0.183679 0.322972
O O10 0.853227 0.126857 0.673671
O O11 0.500000 0.500000 0.500000
O O12 0.321239 0.430236 0.011631
O O13 0.323209 0.650457 0.086573
#
# Coordination Sequence:
#
# PCOD9250362 Si02
#       6
#     4   4   4   4   4   4
#     4  11  22  38  64  93 131 180 219 261 331 394
#     4  11  23  43  68  98 131 173 220 276 329 400
#     4  11  23  40  63  96 134 174 218 267 334 387
#     4  10  24  48  69  96 127 172 228 280 336 390
#     4  11  23  42  68  96 135 171 222 274 328 400
#     4  10  24  42  61  94 134 169 221 277 321 400
#
# _framework density 21.422540000000001
#
# number of rings (size 3 to 8) (size 9 to 14) (size 15 to 20)
#    0.000    1.333    3.333    1.500    4.667    2.000 
#    6.000    0.000    0.000    0.000    0.000    0.000 
#    0.000    0.000    0.000    0.000    0.000    0.000 
#
# Total GULP energy -133934.414596 kJ/mol
# GULP energy per Si atom -5580.600608 kJ/mol
# Density = 2.137378 g / cm^3
# Si number density = 21.422540 Si / 1000 Ang^3
#
#
#
# Elastic Constant Matrix: (Units=GPa)
#
#
# Indices 1 2 3 4 5 6 
#
# 1 88.5356 -8.2291 13.7513 0.0000 -0.7246 0.0000
# 2 -8.2291 44.1450 0.6587 0.0000 -8.3508 0.0000
# 3 13.7513 0.6587 52.3833 0.0000 14.7091 0.0000
# 4 0.0000 0.0000 0.0000 15.3648 0.0000 -9.4653
# 5 -0.7246 -8.3508 14.7091 0.0000 47.3667 0.0000
# 6 0.0000 0.0000 0.0000 -9.4653 0.0000 23.9728
#
#
#
# Elastic Compliance Matrix: (Units=1/GPa)
#
#
# Indices 1 2 3 4 5 6 
#
# 1 0.012136 0.002661 -0.003728 0.000000 0.001813 0.000000
# 2 0.002661 0.024140 -0.002420 0.000000 0.005048 0.000000
# 3 -0.003728 -0.002420 0.022168 0.000000 -0.007368 0.000000
# 4 0.000000 0.000000 0.000000 0.086002 0.000000 0.033957
# 5 0.001813 0.005048 -0.007368 0.000000 0.024317 0.000000
# 6 0.000000 0.000000 0.000000 0.033957 0.000000 0.055121
#
#
# Mechanical properties :
#
#
# Convention : Reuss Voigt Hill
#
# Bulk Modulus (GPa) = 19.42887 21.93619 20.68253
# Shear Modulus (GPa) = 20.16003 29.26639 24.71321
#
# Velocity S-wave (km/s) = 3.07101 3.70016 3.40016
# Velocity P-wave (km/s) = 4.65444 5.34012 5.00903
#
# Compressibility (1/GPa) = 0.05146979
#
# Stress axis : x y z
#
# Youngs Moduli (GPa) = 82.39867 41.42563 45.11003
#
# Poissons Ratio (x) = -0.11023 0.16818
# Poissons Ratio (y) = -0.21925 0.10914
# Poissons Ratio (z) = 0.30721 0.10023
#
# Static dielectric constant tensor:
#      x y z
#    x 1.869670 0.000000 -0.023910 
#    y 0.000000 1.792200 0.000000 
#    z -0.023910 0.000000 1.805780 
# 
# From -- ./inp_files/12384.got.cif
#   From: 2010.05.17/outbox.cif.g08.bks.cpg/sg14_7_cif.got.tgz:12384.got - 2010.06.03 17:49:19.
