data_PCOD9250223
_publ_section_title
;
Structure prediction by ZEFSAII (Michael W. Deem and Ramdas Pophale) SiO2 
 PCOD9250223
Probable space group: P 21/C
;
_chemical_formula_sum "Si O2"
_cell_formula_units_Z 20
_cell_length_a 7.513402
_cell_length_b 8.575999
_cell_length_c 13.041838
_cell_angle_alpha 90.000000
_cell_angle_beta 63.093322
_cell_angle_gamma 90.000000
_cell_volume 749.377640
_symmetry_space_group_name_H-M "P 21/C"
_symmetry_group_IT_number 14
_symmetry_cell_setting 'monoclinic'
loop_
_space_group_symop_operation_xyz
x,y,z
-x,1/2+y,1/2-z
-x,-y,-z
x,1/2-y,1/2+z
loop_
_atom_site_type_symbol
_atom_site_label
_atom_site_fract_x
_atom_site_fract_y
_atom_site_fract_z
Si Si1 0.450879 0.009389 0.769994
Si Si2 0.101987 0.602784 0.844456
Si Si3 0.783449 0.357606 0.851257
Si Si4 0.133101 0.346611 0.493095
Si Si5 0.536246 0.830577 0.941441
O O1 0.326191 0.964699 0.704024
O O2 0.479968 0.862092 0.839272
O O3 0.676024 0.050365 0.686506
O O4 0.318955 0.137172 0.867124
O O5 0.133857 0.709243 0.733835
O O6 0.956975 0.461690 0.853555
O O7 0.016769 0.703615 0.961211
O O8 0.611752 0.293932 0.971055
O O9 0.237485 0.315645 0.577782
O O10 0.000000 0.500000 0.500000
O O11 0.500000 0.000000 0.000000
#
# Coordination Sequence:
#
# PCOD9250223 Si02
#       5
#     4   4   4   4   4
#     4  11  26  52  83 120 174 223 277 349 433 502
#     4  12  27  50  83 126 163 223 290 346 423 515
#     4  12  27  52  85 123 169 224 285 352 424 507
#     4  11  23  47  84 113 161 225 274 342 426 495
#     4  10  23  51  80 118 166 219 277 345 419 505
#
# _framework density 26.688814000000001
#
# number of rings (size 3 to 8) (size 9 to 14) (size 15 to 20)
#    0.000    0.800    6.000    1.200    2.800    4.000 
#   10.800    2.000    0.000    0.000    0.000    0.000 
#    0.000    0.000    0.000    0.000    0.000    0.000 
#
# Total GULP energy -112085.248973 kJ/mol
# GULP energy per Si atom -5604.262449 kJ/mol
# Density = 2.662807 g / cm^3
# Si number density = 26.688814 Si / 1000 Ang^3
#
#
#
# Elastic Constant Matrix: (Units=GPa)
#
#
# Indices 1 2 3 4 5 6 
#
# 1 198.0968 49.0550 73.2667 0.0000 -2.9882 0.0000
# 2 49.0550 78.7363 58.7127 0.0000 2.0963 0.0000
# 3 73.2667 58.7127 127.3199 0.0000 -1.4197 0.0000
# 4 0.0000 0.0000 0.0000 56.5505 0.0000 -5.8206
# 5 -2.9882 2.0963 -1.4197 0.0000 26.0405 0.0000
# 6 0.0000 0.0000 0.0000 -5.8206 0.0000 60.3254
#
#
#
# Elastic Compliance Matrix: (Units=1/GPa)
#
#
# Indices 1 2 3 4 5 6 
#
# 1 0.006619 -0.001997 -0.002880 0.000000 0.000763 0.000000
# 2 -0.001997 0.020069 -0.008131 0.000000 -0.002288 0.000000
# 3 -0.002880 -0.008131 0.013273 0.000000 0.001048 0.000000
# 4 0.000000 0.000000 0.000000 0.017861 0.000000 0.001723
# 5 0.000763 -0.002288 0.001048 0.000000 0.038731 0.000000
# 6 0.000000 0.000000 0.000000 0.001723 0.000000 0.016743
#
#
# Mechanical properties :
#
#
# Convention : Reuss Voigt Hill
#
# Bulk Modulus (GPa) = 71.70793 85.13576 78.42185
# Shear Modulus (GPa) = 34.73225 43.45784 39.09505
#
# Velocity S-wave (km/s) = 3.61138 4.03962 3.83148
# Velocity P-wave (km/s) = 6.65702 7.32985 7.00152
#
# Compressibility (1/GPa) = 0.01394546
#
# Stress axis : x y z
#
# Youngs Moduli (GPa) = 151.07837 49.82839 75.34353
#
# Poissons Ratio (x) = 0.09950 0.21696
# Poissons Ratio (y) = 0.30169 0.61262
# Poissons Ratio (z) = 0.43504 0.40515
#
# Static dielectric constant tensor:
#      x y z
#    x 1.884730 0.000000 -0.029420 
#    y 0.000000 2.327060 0.000000 
#    z -0.029420 0.000000 2.099290 
# 
# From -- ./inp_files/23516.got.cif
#   From: 2010.05.17/outbox.cif.g08.bks.cpg/sg14_12_cif.got.tgz:23516.got - 2010.06.03 17:49:19.
