data_PCOD9250103
_publ_section_title
;
Structure prediction by ZEFSAII (Michael W. Deem and Ramdas Pophale) SiO2 
 PCOD9250103
Probable space group: P 21/C
;
_chemical_formula_sum "Si O2"
_cell_formula_units_Z 32
_cell_length_a 14.887461
_cell_length_b 5.238119
_cell_length_c 18.725689
_cell_angle_alpha 90.000000
_cell_angle_beta 113.968754
_cell_angle_gamma 90.000000
_cell_volume 1334.348700
_symmetry_space_group_name_H-M "P 21/C"
_symmetry_group_IT_number 14
_symmetry_cell_setting 'monoclinic'
loop_
_space_group_symop_operation_xyz
x,y,z
-x,1/2+y,1/2-z
-x,-y,-z
x,1/2-y,1/2+z
loop_
_atom_site_type_symbol
_atom_site_label
_atom_site_fract_x
_atom_site_fract_y
_atom_site_fract_z
Si Si1 0.733634 0.962100 0.681799
Si Si2 0.414701 0.130803 0.649859
Si Si3 0.123874 0.377850 0.207271
Si Si4 0.207147 0.477393 0.456842
Si Si5 0.914740 0.236432 0.201501
Si Si6 0.331656 0.513413 0.979927
Si Si7 0.632351 0.136942 0.787948
Si Si8 0.068464 0.253090 0.531547
O O1 0.771649 0.687334 0.722753
O O2 0.649600 0.051186 0.598603
O O3 0.707516 0.091386 0.748437
O O4 0.831783 0.048206 0.670803
O O5 0.524425 0.129576 0.716603
O O6 0.355001 0.911199 0.672304
O O7 0.411033 0.041359 0.566662
O O8 0.369231 0.407320 0.654428
O O9 0.098275 0.667361 0.219066
O O10 0.115701 0.287419 0.124451
O O11 0.026928 0.267496 0.216630
O O12 0.126550 0.538083 0.370370
O O13 0.283761 0.267822 0.456119
O O14 0.153869 0.324806 0.503535
O O15 0.263914 0.748810 0.486135
O O16 0.000000 0.500000 0.500000
O O17 0.000000 0.000000 0.500000
#
# Coordination Sequence:
#
# PCOD9250103 Si02
#       8
#     4   4   4   4   4   4   4   4
#     4  11  26  41  66  99 130 176 229 274 321 411
#     4  10  23  46  72  99 138 173 206 281 341 398
#     4  12  25  41  65  89 130 181 222 280 327 383
#     4  11  24  44  61  96 132 171 226 275 324 395
#     4  11  24  42  65  88 135 178 222 273 333 382
#     4  11  24  42  68  96 135 173 216 274 337 391
#     4  10  24  45  71 104 133 169 224 266 336 407
#     4  12  28  42  62  91 126 172 226 278 325 384
#
# _framework density 23.981736000000001
#
# number of rings (size 3 to 8) (size 9 to 14) (size 15 to 20)
#    0.000    1.000    3.750    1.500   10.500    0.500 
#    0.000    0.000    0.000    6.750    0.000    0.000 
#    0.000    0.000    0.000    0.000    0.000    0.000 
#
# Total GULP energy -178251.050696 kJ/mol
# GULP energy per Si atom -5570.345334 kJ/mol
# Density = 2.392715 g / cm^3
# Si number density = 23.981736 Si / 1000 Ang^3
#
#
#
# Elastic Constant Matrix: (Units=GPa)
#
#
# Indices 1 2 3 4 5 6 
#
# 1 53.3496 13.3117 8.7731 0.0000 -8.1676 0.0000
# 2 13.3117 111.9299 22.7042 0.0000 11.4139 0.0000
# 3 8.7731 22.7042 123.5717 0.0000 1.5511 0.0000
# 4 0.0000 0.0000 0.0000 33.0578 0.0000 0.2418
# 5 -8.1676 11.4139 1.5511 0.0000 25.1440 0.0000
# 6 0.0000 0.0000 0.0000 0.2418 0.0000 19.9192
#
#
#
# Elastic Compliance Matrix: (Units=1/GPa)
#
#
# Indices 1 2 3 4 5 6 
#
# 1 0.020963 -0.003133 -0.001017 0.000000 0.008294 0.000000
# 2 -0.003133 0.010193 -0.001581 0.000000 -0.005547 0.000000
# 3 -0.001017 -0.001581 0.008457 0.000000 -0.000134 0.000000
# 4 0.000000 0.000000 0.000000 0.030253 0.000000 -0.000367
# 5 0.008294 -0.005547 -0.000134 0.000000 0.044991 0.000000
# 6 0.000000 0.000000 0.000000 -0.000367 0.000000 0.050207
#
#
# Mechanical properties :
#
#
# Convention : Reuss Voigt Hill
#
# Bulk Modulus (GPa) = 35.52105 42.04769 38.78437
# Shear Modulus (GPa) = 26.89492 31.89503 29.39498
#
# Velocity S-wave (km/s) = 3.35248 3.65083 3.50483
# Velocity P-wave (km/s) = 5.46162 5.94498 5.70842
#
# Compressibility (1/GPa) = 0.02815232
#
# Stress axis : x y z
#
# Youngs Moduli (GPa) = 47.70316 98.10628 118.24827
#
# Poissons Ratio (x) = 0.30733 0.12024
# Poissons Ratio (y) = 0.14944 0.18692
# Poissons Ratio (z) = 0.04851 0.15508
#
# Static dielectric constant tensor:
#      x y z
#    x 1.940620 0.000000 0.002520 
#    y 0.000000 2.095480 0.000000 
#    z 0.002520 0.000000 2.102300 
# 
# From -- ./inp_files/58641.got.cif
#   From: 2010.05.17/outbox.cif.g08.bks.cpg/sg14_30_cif.got.tgz:58641.got - 2010.06.03 17:49:19.
