data_PCOD9250476
_publ_section_title
;
Structure prediction by ZEFSAII (Michael W. Deem and Ramdas Pophale) SiO2 
 PCOD9250476
Probable space group: P 21/C
;
_chemical_formula_sum "Si O2"
_cell_formula_units_Z 20
_cell_length_a 19.022143
_cell_length_b 8.626869
_cell_length_c 12.042678
_cell_angle_alpha 90.000000
_cell_angle_beta 150.928857
_cell_angle_gamma 90.000000
_cell_volume 960.236848
_symmetry_space_group_name_H-M "P 21/C"
_symmetry_group_IT_number 14
_symmetry_cell_setting 'monoclinic'
loop_
_space_group_symop_operation_xyz
x,y,z
-x,1/2+y,1/2-z
-x,-y,-z
x,1/2-y,1/2+z
loop_
_atom_site_type_symbol
_atom_site_label
_atom_site_fract_x
_atom_site_fract_y
_atom_site_fract_z
Si Si1 0.635157 0.988899 0.603756
Si Si2 0.175753 0.235598 0.002989
Si Si3 0.411882 0.036350 0.720396
Si Si4 0.016349 0.999910 0.391216
Si Si5 0.317407 0.672391 0.275265
O O1 0.590018 0.982526 0.413597
O O2 0.500000 0.000000 0.500000
O O3 0.713299 0.150643 0.738001
O O4 0.731160 0.842201 0.770423
O O5 0.043217 0.333153 0.872074
O O6 0.112001 0.097617 0.840853
O O7 0.284205 0.345819 0.083003
O O8 0.382696 0.874025 0.744795
O O9 0.562131 0.105990 0.973384
O O10 0.168179 0.916367 0.578551
O O11 0.000000 0.000000 0.500000
#
# Coordination Sequence:
#
# PCOD9250476 Si02
#       5
#     4   4   4   4   4
#     4  12  25  38  70  98 130 172 216 270 331 382
#     4  11  24  45  64 101 128 175 221 265 331 390
#     4  10  24  44  66  95 137 165 228 272 318 390
#     4  11  25  43  70  91 136 174 216 268 328 391
#     4  10  24  43  65  98 129 176 217 272 325 382
#
# _framework density 20.828194
#
# number of rings (size 3 to 8) (size 9 to 14) (size 15 to 20)
#    0.000    1.200    2.000    2.400    5.600    3.200 
#    0.000    7.000    0.000    0.000    0.000    0.000 
#    0.000    0.000    0.000    0.000    0.000    0.000 
#
# Total GULP energy -111811.316469 kJ/mol
# GULP energy per Si atom -5590.565823 kJ/mol
# Density = 2.078079 g / cm^3
# Si number density = 20.828194 Si / 1000 Ang^3
#
#
#
# Elastic Constant Matrix: (Units=GPa)
#
#
# Indices 1 2 3 4 5 6 
#
# 1 88.4130 12.4487 34.1236 0.0000 -47.1994 0.0000
# 2 12.4487 66.0073 4.6675 0.0000 -20.4338 0.0000
# 3 34.1236 4.6675 80.6852 0.0000 -22.4117 0.0000
# 4 0.0000 0.0000 0.0000 36.8672 0.0000 -0.5282
# 5 -47.1994 -20.4338 -22.4117 0.0000 40.4674 0.0000
# 6 0.0000 0.0000 0.0000 -0.5282 0.0000 14.8025
#
#
#
# Elastic Compliance Matrix: (Units=1/GPa)
#
#
# Indices 1 2 3 4 5 6 
#
# 1 0.032912 0.006342 -0.003231 0.000000 0.039800 0.000000
# 2 0.006342 0.019390 0.001147 0.000000 0.017824 0.000000
# 3 -0.003231 0.001147 0.015137 0.000000 0.005194 0.000000
# 4 0.000000 0.000000 0.000000 0.027138 0.000000 0.000968
# 5 0.039800 0.017824 0.005194 0.000000 0.083009 0.000000
# 6 0.000000 0.000000 0.000000 0.000968 0.000000 0.067591
#
#
# Mechanical properties :
#
#
# Convention : Reuss Voigt Hill
#
# Bulk Modulus (GPa) = 13.16568 37.50948 25.33758
# Shear Modulus (GPa) = 19.08555 30.68514 24.88535
#
# Velocity S-wave (km/s) = 3.03038 3.84246 3.46033
# Velocity P-wave (km/s) = 4.31035 6.14281 5.30628
#
# Compressibility (1/GPa) = 0.07595508
#
# Stress axis : x y z
#
# Youngs Moduli (GPa) = 30.38410 51.57237 66.06529
#
# Poissons Ratio (x) = -0.32709 0.21345
# Poissons Ratio (y) = -0.19271 -0.07576
# Poissons Ratio (z) = 0.09817 -0.05914
#
# Static dielectric constant tensor:
#      x y z
#    x 1.694380 0.000000 -0.069700 
#    y 0.000000 1.801120 0.000000 
#    z -0.069700 0.000000 1.541080 
# 
# From -- ./inp_files/27756.got.cif
#   From: 2010.05.17/outbox.cif.g08.bks.cpg/sg14_14_cif.got.tgz:27756.got - 2010.06.03 17:49:19.
