data_PCOD9250898
_publ_section_title
;
Structure prediction by ZEFSAII (Michael W. Deem and Ramdas Pophale) SiO2 
 PCOD9250898
Probable space group: P 21/C
;
_chemical_formula_sum "Si O2"
_cell_formula_units_Z 18
_cell_length_a 9.409172
_cell_length_b 4.897231
_cell_length_c 15.829708
_cell_angle_alpha 90.000000
_cell_angle_beta 116.823561
_cell_angle_gamma 90.000000
_cell_volume 650.930507
_symmetry_space_group_name_H-M "P 21/C"
_symmetry_group_IT_number 14
_symmetry_cell_setting 'monoclinic'
loop_
_space_group_symop_operation_xyz
x,y,z
-x,1/2+y,1/2-z
-x,-y,-z
x,1/2-y,1/2+z
loop_
_atom_site_type_symbol
_atom_site_label
_atom_site_fract_x
_atom_site_fract_y
_atom_site_fract_z
Si Si1 0.880859 0.952622 0.344497
Si Si2 0.214120 0.343659 0.932652
Si Si3 0.500000 0.000000 0.500000
Si Si4 0.770528 0.067691 0.914959
Si Si5 0.415808 0.015164 0.853735
O O1 0.864488 0.158044 0.418514
O O2 0.739664 0.031152 0.243330
O O3 0.055692 0.022091 0.355032
O O4 0.842689 0.649533 0.364996
O O5 0.328450 0.562413 0.006782
O O6 0.356925 0.261033 0.902267
O O7 0.190800 0.086947 0.986448
O O8 0.543812 0.258255 0.578993
O O9 0.578767 0.075549 0.847898
#
# Coordination Sequence:
#
# PCOD9250898 Si02
#       5
#     4   4   2   4   4
#     4  12  27  47  77 119 160 199 270 345 393 468
#     4  10  24  49  76 116 154 219 264 332 397 493
#     4   8  22  46  80 106 156 206 274 310 410 474
#     4  12  25  49  75 116 158 211 259 329 415 476
#     4  10  24  49  77 116 157 217 269 326 402 493
#
# _framework density 27.652723000000002
#
# number of rings (size 3 to 8) (size 9 to 14) (size 15 to 20)
#    1.333    0.000    0.000    4.667    0.000    5.333 
#    4.000    0.000    0.000    0.000    0.000    0.000 
#    0.000    0.000    0.000    0.000    0.000    0.000 
#
# Total GULP energy -100579.469597 kJ/mol
# GULP energy per Si atom -5587.748311 kJ/mol
# Density = 2.758978 g / cm^3
# Si number density = 27.652723 Si / 1000 Ang^3
#
#
#
# Elastic Constant Matrix: (Units=GPa)
#
#
# Indices 1 2 3 4 5 6 
#
# 1 184.4947 19.9320 85.2662 0.0000 72.1374 0.0000
# 2 19.9320 41.6501 42.0106 0.0000 21.0353 0.0000
# 3 85.2662 42.0106 100.1803 0.0000 55.9905 0.0000
# 4 0.0000 0.0000 0.0000 28.6636 0.0000 7.7609
# 5 72.1374 21.0353 55.9905 0.0000 61.0507 0.0000
# 6 0.0000 0.0000 0.0000 7.7609 0.0000 34.1758
#
#
#
# Elastic Compliance Matrix: (Units=1/GPa)
#
#
# Indices 1 2 3 4 5 6 
#
# 1 0.011937 0.006919 -0.007890 0.000000 -0.009252 0.000000
# 2 0.006919 0.045970 -0.024095 0.000000 -0.001916 0.000000
# 3 -0.007890 -0.024095 0.034777 0.000000 -0.014270 0.000000
# 4 0.000000 0.000000 0.000000 0.037173 0.000000 -0.008442
# 5 -0.009252 -0.001916 -0.014270 0.000000 0.041059 0.000000
# 6 0.000000 0.000000 0.000000 -0.008442 0.000000 0.031177
#
#
# Mechanical properties :
#
#
# Convention : Reuss Voigt Hill
#
# Bulk Modulus (GPa) = 23.50137 68.97141 46.23639
# Shear Modulus (GPa) = 18.76796 36.71910 27.74353
#
# Velocity S-wave (km/s) = 2.60802 3.64794 3.17090
# Velocity P-wave (km/s) = 4.19359 6.53754 5.49207
#
# Compressibility (1/GPa) = 0.04255071
#
# Stress axis : x y z
#
# Youngs Moduli (GPa) = 83.77385 21.75319 28.75454
#
# Poissons Ratio (x) = -0.15050 0.22688
# Poissons Ratio (y) = -0.57961 0.69285
# Poissons Ratio (z) = 0.66098 0.52415
#
# Static dielectric constant tensor:
#      x y z
#    x 2.359440 0.000000 -0.039400 
#    y 0.000000 2.289530 0.000000 
#    z -0.039400 0.000000 2.321010 
# 
# From -- ./inp_files/53906.got.cif
#   From: 2010.05.17/outbox.cif.g08.bks.cpg/sg14_27_cif.got.tgz:53906.got - 2010.06.03 17:49:19.
