data_PCOD9250338
_publ_section_title
;
Structure prediction by ZEFSAII (Michael W. Deem and Ramdas Pophale) SiO2 
 PCOD9250338
Probable space group: P 21/C
;
_chemical_formula_sum "Si O2"
_cell_formula_units_Z 24
_cell_length_a 7.804710
_cell_length_b 8.128956
_cell_length_c 19.609246
_cell_angle_alpha 90.000000
_cell_angle_beta 51.682286
_cell_angle_gamma 90.000000
_cell_volume 976.095437
_symmetry_space_group_name_H-M "P 21/C"
_symmetry_group_IT_number 14
_symmetry_cell_setting 'monoclinic'
loop_
_space_group_symop_operation_xyz
x,y,z
-x,1/2+y,1/2-z
-x,-y,-z
x,1/2-y,1/2+z
loop_
_atom_site_type_symbol
_atom_site_label
_atom_site_fract_x
_atom_site_fract_y
_atom_site_fract_z
Si Si1 0.383115 0.539740 0.957020
Si Si2 0.231526 0.253102 0.210240
Si Si3 0.483352 0.254658 0.351738
Si Si4 0.851661 0.149945 0.007776
Si Si5 0.586558 0.082289 0.199278
Si Si6 0.188084 0.945936 0.132205
O O1 0.582332 0.628590 0.866836
O O2 0.329699 0.370888 0.930088
O O3 0.173355 0.660228 0.013606
O O4 0.500000 0.500000 0.000000
O O5 0.339256 0.129682 0.239466
O O6 0.031787 0.349673 0.292528
O O7 0.168101 0.131148 0.164282
O O8 0.625880 0.145303 0.264770
O O9 0.378892 0.392062 0.327951
O O10 0.621795 0.353772 0.372836
O O11 0.726750 0.178390 0.109813
O O12 0.764914 0.064145 0.959660
O O13 0.000000 0.000000 0.000000
#
# Coordination Sequence:
#
# PCOD9250338 Si02
#       6
#     4   4   4   4   4   4
#     4  11  23  44  70  98 141 192 241 293 364 446
#     4  10  24  41  68  98 137 183 237 287 370 434
#     4  11  23  44  74  99 138 186 243 288 374 437
#     4  11  26  42  70 104 146 184 241 308 368 427
#     4  10  24  43  70 100 138 185 233 298 364 442
#     4  11  24  43  72 103 140 187 236 306 360 447
#
# _framework density 24.587758000000001
#
# number of rings (size 3 to 8) (size 9 to 14) (size 15 to 20)
#    0.000    1.333    1.667    3.000    9.333    2.000 
#    0.000    0.833    0.000    0.000    0.000    0.000 
#    0.000    0.000    0.000    0.000    0.000    0.000 
#
# Total GULP energy -133716.231657 kJ/mol
# GULP energy per Si atom -5571.509652 kJ/mol
# Density = 2.453179 g / cm^3
# Si number density = 24.587758 Si / 1000 Ang^3
#
#
#
# Elastic Constant Matrix: (Units=GPa)
#
#
# Indices 1 2 3 4 5 6 
#
# 1 74.1057 34.8476 29.3295 0.0000 27.7476 0.0000
# 2 34.8476 120.8134 13.1101 0.0000 11.4344 0.0000
# 3 29.3295 13.1101 68.9664 0.0000 24.1715 0.0000
# 4 0.0000 0.0000 0.0000 51.9891 0.0000 5.9866
# 5 27.7476 11.4344 24.1715 0.0000 50.2628 0.0000
# 6 0.0000 0.0000 0.0000 5.9866 0.0000 61.0598
#
#
#
# Elastic Compliance Matrix: (Units=1/GPa)
#
#
# Indices 1 2 3 4 5 6 
#
# 1 0.020670 -0.004658 -0.005144 0.000000 -0.007878 0.000000
# 2 -0.004658 0.009582 0.000027 0.000000 0.000379 0.000000
# 3 -0.005144 0.000027 0.018870 0.000000 -0.006241 0.000000
# 4 0.000000 0.000000 0.000000 0.019454 0.000000 -0.001907
# 5 -0.007878 0.000379 -0.006241 0.000000 0.027159 0.000000
# 6 0.000000 0.000000 0.000000 -0.001907 0.000000 0.016564
#
#
# Mechanical properties :
#
#
# Convention : Reuss Voigt Hill
#
# Bulk Modulus (GPa) = 33.81720 46.49553 40.15637
# Shear Modulus (GPa) = 35.28371 45.10221 40.19296
#
# Velocity S-wave (km/s) = 3.79226 4.28756 4.04750
# Velocity P-wave (km/s) = 5.74095 6.59257 6.18145
#
# Compressibility (1/GPa) = 0.02957075
#
# Stress axis : x y z
#
# Youngs Moduli (GPa) = 48.37847 104.36090 52.99525
#
# Poissons Ratio (x) = 0.48616 0.27261
# Poissons Ratio (y) = 0.22537 -0.00142
# Poissons Ratio (z) = 0.24886 -0.00279
#
# Static dielectric constant tensor:
#      x y z
#    x 2.143610 0.000000 -0.152500 
#    y 0.000000 2.036420 0.000000 
#    z -0.152500 0.000000 2.054030 
# 
# From -- ./inp_files/64730.got.cif
#   From: 2010.05.17/outbox.cif.g08.bks.cpg/sg14_33_cif.got.tgz:64730.got - 2010.06.03 17:49:19.
