data_PCOD9250827
_publ_section_title
;
Structure prediction by ZEFSAII (Michael W. Deem and Ramdas Pophale) SiO2 
 PCOD9250827
Probable space group: P 21/C
;
_chemical_formula_sum "Si O2"
_cell_formula_units_Z 28
_cell_length_a 9.158987
_cell_length_b 7.862660
_cell_length_c 20.825871
_cell_angle_alpha 90.000000
_cell_angle_beta 44.586662
_cell_angle_gamma 90.000000
_cell_volume 1052.808434
_symmetry_space_group_name_H-M "P 21/C"
_symmetry_group_IT_number 14
_symmetry_cell_setting 'monoclinic'
loop_
_space_group_symop_operation_xyz
x,y,z
-x,1/2+y,1/2-z
-x,-y,-z
x,1/2-y,1/2+z
loop_
_atom_site_type_symbol
_atom_site_label
_atom_site_fract_x
_atom_site_fract_y
_atom_site_fract_z
Si Si1 0.602962 0.233574 0.620616
Si Si2 0.500000 0.500000 0.500000
Si Si3 0.990679 0.026814 0.850503
Si Si4 0.000000 0.500000 0.000000
Si Si5 0.036345 0.356030 0.100576
Si Si6 0.707185 0.586752 0.858118
Si Si7 0.419712 0.224628 0.413287
Si Si8 0.639682 0.581778 0.687905
O O1 0.818692 0.147568 0.535657
O O2 0.626201 0.407044 0.652152
O O3 0.446826 0.248084 0.607017
O O4 0.472500 0.110031 0.709110
O O5 0.440055 0.373140 0.458043
O O6 0.748780 0.442864 0.419487
O O7 0.100477 0.086609 0.750669
O O8 0.118266 0.104598 0.869648
O O9 0.032757 0.823170 0.849301
O O10 0.107282 0.509308 0.888098
O O11 0.198711 0.420960 0.101173
O O12 0.172567 0.330647 0.990850
O O13 0.564062 0.425577 0.891064
O O14 0.461685 0.285720 0.329202
#
# Coordination Sequence:
#
# PCOD9250827 Si02
#       8
#     4   2   4   2   4   4   4   4
#     4  11  25  45  74 111 142 204 244 309 381 439
#     4  10  26  42  66 106 138 186 242 294 376 424
#     4  10  24  47  69 106 140 193 247 309 366 446
#     4  12  24  44  74 106 152 194 246 304 376 438
#     4  11  25  46  69 107 146 188 248 304 372 449
#     4  11  25  47  75 102 151 194 246 308 377 451
#     4  11  25  45  71 104 145 188 243 313 361 450
#     4  11  24  47  76 105 152 190 258 305 377 455
#
# _framework density 26.595533
#
# number of rings (size 3 to 8) (size 9 to 14) (size 15 to 20)
#    0.000    1.143    2.857    2.143    6.000    2.286 
#    2.571    0.000    0.000    0.000    0.000    0.000 
#    0.000    0.000    0.000    0.000    0.000    0.000 
#
# Total GULP energy -155990.314904 kJ/mol
# GULP energy per Si atom -5571.082675 kJ/mol
# Density = 2.653500 g / cm^3
# Si number density = 26.595533 Si / 1000 Ang^3
#
#
#
# Elastic Constant Matrix: (Units=GPa)
#
#
# Indices 1 2 3 4 5 6 
#
# 1 212.3928 16.6625 41.8819 0.0000 -4.2260 0.0000
# 2 16.6625 78.1670 7.5596 0.0000 -4.3194 0.0000
# 3 41.8819 7.5596 82.4175 0.0000 -12.0085 0.0000
# 4 0.0000 0.0000 0.0000 24.8688 0.0000 -1.1787
# 5 -4.2260 -4.3194 -12.0085 0.0000 59.9831 0.0000
# 6 0.0000 0.0000 0.0000 -1.1787 0.0000 36.2022
#
#
#
# Elastic Compliance Matrix: (Units=1/GPa)
#
#
# Indices 1 2 3 4 5 6 
#
# 1 0.005294 -0.000885 -0.002641 0.000000 -0.000219 0.000000
# 2 -0.000885 0.013085 -0.000641 0.000000 0.000752 0.000000
# 3 -0.002641 -0.000641 0.013906 0.000000 0.002552 0.000000
# 4 0.000000 0.000000 0.000000 0.040273 0.000000 0.001311
# 5 -0.000219 0.000752 0.002552 0.000000 0.017221 0.000000
# 6 0.000000 0.000000 0.000000 0.001311 0.000000 0.027665
#
#
# Mechanical properties :
#
#
# Convention : Reuss Voigt Hill
#
# Bulk Modulus (GPa) = 41.75172 56.13170 48.94171
# Shear Modulus (GPa) = 37.37954 44.66903 41.02429
#
# Velocity S-wave (km/s) = 3.75304 4.10270 3.93176
# Velocity P-wave (km/s) = 5.87480 6.60260 6.24931
#
# Compressibility (1/GPa) = 0.02395111
#
# Stress axis : x y z
#
# Youngs Moduli (GPa) = 188.88830 76.42144 71.91125
#
# Poissons Ratio (x) = 0.06765 0.18992
# Poissons Ratio (y) = 0.16721 0.04609
# Poissons Ratio (z) = 0.49887 0.04898
#
# Static dielectric constant tensor:
#      x y z
#    x 2.329890 0.000000 -0.005010 
#    y 0.000000 2.237400 0.000000 
#    z -0.005010 0.000000 2.059450 
# 
# From -- ./inp_files/65000.got.cif
#   From: 2010.05.17/outbox.cif.g08.bks.cpg/sg14_33_cif.got.tgz:65000.got - 2010.06.03 17:49:19.
