data_PCOD9250132
_publ_section_title
;
Structure prediction by ZEFSAII (Michael W. Deem and Ramdas Pophale) SiO2 
 PCOD9250132
Probable space group: P 21/C
;
_chemical_formula_sum "Si O2"
_cell_formula_units_Z 28
_cell_length_a 5.008580
_cell_length_b 10.976076
_cell_length_c 20.540479
_cell_angle_alpha 90.000000
_cell_angle_beta 104.757808
_cell_angle_gamma 90.000000
_cell_volume 1091.952651
_symmetry_space_group_name_H-M "P 21/C"
_symmetry_group_IT_number 14
_symmetry_cell_setting 'monoclinic'
loop_
_space_group_symop_operation_xyz
x,y,z
-x,1/2+y,1/2-z
-x,-y,-z
x,1/2-y,1/2+z
loop_
_atom_site_type_symbol
_atom_site_label
_atom_site_fract_x
_atom_site_fract_y
_atom_site_fract_z
Si Si1 0.537802 0.270714 0.495294
Si Si2 0.584523 0.101657 0.801816
Si Si3 0.055666 0.260884 0.777863
Si Si4 0.763190 0.926668 0.450863
Si Si5 0.968073 0.101380 0.942728
Si Si6 0.085714 0.736059 0.871861
Si Si7 0.641884 0.990479 0.669451
O O1 0.163681 0.124413 0.323726
O O2 0.276095 0.346860 0.454023
O O3 0.685347 0.310652 0.573142
O O4 0.777755 0.289019 0.458189
O O5 0.280964 0.152275 0.799346
O O6 0.560511 0.012112 0.739145
O O7 0.762361 0.216145 0.785638
O O8 0.783497 0.052999 0.871356
O O9 0.036455 0.296022 0.700197
O O10 0.620468 0.017999 0.392145
O O11 0.871902 0.814686 0.412089
O O12 0.566321 0.863154 0.491842
O O13 0.000000 0.000000 0.500000
O O14 0.000000 0.000000 0.000000
O O15 0.215307 0.612835 0.849037
#
# Coordination Sequence:
#
# PCOD9250132 Si02
#       7
#     4   4   4   4   4   4   4
#     4  11  25  46  70 101 144 182 235 292 353 422
#     4  11  26  46  68 104 142 174 247 290 340 443
#     4  11  25  44  75  98 140 187 229 300 357 407
#     4  11  24  43  74 105 147 184 240 292 359 432
#     4  12  27  47  71 106 141 191 237 291 362 423
#     4  10  23  47  67 106 140 183 243 291 353 431
#     4  10  25  44  71 105 136 190 235 291 363 418
#
# _framework density 25.642136000000001
#
# number of rings (size 3 to 8) (size 9 to 14) (size 15 to 20)
#    0.000    1.143    2.857    1.286    6.000    4.571 
#    2.571    0.000    0.000    0.000    0.000    0.000 
#    0.000    0.000    0.000    0.000    0.000    0.000 
#
# Total GULP energy -156847.160057 kJ/mol
# GULP energy per Si atom -5601.684288 kJ/mol
# Density = 2.558377 g / cm^3
# Si number density = 25.642136 Si / 1000 Ang^3
#
#
#
# Elastic Constant Matrix: (Units=GPa)
#
#
# Indices 1 2 3 4 5 6 
#
# 1 88.1104 1.9079 28.8922 0.0000 9.3973 0.0000
# 2 1.9079 43.7584 16.7902 0.0000 2.4742 0.0000
# 3 28.8922 16.7902 187.2670 0.0000 25.3055 0.0000
# 4 0.0000 0.0000 0.0000 37.6177 0.0000 4.9833
# 5 9.3973 2.4742 25.3055 0.0000 43.7222 0.0000
# 6 0.0000 0.0000 0.0000 4.9833 0.0000 27.1004
#
#
#
# Elastic Compliance Matrix: (Units=1/GPa)
#
#
# Indices 1 2 3 4 5 6 
#
# 1 0.012064 0.000203 -0.001657 0.000000 -0.001645 0.000000
# 2 0.000203 0.023671 -0.002134 0.000000 -0.000148 0.000000
# 3 -0.001657 -0.002134 0.006208 0.000000 -0.003116 0.000000
# 4 0.000000 0.000000 0.000000 0.027247 0.000000 -0.005010
# 5 -0.001645 -0.000148 -0.003116 0.000000 0.025037 0.000000
# 6 0.000000 0.000000 0.000000 -0.005010 0.000000 0.037821
#
#
# Mechanical properties :
#
#
# Convention : Reuss Voigt Hill
#
# Bulk Modulus (GPa) = 28.76276 46.03515 37.39895
# Shear Modulus (GPa) = 33.15366 39.79110 36.47238
#
# Velocity S-wave (km/s) = 3.59964 3.94354 3.77551
# Velocity P-wave (km/s) = 5.34022 6.22313 5.79850
#
# Compressibility (1/GPa) = 0.03476718
#
# Stress axis : x y z
#
# Youngs Moduli (GPa) = 82.89223 42.24584 161.08195
#
# Poissons Ratio (x) = -0.00857 0.26693
# Poissons Ratio (y) = -0.01682 0.34368
# Poissons Ratio (z) = 0.13736 0.09014
#
# Static dielectric constant tensor:
#      x y z
#    x 2.010860 0.000000 -0.001020 
#    y 0.000000 2.002100 0.000000 
#    z -0.001020 0.000000 2.069180 
# 
# From -- ./inp_files/53516.got.cif
#   From: 2010.05.17/outbox.cif.g08.bks.cpg/sg14_27_cif.got.tgz:53516.got - 2010.06.03 17:49:19.
