data_PCOD9250352
_publ_section_title
;
Structure prediction by ZEFSAII (Michael W. Deem and Ramdas Pophale) SiO2 
 PCOD9250352
Probable space group: P 21/C
;
_chemical_formula_sum "Si O2"
_cell_formula_units_Z 20
_cell_length_a 24.065861
_cell_length_b 5.165432
_cell_length_c 9.237518
_cell_angle_alpha 90.000000
_cell_angle_beta 132.551473
_cell_angle_gamma 90.000000
_cell_volume 845.933838
_symmetry_space_group_name_H-M "P 21/C"
_symmetry_group_IT_number 14
_symmetry_cell_setting 'monoclinic'
loop_
_space_group_symop_operation_xyz
x,y,z
-x,1/2+y,1/2-z
-x,-y,-z
x,1/2-y,1/2+z
loop_
_atom_site_type_symbol
_atom_site_label
_atom_site_fract_x
_atom_site_fract_y
_atom_site_fract_z
Si Si1 0.301538 0.949723 0.897916
Si Si2 0.222080 0.795900 0.010079
Si Si3 0.178719 0.286252 0.774695
Si Si4 0.025279 0.059400 0.879248
Si Si5 0.528540 0.515230 0.385368
O O1 0.300531 0.849069 0.060601
O O2 0.245116 0.758753 0.713331
O O3 0.256131 0.219148 0.826730
O O4 0.381593 0.976627 0.967510
O O5 0.186993 0.531573 0.891136
O O6 0.171514 0.031493 0.863705
O O7 0.109251 0.329402 0.547590
O O8 0.979919 0.291393 0.719821
O O9 0.000000 0.000000 0.000000
O O10 0.491522 0.287960 0.224228
O O11 0.500000 0.500000 0.500000
#
# Coordination Sequence:
#
# PCOD9250352 Si02
#       5
#     4   4   4   4   4
#     4  10  26  44  75  98 149 181 252 290 371 426
#     4  10  24  41  72 102 137 184 248 293 358 423
#     4  10  26  43  74 103 143 186 247 289 368 432
#     4  12  28  51  79 110 155 196 246 307 376 442
#     4  12  28  47  74 108 150 196 248 306 378 439
#
# _framework density 23.642510999999999
#
# number of rings (size 3 to 8) (size 9 to 14) (size 15 to 20)
#    1.200    0.000    0.000    3.600   11.200    0.000 
#    0.000    0.000    0.000    0.000    0.000    0.000 
#    0.000    0.000    0.000    0.000    0.000    0.000 
#
# Total GULP energy -111831.431717 kJ/mol
# GULP energy per Si atom -5591.571586 kJ/mol
# Density = 2.358870 g / cm^3
# Si number density = 23.642511 Si / 1000 Ang^3
#
#
#
# Elastic Constant Matrix: (Units=GPa)
#
#
# Indices 1 2 3 4 5 6 
#
# 1 75.8211 11.6443 37.7084 0.0000 -26.6970 0.0000
# 2 11.6443 165.7965 33.0761 0.0000 -12.1517 0.0000
# 3 37.7084 33.0761 84.1569 0.0000 -7.6356 0.0000
# 4 0.0000 0.0000 0.0000 51.6921 0.0000 2.1884
# 5 -26.6970 -12.1517 -7.6356 0.0000 42.9515 0.0000
# 6 0.0000 0.0000 0.0000 2.1884 0.0000 19.6511
#
#
#
# Elastic Compliance Matrix: (Units=1/GPa)
#
#
# Indices 1 2 3 4 5 6 
#
# 1 0.021902 0.001193 -0.009165 0.000000 0.012322 0.000000
# 2 0.001193 0.006696 -0.002975 0.000000 0.002107 0.000000
# 3 -0.009165 -0.002975 0.016837 0.000000 -0.003545 0.000000
# 4 0.000000 0.000000 0.000000 0.019437 0.000000 -0.002165
# 5 0.012322 0.002107 -0.003545 0.000000 0.030907 0.000000
# 6 0.000000 0.000000 0.000000 -0.002165 0.000000 0.051129
#
#
# Mechanical properties :
#
#
# Convention : Reuss Voigt Hill
#
# Bulk Modulus (GPa) = 42.47851 54.51470 48.49660
# Shear Modulus (GPa) = 28.30497 39.08200 33.69349
#
# Velocity S-wave (km/s) = 3.46382 4.07017 3.77918
# Velocity P-wave (km/s) = 5.83124 6.72282 6.29284
#
# Compressibility (1/GPa) = 0.02354132
#
# Stress axis : x y z
#
# Youngs Moduli (GPa) = 45.65742 149.35094 59.39412
#
# Poissons Ratio (x) = -0.17821 0.54433
# Poissons Ratio (y) = -0.05448 0.17670
# Poissons Ratio (z) = 0.41844 0.44433
#
# Static dielectric constant tensor:
#      x y z
#    x 1.983180 0.000000 -0.013720 
#    y 0.000000 1.916790 0.000000 
#    z -0.013720 0.000000 1.877590 
# 
# From -- ./inp_files/19287.got.cif
#   From: 2010.05.17/outbox.cif.g08.bks.cpg/sg14_10_cif.got.tgz:19287.got - 2010.06.03 17:49:19.
