data_PCOD9250458
_publ_section_title
;
Structure prediction by ZEFSAII (Michael W. Deem and Ramdas Pophale) SiO2 
 PCOD9250458
Probable space group: P 21/C
;
_chemical_formula_sum "Si O2"
_cell_formula_units_Z 26
_cell_length_a 12.298085
_cell_length_b 4.979413
_cell_length_c 17.884320
_cell_angle_alpha 90.000000
_cell_angle_beta 88.641762
_cell_angle_gamma 90.000000
_cell_volume 1094.878762
_symmetry_space_group_name_H-M "P 21/C"
_symmetry_group_IT_number 14
_symmetry_cell_setting 'monoclinic'
loop_
_space_group_symop_operation_xyz
x,y,z
-x,1/2+y,1/2-z
-x,-y,-z
x,1/2-y,1/2+z
loop_
_atom_site_type_symbol
_atom_site_label
_atom_site_fract_x
_atom_site_fract_y
_atom_site_fract_z
Si Si1 0.352486 0.965556 0.830597
Si Si2 0.500000 0.000000 0.500000
Si Si3 0.951770 0.720602 0.784442
Si Si4 0.423868 0.535046 0.604871
Si Si5 0.304157 0.275124 0.978148
Si Si6 0.282156 0.456746 0.742612
Si Si7 0.941644 0.747921 0.962405
O O1 0.476644 0.914639 0.850820
O O2 0.351684 0.202474 0.769070
O O3 0.295987 0.704243 0.798324
O O4 0.295875 0.101191 0.903782
O O5 0.536466 0.182206 0.426661
O O6 0.370735 0.951996 0.464833
O O7 0.960258 0.743688 0.873364
O O8 0.961598 0.414862 0.757305
O O9 0.838368 0.844229 0.760130
O O10 0.398314 0.339214 0.534742
O O11 0.321340 0.550617 0.660266
O O12 0.187692 0.275142 0.018727
O O13 0.000000 0.500000 0.000000
O O14 0.000000 0.000000 0.000000
#
# Coordination Sequence:
#
# PCOD9250458 Si02
#       7
#     4   2   4   4   4   4   4
#     4  11  27  43  76 111 150 199 251 312 377 477
#     4  10  24  42  80 104 150 198 248 316 380 464
#     4  12  28  52  78 112 153 203 265 328 403 462
#     4  11  25  47  73 111 152 204 254 309 391 460
#     4  11  27  48  77 110 156 202 260 317 395 456
#     4  12  27  48  74 108 156 200 245 320 387 467
#     4  12  30  52  82 114 153 208 270 335 385 477
#
# _framework density 23.746925000000001
#
# number of rings (size 3 to 8) (size 9 to 14) (size 15 to 20)
#    0.000    0.615    1.538    4.615   19.385    1.231 
#    0.000    0.000    0.000    0.000    0.000    0.000 
#    0.000    0.000    0.000    0.000    0.000    0.000 
#
# Total GULP energy -145259.647304 kJ/mol
# GULP energy per Si atom -5586.909512 kJ/mol
# Density = 2.369288 g / cm^3
# Si number density = 23.746925 Si / 1000 Ang^3
#
#
#
# Elastic Constant Matrix: (Units=GPa)
#
#
# Indices 1 2 3 4 5 6 
#
# 1 107.9425 9.7260 20.3726 0.0000 -0.5559 0.0000
# 2 9.7260 101.2213 18.4356 0.0000 21.2643 0.0000
# 3 20.3726 18.4356 82.8229 0.0000 6.8905 0.0000
# 4 0.0000 0.0000 0.0000 45.2063 0.0000 17.4940
# 5 -0.5559 21.2643 6.8905 0.0000 36.3314 0.0000
# 6 0.0000 0.0000 0.0000 17.4940 0.0000 31.6931
#
#
#
# Elastic Compliance Matrix: (Units=1/GPa)
#
#
# Indices 1 2 3 4 5 6 
#
# 1 0.009774 -0.000729 -0.002327 0.000000 0.001018 0.000000
# 2 -0.000729 0.011651 -0.001875 0.000000 -0.006475 0.000000
# 3 -0.002327 -0.001875 0.013183 0.000000 -0.001438 0.000000
# 4 0.000000 0.000000 0.000000 0.028129 0.000000 -0.015527
# 5 0.001018 -0.006475 -0.001438 0.000000 0.031602 0.000000
# 6 0.000000 0.000000 0.000000 -0.015527 0.000000 0.040123
#
#
# Mechanical properties :
#
#
# Convention : Reuss Voigt Hill
#
# Bulk Modulus (GPa) = 40.40993 43.22833 41.81913
# Shear Modulus (GPa) = 32.77080 38.87633 35.82356
#
# Velocity S-wave (km/s) = 3.71887 4.05051 3.88823
# Velocity P-wave (km/s) = 5.95767 6.33394 6.14868
#
# Compressibility (1/GPa) = 0.02474640
#
# Stress axis : x y z
#
# Youngs Moduli (GPa) = 102.30964 85.82816 75.85323
#
# Poissons Ratio (x) = 0.06259 0.17648
# Poissons Ratio (y) = 0.07460 0.14226
# Poissons Ratio (z) = 0.23803 0.16096
#
# Static dielectric constant tensor:
#      x y z
#    x 1.864060 0.000000 0.056040 
#    y 0.000000 1.408840 0.000000 
#    z 0.056040 0.000000 1.853050 
# 
# From -- ./inp_files/56610.got.cif
#   From: 2010.05.17/outbox.cif.g08.bks.cpg/sg14_29_cif.got.tgz:56610.got - 2010.06.03 17:49:19.
