data_PCOD9250392
_publ_section_title
;
Structure prediction by ZEFSAII (Michael W. Deem and Ramdas Pophale) SiO2 
 PCOD9250392
Probable space group: P 21/C
;
_chemical_formula_sum "Si O2"
_cell_formula_units_Z 28
_cell_length_a 13.394366
_cell_length_b 8.611253
_cell_length_c 11.879131
_cell_angle_alpha 90.000000
_cell_angle_beta 63.585727
_cell_angle_gamma 90.000000
_cell_volume 1227.121986
_symmetry_space_group_name_H-M "P 21/C"
_symmetry_group_IT_number 14
_symmetry_cell_setting 'monoclinic'
loop_
_space_group_symop_operation_xyz
x,y,z
-x,1/2+y,1/2-z
-x,-y,-z
x,1/2-y,1/2+z
loop_
_atom_site_type_symbol
_atom_site_label
_atom_site_fract_x
_atom_site_fract_y
_atom_site_fract_z
Si Si1 0.022763 0.156252 0.736313
Si Si2 0.458824 0.902264 0.128548
Si Si3 0.082588 0.439224 0.556822
Si Si4 0.674108 0.519818 0.653267
Si Si5 0.705312 0.158054 0.609873
Si Si6 0.947510 0.392007 0.933397
Si Si7 0.380769 0.570040 0.081789
O O1 0.030913 0.280920 0.632432
O O2 0.086087 0.006122 0.654842
O O3 0.036905 0.270154 0.837316
O O4 0.915062 0.065322 0.840987
O O5 0.356230 0.945227 0.263947
O O6 0.408931 0.743663 0.106185
O O7 0.567938 0.892578 0.153870
O O8 0.500000 0.000000 0.000000
O O9 0.208449 0.421437 0.452439
O O10 0.000000 0.500000 0.500000
O O11 0.659443 0.335289 0.632123
O O12 0.676016 0.521757 0.787668
O O13 0.681458 0.078168 0.503738
O O14 0.838154 0.177107 0.546988
O O15 0.000000 0.500000 0.000000
O O16 0.500000 0.500000 0.000000
#
# Coordination Sequence:
#
# PCOD9250392 Si02
#       7
#     4   4   4   4   4   4   4
#     4  10  24  42  66  97 138 180 232 283 344 413
#     4  11  24  45  70 102 136 178 237 287 350 422
#     4  11  24  44  68 100 137 178 231 282 347 418
#     4  11  24  43  72 100 137 190 229 285 356 420
#     4  11  24  44  72 103 137 189 228 287 359 411
#     4  11  24  44  71 103 142 183 237 289 349 423
#     4  11  24  44  71  98 141 176 231 292 344 416
#
# _framework density 22.817619000000001
#
# number of rings (size 3 to 8) (size 9 to 14) (size 15 to 20)
#    0.000    1.143    4.286    0.857    4.000    4.571 
#    2.571    0.000    0.000    0.000    0.000    0.000 
#    0.000    0.000    0.000    0.000    0.000    0.000 
#
# Total GULP energy -155950.378211 kJ/mol
# GULP energy per Si atom -5569.656365 kJ/mol
# Density = 2.276569 g / cm^3
# Si number density = 22.817619 Si / 1000 Ang^3
#
#
#
# Elastic Constant Matrix: (Units=GPa)
#
#
# Indices 1 2 3 4 5 6 
#
# 1 38.9673 -18.1672 38.3103 0.0000 -15.1879 0.0000
# 2 -18.1672 40.9866 35.3476 0.0000 -4.8430 0.0000
# 3 38.3103 35.3476 184.0746 0.0000 -12.1145 0.0000
# 4 0.0000 0.0000 0.0000 48.1703 0.0000 -1.1475
# 5 -15.1879 -4.8430 -12.1145 0.0000 30.3618 0.0000
# 6 0.0000 0.0000 0.0000 -1.1475 0.0000 19.3553
#
#
#
# Elastic Compliance Matrix: (Units=1/GPa)
#
#
# Indices 1 2 3 4 5 6 
#
# 1 0.210797 0.165005 -0.068689 0.000000 0.104360 0.000000
# 2 0.165005 0.158586 -0.059254 0.000000 0.084194 0.000000
# 3 -0.068689 -0.059254 0.028985 0.000000 -0.032247 0.000000
# 4 0.000000 0.000000 0.000000 0.020789 0.000000 0.001233
# 5 0.104360 0.084194 -0.032247 0.000000 0.085703 0.000000
# 6 0.000000 0.000000 0.000000 0.001233 0.000000 0.051738
#
#
# Mechanical properties :
#
#
# Convention : Reuss Voigt Hill
#
# Bulk Modulus (GPa) = 2.11643 41.66776 21.89209
# Shear Modulus (GPa) = 7.81285 33.48002 20.64644
#
# Velocity S-wave (km/s) = 1.85242 3.83468 3.01133
# Velocity P-wave (km/s) = 2.34624 6.15688 4.65897
#
# Compressibility (1/GPa) = 0.47249306
#
# Stress axis : x y z
#
# Youngs Moduli (GPa) = 4.74389 6.30573 34.50112
#
# Poissons Ratio (x) = -1.04048 2.36986
# Poissons Ratio (y) = -0.78277 2.04431
# Poissons Ratio (z) = 0.32586 0.37364
#
# Static dielectric constant tensor:
#      x y z
#    x 1.802570 0.000000 0.050600 
#    y 0.000000 1.886210 0.000000 
#    z 0.050600 0.000000 1.913750 
# 
# From -- ./inp_files/31660.got.cif
#   From: 2010.05.17/outbox.cif.g08.bks.cpg/sg14_16_cif.got.tgz:31660.got - 2010.06.03 17:49:19.
