data_PCOD9250698
_publ_section_title
;
Structure prediction by ZEFSAII (Michael W. Deem and Ramdas Pophale) SiO2 
 PCOD9250698
Probable space group: P 21/C
;
_chemical_formula_sum "Si O2"
_cell_formula_units_Z 32
_cell_length_a 10.736203
_cell_length_b 12.410533
_cell_length_c 11.556335
_cell_angle_alpha 90.000000
_cell_angle_beta 111.054622
_cell_angle_gamma 90.000000
_cell_volume 1436.990351
_symmetry_space_group_name_H-M "P 21/C"
_symmetry_group_IT_number 14
_symmetry_cell_setting 'monoclinic'
loop_
_space_group_symop_operation_xyz
x,y,z
-x,1/2+y,1/2-z
-x,-y,-z
x,1/2-y,1/2+z
loop_
_atom_site_type_symbol
_atom_site_label
_atom_site_fract_x
_atom_site_fract_y
_atom_site_fract_z
Si Si1 0.131682 0.863315 0.837140
Si Si2 0.854493 0.549210 0.486964
Si Si3 0.450298 0.418099 0.385390
Si Si4 0.831316 0.928705 0.729747
Si Si5 0.306133 0.908753 0.692548
Si Si6 0.256707 0.633327 0.913185
Si Si7 0.470985 0.698735 0.798961
Si Si8 0.283343 0.248251 0.475151
O O1 0.173016 0.875949 0.717222
O O2 0.190161 0.750624 0.899780
O O3 0.973481 0.871425 0.793242
O O4 0.190695 0.962791 0.932061
O O5 0.773620 0.555818 0.339576
O O6 0.838377 0.670797 0.530868
O O7 0.000000 0.500000 0.500000
O O8 0.500000 0.500000 0.500000
O O9 0.354382 0.482038 0.266399
O O10 0.551958 0.363409 0.329093
O O11 0.378154 0.322632 0.428541
O O12 0.753817 0.854064 0.614445
O O13 0.841622 0.047917 0.680227
O O14 0.291307 0.909671 0.551153
O O15 0.412992 0.817831 0.762341
O O16 0.386732 0.644739 0.874694
O O17 0.625357 0.710889 0.886984
#
# Coordination Sequence:
#
# PCOD9250698 Si02
#       8
#     4   4   4   4   4   4   4   4
#     4  10  25  45  72 101 143 192 243 295 364 430
#     4  10  24  45  71 103 145 187 241 296 362 424
#     4  12  25  42  70 103 142 190 237 293 359 439
#     4  11  27  44  73 107 142 192 239 309 358 434
#     4  11  24  44  68 103 141 189 235 299 361 432
#     4  11  27  44  72 106 144 194 243 300 370 428
#     4  11  26  44  70 103 151 185 242 300 365 436
#     4  12  24  45  73 109 144 191 244 297 371 428
#
# _framework density 22.268765999999999
#
# number of rings (size 3 to 8) (size 9 to 14) (size 15 to 20)
#    0.000    1.000    2.500    2.250   10.500    4.500 
#    0.000    0.000    0.000    0.000    0.000    0.000 
#    0.000    0.000    0.000    0.000    0.000    0.000 
#
# Total GULP energy -178837.383096 kJ/mol
# GULP energy per Si atom -5588.668222 kJ/mol
# Density = 2.221808 g / cm^3
# Si number density = 22.268766 Si / 1000 Ang^3
#
#
#
# Elastic Constant Matrix: (Units=GPa)
#
#
# Indices 1 2 3 4 5 6 
#
# 1 62.2185 21.3499 17.5293 0.0000 -9.0143 0.0000
# 2 21.3499 104.0541 37.5809 0.0000 -11.8305 0.0000
# 3 17.5293 37.5809 113.5829 0.0000 -27.2122 0.0000
# 4 0.0000 0.0000 0.0000 42.9471 0.0000 -7.3290
# 5 -9.0143 -11.8305 -27.2122 0.0000 28.4556 0.0000
# 6 0.0000 0.0000 0.0000 -7.3290 0.0000 28.6506
#
#
#
# Elastic Compliance Matrix: (Units=1/GPa)
#
#
# Indices 1 2 3 4 5 6 
#
# 1 0.017853 -0.002921 -0.000940 0.000000 0.003542 0.000000
# 2 -0.002921 0.011436 -0.003134 0.000000 0.000833 0.000000
# 3 -0.000940 -0.003134 0.012456 0.000000 0.010312 0.000000
# 4 0.000000 0.000000 0.000000 0.024347 0.000000 0.006228
# 5 0.003542 0.000833 0.010312 0.000000 0.046472 0.000000
# 6 0.000000 0.000000 0.000000 0.006228 0.000000 0.036496
#
#
# Mechanical properties :
#
#
# Convention : Reuss Voigt Hill
#
# Bulk Modulus (GPa) = 36.02801 48.08619 42.05710
# Shear Modulus (GPa) = 29.01881 33.57036 31.29458
#
# Velocity S-wave (km/s) = 3.61379 3.88688 3.75282
# Velocity P-wave (km/s) = 5.79883 6.46407 6.14047
#
# Compressibility (1/GPa) = 0.02775618
#
# Stress axis : x y z
#
# Youngs Moduli (GPa) = 56.01388 87.44256 80.27939
#
# Poissons Ratio (x) = 0.25540 0.07548
# Poissons Ratio (y) = 0.16360 0.25156
# Poissons Ratio (z) = 0.05267 0.27401
#
# Static dielectric constant tensor:
#      x y z
#    x 1.875770 0.000000 -0.022510 
#    y 0.000000 1.809230 0.000000 
#    z -0.022510 0.000000 1.843360 
# 
# From -- ./inp_files/29383.got.cif
#   From: 2010.05.17/outbox.cif.g08.bks.cpg/sg14_15_cif.got.tgz:29383.got - 2010.06.03 17:49:19.
