data_PCOD9250219
_publ_section_title
;
Structure prediction by ZEFSAII (Michael W. Deem and Ramdas Pophale) SiO2 
 PCOD9250219
Probable space group: P 21/C
;
_chemical_formula_sum "Si O2"
_cell_formula_units_Z 28
_cell_length_a 4.973267
_cell_length_b 13.144038
_cell_length_c 16.322976
_cell_angle_alpha 90.000000
_cell_angle_beta 78.640019
_cell_angle_gamma 90.000000
_cell_volume 1046.109653
_symmetry_space_group_name_H-M "P 21/C"
_symmetry_group_IT_number 14
_symmetry_cell_setting 'monoclinic'
loop_
_space_group_symop_operation_xyz
x,y,z
-x,1/2+y,1/2-z
-x,-y,-z
x,1/2-y,1/2+z
loop_
_atom_site_type_symbol
_atom_site_label
_atom_site_fract_x
_atom_site_fract_y
_atom_site_fract_z
Si Si1 0.712090 0.029071 0.694390
Si Si2 0.838139 0.474659 0.423865
Si Si3 0.545403 0.166623 0.056853
Si Si4 0.236160 0.142244 0.788865
Si Si5 0.486970 0.079606 0.430744
Si Si6 0.025071 0.289857 0.120939
Si Si7 0.966816 0.839767 0.627707
O O1 0.547479 0.102920 0.764670
O O2 0.462913 0.983638 0.656168
O O3 0.882536 0.100363 0.622290
O O4 0.879997 0.925317 0.700572
O O5 0.634561 0.565425 0.407719
O O6 0.669719 0.376211 0.464764
O O7 0.000000 0.500000 0.500000
O O8 0.048508 0.445433 0.339709
O O9 0.788071 0.209379 0.103063
O O10 0.311835 0.252803 0.065616
O O11 0.192559 0.237017 0.849859
O O12 0.119487 0.191749 0.711188
O O13 0.500000 0.000000 0.500000
O O14 0.177181 0.114538 0.442993
O O15 0.717133 0.163929 0.410699
#
# Coordination Sequence:
#
# PCOD9250219 Si02
#       7
#     4   4   4   4   4   4   4
#     4  10  26  47  76 114 155 206 265 327 406 472
#     4  11  27  55  83 122 169 218 273 354 419 510
#     4  11  26  52  79 118 159 217 272 335 420 485
#     4  12  28  51  79 123 164 217 278 339 417 494
#     4  10  23  50  73 104 152 200 258 323 399 462
#     4  12  25  49  77 116 156 212 273 326 404 494
#     4  10  26  47  71 113 148 207 259 328 390 480
#
# _framework density 26.765836
#
# number of rings (size 3 to 8) (size 9 to 14) (size 15 to 20)
#    0.857    0.286    2.857    1.286    2.000    8.000 
#    7.714    0.000    0.000    0.000    0.000    0.000 
#    0.000    0.000    0.000    0.000    0.000    0.000 
#
# Total GULP energy -156201.941360 kJ/mol
# GULP energy per Si atom -5578.640763 kJ/mol
# Density = 2.670492 g / cm^3
# Si number density = 26.765836 Si / 1000 Ang^3
#
#
#
# Elastic Constant Matrix: (Units=GPa)
#
#
# Indices 1 2 3 4 5 6 
#
# 1 133.2524 14.8304 15.7090 0.0000 -15.0042 0.0000
# 2 14.8304 99.9285 2.3565 0.0000 -10.5817 0.0000
# 3 15.7090 2.3565 66.7468 0.0000 -16.2765 0.0000
# 4 0.0000 0.0000 0.0000 32.4264 0.0000 -12.3002
# 5 -15.0042 -10.5817 -16.2765 0.0000 55.3701 0.0000
# 6 0.0000 0.0000 0.0000 -12.3002 0.0000 49.7218
#
#
#
# Elastic Compliance Matrix: (Units=1/GPa)
#
#
# Indices 1 2 3 4 5 6 
#
# 1 0.007960 -0.000984 -0.001463 0.000000 0.001539 0.000000
# 2 -0.000984 0.010336 0.000305 0.000000 0.001798 0.000000
# 3 -0.001463 0.000305 0.016409 0.000000 0.004485 0.000000
# 4 0.000000 0.000000 0.000000 0.034033 0.000000 0.008419
# 5 0.001539 0.001798 0.004485 0.000000 0.020140 0.000000
# 6 0.000000 0.000000 0.000000 0.008419 0.000000 0.022195
#
#
# Mechanical properties :
#
#
# Convention : Reuss Voigt Hill
#
# Bulk Modulus (GPa) = 32.87143 40.63549 36.75346
# Shear Modulus (GPa) = 39.84157 45.30577 42.57367
#
# Velocity S-wave (km/s) = 3.86232 4.11867 3.99256
# Velocity P-wave (km/s) = 5.67431 6.15083 5.91737
#
# Compressibility (1/GPa) = 0.03042155
#
# Stress axis : x y z
#
# Youngs Moduli (GPa) = 125.63065 96.74523 60.94062
#
# Poissons Ratio (x) = 0.09518 0.08918
# Poissons Ratio (y) = 0.12360 -0.01860
# Poissons Ratio (z) = 0.18385 -0.02953
#
# Static dielectric constant tensor:
#      x y z
#    x 2.047250 0.000000 0.025390 
#    y 0.000000 2.203560 0.000000 
#    z 0.025390 0.000000 2.228780 
# 
# From -- ./inp_files/53164.got.cif
#   From: 2010.05.17/outbox.cif.g08.bks.cpg/sg14_27_cif.got.tgz:53164.got - 2010.06.03 17:49:19.
