data_PCOD9250460
_publ_section_title
;
Structure prediction by ZEFSAII (Michael W. Deem and Ramdas Pophale) SiO2 
 PCOD9250460
Probable space group: P 21/C
;
_chemical_formula_sum "Si O2"
_cell_formula_units_Z 32
_cell_length_a 11.546798
_cell_length_b 9.607681
_cell_length_c 12.242518
_cell_angle_alpha 90.000000
_cell_angle_beta 102.532491
_cell_angle_gamma 90.000000
_cell_volume 1325.799149
_symmetry_space_group_name_H-M "P 21/C"
_symmetry_group_IT_number 14
_symmetry_cell_setting 'monoclinic'
loop_
_space_group_symop_operation_xyz
x,y,z
-x,1/2+y,1/2-z
-x,-y,-z
x,1/2-y,1/2+z
loop_
_atom_site_type_symbol
_atom_site_label
_atom_site_fract_x
_atom_site_fract_y
_atom_site_fract_z
Si Si1 0.734575 0.489589 0.947225
Si Si2 0.202206 0.749451 0.373743
Si Si3 0.668110 0.727399 0.083063
Si Si4 0.156035 0.102840 0.735341
Si Si5 0.460753 0.691316 0.381306
Si Si6 0.063053 0.881279 0.161815
Si Si7 0.961576 0.834051 0.929278
Si Si8 0.525090 0.509951 0.192489
O O1 0.795283 0.492238 0.841194
O O2 0.595616 0.460832 0.899637
O O3 0.785241 0.376905 0.039601
O O4 0.739012 0.639986 0.006243
O O5 0.326731 0.670916 0.395017
O O6 0.167878 0.808898 0.247696
O O7 0.089342 0.666797 0.395037
O O8 0.745954 0.842580 0.159974
O O9 0.625179 0.606536 0.158176
O O10 0.554279 0.791327 0.998410
O O11 0.031508 0.070157 0.766914
O O12 0.121776 0.233184 0.653578
O O13 0.502263 0.570005 0.308269
O O14 0.457335 0.843395 0.317702
O O15 0.990777 0.790765 0.059014
O O16 0.096700 0.014421 0.096176
#
# Coordination Sequence:
#
# PCOD9250460 Si02
#       8
#     4   4   4   4   4   4   4   4
#     4  11  22  40  65  98 129 177 228 277 336 413
#     4  11  23  42  70  93 135 182 220 290 339 418
#     4  11  20  43  65  95 136 177 224 276 345 410
#     4  11  24  40  70  96 129 177 227 286 338 418
#     4  11  24  43  69 104 137 184 227 282 347 418
#     4  10  24  43  62  97 132 170 228 282 348 404
#     4  10  24  43  63  95 130 176 222 285 348 414
#     4  11  23  42  65 100 138 177 229 279 341 411
#
# _framework density 24.136385000000001
#
# number of rings (size 3 to 8) (size 9 to 14) (size 15 to 20)
#    0.000    1.250    2.500    3.750    3.500    4.000 
#    2.250    2.500    0.000    0.000    0.000    0.000 
#    0.000    0.000    0.000    0.000    0.000    0.000 
#
# Total GULP energy -179087.991745 kJ/mol
# GULP energy per Si atom -5596.499742 kJ/mol
# Density = 2.408145 g / cm^3
# Si number density = 24.136385 Si / 1000 Ang^3
#
#
#
# Elastic Constant Matrix: (Units=GPa)
#
#
# Indices 1 2 3 4 5 6 
#
# 1 75.6270 12.7953 12.1028 0.0000 2.0584 0.0000
# 2 12.7953 59.0712 21.9530 0.0000 13.7280 0.0000
# 3 12.1028 21.9530 99.1048 0.0000 11.4522 0.0000
# 4 0.0000 0.0000 0.0000 32.9342 0.0000 5.2862
# 5 2.0584 13.7280 11.4522 0.0000 29.0960 0.0000
# 6 0.0000 0.0000 0.0000 5.2862 0.0000 12.2433
#
#
#
# Elastic Compliance Matrix: (Units=1/GPa)
#
#
# Indices 1 2 3 4 5 6 
#
# 1 0.013854 -0.002745 -0.001174 0.000000 0.000777 0.000000
# 2 -0.002745 0.020665 -0.003288 0.000000 -0.008262 0.000000
# 3 -0.001174 -0.003288 0.011286 0.000000 -0.002808 0.000000
# 4 0.000000 0.000000 0.000000 0.032624 0.000000 -0.014086
# 5 0.000777 -0.008262 -0.002808 0.000000 0.039317 0.000000
# 6 0.000000 0.000000 0.000000 -0.014086 0.000000 0.087759
#
#
# Mechanical properties :
#
#
# Convention : Reuss Voigt Hill
#
# Bulk Modulus (GPa) = 31.85468 36.38946 34.12207
# Shear Modulus (GPa) = 21.70291 27.31815 24.51053
#
# Velocity S-wave (km/s) = 3.00188 3.36791 3.19015
# Velocity P-wave (km/s) = 5.02409 5.49846 5.26662
#
# Compressibility (1/GPa) = 0.03139256
#
# Stress axis : x y z
#
# Youngs Moduli (GPa) = 72.18168 48.39040 88.60225
#
# Poissons Ratio (x) = 0.13285 0.10398
# Poissons Ratio (y) = 0.19816 0.29129
# Poissons Ratio (z) = 0.08471 0.15909
#
# Static dielectric constant tensor:
#      x y z
#    x 1.909090 0.000000 -0.039140 
#    y 0.000000 1.948240 0.000000 
#    z -0.039140 0.000000 1.925660 
# 
# From -- ./inp_files/29137.got.cif
#   From: 2010.05.17/outbox.cif.g08.bks.cpg/sg14_15_cif.got.tgz:29137.got - 2010.06.03 17:49:19.
