data_PCOD9250226
_publ_section_title
;
Structure prediction by ZEFSAII (Michael W. Deem and Ramdas Pophale) SiO2 
 PCOD9250226
Probable space group: P 21/C
;
_chemical_formula_sum "Si O2"
_cell_formula_units_Z 28
_cell_length_a 5.346013
_cell_length_b 13.341114
_cell_length_c 18.517344
_cell_angle_alpha 90.000000
_cell_angle_beta 107.905411
_cell_angle_gamma 90.000000
_cell_volume 1256.722615
_symmetry_space_group_name_H-M "P 21/C"
_symmetry_group_IT_number 14
_symmetry_cell_setting 'monoclinic'
loop_
_space_group_symop_operation_xyz
x,y,z
-x,1/2+y,1/2-z
-x,-y,-z
x,1/2-y,1/2+z
loop_
_atom_site_type_symbol
_atom_site_label
_atom_site_fract_x
_atom_site_fract_y
_atom_site_fract_z
Si Si1 0.184671 0.859425 0.733557
Si Si2 0.380828 0.320074 0.828886
Si Si3 0.158976 0.857689 0.895011
Si Si4 0.814670 0.674602 0.816519
Si Si5 0.129526 0.946642 0.104068
Si Si6 0.432908 0.160110 0.950294
Si Si7 0.734470 0.120943 0.728563
O O1 0.399310 0.883797 0.692720
O O2 0.224620 0.894560 0.819324
O O3 0.207685 0.737698 0.744356
O O4 0.888076 0.878703 0.684119
O O5 0.304848 0.231912 0.764613
O O6 0.461586 0.263228 0.908350
O O7 0.970781 0.760646 0.873215
O O8 0.427241 0.834320 0.960079
O O9 0.991444 0.944070 0.918791
O O10 0.559571 0.624510 0.828442
O O11 0.033115 0.599060 0.806574
O O12 0.376446 0.916790 0.076567
O O13 0.233740 0.940585 0.195494
O O14 0.871963 0.873768 0.075573
#
# Coordination Sequence:
#
# PCOD9250226 Si02
#       7
#     4   4   4   4   4   4   4
#     4   9  17  33  49  65  91 138 173 225 229 278
#     4   9  15  31  52  62  87 140 177 201 242 284
#     4  10  24  32  50  80 116 133 177 212 261 298
#     4   9  17  33  49  65  91 138 174 224 229 277
#     4  12  21  34  49  77 111 151 165 200 255 332
#     4  12  21  34  49  77 111 149 166 199 256 333
#     4   9  15  31  52  62  87 140 176 202 241 286
#
# _framework density 22.280175
#
# number of rings (size 3 to 8) (size 9 to 14) (size 15 to 20)
#    0.000    2.286    5.714    0.857    0.000    9.143 
#    0.000    0.000    0.000    0.000    0.000    0.000 
#    0.000   37.714    0.000    0.286    0.000    0.000 
#
# Total GULP energy -156319.880856 kJ/mol
# GULP energy per Si atom -5582.852888 kJ/mol
# Density = 2.222946 g / cm^3
# Si number density = 22.280175 Si / 1000 Ang^3
#
#
#
# Elastic Constant Matrix: (Units=GPa)
#
#
# Indices 1 2 3 4 5 6 
#
# 1 165.9458 5.5140 16.1062 0.0000 21.2775 0.0000
# 2 5.5140 47.5252 1.5899 0.0000 0.6539 0.0000
# 3 16.1062 1.5899 57.4830 0.0000 17.0099 0.0000
# 4 0.0000 0.0000 0.0000 20.1586 0.0000 1.2139
# 5 21.2775 0.6539 17.0099 0.0000 23.6055 0.0000
# 6 0.0000 0.0000 0.0000 1.2139 0.0000 6.4718
#
#
#
# Elastic Compliance Matrix: (Units=1/GPa)
#
#
# Indices 1 2 3 4 5 6 
#
# 1 0.006838 -0.000706 -0.000100 0.000000 -0.006072 0.000000
# 2 -0.000706 0.021135 -0.000511 0.000000 0.000419 0.000000
# 3 -0.000100 -0.000511 0.022126 0.000000 -0.015840 0.000000
# 4 0.000000 0.000000 0.000000 0.050173 0.000000 -0.009411
# 5 -0.006072 0.000419 -0.015840 0.000000 0.059238 0.000000
# 6 0.000000 0.000000 0.000000 -0.009411 0.000000 0.156281
#
#
# Mechanical properties :
#
#
# Convention : Reuss Voigt Hill
#
# Bulk Modulus (GPa) = 21.06828 35.26381 28.16604
# Shear Modulus (GPa) = 14.95905 26.56346 20.76125
#
# Velocity S-wave (km/s) = 2.59396 3.45664 3.05589
# Velocity P-wave (km/s) = 4.29513 5.63852 5.01204
#
# Compressibility (1/GPa) = 0.04746472
#
# Stress axis : x y z
#
# Youngs Moduli (GPa) = 146.24675 47.31546 45.19655
#
# Poissons Ratio (x) = 0.03343 0.00450
# Poissons Ratio (y) = 0.10332 0.02308
# Poissons Ratio (z) = 0.01455 0.02416
#
# Static dielectric constant tensor:
#      x y z
#    x 1.968170 0.000000 -0.037660 
#    y 0.000000 1.856160 0.000000 
#    z -0.037660 0.000000 1.836860 
# 
# From -- ./inp_files/63724.got.cif
#   From: 2010.05.17/outbox.cif.g08.bks.cpg/sg14_32_cif.got.tgz:63724.got - 2010.06.03 17:49:19.
