data_PCOD9250581
_publ_section_title
;
Structure prediction by ZEFSAII (Michael W. Deem and Ramdas Pophale) SiO2 
 PCOD9250581
Probable space group: P 21/C
;
_chemical_formula_sum "Si O2"
_cell_formula_units_Z 16
_cell_length_a 7.952779
_cell_length_b 10.736101
_cell_length_c 9.814588
_cell_angle_alpha 90.000000
_cell_angle_beta 134.632673
_cell_angle_gamma 90.000000
_cell_volume 596.333344
_symmetry_space_group_name_H-M "P 21/C"
_symmetry_group_IT_number 14
_symmetry_cell_setting 'monoclinic'
loop_
_space_group_symop_operation_xyz
x,y,z
-x,1/2+y,1/2-z
-x,-y,-z
x,1/2-y,1/2+z
loop_
_atom_site_type_symbol
_atom_site_label
_atom_site_fract_x
_atom_site_fract_y
_atom_site_fract_z
Si Si1 0.368712 0.921121 0.541539
Si Si2 0.608777 0.475728 0.413392
Si Si3 0.221815 0.337340 0.043024
Si Si4 0.974180 0.286764 0.647352
O O1 0.239515 0.798619 0.417757
O O2 0.500000 0.000000 0.500000
O O3 0.549703 0.913106 0.773418
O O4 0.167813 0.016293 0.481868
O O5 0.500000 0.500000 0.500000
O O6 0.873871 0.426084 0.574666
O O7 0.470558 0.362198 0.258203
O O8 0.188822 0.277197 0.876014
O O9 0.046975 0.270574 0.045842
#
# Coordination Sequence:
#
# PCOD9250581 Si02
#       4
#     4   4   4   4
#     4  10  24  44  67 106 143 180 242 291 351 426
#     4  10  25  45  72 103 144 185 238 299 349 425
#     4  10  27  44  69 108 139 188 243 288 356 427
#     4  12  23  46  72  98 145 192 232 295 362 410
#
# _framework density 26.830632000000001
#
# number of rings (size 3 to 8) (size 9 to 14) (size 15 to 20)
#    1.500    0.000    0.000    3.750    7.000    2.000 
#    0.000    2.500    0.000    0.000    0.000    0.000 
#    0.000    0.000    0.000    0.000    0.000    0.000 
#
# Total GULP energy -89386.354870 kJ/mol
# GULP energy per Si atom -5586.647179 kJ/mol
# Density = 2.676956 g / cm^3
# Si number density = 26.830632 Si / 1000 Ang^3
#
#
#
# Elastic Constant Matrix: (Units=GPa)
#
#
# Indices 1 2 3 4 5 6 
#
# 1 78.0351 19.6739 21.8903 0.0000 -18.3294 0.0000
# 2 19.6739 63.3540 22.1310 0.0000 -1.3804 0.0000
# 3 21.8903 22.1310 180.1159 0.0000 -16.0271 0.0000
# 4 0.0000 0.0000 0.0000 20.0322 0.0000 18.2118
# 5 -18.3294 -1.3804 -16.0271 0.0000 44.6843 0.0000
# 6 0.0000 0.0000 0.0000 18.2118 0.0000 58.5829
#
#
#
# Elastic Compliance Matrix: (Units=1/GPa)
#
#
# Indices 1 2 3 4 5 6 
#
# 1 0.015555 -0.004415 -0.000819 0.000000 0.005951 0.000000
# 2 -0.004415 0.017747 -0.001814 0.000000 -0.001913 0.000000
# 3 -0.000819 -0.001814 0.006032 0.000000 0.001772 0.000000
# 4 0.000000 0.000000 0.000000 0.069586 0.000000 -0.021632
# 5 0.005951 -0.001913 0.001772 0.000000 0.025397 0.000000
# 6 0.000000 0.000000 0.000000 -0.021632 0.000000 0.023795
#
#
# Mechanical properties :
#
#
# Convention : Reuss Voigt Hill
#
# Bulk Modulus (GPa) = 39.62105 49.87725 44.74915
# Shear Modulus (GPa) = 27.68234 41.84722 34.76478
#
# Velocity S-wave (km/s) = 3.21556 3.95356 3.60351
# Velocity P-wave (km/s) = 5.34655 6.28259 5.83337
#
# Compressibility (1/GPa) = 0.02523911
#
# Stress axis : x y z
#
# Youngs Moduli (GPa) = 64.28741 56.34626 165.78137
#
# Poissons Ratio (x) = 0.24876 0.13569
# Poissons Ratio (y) = 0.28382 0.30078
# Poissons Ratio (z) = 0.05262 0.10223
#
# Static dielectric constant tensor:
#      x y z
#    x 2.075210 0.000000 0.033030 
#    y 0.000000 2.203770 0.000000 
#    z 0.033030 0.000000 2.107370 
# 
# From -- ./inp_files/7815.got.cif
#   From: 2010.05.17/outbox.cif.g08.bks.cpg/sg14_4_cif.got.tgz:7815.got - 2010.06.03 17:49:19.
