data_PCOD9250401
_publ_section_title
;
Structure prediction by ZEFSAII (Michael W. Deem and Ramdas Pophale) SiO2 
 PCOD9250401
Probable space group: P 21/C
;
_chemical_formula_sum "Si O2"
_cell_formula_units_Z 28
_cell_length_a 28.664068
_cell_length_b 5.074681
_cell_length_c 8.830698
_cell_angle_alpha 90.000000
_cell_angle_beta 109.641379
_cell_angle_gamma 90.000000
_cell_volume 1209.782178
_symmetry_space_group_name_H-M "P 21/C"
_symmetry_group_IT_number 14
_symmetry_cell_setting 'monoclinic'
loop_
_space_group_symop_operation_xyz
x,y,z
-x,1/2+y,1/2-z
-x,-y,-z
x,1/2-y,1/2+z
loop_
_atom_site_type_symbol
_atom_site_label
_atom_site_fract_x
_atom_site_fract_y
_atom_site_fract_z
Si Si1 0.634445 0.897096 0.528984
Si Si2 0.330038 0.885539 0.755563
Si Si3 0.174015 0.224986 0.321714
Si Si4 0.781752 0.427438 0.860968
Si Si5 0.871988 0.071326 0.965721
Si Si6 0.017293 0.881989 0.857815
Si Si7 0.481286 0.400013 0.142423
O O1 0.658794 0.629790 0.619399
O O2 0.576964 0.842934 0.432815
O O3 0.639403 0.129699 0.659183
O O4 0.658177 0.009873 0.400041
O O5 0.272189 0.807158 0.701033
O O6 0.214882 0.329070 0.249562
O O7 0.151885 0.430032 0.416421
O O8 0.202753 0.015752 0.455364
O O9 0.126964 0.131569 0.172107
O O10 0.829356 0.263859 0.862537
O O11 0.924689 0.188067 0.062098
O O12 0.989628 0.620604 0.769770
O O13 0.000000 0.000000 0.000000
O O14 0.491322 0.636689 0.271523
O O15 0.500000 0.500000 0.000000
#
# Coordination Sequence:
#
# PCOD9250401 Si02
#       7
#     4   4   4   4   4   4   4
#     4  12  26  47  69 106 145 189 234 298 353 418
#     4  12  27  44  71  99 148 185 237 286 361 417
#     4  10  24  42  67  98 132 172 230 278 335 399
#     4  11  25  41  69  96 134 181 230 277 341 412
#     4  11  25  43  72  97 137 173 233 276 343 414
#     4  12  29  49  76 106 143 183 230 289 362 419
#     4  12  24  44  74 104 141 187 244 294 353 417
#
# _framework density 23.144663000000001
#
# number of rings (size 3 to 8) (size 9 to 14) (size 15 to 20)
#    0.000    0.571    0.000    6.857   16.000    0.000 
#    0.000    0.000    0.000    0.000    0.000    0.000 
#    0.000    0.000    0.000    0.000    0.000    0.000 
#
# Total GULP energy -156736.824430 kJ/mol
# GULP energy per Si atom -5597.743730 kJ/mol
# Density = 2.309198 g / cm^3
# Si number density = 23.144663 Si / 1000 Ang^3
#
#
#
# Elastic Constant Matrix: (Units=GPa)
#
#
# Indices 1 2 3 4 5 6 
#
# 1 82.6956 -2.9051 26.4888 0.0000 30.9782 0.0000
# 2 -2.9051 72.3689 16.6825 0.0000 6.9537 0.0000
# 3 26.4888 16.6825 93.6126 0.0000 -8.3236 0.0000
# 4 0.0000 0.0000 0.0000 39.6537 0.0000 1.4640
# 5 30.9782 6.9537 -8.3236 0.0000 25.2835 0.0000
# 6 0.0000 0.0000 0.0000 1.4640 0.0000 27.6005
#
#
#
# Elastic Compliance Matrix: (Units=1/GPa)
#
#
# Indices 1 2 3 4 5 6 
#
# 1 0.040897 0.011738 -0.018962 0.000000 -0.059579 0.000000
# 2 0.011738 0.018407 -0.008582 0.000000 -0.022269 0.000000
# 3 -0.018962 -0.008582 0.020451 0.000000 0.032326 0.000000
# 4 0.000000 0.000000 0.000000 0.025268 0.000000 -0.001340
# 5 -0.059579 -0.022269 0.032326 0.000000 0.129317 0.000000
# 6 0.000000 0.000000 0.000000 -0.001340 0.000000 0.036302
#
#
# Mechanical properties :
#
#
# Convention : Reuss Voigt Hill
#
# Bulk Modulus (GPa) = 20.77080 36.57882 28.67481
# Shear Modulus (GPa) = 15.70833 32.40161 24.05497
#
# Velocity S-wave (km/s) = 2.60802 3.74566 3.22736
# Velocity P-wave (km/s) = 4.25004 5.87753 5.12875
#
# Compressibility (1/GPa) = 0.04814450
#
# Stress axis : x y z
#
# Youngs Moduli (GPa) = 24.45145 54.32623 48.89653
#
# Poissons Ratio (x) = -0.63766 0.92716
# Poissons Ratio (y) = -0.28700 0.41962
# Poissons Ratio (z) = 0.46364 0.46621
#
# Static dielectric constant tensor:
#      x y z
#    x 1.840880 0.000000 0.016670 
#    y 0.000000 -25.710530 0.000000 
#    z 0.016670 0.000000 1.846610 
# 
# From -- ./inp_files/19861.got.cif
#   From: 2010.05.17/outbox.cif.g08.bks.cpg/sg14_10_cif.got.tgz:19861.got - 2010.06.03 17:49:19.
