data_PCOD9250303
_publ_section_title
;
Structure prediction by ZEFSAII (Michael W. Deem and Ramdas Pophale) SiO2 
 PCOD9250303
Probable space group: P 21/C
;
_chemical_formula_sum "Si O2"
_cell_formula_units_Z 28
_cell_length_a 11.868885
_cell_length_b 14.291011
_cell_length_c 8.064459
_cell_angle_alpha 90.000000
_cell_angle_beta 61.292307
_cell_angle_gamma 90.000000
_cell_volume 1199.742799
_symmetry_space_group_name_H-M "P 21/C"
_symmetry_group_IT_number 14
_symmetry_cell_setting 'monoclinic'
loop_
_space_group_symop_operation_xyz
x,y,z
-x,1/2+y,1/2-z
-x,-y,-z
x,1/2-y,1/2+z
loop_
_atom_site_type_symbol
_atom_site_label
_atom_site_fract_x
_atom_site_fract_y
_atom_site_fract_z
Si Si1 0.560023 0.372300 0.087011
Si Si2 0.716781 0.258929 0.727121
Si Si3 0.268740 0.037188 0.498105
Si Si4 0.896751 0.344649 0.346925
Si Si5 0.132017 0.204007 0.471148
Si Si6 0.853515 0.535994 0.250555
Si Si7 0.263464 0.102378 0.843633
O O1 0.623624 0.336628 0.871862
O O2 0.600432 0.479446 0.094263
O O3 0.631101 0.304408 0.166804
O O4 0.408072 0.366593 0.202153
O O5 0.841588 0.310625 0.560371
O O6 0.777062 0.188006 0.817846
O O7 0.256183 0.146343 0.455185
O O8 0.188358 0.994974 0.400091
O O9 0.222873 0.034357 0.721105
O O10 0.925515 0.454206 0.296622
O O11 0.022234 0.296709 0.185575
O O12 0.088014 0.134497 0.352723
O O13 0.173276 0.307239 0.399469
O O14 0.745830 0.562231 0.463342
#
# Coordination Sequence:
#
# PCOD9250303 Si02
#       7
#     4   4   4   4   4   4   4
#     4  11  24  46  65 101 138 176 231 284 329 421
#     4  10  24  40  71  93 135 182 231 273 353 386
#     4  10  24  43  64 101 138 172 230 273 342 397
#     4  11  22  45  66  99 135 180 226 286 333 412
#     4  10  25  43  68 100 137 177 230 283 339 403
#     4  10  24  42  68  98 137 176 226 270 354 389
#     4  12  25  44  70 104 136 180 227 284 340 402
#
# _framework density 23.338335000000001
#
# number of rings (size 3 to 8) (size 9 to 14) (size 15 to 20)
#    0.857    0.571    1.429    2.571    8.000    0.571 
#    7.714    1.429    0.000    0.000    0.000    0.000 
#    0.000    0.000    0.000    0.000    0.000    0.000 
#
# Total GULP energy -156064.880324 kJ/mol
# GULP energy per Si atom -5573.745726 kJ/mol
# Density = 2.328522 g / cm^3
# Si number density = 23.338335 Si / 1000 Ang^3
#
#
#
# Elastic Constant Matrix: (Units=GPa)
#
#
# Indices 1 2 3 4 5 6 
#
# 1 58.1387 28.3883 24.6576 0.0000 -9.0151 0.0000
# 2 28.3883 72.6617 37.4075 0.0000 -10.5407 0.0000
# 3 24.6576 37.4075 120.1929 0.0000 -14.1686 0.0000
# 4 0.0000 0.0000 0.0000 35.2408 0.0000 -5.2687
# 5 -9.0151 -10.5407 -14.1686 0.0000 36.1387 0.0000
# 6 0.0000 0.0000 0.0000 -5.2687 0.0000 31.1954
#
#
#
# Elastic Compliance Matrix: (Units=1/GPa)
#
#
# Indices 1 2 3 4 5 6 
#
# 1 0.021945 -0.007187 -0.001957 0.000000 0.002611 0.000000
# 2 -0.007187 0.019040 -0.004202 0.000000 0.002113 0.000000
# 3 -0.001957 -0.004202 0.010304 0.000000 0.002326 0.000000
# 4 0.000000 0.000000 0.000000 0.029111 0.000000 0.004917
# 5 0.002611 0.002113 0.002326 0.000000 0.029851 0.000000
# 6 0.000000 0.000000 0.000000 0.004917 0.000000 0.032886
#
#
# Mechanical properties :
#
#
# Convention : Reuss Voigt Hill
#
# Bulk Modulus (GPa) = 40.65912 47.98891 44.32401
# Shear Modulus (GPa) = 28.08536 31.21764 29.65150
#
# Velocity S-wave (km/s) = 3.47277 3.66131 3.56828
# Velocity P-wave (km/s) = 5.79134 6.20326 6.00084
#
# Compressibility (1/GPa) = 0.02459473
#
# Stress axis : x y z
#
# Youngs Moduli (GPa) = 45.56936 52.51998 97.05389
#
# Poissons Ratio (x) = 0.37747 0.18997
# Poissons Ratio (y) = 0.32751 0.40786
# Poissons Ratio (z) = 0.08919 0.22071
#
# Static dielectric constant tensor:
#      x y z
#    x 1.886330 0.000000 0.067940 
#    y 0.000000 1.867700 0.000000 
#    z 0.067940 0.000000 1.901110 
# 
# From -- ./inp_files/13012.got.cif
#   From: 2010.05.17/outbox.cif.g08.bks.cpg/sg14_7_cif.got.tgz:13012.got - 2010.06.03 17:49:19.
