data_PCOD9250797
_publ_section_title
;
Structure prediction by ZEFSAII (Michael W. Deem and Ramdas Pophale) SiO2 
 PCOD9250797
Probable space group: P 21/C
;
_chemical_formula_sum "Si O2"
_cell_formula_units_Z 26
_cell_length_a 11.314490
_cell_length_b 8.686156
_cell_length_c 23.026192
_cell_angle_alpha 90.000000
_cell_angle_beta 28.211846
_cell_angle_gamma 90.000000
_cell_volume 1069.795134
_symmetry_space_group_name_H-M "P 21/C"
_symmetry_group_IT_number 14
_symmetry_cell_setting 'monoclinic'
loop_
_space_group_symop_operation_xyz
x,y,z
-x,1/2+y,1/2-z
-x,-y,-z
x,1/2-y,1/2+z
loop_
_atom_site_type_symbol
_atom_site_label
_atom_site_fract_x
_atom_site_fract_y
_atom_site_fract_z
Si Si1 0.236074 0.529185 0.142765
Si Si2 0.257232 0.490922 0.925084
Si Si3 0.940568 0.306301 0.466685
Si Si4 0.482456 0.761653 0.115868
Si Si5 0.500000 0.500000 0.500000
Si Si6 0.037791 0.790284 0.168560
Si Si7 0.606463 0.930355 0.168356
O O1 0.271097 0.651162 0.180071
O O2 0.049402 0.611022 0.178810
O O3 0.131335 0.371348 0.210797
O O4 0.500000 0.500000 0.000000
O O5 0.309446 0.360733 0.950719
O O6 0.473072 0.502220 0.782751
O O7 0.232798 0.657312 0.966305
O O8 0.000000 0.500000 0.000000
O O9 0.056956 0.332096 0.353380
O O10 0.761892 0.438471 0.568214
O O11 0.182735 0.306664 0.403432
O O12 0.553729 0.884554 0.035186
O O13 0.421054 0.854062 0.201780
O O14 0.691496 0.369084 0.442060
#
# Coordination Sequence:
#
# PCOD9250797 Si02
#       7
#     4   4   4   4   2   4   4
#     4  11  27  48  73 107 148 199 258 317 379 463
#     4  12  25  44  69 115 145 190 249 322 387 453
#     4  11  24  45  73 103 145 197 246 313 388 452
#     4  11  23  48  72 104 149 191 254 313 382 471
#     4  10  24  46  74 102 140 206 248 304 378 462
#     4  11  25  47  74 102 148 194 253 311 380 457
#     4  11  24  45  73 104 149 194 250 311 391 472
#
# _framework density 24.303716999999999
#
# number of rings (size 3 to 8) (size 9 to 14) (size 15 to 20)
#    0.000    0.923    3.077    2.769    4.308    2.462 
#    8.308    0.000    0.000    0.000    0.000    0.000 
#    0.000    0.000    0.000    0.000    0.000    0.000 
#
# Total GULP energy -144810.617912 kJ/mol
# GULP energy per Si atom -5569.639150 kJ/mol
# Density = 2.424840 g / cm^3
# Si number density = 24.303717 Si / 1000 Ang^3
#
#
#
# Elastic Constant Matrix: (Units=GPa)
#
#
# Indices 1 2 3 4 5 6 
#
# 1 127.6586 29.2896 18.0095 0.0000 12.5743 0.0000
# 2 29.2896 78.9496 44.0810 0.0000 20.1139 0.0000
# 3 18.0095 44.0810 68.9296 0.0000 18.8581 0.0000
# 4 0.0000 0.0000 0.0000 24.4238 0.0000 -14.9295
# 5 12.5743 20.1139 18.8581 0.0000 23.5455 0.0000
# 6 0.0000 0.0000 0.0000 -14.9295 0.0000 40.3622
#
#
#
# Elastic Compliance Matrix: (Units=1/GPa)
#
#
# Indices 1 2 3 4 5 6 
#
# 1 0.008668 -0.002647 0.000097 0.000000 -0.002446 0.000000
# 2 -0.002647 0.021981 -0.011032 0.000000 -0.008528 0.000000
# 3 0.000097 -0.011032 0.024297 0.000000 -0.010088 0.000000
# 4 0.000000 0.000000 0.000000 0.052906 0.000000 0.019569
# 5 -0.002446 -0.008528 -0.010088 0.000000 0.059141 0.000000
# 6 0.000000 0.000000 0.000000 0.019569 0.000000 0.032014
#
#
# Mechanical properties :
#
#
# Convention : Reuss Voigt Hill
#
# Bulk Modulus (GPa) = 35.99476 50.92200 43.45838
# Shear Modulus (GPa) = 21.23763 29.94348 25.59056
#
# Velocity S-wave (km/s) = 2.95929 3.51387 3.24844
# Velocity P-wave (km/s) = 5.14967 6.12053 5.65597
#
# Compressibility (1/GPa) = 0.02778182
#
# Stress axis : x y z
#
# Youngs Moduli (GPa) = 115.36846 45.49478 41.15712
#
# Poissons Ratio (x) = 0.12042 -0.00400
# Poissons Ratio (y) = 0.30536 0.45405
# Poissons Ratio (z) = -0.01120 0.50190
#
# Static dielectric constant tensor:
#      x y z
#    x 1.942510 0.000000 0.009830 
#    y 0.000000 2.013780 0.000000 
#    z 0.009830 0.000000 1.927140 
# 
# From -- ./inp_files/35716.got.cif
#   From: 2010.05.17/outbox.cif.g08.bks.cpg/sg14_18_cif.got.tgz:35716.got - 2010.06.03 17:49:19.
