data_PCOD9250107
_publ_section_title
;
Structure prediction by ZEFSAII (Michael W. Deem and Ramdas Pophale) SiO2 
 PCOD9250107
Probable space group: P 21/C
;
_chemical_formula_sum "Si O2"
_cell_formula_units_Z 28
_cell_length_a 9.637519
_cell_length_b 8.843092
_cell_length_c 26.206290
_cell_angle_alpha 90.000000
_cell_angle_beta 150.992889
_cell_angle_gamma 90.000000
_cell_volume 1083.037233
_symmetry_space_group_name_H-M "P 21/C"
_symmetry_group_IT_number 14
_symmetry_cell_setting 'monoclinic'
loop_
_space_group_symop_operation_xyz
x,y,z
-x,1/2+y,1/2-z
-x,-y,-z
x,1/2-y,1/2+z
loop_
_atom_site_type_symbol
_atom_site_label
_atom_site_fract_x
_atom_site_fract_y
_atom_site_fract_z
Si Si1 0.441858 0.476225 0.054200
Si Si2 0.973595 0.225412 0.582701
Si Si3 0.393165 0.265979 0.124288
Si Si4 0.774302 0.974977 0.126147
Si Si5 0.923616 0.225247 0.348227
Si Si6 0.955169 0.947911 0.042654
Si Si7 0.979807 0.682581 0.790888
O O1 0.337995 0.647801 0.019092
O O2 0.159490 0.393768 0.940405
O O3 0.272874 0.581750 0.881213
O O4 0.476921 0.421206 0.123831
O O5 0.149318 0.194616 0.587201
O O6 0.122087 0.178563 0.683299
O O7 0.941255 0.405440 0.571874
O O8 0.634433 0.171316 0.230316
O O9 0.317985 0.159304 0.051780
O O10 0.775401 0.891510 0.182361
O O11 0.946673 0.847768 0.149032
O O12 0.922992 0.140237 0.184604
O O13 0.500000 0.000000 0.000000
O O14 0.824720 0.327043 0.364627
O O15 0.000000 0.000000 0.000000
#
# Coordination Sequence:
#
# PCOD9250107 Si02
#       7
#     4   4   4   4   4   4   4
#     4  11  24  44  74 105 152 201 257 322 387 466
#     4  11  24  44  73 114 149 199 266 320 380 472
#     4  10  23  46  73 105 153 205 250 315 395 464
#     4  12  27  51  77 108 154 200 259 320 394 469
#     4  11  22  46  71 103 147 200 256 311 394 469
#     4   9  21  44  69 102 148 198 250 317 386 455
#     4  12  27  48  75 109 149 205 258 325 393 468
#
# _framework density 25.853217999999998
#
# number of rings (size 3 to 8) (size 9 to 14) (size 15 to 20)
#    0.000    1.143    4.286    0.857    2.000    3.429 
#    2.571    2.857    0.000    0.000    0.000    0.000 
#    0.000    0.000    0.000    0.000    0.000    0.000 
#
# Total GULP energy -156342.811634 kJ/mol
# GULP energy per Si atom -5583.671844 kJ/mol
# Density = 2.579438 g / cm^3
# Si number density = 25.853218 Si / 1000 Ang^3
#
#
#
# Elastic Constant Matrix: (Units=GPa)
#
#
# Indices 1 2 3 4 5 6 
#
# 1 109.5316 7.4986 12.7532 0.0000 -25.4156 0.0000
# 2 7.4986 107.8316 46.0955 0.0000 -13.0107 0.0000
# 3 12.7532 46.0955 138.7912 0.0000 -20.9863 0.0000
# 4 0.0000 0.0000 0.0000 44.3236 0.0000 -13.7188
# 5 -25.4156 -13.0107 -20.9863 0.0000 42.1105 0.0000
# 6 0.0000 0.0000 0.0000 -13.7188 0.0000 31.7852
#
#
#
# Elastic Compliance Matrix: (Units=1/GPa)
#
#
# Indices 1 2 3 4 5 6 
#
# 1 0.010617 0.000044 -0.000021 0.000000 0.006411 0.000000
# 2 0.000044 0.010919 -0.003370 0.000000 0.001721 0.000000
# 3 -0.000021 -0.003370 0.008833 0.000000 0.003348 0.000000
# 4 0.000000 0.000000 0.000000 0.026040 0.000000 0.011239
# 5 0.006411 0.001721 0.003348 0.000000 0.029816 0.000000
# 6 0.000000 0.000000 0.000000 0.011239 0.000000 0.036312
#
#
# Mechanical properties :
#
#
# Convention : Reuss Voigt Hill
#
# Bulk Modulus (GPa) = 42.23980 54.31655 48.27817
# Shear Modulus (GPa) = 36.46375 42.96432 39.71404
#
# Velocity S-wave (km/s) = 3.75962 4.08101 3.92361
# Velocity P-wave (km/s) = 5.93466 6.57734 6.26424
#
# Compressibility (1/GPa) = 0.02367435
#
# Stress axis : x y z
#
# Youngs Moduli (GPa) = 94.19048 91.58358 113.21725
#
# Poissons Ratio (x) = -0.00404 0.00236
# Poissons Ratio (y) = -0.00416 0.38158
# Poissons Ratio (z) = 0.00196 0.30867
#
# Static dielectric constant tensor:
#      x y z
#    x 2.103610 0.000000 -0.017320 
#    y 0.000000 2.316660 0.000000 
#    z -0.017320 0.000000 2.113490 
# 
# From -- ./inp_files/77145.got.cif
#   From: 2010.05.17/outbox.cif.g08.bks.cpg/sg14_39_cif.got.tgz:77145.got - 2010.06.03 17:49:19.
