data_PCOD9250861
_publ_section_title
;
Structure prediction by ZEFSAII (Michael W. Deem and Ramdas Pophale) SiO2 
 PCOD9250861
Probable space group: P 21/C
;
_chemical_formula_sum "Si O2"
_cell_formula_units_Z 24
_cell_length_a 14.419156
_cell_length_b 11.772256
_cell_length_c 13.353961
_cell_angle_alpha 90.000000
_cell_angle_beta 29.395150
_cell_angle_gamma 90.000000
_cell_volume 1112.604329
_symmetry_space_group_name_H-M "P 21/C"
_symmetry_group_IT_number 14
_symmetry_cell_setting 'monoclinic'
loop_
_space_group_symop_operation_xyz
x,y,z
-x,1/2+y,1/2-z
-x,-y,-z
x,1/2-y,1/2+z
loop_
_atom_site_type_symbol
_atom_site_label
_atom_site_fract_x
_atom_site_fract_y
_atom_site_fract_z
Si Si1 0.721613 0.590364 0.076726
Si Si2 0.552901 0.321548 0.508617
Si Si3 0.713865 0.731994 0.406605
Si Si4 0.198387 0.440170 0.300890
Si Si5 0.550505 0.079021 0.595521
Si Si6 0.101947 0.992485 0.296702
O O1 0.632619 0.623909 0.266267
O O2 0.694421 0.696063 0.026396
O O3 0.606047 0.480935 0.145799
O O4 0.940738 0.558393 0.876388
O O5 0.488498 0.287012 0.457609
O O6 0.599226 0.209446 0.529481
O O7 0.722525 0.408422 0.355786
O O8 0.822170 0.815141 0.226663
O O9 0.822387 0.613681 0.312847
O O10 0.325061 0.509039 0.101994
O O11 0.000000 0.500000 0.500000
O O12 0.329672 0.434533 0.275682
O O13 0.000000 0.000000 0.500000
#
# Coordination Sequence:
#
# PCOD9250861 Si02
#       6
#     4   4   4   4   4   4
#     4  11  26  45  68 106 135 184 235 282 347 416
#     4  11  25  45  72  97 141 189 221 294 350 405
#     4  10  24  48  68  99 141 178 237 285 336 427
#     4   9  19  40  69  94 130 178 220 281 343 397
#     4   9  22  40  61 101 133 168 236 275 333 417
#     4  12  27  45  71 103 140 184 232 284 361 408
#
# _framework density 21.571010999999999
#
# number of rings (size 3 to 8) (size 9 to 14) (size 15 to 20)
#    0.000    1.667    1.667    1.500    7.000    2.667 
#    3.000    0.000    0.000    0.000    0.000    0.000 
#    0.000    0.000    0.000    0.000    0.000    0.000 
#
# Total GULP energy -134207.860113 kJ/mol
# GULP energy per Si atom -5591.994171 kJ/mol
# Density = 2.152191 g / cm^3
# Si number density = 21.571011 Si / 1000 Ang^3
#
#
#
# Elastic Constant Matrix: (Units=GPa)
#
#
# Indices 1 2 3 4 5 6 
#
# 1 88.2901 42.5314 36.6047 0.0000 -16.0205 0.0000
# 2 42.5314 157.5588 54.9051 0.0000 -22.7814 0.0000
# 3 36.6047 54.9051 85.7190 0.0000 -27.2677 0.0000
# 4 0.0000 0.0000 0.0000 23.2640 0.0000 -3.7104
# 5 -16.0205 -22.7814 -27.2677 0.0000 25.0056 0.0000
# 6 0.0000 0.0000 0.0000 -3.7104 0.0000 39.4845
#
#
#
# Elastic Compliance Matrix: (Units=1/GPa)
#
#
# Indices 1 2 3 4 5 6 
#
# 1 0.014514 -0.002124 -0.003820 0.000000 0.003198 0.000000
# 2 -0.002124 0.008599 -0.003891 0.000000 0.002230 0.000000
# 3 -0.003820 -0.003891 0.021257 0.000000 0.017188 0.000000
# 4 0.000000 0.000000 0.000000 0.043639 0.000000 0.004101
# 5 0.003198 0.002230 0.017188 0.000000 0.062814 0.000000
# 6 0.000000 0.000000 0.000000 0.004101 0.000000 0.025712
#
#
# Mechanical properties :
#
#
# Convention : Reuss Voigt Hill
#
# Bulk Modulus (GPa) = 40.48821 66.62782 53.55801
# Shear Modulus (GPa) = 24.45733 30.71925 27.58829
#
# Velocity S-wave (km/s) = 3.37086 3.77782 3.58012
# Velocity P-wave (km/s) = 5.82758 7.06993 6.47860
#
# Compressibility (1/GPa) = 0.02469855
#
# Stress axis : x y z
#
# Youngs Moduli (GPa) = 68.90104 116.29740 47.04283
#
# Poissons Ratio (x) = 0.24705 0.17970
# Poissons Ratio (y) = 0.14637 0.18306
# Poissons Ratio (z) = 0.26319 0.45254
#
# Static dielectric constant tensor:
#      x y z
#    x 1.825400 0.000000 0.017100 
#    y 0.000000 1.798740 0.000000 
#    z 0.017100 0.000000 1.734050 
# 
# From -- ./inp_files/46857.got.cif
#   From: 2010.05.17/outbox.cif.g08.bks.cpg/sg14_24_cif.got.tgz:46857.got - 2010.06.03 17:49:19.
