data_PCOD9250369
_publ_section_title
;
Structure prediction by ZEFSAII (Michael W. Deem and Ramdas Pophale) SiO2 
 PCOD9250369
Probable space group: P 21/C
;
_chemical_formula_sum "Si O2"
_cell_formula_units_Z 32
_cell_length_a 12.851348
_cell_length_b 23.126688
_cell_length_c 8.573862
_cell_angle_alpha 90.000000
_cell_angle_beta 147.483031
_cell_angle_gamma 90.000000
_cell_volume 1369.799394
_symmetry_space_group_name_H-M "P 21/C"
_symmetry_group_IT_number 14
_symmetry_cell_setting 'monoclinic'
loop_
_space_group_symop_operation_xyz
x,y,z
-x,1/2+y,1/2-z
-x,-y,-z
x,1/2-y,1/2+z
loop_
_atom_site_type_symbol
_atom_site_label
_atom_site_fract_x
_atom_site_fract_y
_atom_site_fract_z
Si Si1 0.478350 0.561097 0.626061
Si Si2 0.914220 0.280795 0.817559
Si Si3 0.272917 0.446333 0.347556
Si Si4 0.685604 0.754193 0.822080
Si Si5 0.830041 0.345429 0.231599
Si Si6 0.415668 0.655775 0.797656
Si Si7 0.550018 0.823075 0.925231
Si Si8 0.090775 0.606494 0.976051
O O1 0.391496 0.499513 0.568754
O O2 0.671799 0.551424 0.767559
O O3 0.497923 0.606030 0.790680
O O4 0.307900 0.585208 0.294216
O O5 0.898327 0.217471 0.874414
O O6 0.728899 0.302550 0.483592
O O7 0.101094 0.267974 0.946918
O O8 0.944866 0.332953 0.978261
O O9 0.359015 0.384009 0.499866
O O10 0.054095 0.439932 0.128902
O O11 0.581343 0.807241 0.596472
O O12 0.662537 0.774550 0.968727
O O13 0.561992 0.697961 0.617116
O O14 0.723301 0.372578 0.244553
O O15 0.950636 0.384036 0.261729
O O16 0.666073 0.324970 0.903499
#
# Coordination Sequence:
#
# PCOD9250369 Si02
#       8
#     4   4   4   4   4   4   4   4
#     4  10  24  44  70  89 128 173 229 279 319 382
#     4  11  22  37  62  95 132 176 213 261 326 401
#     4  11  22  44  69  95 121 174 231 273 322 383
#     4  11  24  38  61  96 133 169 214 262 322 401
#     4  11  22  39  61  95 139 171 203 271 341 387
#     4  10  24  42  63  94 136 175 213 272 333 389
#     4  11  23  39  64  93 134 168 211 266 328 391
#     4  11  22  39  68  95 129 170 225 271 325 394
#
# _framework density 23.361084999999999
#
# number of rings (size 3 to 8) (size 9 to 14) (size 15 to 20)
#    0.000    1.250    3.750    1.875    5.250    0.000 
#    2.250    3.125    0.000    0.000    0.000    0.000 
#    0.000    0.000    0.000    0.000    0.000    0.000 
#
# Total GULP energy -178622.878158 kJ/mol
# GULP energy per Si atom -5581.964942 kJ/mol
# Density = 2.330791 g / cm^3
# Si number density = 23.361085 Si / 1000 Ang^3
#
#
#
# Elastic Constant Matrix: (Units=GPa)
#
#
# Indices 1 2 3 4 5 6 
#
# 1 118.7847 39.7770 10.7350 0.0000 0.0275 0.0000
# 2 39.7770 96.4651 3.4827 0.0000 -16.0592 0.0000
# 3 10.7350 3.4827 51.4038 0.0000 -0.6663 0.0000
# 4 0.0000 0.0000 0.0000 22.6238 0.0000 1.2900
# 5 0.0275 -16.0592 -0.6663 0.0000 28.4436 0.0000
# 6 0.0000 0.0000 0.0000 1.2900 0.0000 35.3011
#
#
#
# Elastic Compliance Matrix: (Units=1/GPa)
#
#
# Indices 1 2 3 4 5 6 
#
# 1 0.010104 -0.004535 -0.001837 0.000000 -0.002613 0.000000
# 2 -0.004535 0.013502 0.000131 0.000000 0.007631 0.000000
# 3 -0.001837 0.000131 0.019836 0.000000 0.000540 0.000000
# 4 0.000000 0.000000 0.000000 0.044293 0.000000 -0.001619
# 5 -0.002613 0.007631 0.000540 0.000000 0.039481 0.000000
# 6 0.000000 0.000000 0.000000 -0.001619 0.000000 0.028387
#
#
# Mechanical properties :
#
#
# Convention : Reuss Voigt Hill
#
# Bulk Modulus (GPa) = 32.29931 41.62700 36.96315
# Shear Modulus (GPa) = 28.02636 31.45097 29.73866
#
# Velocity S-wave (km/s) = 3.46743 3.67317 3.57178
# Velocity P-wave (km/s) = 5.46689 5.98726 5.73298
#
# Compressibility (1/GPa) = 0.03096041
#
# Stress axis : x y z
#
# Youngs Moduli (GPa) = 98.97263 74.06295 50.41465
#
# Poissons Ratio (x) = 0.33588 0.09260
# Poissons Ratio (y) = 0.44884 -0.00661
# Poissons Ratio (z) = 0.18178 -0.00972
#
# Static dielectric constant tensor:
#      x y z
#    x 2.002050 0.000000 0.054040 
#    y 0.000000 1.936540 0.000000 
#    z 0.054040 0.000000 1.926550 
# 
# From -- ./inp_files/14540.got.cif
#   From: 2010.05.17/outbox.cif.g08.bks.cpg/sg14_8_cif.got.tgz:14540.got - 2010.06.03 17:49:19.
