data_PCOD9250397
_publ_section_title
;
Structure prediction by ZEFSAII (Michael W. Deem and Ramdas Pophale) SiO2 
 PCOD9250397
Probable space group: P 21/C
;
_chemical_formula_sum "Si O2"
_cell_formula_units_Z 26
_cell_length_a 24.061056
_cell_length_b 4.681827
_cell_length_c 8.423192
_cell_angle_alpha 90.000000
_cell_angle_beta 84.939251
_cell_angle_gamma 90.000000
_cell_volume 945.171113
_symmetry_space_group_name_H-M "P 21/C"
_symmetry_group_IT_number 14
_symmetry_cell_setting 'monoclinic'
loop_
_space_group_symop_operation_xyz
x,y,z
-x,1/2+y,1/2-z
-x,-y,-z
x,1/2-y,1/2+z
loop_
_atom_site_type_symbol
_atom_site_label
_atom_site_fract_x
_atom_site_fract_y
_atom_site_fract_z
Si Si1 0.915566 0.174432 0.754954
Si Si2 0.302981 0.385808 0.772686
Si Si3 0.460184 0.490617 0.255722
Si Si4 0.614359 0.901828 0.496381
Si Si5 0.843799 0.941162 0.494520
Si Si6 0.765502 0.059179 0.000698
Si Si7 0.000000 0.000000 0.000000
O O1 0.881769 0.982929 0.638949
O O2 0.876022 0.417660 0.839282
O O3 0.965113 0.314562 0.640303
O O4 0.945833 0.013964 0.891214
O O5 0.347848 0.265418 0.637673
O O6 0.263119 0.553369 0.663141
O O7 0.340930 0.545632 0.895427
O O8 0.271769 0.116902 0.864072
O O9 0.493434 0.761319 0.310550
O O10 0.424156 0.582822 0.111952
O O11 0.422583 0.320777 0.392334
O O12 0.786648 0.124167 0.529488
O O13 0.822704 0.623065 0.476260
#
# Coordination Sequence:
#
# PCOD9250397 Si02
#       7
#     4   4   4   4   4   4   2
#     4  10  24  42  67 101 137 181 228 284 342 410
#     4   9  20  40  63  90 128 167 210 266 327 396
#     4  11  22  40  62  87 121 162 210 264 321 384
#     4   9  20  40  60  91 123 163 212 262 323 392
#     4  11  24  42  69  99 133 173 226 278 334 404
#     4  11  22  42  65  94 128 171 216 269 333 396
#     4  10  24  44  64  96 140 182 228 280 348 412
#
# _framework density 27.508247999999998
#
# number of rings (size 3 to 8) (size 9 to 14) (size 15 to 20)
#    0.000    1.846    0.000    2.769    0.000    7.385 
#    0.000   30.769    0.000    0.000    0.000    0.000 
#    0.000    0.000    0.000    0.000    0.000    0.000 
#
# Total GULP energy -145462.701085 kJ/mol
# GULP energy per Si atom -5594.719272 kJ/mol
# Density = 2.744564 g / cm^3
# Si number density = 27.508248 Si / 1000 Ang^3
#
#
#
# Elastic Constant Matrix: (Units=GPa)
#
#
# Indices 1 2 3 4 5 6 
#
# 1 126.4047 15.7415 65.9022 0.0000 25.3790 0.0000
# 2 15.7415 77.9168 33.3784 0.0000 9.3622 0.0000
# 3 65.9022 33.3784 121.9795 0.0000 15.1047 0.0000
# 4 0.0000 0.0000 0.0000 33.7293 0.0000 -12.6518
# 5 25.3790 9.3622 15.1047 0.0000 61.5364 0.0000
# 6 0.0000 0.0000 0.0000 -12.6518 0.0000 8.0705
#
#
#
# Elastic Compliance Matrix: (Units=1/GPa)
#
#
# Indices 1 2 3 4 5 6 
#
# 1 0.011680 0.000650 -0.006064 0.000000 -0.003427 0.000000
# 2 0.000650 0.014672 -0.004183 0.000000 -0.001473 0.000000
# 3 -0.006064 -0.004183 0.012614 0.000000 0.000041 0.000000
# 4 0.000000 0.000000 0.000000 0.071965 0.000000 0.112816
# 5 -0.003427 -0.001473 0.000041 0.000000 0.017878 0.000000
# 6 0.000000 0.000000 0.000000 0.112816 0.000000 0.300766
#
#
# Mechanical properties :
#
#
# Convention : Reuss Voigt Hill
#
# Bulk Modulus (GPa) = 50.57937 61.81613 56.19775
# Shear Modulus (GPa) = 10.98033 34.75250 22.86642
#
# Velocity S-wave (km/s) = 2.00008 3.55822 2.88628
# Velocity P-wave (km/s) = 4.87449 6.27709 5.61972
#
# Compressibility (1/GPa) = 0.01977091
#
# Stress axis : x y z
#
# Youngs Moduli (GPa) = 85.61936 68.15657 79.27865
#
# Poissons Ratio (x) = -0.04428 0.48071
# Poissons Ratio (y) = -0.05563 0.33166
# Poissons Ratio (z) = 0.51916 0.28513
#
# Static dielectric constant tensor:
#      x y z
#    x 2.164850 0.000000 -0.056300 
#    y 0.000000 2.095010 0.000000 
#    z -0.056300 0.000000 2.088760 
# 
# From -- ./inp_files/19265.got.cif
#   From: 2010.05.17/outbox.cif.g08.bks.cpg/sg14_10_cif.got.tgz:19265.got - 2010.06.03 17:49:19.
