data_PCOD9250169
_publ_section_title
;
Structure prediction by ZEFSAII (Michael W. Deem and Ramdas Pophale) SiO2 
 PCOD9250169
Probable space group: P 21/C
;
_chemical_formula_sum "Si O2"
_cell_formula_units_Z 24
_cell_length_a 24.601599
_cell_length_b 6.891273
_cell_length_c 19.343280
_cell_angle_alpha 90.000000
_cell_angle_beta 15.793005
_cell_angle_gamma 90.000000
_cell_volume 892.527545
_symmetry_space_group_name_H-M "P 21/C"
_symmetry_group_IT_number 14
_symmetry_cell_setting 'monoclinic'
loop_
_space_group_symop_operation_xyz
x,y,z
-x,1/2+y,1/2-z
-x,-y,-z
x,1/2-y,1/2+z
loop_
_atom_site_type_symbol
_atom_site_label
_atom_site_fract_x
_atom_site_fract_y
_atom_site_fract_z
Si Si1 0.758629 0.674174 0.206574
Si Si2 0.438351 0.593705 0.445666
Si Si3 0.675129 0.543832 0.915969
Si Si4 0.748679 0.984211 0.100973
Si Si5 0.161990 0.553872 0.657619
Si Si6 0.812837 0.984886 0.400353
O O1 0.613347 0.529462 0.424100
O O2 0.821744 0.837647 0.186692
O O3 0.697826 0.810380 0.216606
O O4 0.942520 0.543998 0.957006
O O5 0.317374 0.510426 0.527533
O O6 0.348186 0.811363 0.562426
O O7 0.664869 0.567709 0.143269
O O8 0.722895 0.582399 0.937161
O O9 0.453675 0.606646 0.160189
O O10 0.800081 0.934930 0.958198
O O11 0.955560 0.074632 0.874586
O O12 0.181721 0.779996 0.611176
#
# Coordination Sequence:
#
# PCOD9250169 Si02
#       6
#     4   4   4   4   4   4
#     4  11  26  48  75 113 151 191 254 309 367 448
#     4  11  24  46  78 109 147 200 250 300 376 443
#     4  11  25  48  77 107 151 197 239 313 373 429
#     4  11  24  47  72 107 151 195 244 307 366 438
#     4  10  23  47  73 110 149 195 252 309 367 442
#     4  10  24  42  75 106 146 197 249 293 374 448
#
# _framework density 26.889925000000002
#
# number of rings (size 3 to 8) (size 9 to 14) (size 15 to 20)
#    0.000    1.333    1.667    2.000    7.000    6.667 
#    6.000    0.000    0.000    0.000    0.000    0.000 
#    0.000    0.000    0.000    0.000    0.000    0.000 
#
# Total GULP energy -134452.400831 kJ/mol
# GULP energy per Si atom -5602.183368 kJ/mol
# Density = 2.682872 g / cm^3
# Si number density = 26.889925 Si / 1000 Ang^3
#
#
#
# Elastic Constant Matrix: (Units=GPa)
#
#
# Indices 1 2 3 4 5 6 
#
# 1 147.0449 16.3934 51.6102 0.0000 14.3463 0.0000
# 2 16.3934 126.7414 47.2990 0.0000 20.7911 0.0000
# 3 51.6102 47.2990 128.2452 0.0000 25.5896 0.0000
# 4 0.0000 0.0000 0.0000 39.0799 0.0000 19.2898
# 5 14.3463 20.7911 25.5896 0.0000 62.0797 0.0000
# 6 0.0000 0.0000 0.0000 19.2898 0.0000 24.1351
#
#
#
# Elastic Compliance Matrix: (Units=1/GPa)
#
#
# Indices 1 2 3 4 5 6 
#
# 1 0.007944 0.000256 -0.003169 0.000000 -0.000615 0.000000
# 2 0.000256 0.009351 -0.003176 0.000000 -0.001882 0.000000
# 3 -0.003169 -0.003176 0.010772 0.000000 -0.002644 0.000000
# 4 0.000000 0.000000 0.000000 0.042261 0.000000 -0.033777
# 5 -0.000615 -0.001882 -0.002644 0.000000 0.017971 0.000000
# 6 0.000000 0.000000 0.000000 -0.033777 0.000000 0.068429
#
#
# Mechanical properties :
#
#
# Convention : Reuss Voigt Hill
#
# Bulk Modulus (GPa) = 62.93663 70.29297 66.61480
# Shear Modulus (GPa) = 28.70229 44.17420 36.43825
#
# Velocity S-wave (km/s) = 3.27065 4.05752 3.68515
# Velocity P-wave (km/s) = 6.14158 6.93895 6.55240
#
# Compressibility (1/GPa) = 0.01588900
#
# Stress axis : x y z
#
# Youngs Moduli (GPa) = 125.87646 106.94002 92.83471
#
# Poissons Ratio (x) = -0.02737 0.29416
# Poissons Ratio (y) = -0.03221 0.29488
# Poissons Ratio (z) = 0.39886 0.33968
#
# Static dielectric constant tensor:
#      x y z
#    x 2.096060 0.000000 -0.041300 
#    y 0.000000 2.128100 0.000000 
#    z -0.041300 0.000000 2.074620 
# 
# From -- ./inp_files/39260.got.cif
#   From: 2010.05.17/outbox.cif.g08.bks.cpg/sg14_20_cif.got.tgz:39260.got - 2010.06.03 17:49:19.
