data_PCOD9250155
_publ_section_title
;
Structure prediction by ZEFSAII (Michael W. Deem and Ramdas Pophale) SiO2 
 PCOD9250155
Probable space group: P 21/C
;
_chemical_formula_sum "Si O2"
_cell_formula_units_Z 26
_cell_length_a 15.858576
_cell_length_b 8.003802
_cell_length_c 9.375895
_cell_angle_alpha 90.000000
_cell_angle_beta 56.597368
_cell_angle_gamma 90.000000
_cell_volume 993.499022
_symmetry_space_group_name_H-M "P 21/C"
_symmetry_group_IT_number 14
_symmetry_cell_setting 'monoclinic'
loop_
_space_group_symop_operation_xyz
x,y,z
-x,1/2+y,1/2-z
-x,-y,-z
x,1/2-y,1/2+z
loop_
_atom_site_type_symbol
_atom_site_label
_atom_site_fract_x
_atom_site_fract_y
_atom_site_fract_z
Si Si1 0.434258 0.185231 0.936539
Si Si2 0.180479 0.458576 0.384037
Si Si3 0.217766 0.878168 0.572687
Si Si4 0.695921 0.639563 0.165397
Si Si5 0.368978 0.850498 0.842989
Si Si6 0.976063 0.326264 0.316816
Si Si7 0.000000 0.000000 0.500000
O O1 0.365288 0.323557 0.921985
O O2 0.547544 0.250994 0.823362
O O3 0.420530 0.013986 0.862026
O O4 0.386332 0.155052 0.134460
O O5 0.221258 0.281785 0.393840
O O6 0.271205 0.582899 0.349902
O O7 0.076053 0.522315 0.545353
O O8 0.184715 0.477398 0.211012
O O9 0.319139 0.771898 0.506897
O O10 0.124316 0.757070 0.658479
O O11 0.246168 0.964759 0.396192
O O12 0.016145 0.182818 0.388815
O O13 0.025422 0.403995 0.128406
#
# Coordination Sequence:
#
# PCOD9250155 Si02
#       7
#     4   4   4   4   4   4   2
#     4  11  24  39  61 102 137 196 248 322 365 440
#     4  10  23  47  71 106 142 203 244 316 379 480
#     4  11  23  46  72 103 144 201 240 317 369 476
#     4  11  24  41  68  99 144 191 259 299 381 433
#     4  10  25  38  67  95 144 188 260 309 382 440
#     4  11  27  52  85 114 164 190 261 300 416 462
#     4  12  28  56  82 128 152 210 238 336 380 506
#
# _framework density 26.170131000000001
#
# number of rings (size 3 to 8) (size 9 to 14) (size 15 to 20)
#    0.000    1.231    3.077    0.923    6.462    5.538 
#    5.538    0.000    0.000    0.000    0.000    0.000 
#    0.000    0.000    0.000    0.000    0.000    0.000 
#
# Total GULP energy -144988.324409 kJ/mol
# GULP energy per Si atom -5576.474016 kJ/mol
# Density = 2.611057 g / cm^3
# Si number density = 26.170131 Si / 1000 Ang^3
#
#
#
# Elastic Constant Matrix: (Units=GPa)
#
#
# Indices 1 2 3 4 5 6 
#
# 1 84.1262 15.9403 43.6981 0.0000 -1.7143 0.0000
# 2 15.9403 105.2348 19.7095 0.0000 -6.6800 0.0000
# 3 43.6981 19.7095 140.9770 0.0000 1.2031 0.0000
# 4 0.0000 0.0000 0.0000 23.1542 0.0000 -8.7744
# 5 -1.7143 -6.6800 1.2031 0.0000 36.2240 0.0000
# 6 0.0000 0.0000 0.0000 -8.7744 0.0000 28.8849
#
#
#
# Elastic Compliance Matrix: (Units=1/GPa)
#
#
# Indices 1 2 3 4 5 6 
#
# 1 0.014372 -0.001340 -0.004272 0.000000 0.000575 0.000000
# 2 -0.001340 0.010008 -0.000999 0.000000 0.001815 0.000000
# 3 -0.004272 -0.000999 0.008563 0.000000 -0.000671 0.000000
# 4 0.000000 0.000000 0.000000 0.048807 0.000000 0.014826
# 5 0.000575 0.001815 -0.000671 0.000000 0.027990 0.000000
# 6 0.000000 0.000000 0.000000 0.014826 0.000000 0.039124
#
#
# Mechanical properties :
#
#
# Convention : Reuss Voigt Hill
#
# Bulk Modulus (GPa) = 50.71213 54.33711 52.52462
# Shear Modulus (GPa) = 29.64531 34.38530 32.01531
#
# Velocity S-wave (km/s) = 3.36935 3.62873 3.50144
# Velocity P-wave (km/s) = 5.87849 6.19395 6.03828
#
# Compressibility (1/GPa) = 0.01971915
#
# Stress axis : x y z
#
# Youngs Moduli (GPa) = 69.58098 99.92050 116.78095
#
# Poissons Ratio (x) = 0.13392 0.49892
# Poissons Ratio (y) = 0.09326 0.11669
# Poissons Ratio (z) = 0.29727 0.09984
#
# Static dielectric constant tensor:
#      x y z
#    x 2.107190 0.000000 0.011460 
#    y 0.000000 2.065930 0.000000 
#    z 0.011460 0.000000 2.029460 
# 
# From -- ./inp_files/18724.got.cif
#   From: 2010.05.17/outbox.cif.g08.bks.cpg/sg14_10_cif.got.tgz:18724.got - 2010.06.03 17:49:19.
