data_PCOD9250554
_publ_section_title
;
Structure prediction by ZEFSAII (Michael W. Deem and Ramdas Pophale) SiO2 
 PCOD9250554
Probable space group: P 21/C
;
_chemical_formula_sum "Si O2"
_cell_formula_units_Z 30
_cell_length_a 10.460362
_cell_length_b 11.593965
_cell_length_c 12.375859
_cell_angle_alpha 90.000000
_cell_angle_beta 60.271214
_cell_angle_gamma 90.000000
_cell_volume 1303.362152
_symmetry_space_group_name_H-M "P 21/C"
_symmetry_group_IT_number 14
_symmetry_cell_setting 'monoclinic'
loop_
_space_group_symop_operation_xyz
x,y,z
-x,1/2+y,1/2-z
-x,-y,-z
x,1/2-y,1/2+z
loop_
_atom_site_type_symbol
_atom_site_label
_atom_site_fract_x
_atom_site_fract_y
_atom_site_fract_z
Si Si1 0.000000 0.500000 0.500000
Si Si2 0.413466 0.289580 0.517631
Si Si3 0.366513 0.574207 0.708256
Si Si4 0.144553 0.443277 0.671502
Si Si5 0.840966 0.115536 0.387970
Si Si6 0.394774 0.449839 0.900868
Si Si7 0.660239 0.232366 0.095233
Si Si8 0.285065 0.533344 0.270283
O O1 0.079849 0.463882 0.579813
O O2 0.149813 0.456100 0.365164
O O3 0.488377 0.393613 0.418622
O O4 0.255707 0.335123 0.620187
O O5 0.404176 0.177331 0.445349
O O6 0.525044 0.263081 0.569031
O O7 0.236325 0.551815 0.678793
O O8 0.367346 0.461497 0.784445
O O9 0.351240 0.677254 0.801234
O O10 0.009252 0.418693 0.808738
O O11 0.805974 0.229901 0.469166
O O12 0.779159 0.121043 0.292478
O O13 0.736004 0.018640 0.486187
O O14 0.558375 0.507917 0.842499
O O15 0.678503 0.109153 0.140470
#
# Coordination Sequence:
#
# PCOD9250554 Si02
#       8
#     2   4   4   4   4   4   4   4
#     4  10  24  44  70  98 144 190 232 300 366 424
#     4  12  24  46  72 108 138 190 248 294 359 436
#     4  11  24  43  74 103 143 181 240 305 354 430
#     4  11  25  48  66 106 145 190 235 301 368 428
#     4  10  24  44  64  99 147 186 230 298 367 419
#     4  11  23  43  73 103 137 187 242 296 359 430
#     4  11  22  41  73 101 137 187 238 297 353 432
#     4  11  20  42  65 100 133 182 240 284 356 421
#
# _framework density 23.017395
#
# number of rings (size 3 to 8) (size 9 to 14) (size 15 to 20)
#    0.000    1.067    2.667    3.200    1.867    2.133 
#   16.800    0.000    0.000    0.000    0.000    0.000 
#    0.000    0.000    0.000    0.000    0.000    0.000 
#
# Total GULP energy -167105.418927 kJ/mol
# GULP energy per Si atom -5570.180631 kJ/mol
# Density = 2.296501 g / cm^3
# Si number density = 23.017395 Si / 1000 Ang^3
#
#
#
# Elastic Constant Matrix: (Units=GPa)
#
#
# Indices 1 2 3 4 5 6 
#
# 1 66.6207 26.0779 39.4191 0.0000 -21.4788 0.0000
# 2 26.0779 73.2432 39.8935 0.0000 -2.5667 0.0000
# 3 39.4191 39.8935 141.0381 0.0000 -38.0628 0.0000
# 4 0.0000 0.0000 0.0000 44.4654 0.0000 10.7071
# 5 -21.4788 -2.5667 -38.0628 0.0000 61.7814 0.0000
# 6 0.0000 0.0000 0.0000 10.7071 0.0000 17.7149
#
#
#
# Elastic Compliance Matrix: (Units=1/GPa)
#
#
# Indices 1 2 3 4 5 6 
#
# 1 0.020513 -0.005632 -0.002733 0.000000 0.005214 0.000000
# 2 -0.005632 0.018033 -0.004621 0.000000 -0.004056 0.000000
# 3 -0.002733 -0.004621 0.010619 0.000000 0.005400 0.000000
# 4 0.000000 0.000000 0.000000 0.026320 0.000000 -0.015908
# 5 0.005214 -0.004056 0.005400 0.000000 0.021157 0.000000
# 6 0.000000 0.000000 0.000000 -0.015908 0.000000 0.066065
#
#
# Mechanical properties :
#
#
# Convention : Reuss Voigt Hill
#
# Bulk Modulus (GPa) = 43.11860 54.63145 48.87502
# Shear Modulus (GPa) = 25.45686 36.49312 30.97499
#
# Velocity S-wave (km/s) = 3.32924 3.98610 3.67239
# Velocity P-wave (km/s) = 5.79242 6.70610 6.26594
#
# Compressibility (1/GPa) = 0.02319185
#
# Stress axis : x y z
#
# Youngs Moduli (GPa) = 48.74929 55.45248 94.17419
#
# Poissons Ratio (x) = 0.31232 0.25739
# Poissons Ratio (y) = 0.27457 0.43521
# Poissons Ratio (z) = 0.13324 0.25626
#
# Static dielectric constant tensor:
#      x y z
#    x 1.897310 0.000000 0.007240 
#    y 0.000000 2.114070 0.000000 
#    z 0.007240 0.000000 1.954720 
# 
# From -- ./inp_files/25453.got.cif
#   From: 2010.05.17/outbox.cif.g08.bks.cpg/sg14_13_cif.got.tgz:25453.got - 2010.06.03 17:49:19.
