data_PCOD9250565
_publ_section_title
;
Structure prediction by ZEFSAII (Michael W. Deem and Ramdas Pophale) SiO2 
 PCOD9250565
Probable space group: P 21/C
;
_chemical_formula_sum "Si O2"
_cell_formula_units_Z 28
_cell_length_a 18.464007
_cell_length_b 8.741236
_cell_length_c 14.392503
_cell_angle_alpha 90.000000
_cell_angle_beta 37.337337
_cell_angle_gamma 90.000000
_cell_volume 1408.869261
_symmetry_space_group_name_H-M "P 21/C"
_symmetry_group_IT_number 14
_symmetry_cell_setting 'monoclinic'
loop_
_space_group_symop_operation_xyz
x,y,z
-x,1/2+y,1/2-z
-x,-y,-z
x,1/2-y,1/2+z
loop_
_atom_site_type_symbol
_atom_site_label
_atom_site_fract_x
_atom_site_fract_y
_atom_site_fract_z
Si Si1 0.620368 0.920963 0.415532
Si Si2 0.840507 0.493437 0.577614
Si Si3 0.388614 0.417739 0.664678
Si Si4 0.985589 0.750549 0.524356
Si Si5 0.562035 0.821746 0.677313
Si Si6 0.819990 0.014779 0.738145
Si Si7 0.672802 0.016034 0.073098
O O1 0.735679 0.012976 0.262195
O O2 0.622997 0.752247 0.366921
O O3 0.618585 0.898679 0.528080
O O4 0.500000 0.000000 0.500000
O O5 0.935376 0.358209 0.491386
O O6 0.772189 0.495860 0.550679
O O7 0.913501 0.646845 0.525445
O O8 0.500000 0.500000 0.500000
O O9 0.405848 0.399376 0.757037
O O10 0.267249 0.504892 0.761656
O O11 0.889607 0.853986 0.675796
O O12 0.078517 0.860166 0.378122
O O13 0.601074 0.644920 0.642460
O O14 0.420704 0.849623 0.809975
O O15 0.735500 0.042149 0.911271
#
# Coordination Sequence:
#
# PCOD9250565 Si02
#       7
#     4   4   4   4   4   4   4
#     4  12  23  40  66  96 135 170 212 274 339 400
#     4  11  23  44  65  96 129 177 220 278 320 401
#     4  12  23  40  66  96 135 170 212 274 339 400
#     4  10  24  44  66  86 132 180 226 270 330 370
#     4  12  22  40  64 102 134 174 206 271 345 407
#     4  11  23  44  65  96 129 177 220 278 320 401
#     4  12  24  40  68  96 136 168 224 263 341 405
#
# _framework density 19.874093999999999
#
# number of rings (size 3 to 8) (size 9 to 14) (size 15 to 20)
#    0.000    0.571    7.143    0.000    2.000    3.429 
#    0.000    5.714    0.000    0.000    0.000    0.000 
#    0.000    0.000    0.000    0.000    0.000    0.000 
#
# Total GULP energy -156571.554197 kJ/mol
# GULP energy per Si atom -5591.841221 kJ/mol
# Density = 1.982886 g / cm^3
# Si number density = 19.874094 Si / 1000 Ang^3
#
#
#
# Elastic Constant Matrix: (Units=GPa)
#
#
# Indices 1 2 3 4 5 6 
#
# 1 122.4781 15.0943 19.5566 0.0000 -2.1566 0.0000
# 2 15.0943 31.7687 -3.5824 0.0000 -12.0166 0.0000
# 3 19.5566 -3.5824 41.5623 0.0000 -4.7629 0.0000
# 4 0.0000 0.0000 0.0000 32.9021 0.0000 -11.1772
# 5 -2.1566 -12.0166 -4.7629 0.0000 48.4475 0.0000
# 6 0.0000 0.0000 0.0000 -11.1772 0.0000 19.0802
#
#
#
# Elastic Compliance Matrix: (Units=1/GPa)
#
#
# Indices 1 2 3 4 5 6 
#
# 1 0.009683 -0.005762 -0.005226 0.000000 -0.001512 0.000000
# 2 -0.005762 0.038844 0.007215 0.000000 0.010088 0.000000
# 3 -0.005226 0.007215 0.027631 0.000000 0.004273 0.000000
# 4 0.000000 0.000000 0.000000 0.037944 0.000000 0.022228
# 5 -0.001512 0.010088 0.004273 0.000000 0.023496 0.000000
# 6 0.000000 0.000000 0.000000 0.022228 0.000000 0.065432
#
#
# Mechanical properties :
#
#
# Convention : Reuss Voigt Hill
#
# Bulk Modulus (GPa) = 14.57446 28.66066 21.61756
# Shear Modulus (GPa) = 21.41829 31.06866 26.24348
#
# Velocity S-wave (km/s) = 3.28639 3.95812 3.63779
# Velocity P-wave (km/s) = 4.66367 5.94486 5.34281
#
# Compressibility (1/GPa) = 0.06861317
#
# Stress axis : x y z
#
# Youngs Moduli (GPa) = 103.27782 25.74375 36.19141
#
# Poissons Ratio (x) = 0.14833 0.18913
# Poissons Ratio (y) = 0.59505 -0.26113
# Poissons Ratio (z) = 0.53972 -0.18575
#
# Static dielectric constant tensor:
#      x y z
#    x 1.685870 0.000000 -0.008440 
#    y 0.000000 1.720330 0.000000 
#    z -0.008440 0.000000 1.681750 
# 
# From -- ./inp_files/50200.got.cif
#   From: 2010.05.17/outbox.cif.g08.bks.cpg/sg14_26_cif.got.tgz:50200.got - 2010.06.03 17:49:19.
