data_PCOD9250764
_publ_section_title
;
Structure prediction by ZEFSAII (Michael W. Deem and Ramdas Pophale) SiO2 
 PCOD9250764
Probable space group: P 21/C
;
_chemical_formula_sum "Si O2"
_cell_formula_units_Z 16
_cell_length_a 7.166018
_cell_length_b 11.477932
_cell_length_c 9.626182
_cell_angle_alpha 90.000000
_cell_angle_beta 69.618808
_cell_angle_gamma 90.000000
_cell_volume 742.196453
_symmetry_space_group_name_H-M "P 21/C"
_symmetry_group_IT_number 14
_symmetry_cell_setting 'monoclinic'
loop_
_space_group_symop_operation_xyz
x,y,z
-x,1/2+y,1/2-z
-x,-y,-z
x,1/2-y,1/2+z
loop_
_atom_site_type_symbol
_atom_site_label
_atom_site_fract_x
_atom_site_fract_y
_atom_site_fract_z
Si Si1 0.695578 0.523209 0.361531
Si Si2 0.104301 0.401457 0.264895
Si Si3 0.251938 0.250754 0.983878
Si Si4 0.538737 0.434147 0.847877
O O1 0.500000 0.500000 0.500000
O O2 0.755260 0.649507 0.400762
O O3 0.622700 0.525233 0.222906
O O4 0.876467 0.436919 0.339393
O O5 0.141801 0.353729 0.098179
O O6 0.164074 0.306534 0.366780
O O7 0.244973 0.516498 0.252291
O O8 0.474719 0.299882 0.891156
O O9 0.500000 0.500000 0.000000
#
# Coordination Sequence:
#
# PCOD9250764 Si02
#       4
#     4   4   4   4
#     4  12  25  45  68 102 143 181 232 286 340 415
#     4  11  25  47  70 105 139 181 234 286 344 414
#     4  11  23  46  70 101 137 185 225 283 353 402
#     4  10  24  46  70 101 141 174 234 285 342 410
#
# _framework density 21.557635000000001
#
# number of rings (size 3 to 8) (size 9 to 14) (size 15 to 20)
#    0.000    1.000    5.000    0.750    0.000    6.000 
#    9.000    0.000    0.000    0.000    0.000    0.000 
#    0.000    0.000    0.000    0.000    0.000    0.000 
#
# Total GULP energy -89205.621209 kJ/mol
# GULP energy per Si atom -5575.351326 kJ/mol
# Density = 2.150857 g / cm^3
# Si number density = 21.557635 Si / 1000 Ang^3
#
#
#
# Elastic Constant Matrix: (Units=GPa)
#
#
# Indices 1 2 3 4 5 6 
#
# 1 88.7333 29.2457 67.5223 0.0000 -16.4466 0.0000
# 2 29.2457 63.6110 41.9483 0.0000 -13.4604 0.0000
# 3 67.5223 41.9483 134.7053 0.0000 19.3482 0.0000
# 4 0.0000 0.0000 0.0000 27.5684 0.0000 -12.5758
# 5 -16.4466 -13.4604 19.3482 0.0000 42.8273 0.0000
# 6 0.0000 0.0000 0.0000 -12.5758 0.0000 21.9570
#
#
#
# Elastic Compliance Matrix: (Units=1/GPa)
#
#
# Indices 1 2 3 4 5 6 
#
# 1 0.026792 0.002937 -0.017062 0.000000 0.018920 0.000000
# 2 0.002937 0.024672 -0.011155 0.000000 0.013922 0.000000
# 3 -0.017062 -0.011155 0.022344 0.000000 -0.020153 0.000000
# 4 0.000000 0.000000 0.000000 0.049102 0.000000 0.028123
# 5 0.018920 0.013922 -0.020153 0.000000 0.044095 0.000000
# 6 0.000000 0.000000 0.000000 0.028123 0.000000 0.061651
#
#
# Mechanical properties :
#
#
# Convention : Reuss Voigt Hill
#
# Bulk Modulus (GPa) = 43.01260 62.72026 52.86643
# Shear Modulus (GPa) = 17.42369 28.35944 22.89156
#
# Velocity S-wave (km/s) = 2.84604 3.63094 3.26218
# Velocity P-wave (km/s) = 5.54938 6.83635 6.22621
#
# Compressibility (1/GPa) = 0.02324900
#
# Stress axis : x y z
#
# Youngs Moduli (GPa) = 37.32502 40.53127 44.75402
#
# Poissons Ratio (x) = -0.11905 0.76358
# Poissons Ratio (y) = -0.10963 0.49923
# Poissons Ratio (z) = 0.63683 0.45213
#
# Static dielectric constant tensor:
#      x y z
#    x 1.787220 0.000000 -0.018530 
#    y 0.000000 1.842470 0.000000 
#    z -0.018530 0.000000 1.822240 
# 
# From -- ./inp_files/5039.got.cif
#   From: 2010.05.17/outbox.cif.g08.bks.cpg/sg14_3_cif.got.tgz:5039.got - 2010.06.03 17:49:19.
