data_PCOD9250664
_publ_section_title
;
Structure prediction by ZEFSAII (Michael W. Deem and Ramdas Pophale) SiO2 
 PCOD9250664
Probable space group: P 21/C
;
_chemical_formula_sum "Si O2"
_cell_formula_units_Z 28
_cell_length_a 4.951137
_cell_length_b 15.721256
_cell_length_c 17.020308
_cell_angle_alpha 90.000000
_cell_angle_beta 57.242039
_cell_angle_gamma 90.000000
_cell_volume 1114.132697
_symmetry_space_group_name_H-M "P 21/C"
_symmetry_group_IT_number 14
_symmetry_cell_setting 'monoclinic'
loop_
_space_group_symop_operation_xyz
x,y,z
-x,1/2+y,1/2-z
-x,-y,-z
x,1/2-y,1/2+z
loop_
_atom_site_type_symbol
_atom_site_label
_atom_site_fract_x
_atom_site_fract_y
_atom_site_fract_z
Si Si1 0.197270 0.491646 0.300763
Si Si2 0.401586 0.664507 0.822336
Si Si3 0.790470 0.177431 0.229233
Si Si4 0.146271 0.092062 0.494186
Si Si5 0.453366 0.208487 0.062422
Si Si6 0.192601 0.827668 0.596431
Si Si7 0.529617 0.476819 0.586435
O O1 0.374430 0.414493 0.231967
O O2 0.358750 0.583998 0.259002
O O3 0.231919 0.479407 0.389590
O O4 0.833912 0.502261 0.327932
O O5 0.402928 0.736126 0.754676
O O6 0.050128 0.628860 0.900624
O O7 0.510123 0.714735 0.882591
O O8 0.927782 0.178656 0.295988
O O9 0.079299 0.185016 0.120573
O O10 0.059973 0.149460 0.431270
O O11 0.524943 0.100703 0.448556
O O12 0.000000 0.000000 0.500000
O O13 0.604615 0.123144 0.072870
O O14 0.622259 0.241068 0.957403
O O15 0.500000 0.500000 0.500000
#
# Coordination Sequence:
#
# PCOD9250664 Si02
#       7
#     4   4   4   4   4   4   4
#     4  11  26  43  71 103 134 188 231 286 350 415
#     4  11  24  44  71  98 145 178 237 284 353 403
#     4  11  24  46  68 100 145 181 233 289 344 416
#     4  11  24  44  67 100 136 175 229 288 343 411
#     4  10  24  45  67 101 140 181 229 292 344 409
#     4  11  25  40  69 100 130 186 223 277 352 411
#     4  11  25  46  68  99 141 180 235 293 345 409
#
# _framework density 25.131656
#
# number of rings (size 3 to 8) (size 9 to 14) (size 15 to 20)
#    0.000    1.143    2.857    1.714    6.000    3.429 
#    2.571    0.000    0.000    0.000    0.000    0.000 
#    0.000    0.000    0.000    0.000    0.000    0.000 
#
# Total GULP energy -156735.772179 kJ/mol
# GULP energy per Si atom -5597.706149 kJ/mol
# Density = 2.507446 g / cm^3
# Si number density = 25.131656 Si / 1000 Ang^3
#
#
#
# Elastic Constant Matrix: (Units=GPa)
#
#
# Indices 1 2 3 4 5 6 
#
# 1 78.7048 5.6316 12.8302 0.0000 11.0791 0.0000
# 2 5.6316 114.2054 22.5272 0.0000 0.6041 0.0000
# 3 12.8302 22.5272 77.2179 0.0000 10.6859 0.0000
# 4 0.0000 0.0000 0.0000 37.2119 0.0000 8.5964
# 5 11.0791 0.6041 10.6859 0.0000 36.0058 0.0000
# 6 0.0000 0.0000 0.0000 8.5964 0.0000 26.1428
#
#
#
# Elastic Compliance Matrix: (Units=1/GPa)
#
#
# Indices 1 2 3 4 5 6 
#
# 1 0.013513 -0.000323 -0.001644 0.000000 -0.003665 0.000000
# 2 -0.000323 0.009314 -0.002770 0.000000 0.000765 0.000000
# 3 -0.001644 -0.002770 0.014553 0.000000 -0.003767 0.000000
# 4 0.000000 0.000000 0.000000 0.029082 0.000000 -0.009563
# 5 -0.003665 0.000765 -0.003767 0.000000 0.030006 0.000000
# 6 0.000000 0.000000 0.000000 -0.009563 0.000000 0.041396
#
#
# Mechanical properties :
#
#
# Convention : Reuss Voigt Hill
#
# Bulk Modulus (GPa) = 35.83285 39.12290 37.47788
# Shear Modulus (GPa) = 31.92056 35.14804 33.53430
#
# Velocity S-wave (km/s) = 3.56776 3.74378 3.65683
# Velocity P-wave (km/s) = 5.59114 5.85567 5.72494
#
# Compressibility (1/GPa) = 0.02790735
#
# Stress axis : x y z
#
# Youngs Moduli (GPa) = 74.00480 107.36156 68.71549
#
# Poissons Ratio (x) = 0.03464 0.11296
# Poissons Ratio (y) = 0.02388 0.19031
# Poissons Ratio (z) = 0.12166 0.29735
#
# Static dielectric constant tensor:
#      x y z
#    x 2.021990 0.000000 -0.039270 
#    y 0.000000 1.990630 0.000000 
#    z -0.039270 0.000000 2.048070 
# 
# From -- ./inp_files/53395.got.cif
#   From: 2010.05.17/outbox.cif.g08.bks.cpg/sg14_27_cif.got.tgz:53395.got - 2010.06.03 17:49:19.
