data_PCOD9250274
_publ_section_title
;
Structure prediction by ZEFSAII (Michael W. Deem and Ramdas Pophale) SiO2 
 PCOD9250274
Probable space group: P 21/C
;
_chemical_formula_sum "Si O2"
_cell_formula_units_Z 32
_cell_length_a 8.747135
_cell_length_b 13.825171
_cell_length_c 14.998707
_cell_angle_alpha 90.000000
_cell_angle_beta 117.818236
_cell_angle_gamma 90.000000
_cell_volume 1604.186474
_symmetry_space_group_name_H-M "P 21/C"
_symmetry_group_IT_number 14
_symmetry_cell_setting 'monoclinic'
loop_
_space_group_symop_operation_xyz
x,y,z
-x,1/2+y,1/2-z
-x,-y,-z
x,1/2-y,1/2+z
loop_
_atom_site_type_symbol
_atom_site_label
_atom_site_fract_x
_atom_site_fract_y
_atom_site_fract_z
Si Si1 0.371458 0.281659 0.506928
Si Si2 0.747214 0.367074 0.657515
Si Si3 0.982393 0.004668 0.102977
Si Si4 0.265575 0.147730 0.156358
Si Si5 0.892315 0.349005 0.226653
Si Si6 0.492454 0.928941 0.415637
Si Si7 0.733356 0.671864 0.719960
Si Si8 0.592377 0.487096 0.758090
O O1 0.556382 0.335008 0.571557
O O2 0.242990 0.321816 0.547697
O O3 0.409857 0.170174 0.536484
O O4 0.296207 0.295256 0.388863
O O5 0.813279 0.449584 0.605244
O O6 0.849689 0.265987 0.703684
O O7 0.733804 0.418050 0.750860
O O8 0.110863 0.092945 0.160992
O O9 0.046511 0.905230 0.166272
O O10 0.000000 0.000000 0.000000
O O11 0.309954 0.242091 0.224559
O O12 0.417332 0.070624 0.197433
O O13 0.709160 0.400976 0.156121
O O14 0.066214 0.360742 0.214090
O O15 0.500000 0.000000 0.500000
O O16 0.587901 0.980351 0.358891
O O17 0.605350 0.584810 0.705806
#
# Coordination Sequence:
#
# PCOD9250274 Si02
#       8
#     4   4   4   4   4   4   4   4
#     4  10  24  40  64  97 130 174 228 274 326 411
#     4  10  24  43  64  99 134 171 226 275 340 402
#     4  12  24  41  68 100 133 176 220 281 340 404
#     4  11  23  40  65  96 132 170 225 275 334 405
#     4  11  24  46  66  97 140 173 221 280 333 398
#     4  11  23  45  67  98 132 177 227 270 334 404
#     4  12  23  43  69  93 134 180 218 283 340 390
#     4  11  23  41  68  94 130 178 219 274 337 396
#
# _framework density 19.947806
#
# number of rings (size 3 to 8) (size 9 to 14) (size 15 to 20)
#    0.000    1.000    5.000    1.500    1.750    1.000 
#    4.500    0.625    0.000    0.000    0.000    0.000 
#    0.000    0.000    0.000    0.000    0.000    0.000 
#
# Total GULP energy -178302.868637 kJ/mol
# GULP energy per Si atom -5571.964645 kJ/mol
# Density = 1.990240 g / cm^3
# Si number density = 19.947806 Si / 1000 Ang^3
#
#
#
# Elastic Constant Matrix: (Units=GPa)
#
#
# Indices 1 2 3 4 5 6 
#
# 1 68.9741 30.8600 20.3066 0.0000 -16.8415 0.0000
# 2 30.8600 90.8344 38.9852 0.0000 -10.1773 0.0000
# 3 20.3066 38.9852 90.3319 0.0000 -27.7307 0.0000
# 4 0.0000 0.0000 0.0000 21.5274 0.0000 -8.5260
# 5 -16.8415 -10.1773 -27.7307 0.0000 34.9479 0.0000
# 6 0.0000 0.0000 0.0000 -8.5260 0.0000 24.4729
#
#
#
# Elastic Compliance Matrix: (Units=1/GPa)
#
#
# Indices 1 2 3 4 5 6 
#
# 1 0.018830 -0.005814 0.000717 0.000000 0.007950 0.000000
# 2 -0.005814 0.015329 -0.006344 0.000000 -0.003371 0.000000
# 3 0.000717 -0.006344 0.017432 0.000000 0.012330 0.000000
# 4 0.000000 0.000000 0.000000 0.053888 0.000000 0.018774
# 5 0.007950 -0.003371 0.012330 0.000000 0.041247 0.000000
# 6 0.000000 0.000000 0.000000 0.018774 0.000000 0.047402
#
#
# Mechanical properties :
#
#
# Convention : Reuss Voigt Hill
#
# Bulk Modulus (GPa) = 34.83239 47.82711 41.32975
# Shear Modulus (GPa) = 22.06731 26.85555 24.46143
#
# Velocity S-wave (km/s) = 3.32965 3.67316 3.50562
# Velocity P-wave (km/s) = 5.68170 6.48211 6.09506
#
# Compressibility (1/GPa) = 0.02870891
#
# Stress axis : x y z
#
# Youngs Moduli (GPa) = 53.10806 65.23491 57.36511
#
# Poissons Ratio (x) = 0.37928 -0.04112
# Poissons Ratio (y) = 0.30877 0.36391
# Poissons Ratio (z) = -0.03807 0.41383
#
# Static dielectric constant tensor:
#      x y z
#    x 1.767200 0.000000 -0.010140 
#    y 0.000000 1.663590 0.000000 
#    z -0.010140 0.000000 1.685780 
# 
# From -- ./inp_files/25557.got.cif
#   From: 2010.05.17/outbox.cif.g08.bks.cpg/sg14_13_cif.got.tgz:25557.got - 2010.06.03 17:49:19.
