data_PCOD9250094
_publ_section_title
;
Structure prediction by ZEFSAII (Michael W. Deem and Ramdas Pophale) SiO2 
 PCOD9250094
Probable space group: P 21/C
;
_chemical_formula_sum "Si O2"
_cell_formula_units_Z 20
_cell_length_a 9.768623
_cell_length_b 15.189440
_cell_length_c 9.832950
_cell_angle_alpha 90.000000
_cell_angle_beta 30.194612
_cell_angle_gamma 90.000000
_cell_volume 733.793687
_symmetry_space_group_name_H-M "P 21/C"
_symmetry_group_IT_number 14
_symmetry_cell_setting 'monoclinic'
loop_
_space_group_symop_operation_xyz
x,y,z
-x,1/2+y,1/2-z
-x,-y,-z
x,1/2-y,1/2+z
loop_
_atom_site_type_symbol
_atom_site_label
_atom_site_fract_x
_atom_site_fract_y
_atom_site_fract_z
Si Si1 0.891437 0.343746 0.099510
Si Si2 0.302602 0.074958 0.059761
Si Si3 0.520156 0.071894 0.272966
Si Si4 0.264918 0.759570 0.001574
Si Si5 0.191053 0.581296 0.196375
O O1 0.579718 0.372009 0.337926
O O2 0.902775 0.313002 0.242259
O O3 0.921551 0.263586 0.967364
O O4 0.109642 0.412694 0.855907
O O5 0.112085 0.101309 0.095189
O O6 0.383505 0.977156 0.946649
O O7 0.501074 0.174434 0.251298
O O8 0.746531 0.069413 0.199311
O O9 0.289296 0.007544 0.533587
O O10 0.347242 0.668750 0.006948
#
# Coordination Sequence:
#
# PCOD9250094 Si02
#       5
#     4   4   4   4   4
#     4  11  26  47  72 102 151 181 248 292 364 419
#     4  11  23  48  68 105 143 190 238 300 346 435
#     4  11  22  45  77 103 150 191 242 293 367 424
#     4  11  23  48  71 110 142 198 234 305 354 434
#     4  10  23  46  71 111 147 192 243 295 357 441
#
# _framework density 27.255616
#
# number of rings (size 3 to 8) (size 9 to 14) (size 15 to 20)
#    0.000    1.200    6.000    0.600    0.000    4.800 
#   10.800    0.000    0.000    0.000    0.000    0.000 
#    0.000    0.000    0.000    0.000    0.000    0.000 
#
# Total GULP energy -111932.475622 kJ/mol
# GULP energy per Si atom -5596.623781 kJ/mol
# Density = 2.719358 g / cm^3
# Si number density = 27.255616 Si / 1000 Ang^3
#
#
#
# Elastic Constant Matrix: (Units=GPa)
#
#
# Indices 1 2 3 4 5 6 
#
# 1 115.1557 35.9114 76.1804 0.0000 2.3212 0.0000
# 2 35.9114 139.3344 52.2593 0.0000 1.2878 0.0000
# 3 76.1804 52.2593 152.5968 0.0000 -6.6700 0.0000
# 4 0.0000 0.0000 0.0000 23.4425 0.0000 17.4288
# 5 2.3212 1.2878 -6.6700 0.0000 54.9689 0.0000
# 6 0.0000 0.0000 0.0000 17.4288 0.0000 51.0106
#
#
#
# Elastic Compliance Matrix: (Units=1/GPa)
#
#
# Indices 1 2 3 4 5 6 
#
# 1 0.013192 -0.001029 -0.006290 0.000000 -0.001296 0.000000
# 2 -0.001029 0.008331 -0.002359 0.000000 -0.000438 0.000000
# 3 -0.006290 -0.002359 0.010571 0.000000 0.001604 0.000000
# 4 0.000000 0.000000 0.000000 0.057183 0.000000 -0.019538
# 5 -0.001296 -0.000438 0.001604 0.000000 0.018452 0.000000
# 6 0.000000 0.000000 0.000000 -0.019538 0.000000 0.026279
#
#
# Mechanical properties :
#
#
# Convention : Reuss Voigt Hill
#
# Bulk Modulus (GPa) = 78.49887 81.75433 80.12660
# Shear Modulus (GPa) = 31.72395 42.06679 36.89537
#
# Velocity S-wave (km/s) = 3.41536 3.93290 3.68323
# Velocity P-wave (km/s) = 6.66456 7.11928 6.89567
#
# Compressibility (1/GPa) = 0.01273904
#
# Stress axis : x y z
#
# Youngs Moduli (GPa) = 75.80309 120.03651 94.59639
#
# Poissons Ratio (x) = 0.12350 0.59502
# Poissons Ratio (y) = 0.07799 0.22311
# Poissons Ratio (z) = 0.47681 0.28311
#
# Static dielectric constant tensor:
#      x y z
#    x 2.115430 0.000000 -0.002970 
#    y 0.000000 2.261770 0.000000 
#    z -0.002970 0.000000 2.158580 
# 
# From -- ./inp_files/29972.got.cif
#   From: 2010.05.17/outbox.cif.g08.bks.cpg/sg14_15_cif.got.tgz:29972.got - 2010.06.03 17:49:19.
