data_PCOD9250324
_publ_section_title
;
Structure prediction by ZEFSAII (Michael W. Deem and Ramdas Pophale) SiO2 
 PCOD9250324
Probable space group: P 21/C
;
_chemical_formula_sum "Si O2"
_cell_formula_units_Z 24
_cell_length_a 19.441840
_cell_length_b 8.698729
_cell_length_c 9.942384
_cell_angle_alpha 90.000000
_cell_angle_beta 34.200856
_cell_angle_gamma 90.000000
_cell_volume 945.135309
_symmetry_space_group_name_H-M "P 21/C"
_symmetry_group_IT_number 14
_symmetry_cell_setting 'monoclinic'
loop_
_space_group_symop_operation_xyz
x,y,z
-x,1/2+y,1/2-z
-x,-y,-z
x,1/2-y,1/2+z
loop_
_atom_site_type_symbol
_atom_site_label
_atom_site_fract_x
_atom_site_fract_y
_atom_site_fract_z
Si Si1 0.522190 0.457375 0.805213
Si Si2 0.955257 0.877565 0.959262
Si Si3 0.757438 0.634365 0.382645
Si Si4 0.368593 0.386803 0.814737
Si Si5 0.143558 0.611992 0.595487
Si Si6 0.631558 0.294642 0.274373
O O1 0.619091 0.571570 0.573381
O O2 0.399583 0.433276 0.918884
O O3 0.591087 0.293709 0.704321
O O4 0.500000 0.500000 0.000000
O O5 0.843078 0.757004 0.168969
O O6 0.064026 0.760538 0.752686
O O7 0.920097 0.988196 0.894705
O O8 0.000000 0.000000 0.000000
O O9 0.718730 0.744187 0.569759
O O10 0.827099 0.482660 0.315865
O O11 0.502990 0.335543 0.550143
O O12 0.313639 0.537850 0.837860
O O13 0.268920 0.678712 0.328035
#
# Coordination Sequence:
#
# PCOD9250324 Si02
#       6
#     4   4   4   4   4   4
#     4  11  23  41  64 101 146 188 239 292 361 441
#     4  12  27  49  76 102 143 189 247 309 373 434
#     4  11  25  42  73 100 141 190 237 302 367 424
#     4  11  23  41  68 105 145 188 238 287 369 442
#     4  11  27  48  73 106 142 182 252 303 370 441
#     4  10  24  41  66 103 144 186 232 297 361 439
#
# _framework density 25.393190000000001
#
# number of rings (size 3 to 8) (size 9 to 14) (size 15 to 20)
#    0.000    1.000    1.667    3.500    4.667    6.667 
#    0.000    0.000    0.000    0.000    0.000    0.000 
#    0.000    0.000    0.000    0.000    0.000    0.000 
#
# Total GULP energy -133920.089216 kJ/mol
# GULP energy per Si atom -5580.003717 kJ/mol
# Density = 2.533539 g / cm^3
# Si number density = 25.393190 Si / 1000 Ang^3
#
#
#
# Elastic Constant Matrix: (Units=GPa)
#
#
# Indices 1 2 3 4 5 6 
#
# 1 73.2735 36.0940 22.5002 0.0000 -7.1896 0.0000
# 2 36.0940 195.8660 64.7137 0.0000 -13.6499 0.0000
# 3 22.5002 64.7137 100.4534 0.0000 -18.1650 0.0000
# 4 0.0000 0.0000 0.0000 75.6245 0.0000 -14.7693
# 5 -7.1896 -13.6499 -18.1650 0.0000 21.9770 0.0000
# 6 0.0000 0.0000 0.0000 -14.7693 0.0000 44.6443
#
#
#
# Elastic Compliance Matrix: (Units=1/GPa)
#
#
# Indices 1 2 3 4 5 6 
#
# 1 0.015438 -0.002133 -0.001658 0.000000 0.002355 0.000000
# 2 -0.002133 0.006789 -0.003832 0.000000 0.000351 0.000000
# 3 -0.001658 -0.003832 0.014422 0.000000 0.008998 0.000000
# 4 0.000000 0.000000 0.000000 0.014137 0.000000 0.004677
# 5 0.002355 0.000351 0.008998 0.000000 0.053928 0.000000
# 6 0.000000 0.000000 0.000000 0.004677 0.000000 0.023946
#
#
# Mechanical properties :
#
#
# Convention : Reuss Voigt Hill
#
# Bulk Modulus (GPa) = 46.72227 68.46762 57.59494
# Shear Modulus (GPa) = 33.10327 44.86816 38.98571
#
# Velocity S-wave (km/s) = 3.61450 4.20805 3.92252
# Velocity P-wave (km/s) = 5.98823 7.11560 6.57612
#
# Compressibility (1/GPa) = 0.02140307
#
# Stress axis : x y z
#
# Youngs Moduli (GPa) = 64.77340 147.28977 69.33718
#
# Poissons Ratio (x) = 0.31418 0.11496
# Poissons Ratio (y) = 0.13817 0.26573
# Poissons Ratio (z) = 0.10739 0.56449
#
# Static dielectric constant tensor:
#      x y z
#    x 2.066100 0.000000 0.047530 
#    y 0.000000 2.035660 0.000000 
#    z 0.047530 0.000000 2.121010 
# 
# From -- ./inp_files/35684.got.cif
#   From: 2010.05.17/outbox.cif.g08.bks.cpg/sg14_18_cif.got.tgz:35684.got - 2010.06.03 17:49:19.
