data_PCOD9250050
_publ_section_title
;
Structure prediction by ZEFSAII (Michael W. Deem and Ramdas Pophale) SiO2 
 PCOD9250050
Probable space group: P 21/C
;
_chemical_formula_sum "Si O2"
_cell_formula_units_Z 16
_cell_length_a 10.438277
_cell_length_b 7.472787
_cell_length_c 12.212328
_cell_angle_alpha 90.000000
_cell_angle_beta 39.414780
_cell_angle_gamma 90.000000
_cell_volume 604.833183
_symmetry_space_group_name_H-M "P 21/C"
_symmetry_group_IT_number 14
_symmetry_cell_setting 'monoclinic'
loop_
_space_group_symop_operation_xyz
x,y,z
-x,1/2+y,1/2-z
-x,-y,-z
x,1/2-y,1/2+z
loop_
_atom_site_type_symbol
_atom_site_label
_atom_site_fract_x
_atom_site_fract_y
_atom_site_fract_z
Si Si1 0.518018 0.789171 0.745849
Si Si2 0.859746 0.878886 0.379676
Si Si3 0.677964 0.019801 0.294945
Si Si4 0.715164 0.480796 0.413754
O O1 0.696033 0.924473 0.583047
O O2 0.646163 0.635224 0.724058
O O3 0.372638 0.795300 0.733973
O O4 0.354628 0.855828 0.940890
O O5 0.857286 0.980938 0.262200
O O6 0.785998 0.679846 0.399033
O O7 0.086321 0.897600 0.271525
O O8 0.500000 0.000000 0.500000
O O9 0.500000 0.500000 0.500000
#
# Coordination Sequence:
#
# PCOD9250050 Si02
#       4
#     4   4   4   4
#     4  11  23  48  74 110 154 202 248 322 381 447
#     4  11  27  46  73 116 148 207 256 314 384 460
#     4  10  23  45  75 112 152 198 260 313 377 463
#     4  12  27  48  76 111 157 200 258 321 379 462
#
# _framework density 26.453575000000001
#
# number of rings (size 3 to 8) (size 9 to 14) (size 15 to 20)
#    0.000    1.000    5.000    0.000    7.000    2.000 
#    4.500    0.000    0.000    0.000    0.000    0.000 
#    0.000    0.000    0.000    0.000    0.000    0.000 
#
# Total GULP energy -89069.170370 kJ/mol
# GULP energy per Si atom -5566.823148 kJ/mol
# Density = 2.639337 g / cm^3
# Si number density = 26.453575 Si / 1000 Ang^3
#
#
#
# Elastic Constant Matrix: (Units=GPa)
#
#
# Indices 1 2 3 4 5 6 
#
# 1 139.4671 15.9334 23.4330 0.0000 -21.3628 0.0000
# 2 15.9334 75.4273 -13.2711 0.0000 -1.3434 0.0000
# 3 23.4330 -13.2711 119.1367 0.0000 -33.6511 0.0000
# 4 0.0000 0.0000 0.0000 45.9023 0.0000 7.1809
# 5 -21.3628 -1.3434 -33.6511 0.0000 50.6070 0.0000
# 6 0.0000 0.0000 0.0000 7.1809 0.0000 42.7827
#
#
#
# Elastic Compliance Matrix: (Units=1/GPa)
#
#
# Indices 1 2 3 4 5 6 
#
# 1 0.007952 -0.001813 -0.001024 0.000000 0.002628 0.000000
# 2 -0.001813 0.014053 0.002230 0.000000 0.001091 0.000000
# 3 -0.001024 0.002230 0.010759 0.000000 0.006781 0.000000
# 4 0.000000 0.000000 0.000000 0.022373 0.000000 -0.003755
# 5 0.002628 0.001091 0.006781 0.000000 0.025407 0.000000
# 6 0.000000 0.000000 0.000000 -0.003755 0.000000 0.024004
#
#
# Mechanical properties :
#
#
# Convention : Reuss Voigt Hill
#
# Bulk Modulus (GPa) = 31.69609 42.91352 37.30481
# Shear Modulus (GPa) = 43.00040 48.38747 45.69393
#
# Velocity S-wave (km/s) = 4.03613 4.28149 4.16062
# Velocity P-wave (km/s) = 5.80760 6.37958 6.10030
#
# Compressibility (1/GPa) = 0.03154963
#
# Stress axis : x y z
#
# Youngs Moduli (GPa) = 125.75750 71.16133 92.94645
#
# Poissons Ratio (x) = 0.12902 0.09515
# Poissons Ratio (y) = 0.22801 -0.20727
# Poissons Ratio (z) = 0.12874 -0.15869
#
# Static dielectric constant tensor:
#      x y z
#    x 3.401910 0.000000 0.314920 
#    y 0.000000 1.048310 0.000000 
#    z 0.314920 0.000000 2.163940 
# 
# From -- ./inp_files/23326.got.cif
#   From: 2010.05.17/outbox.cif.g08.bks.cpg/sg14_12_cif.got.tgz:23326.got - 2010.06.03 17:49:19.
