data_PCOD9250703
_publ_section_title
;
Structure prediction by ZEFSAII (Michael W. Deem and Ramdas Pophale) SiO2 
 PCOD9250703
Probable space group: P 21/C
;
_chemical_formula_sum "Si O2"
_cell_formula_units_Z 22
_cell_length_a 12.329607
_cell_length_b 7.391088
_cell_length_c 14.083844
_cell_angle_alpha 90.000000
_cell_angle_beta 44.330573
_cell_angle_gamma 90.000000
_cell_volume 896.870820
_symmetry_space_group_name_H-M "P 21/C"
_symmetry_group_IT_number 14
_symmetry_cell_setting 'monoclinic'
loop_
_space_group_symop_operation_xyz
x,y,z
-x,1/2+y,1/2-z
-x,-y,-z
x,1/2-y,1/2+z
loop_
_atom_site_type_symbol
_atom_site_label
_atom_site_fract_x
_atom_site_fract_y
_atom_site_fract_z
Si Si1 0.480088 0.633616 0.144729
Si Si2 0.500000 0.000000 0.000000
Si Si3 0.825410 0.026073 0.439075
Si Si4 0.178961 0.034568 0.769823
Si Si5 0.079525 0.282816 0.499837
Si Si6 0.709952 0.402533 0.544168
O O1 0.360768 0.503019 0.163708
O O2 0.406461 0.648001 0.296669
O O3 0.647438 0.543643 0.053111
O O4 0.484886 0.820687 0.083723
O O5 0.378262 0.912983 0.000238
O O6 0.918992 0.911618 0.456008
O O7 0.878955 0.975474 0.300198
O O8 0.827540 0.236602 0.458570
O O9 0.142614 0.211807 0.853322
O O10 0.087078 0.876998 0.884003
O O11 0.199495 0.413883 0.483287
#
# Coordination Sequence:
#
# PCOD9250703 Si02
#       6
#     4   2   4   4   4   4
#     4  11  24  43  67 105 142 176 232 288 344 416
#     4  12  22  42  68 100 140 182 220 298 346 402
#     4  12  24  41  74  99 132 183 230 280 344 412
#     4  10  24  45  71  97 143 181 232 281 355 413
#     4  10  25  49  65  99 142 182 221 299 336 418
#     4  11  25  43  69 104 137 178 237 281 350 418
#
# _framework density 24.529731000000002
#
# number of rings (size 3 to 8) (size 9 to 14) (size 15 to 20)
#    0.000    1.091    3.636    1.636    5.091    1.455 
#    0.000    8.182    0.000    0.000    0.000    0.000 
#    0.000    0.000    0.000    0.000    0.000    0.000 
#
# Total GULP energy -122754.574087 kJ/mol
# GULP energy per Si atom -5579.753368 kJ/mol
# Density = 2.447390 g / cm^3
# Si number density = 24.529731 Si / 1000 Ang^3
#
#
#
# Elastic Constant Matrix: (Units=GPa)
#
#
# Indices 1 2 3 4 5 6 
#
# 1 90.6232 20.4523 7.3253 0.0000 6.1692 0.0000
# 2 20.4523 87.0185 -3.9689 0.0000 2.8841 0.0000
# 3 7.3253 -3.9689 61.5569 0.0000 -2.0268 0.0000
# 4 0.0000 0.0000 0.0000 12.9284 0.0000 9.3800
# 5 6.1692 2.8841 -2.0268 0.0000 37.2424 0.0000
# 6 0.0000 0.0000 0.0000 9.3800 0.0000 44.3523
#
#
#
# Elastic Compliance Matrix: (Units=1/GPa)
#
#
# Indices 1 2 3 4 5 6 
#
# 1 0.011931 -0.002819 -0.001662 0.000000 -0.001849 0.000000
# 2 -0.002819 0.012219 0.001109 0.000000 -0.000419 0.000000
# 3 -0.001662 0.001109 0.016550 0.000000 0.001090 0.000000
# 4 0.000000 0.000000 0.000000 0.091369 0.000000 -0.019324
# 5 -0.001849 -0.000419 0.001090 0.000000 0.027249 0.000000
# 6 0.000000 0.000000 0.000000 -0.019324 0.000000 0.026633
#
#
# Mechanical properties :
#
#
# Convention : Reuss Voigt Hill
#
# Bulk Modulus (GPa) = 29.44917 31.86844 30.65880
# Shear Modulus (GPa) = 24.50810 33.26395 28.88603
#
# Velocity S-wave (km/s) = 3.16431 3.68648 3.43533
# Velocity P-wave (km/s) = 5.03806 5.58033 5.31612
#
# Compressibility (1/GPa) = 0.03395682
#
# Stress axis : x y z
#
# Youngs Moduli (GPa) = 83.81477 81.84116 60.42159
#
# Poissons Ratio (x) = 0.23069 0.10044
# Poissons Ratio (y) = 0.23625 -0.06703
# Poissons Ratio (z) = 0.13933 -0.09080
#
# Static dielectric constant tensor:
#      x y z
#    x 1.912390 0.000000 0.025710 
#    y 0.000000 1.943850 0.000000 
#    z 0.025710 0.000000 1.984310 
# 
# From -- ./inp_files/43003.got.cif
#   From: 2010.05.17/outbox.cif.g08.bks.cpg/sg14_22_cif.got.tgz:43003.got - 2010.06.03 17:49:19.
