data_PCOD9250608
_publ_section_title
;
Structure prediction by ZEFSAII (Michael W. Deem and Ramdas Pophale) SiO2 
 PCOD9250608
Probable space group: P 21/C
;
_chemical_formula_sum "Si O2"
_cell_formula_units_Z 22
_cell_length_a 9.206604
_cell_length_b 5.014425
_cell_length_c 22.458376
_cell_angle_alpha 90.000000
_cell_angle_beta 65.473509
_cell_angle_gamma 90.000000
_cell_volume 943.257562
_symmetry_space_group_name_H-M "P 21/C"
_symmetry_group_IT_number 14
_symmetry_cell_setting 'monoclinic'
loop_
_space_group_symop_operation_xyz
x,y,z
-x,1/2+y,1/2-z
-x,-y,-z
x,1/2-y,1/2+z
loop_
_atom_site_type_symbol
_atom_site_label
_atom_site_fract_x
_atom_site_fract_y
_atom_site_fract_z
Si Si1 0.000000 0.000000 0.500000
Si Si2 0.096924 0.377077 0.251436
Si Si3 0.354835 0.553709 0.113056
Si Si4 0.737888 0.560902 0.448721
Si Si5 0.103863 0.057487 0.889383
Si Si6 0.324274 0.764312 0.433819
O O1 0.909686 0.813736 0.566851
O O2 0.171622 0.890243 0.491630
O O3 0.245428 0.482380 0.188193
O O4 0.122833 0.375369 0.317448
O O5 0.955729 0.586588 0.261444
O O6 0.299012 0.834988 0.095021
O O7 0.535821 0.474372 0.099179
O O8 0.318789 0.337456 0.068163
O O9 0.642825 0.472102 0.524047
O O10 0.930971 0.591311 0.428218
O O11 0.246778 0.872470 0.888855
#
# Coordination Sequence:
#
# PCOD9250608 Si02
#       6
#     2   4   4   4   4   4
#     4  10  24  44  70 100 144 178 234 288 376 418
#     4  12  25  47  73  99 138 193 240 285 357 440
#     4  12  25  47  69 108 139 189 237 297 348 434
#     4  11  24  44  75  99 142 181 237 289 363 421
#     4  11  25  44  73 100 141 189 239 291 362 431
#     4  11  27  41  71 106 142 182 235 302 363 416
#
# _framework density 23.323428
#
# number of rings (size 3 to 8) (size 9 to 14) (size 15 to 20)
#    0.000    0.727    3.636    3.273   15.273    0.000 
#    3.273    0.000    0.000    0.000    0.000    0.000 
#    0.000    0.000    0.000    0.000    0.000    0.000 
#
# Total GULP energy -122727.409281 kJ/mol
# GULP energy per Si atom -5578.518604 kJ/mol
# Density = 2.327034 g / cm^3
# Si number density = 23.323428 Si / 1000 Ang^3
#
#
#
# Elastic Constant Matrix: (Units=GPa)
#
#
# Indices 1 2 3 4 5 6 
#
# 1 96.7405 21.2385 41.3429 0.0000 9.0901 0.0000
# 2 21.2385 84.0683 10.2014 0.0000 16.4805 0.0000
# 3 41.3429 10.2014 98.0039 0.0000 11.6988 0.0000
# 4 0.0000 0.0000 0.0000 27.6742 0.0000 -5.9156
# 5 9.0901 16.4805 11.6988 0.0000 43.2171 0.0000
# 6 0.0000 0.0000 0.0000 -5.9156 0.0000 18.8947
#
#
#
# Elastic Compliance Matrix: (Units=1/GPa)
#
#
# Indices 1 2 3 4 5 6 
#
# 1 0.013190 -0.002626 -0.005249 0.000000 -0.000352 0.000000
# 2 -0.002626 0.013437 0.000263 0.000000 -0.004643 0.000000
# 3 -0.005249 0.000263 0.012680 0.000000 -0.002429 0.000000
# 4 0.000000 0.000000 0.000000 0.038727 0.000000 0.012125
# 5 -0.000352 -0.004643 -0.002429 0.000000 0.025641 0.000000
# 6 0.000000 0.000000 0.000000 0.012125 0.000000 0.056721
#
#
# Mechanical properties :
#
#
# Convention : Reuss Voigt Hill
#
# Bulk Modulus (GPa) = 41.52156 47.15312 44.33734
# Shear Modulus (GPa) = 27.22626 31.69252 29.45939
#
# Velocity S-wave (km/s) = 3.42034 3.69023 3.55784
# Velocity P-wave (km/s) = 5.78268 6.19822 5.99406
#
# Compressibility (1/GPa) = 0.02408387
#
# Stress axis : x y z
#
# Youngs Moduli (GPa) = 75.81714 74.42261 78.86218
#
# Poissons Ratio (x) = 0.19545 0.41392
# Poissons Ratio (y) = 0.19911 -0.02078
# Poissons Ratio (z) = 0.39794 -0.01961
#
# Static dielectric constant tensor:
#      x y z
#    x 1.949900 0.000000 -0.005350 
#    y 0.000000 1.982960 0.000000 
#    z -0.005350 0.000000 1.854540 
# 
# From -- ./inp_files/64138.got.cif
#   From: 2010.05.17/outbox.cif.g08.bks.cpg/sg14_33_cif.got.tgz:64138.got - 2010.06.03 17:49:19.
