data_PCOD9250481
_publ_section_title
;
Structure prediction by ZEFSAII (Michael W. Deem and Ramdas Pophale) SiO2 
 PCOD9250481
Probable space group: P 21/C
;
_chemical_formula_sum "Si O2"
_cell_formula_units_Z 20
_cell_length_a 7.316718
_cell_length_b 21.534397
_cell_length_c 4.895056
_cell_angle_alpha 90.000000
_cell_angle_beta 69.196622
_cell_angle_gamma 90.000000
_cell_volume 720.987279
_symmetry_space_group_name_H-M "P 21/C"
_symmetry_group_IT_number 14
_symmetry_cell_setting 'monoclinic'
loop_
_space_group_symop_operation_xyz
x,y,z
-x,1/2+y,1/2-z
-x,-y,-z
x,1/2-y,1/2+z
loop_
_atom_site_type_symbol
_atom_site_label
_atom_site_fract_x
_atom_site_fract_y
_atom_site_fract_z
Si Si1 0.333830 0.085839 0.690165
Si Si2 0.134291 0.787225 0.265195
Si Si3 0.660920 0.787352 0.577586
Si Si4 0.897084 0.407828 0.551658
Si Si5 0.283504 0.968949 0.333732
O O1 0.410106 0.147943 0.504268
O O2 0.495935 0.056562 0.801079
O O3 0.129404 0.100883 0.942416
O O4 0.291050 0.035278 0.476921
O O5 0.194758 0.770114 0.538009
O O6 0.186265 0.849041 0.072483
O O7 0.897559 0.790359 0.424421
O O8 0.605572 0.770656 0.913966
O O9 0.834332 0.464218 0.383985
O O10 0.817805 0.423434 0.890295
#
# Coordination Sequence:
#
# PCOD9250481 Si02
#       5
#     4   4   4   4   4
#     4  10  24  43  66  91 130 164 203 265 307 364
#     4   9  17  33  57  84 118 160 202 251 306 359
#     4   9  19  35  59  87 116 159 204 245 307 365
#     4  11  23  41  64  92 126 165 210 256 311 371
#     4  11  25  41  64  97 124 164 213 249 313 376
#
# _framework density 27.739740000000001
#
# number of rings (size 3 to 8) (size 9 to 14) (size 15 to 20)
#    0.000    2.000    0.000    2.400    0.000   12.800 
#    0.000    6.000    0.000    0.000    0.000    0.000 
#    0.000    0.000    0.000    0.000    0.000    0.000 
#
# Total GULP energy -112298.130416 kJ/mol
# GULP energy per Si atom -5614.906521 kJ/mol
# Density = 2.767660 g / cm^3
# Si number density = 27.739740 Si / 1000 Ang^3
#
#
#
# Elastic Constant Matrix: (Units=GPa)
#
#
# Indices 1 2 3 4 5 6 
#
# 1 119.5151 -3.5144 21.0922 0.0000 -17.6195 0.0000
# 2 -3.5144 100.4330 -4.2902 0.0000 0.2001 0.0000
# 3 21.0922 -4.2902 135.2936 0.0000 12.1671 0.0000
# 4 0.0000 0.0000 0.0000 24.9751 0.0000 1.4732
# 5 -17.6195 0.2001 12.1671 0.0000 40.3442 0.0000
# 6 0.0000 0.0000 0.0000 1.4732 0.0000 39.0671
#
#
#
# Elastic Compliance Matrix: (Units=1/GPa)
#
#
# Indices 1 2 3 4 5 6 
#
# 1 0.009393 0.000239 -0.001877 0.000000 0.004667 0.000000
# 2 0.000239 0.009977 0.000282 0.000000 -0.000030 0.000000
# 3 -0.001877 0.000282 0.007983 0.000000 -0.003229 0.000000
# 4 0.000000 0.000000 0.000000 0.040129 0.000000 -0.001513
# 5 0.004667 -0.000030 -0.003229 0.000000 0.027799 0.000000
# 6 0.000000 0.000000 0.000000 -0.001513 0.000000 0.025654
#
#
# Mechanical properties :
#
#
# Convention : Reuss Voigt Hill
#
# Bulk Modulus (GPa) = 40.57970 42.42409 41.50189
# Shear Modulus (GPa) = 37.91863 43.67422 40.79643
#
# Velocity S-wave (km/s) = 3.70123 3.97221 3.83911
# Velocity P-wave (km/s) = 5.73811 6.03032 5.88603
#
# Compressibility (1/GPa) = 0.02464286
#
# Stress axis : x y z
#
# Youngs Moduli (GPa) = 106.45766 100.22693 125.26354
#
# Poissons Ratio (x) = -0.02398 0.23506
# Poissons Ratio (y) = -0.02547 -0.03530
# Poissons Ratio (z) = 0.19977 -0.02824
#
# Static dielectric constant tensor:
#      x y z
#    x 2.137580 0.000000 -0.063740 
#    y 0.000000 2.199430 0.000000 
#    z -0.063740 0.000000 2.042890 
# 
# From -- ./inp_files/1390.got.cif
#   From: 2010.05.17/outbox.cif.g08.bks.cpg/sg14_1_cif.got.tgz:1390.got - 2010.06.03 17:49:19.
