data_PCOD9250061
_publ_section_title
;
Structure prediction by ZEFSAII (Michael W. Deem and Ramdas Pophale) SiO2 
 PCOD9250061
Probable space group: P 21/C
;
_chemical_formula_sum "Si O2"
_cell_formula_units_Z 22
_cell_length_a 14.085847
_cell_length_b 5.443408
_cell_length_c 25.179748
_cell_angle_alpha 90.000000
_cell_angle_beta 153.388638
_cell_angle_gamma 90.000000
_cell_volume 864.811752
_symmetry_space_group_name_H-M "P 21/C"
_symmetry_group_IT_number 14
_symmetry_cell_setting 'monoclinic'
loop_
_space_group_symop_operation_xyz
x,y,z
-x,1/2+y,1/2-z
-x,-y,-z
x,1/2-y,1/2+z
loop_
_atom_site_type_symbol
_atom_site_label
_atom_site_fract_x
_atom_site_fract_y
_atom_site_fract_z
Si Si1 0.083577 0.760168 0.264779
Si Si2 0.531282 0.776130 0.628928
Si Si3 0.917357 0.016622 0.340733
Si Si4 0.500000 0.500000 0.000000
Si Si5 0.197358 0.874409 0.029400
Si Si6 0.264927 0.887276 0.182842
O O1 0.020306 0.714339 0.172142
O O2 0.334729 0.793731 0.393468
O O3 0.005447 0.519021 0.257433
O O4 0.766170 0.672551 0.733310
O O5 0.448180 0.904534 0.534826
O O6 0.363788 0.574289 0.566016
O O7 0.579072 0.957324 0.702369
O O8 0.759949 0.115143 0.307157
O O9 0.110634 0.891817 0.467266
O O10 0.306286 0.891863 0.141268
O O11 0.976468 0.017279 0.926994
#
# Coordination Sequence:
#
# PCOD9250061 Si02
#       6
#     4   4   4   2   4   4
#     4  12  28  49  79 110 158 208 258 320 390 465
#     4  11  25  43  71 107 148 194 249 317 385 457
#     4  11  24  45  69 105 143 187 254 315 371 471
#     4  12  26  50  72 116 152 202 260 320 382 480
#     4  10  24  44  73 100 143 195 245 309 398 437
#     4  10  23  46  66 105 142 186 253 311 366 476
#
# _framework density 25.439066
#
# number of rings (size 3 to 8) (size 9 to 14) (size 15 to 20)
#    0.000    1.091    1.818    2.727    7.636    4.364 
#    0.000    0.000    0.000    0.000    0.000    0.000 
#    0.000    0.000    0.000    0.000    0.000    0.000 
#
# Total GULP energy -122484.661024 kJ/mol
# GULP energy per Si atom -5567.484592 kJ/mol
# Density = 2.538117 g / cm^3
# Si number density = 25.439066 Si / 1000 Ang^3
#
#
#
# Elastic Constant Matrix: (Units=GPa)
#
#
# Indices 1 2 3 4 5 6 
#
# 1 148.6643 27.1250 42.7922 0.0000 -30.0365 0.0000
# 2 27.1250 64.9767 24.4038 0.0000 -3.2467 0.0000
# 3 42.7922 24.4038 97.0402 0.0000 -19.6047 0.0000
# 4 0.0000 0.0000 0.0000 31.2428 0.0000 -8.5908
# 5 -30.0365 -3.2467 -19.6047 0.0000 47.1977 0.0000
# 6 0.0000 0.0000 0.0000 -8.5908 0.0000 24.7700
#
#
#
# Elastic Compliance Matrix: (Units=1/GPa)
#
#
# Indices 1 2 3 4 5 6 
#
# 1 0.008758 -0.002563 -0.002322 0.000000 0.004433 0.000000
# 2 -0.002563 0.017764 -0.003733 0.000000 -0.001959 0.000000
# 3 -0.002322 -0.003733 0.013009 0.000000 0.003669 0.000000
# 4 0.000000 0.000000 0.000000 0.035382 0.000000 0.012271
# 5 0.004433 -0.001959 0.003669 0.000000 0.025398 0.000000
# 6 0.000000 0.000000 0.000000 0.012271 0.000000 0.044627
#
#
# Mechanical properties :
#
#
# Convention : Reuss Voigt Hill
#
# Bulk Modulus (GPa) = 44.85193 55.48037 50.16615
# Shear Modulus (GPa) = 29.48018 35.06611 32.27314
#
# Velocity S-wave (km/s) = 3.40789 3.71676 3.56567
# Velocity P-wave (km/s) = 5.75798 6.34630 6.05928
#
# Compressibility (1/GPa) = 0.02229559
#
# Stress axis : x y z
#
# Youngs Moduli (GPa) = 114.17932 56.29343 76.86942
#
# Poissons Ratio (x) = 0.14425 0.17850
# Poissons Ratio (y) = 0.29259 0.28697
# Poissons Ratio (z) = 0.26514 0.21015
#
# Static dielectric constant tensor:
#      x y z
#    x 1.958540 0.000000 0.096010 
#    y 0.000000 2.126580 0.000000 
#    z 0.096010 0.000000 2.071060 
# 
# From -- ./inp_files/73582.got.cif
#   From: 2010.05.17/outbox.cif.g08.bks.cpg/sg14_37_cif.got.tgz:73582.got - 2010.06.03 17:49:19.
