data_PCOD9250264
_publ_section_title
;
Structure prediction by ZEFSAII (Michael W. Deem and Ramdas Pophale) SiO2 
 PCOD9250264
Probable space group: P 21/C
;
_chemical_formula_sum "Si O2"
_cell_formula_units_Z 28
_cell_length_a 14.714623
_cell_length_b 12.148965
_cell_length_c 7.518914
_cell_angle_alpha 90.000000
_cell_angle_beta 120.729372
_cell_angle_gamma 90.000000
_cell_volume 1155.407313
_symmetry_space_group_name_H-M "P 21/C"
_symmetry_group_IT_number 14
_symmetry_cell_setting 'monoclinic'
loop_
_space_group_symop_operation_xyz
x,y,z
-x,1/2+y,1/2-z
-x,-y,-z
x,1/2-y,1/2+z
loop_
_atom_site_type_symbol
_atom_site_label
_atom_site_fract_x
_atom_site_fract_y
_atom_site_fract_z
Si Si1 0.121645 0.386485 0.934083
Si Si2 0.890373 0.154114 0.202334
Si Si3 0.621648 0.886488 0.809203
Si Si4 0.337693 0.602736 0.426626
Si Si5 0.750001 0.749998 0.687230
Si Si6 0.609623 0.154111 0.421578
Si Si7 0.162308 0.602733 0.751238
O O1 0.148256 0.287525 0.822552
O O2 0.131162 0.498247 0.835350
O O3 0.004423 0.375425 0.891641
O O4 0.212533 0.357097 0.166504
O O5 0.875622 0.285630 0.189784
O O6 0.789838 0.109012 0.208376
O O7 0.882067 0.107891 0.993103
O O8 0.712534 0.857094 0.758557
O O9 0.504425 0.875427 0.617205
O O10 0.631168 0.998251 0.926968
O O11 0.648258 0.787531 0.973962
O O12 0.382076 0.607890 0.271047
O O13 0.375622 0.714374 0.561464
O O14 0.710160 0.109006 0.628686
#
# Coordination Sequence:
#
# PCOD9250264 Si02
#       7
#     4   4   4   4   4   4   4
#     4  11  23  43  63  87 125 161 195 253 302 346
#     4  11  23  40  62  91 122 158 203 247 296 360
#     4  11  23  43  63  87 125 161 195 253 302 346
#     4  11  23  40  62  91 122 158 203 247 296 360
#     4  10  24  40  62  94 118 156 212 238 292 378
#     4  11  23  40  62  91 122 158 203 247 296 360
#     4  11  23  40  62  91 122 158 203 247 296 360
#
# _framework density 24.233879000000002
#
# number of rings (size 3 to 8) (size 9 to 14) (size 15 to 20)
#    0.000    1.143    0.000    7.714    0.000    4.571 
#    0.000    8.571    0.000    0.000    0.000    0.000 
#    0.000    0.000    0.000    0.000    0.000    0.000 
#
# Total GULP energy -156770.979094 kJ/mol
# GULP energy per Si atom -5598.963539 kJ/mol
# Density = 2.417872 g / cm^3
# Si number density = 24.233879 Si / 1000 Ang^3
#
#
#
# Elastic Constant Matrix: (Units=GPa)
#
#
# Indices 1 2 3 4 5 6 
#
# 1 97.4121 2.1418 6.3367 0.0000 29.2662 0.0000
# 2 2.1418 93.5842 1.6795 0.0000 0.5223 0.0000
# 3 6.3367 1.6795 55.2091 0.0000 18.3616 0.0000
# 4 0.0000 0.0000 0.0000 22.8398 0.0000 -6.1749
# 5 29.2662 0.5223 18.3616 0.0000 44.8744 0.0000
# 6 0.0000 0.0000 0.0000 -6.1749 0.0000 17.3665
#
#
#
# Elastic Compliance Matrix: (Units=1/GPa)
#
#
# Indices 1 2 3 4 5 6 
#
# 1 0.012884 -0.000272 0.001531 0.000000 -0.009026 0.000000
# 2 -0.000272 0.010697 -0.000361 0.000000 0.000201 0.000000
# 3 0.001531 -0.000361 0.021158 0.000000 -0.009652 0.000000
# 4 0.000000 0.000000 0.000000 0.048440 0.000000 0.017223
# 5 -0.009026 0.000201 -0.009652 0.000000 0.032118 0.000000
# 6 0.000000 0.000000 0.000000 0.017223 0.000000 0.063706
#
#
# Mechanical properties :
#
#
# Convention : Reuss Voigt Hill
#
# Bulk Modulus (GPa) = 21.48863 29.61350 25.55107
# Shear Modulus (GPa) = 24.66479 32.75263 28.70871
#
# Velocity S-wave (km/s) = 3.19373 3.68029 3.44561
# Velocity P-wave (km/s) = 4.74197 5.50507 5.13771
#
# Compressibility (1/GPa) = 0.04653624
#
# Stress axis : x y z
#
# Youngs Moduli (GPa) = 77.61709 93.48284 47.26282
#
# Poissons Ratio (x) = 0.02543 -0.07238
# Poissons Ratio (y) = 0.02111 0.01706
# Poissons Ratio (z) = -0.11886 0.03374
#
# Static dielectric constant tensor:
#      x y z
#    x 1.903410 0.000000 -0.053690 
#    y 0.000000 1.908340 0.000000 
#    z -0.053690 0.000000 1.950990 
# 
# From -- ./inp_files/15904.got.cif
#   From: 2010.05.17/outbox.cif.g08.bks.cpg/sg14_8_cif.got.tgz:15904.got - 2010.06.03 17:49:19.
