data_PCOD9250713
_publ_section_title
;
Structure prediction by ZEFSAII (Michael W. Deem and Ramdas Pophale) SiO2 
 PCOD9250713
Probable space group: P 21/C
;
_chemical_formula_sum "Si O2"
_cell_formula_units_Z 32
_cell_length_a 8.174922
_cell_length_b 16.349701
_cell_length_c 12.640865
_cell_angle_alpha 90.000000
_cell_angle_beta 120.735970
_cell_angle_gamma 90.000000
_cell_volume 1452.218839
_symmetry_space_group_name_H-M "P 21/C"
_symmetry_group_IT_number 14
_symmetry_cell_setting 'monoclinic'
loop_
_space_group_symop_operation_xyz
x,y,z
-x,1/2+y,1/2-z
-x,-y,-z
x,1/2-y,1/2+z
loop_
_atom_site_type_symbol
_atom_site_label
_atom_site_fract_x
_atom_site_fract_y
_atom_site_fract_z
Si Si1 0.519859 0.706280 0.529497
Si Si2 0.119171 0.884589 0.181072
Si Si3 0.782729 0.062131 0.361312
Si Si4 0.833152 0.012676 0.598011
Si Si5 0.735774 0.602454 0.436461
Si Si6 0.267774 0.362857 0.812368
Si Si7 0.472763 0.555686 0.666379
Si Si8 0.846468 0.297415 0.725955
O O1 0.645672 0.677728 0.470834
O O2 0.601696 0.788428 0.606873
O O3 0.534192 0.631300 0.615537
O O4 0.303083 0.713078 0.418452
O O5 0.087991 0.935125 0.278311
O O6 0.321120 0.910907 0.200598
O O7 0.116700 0.789494 0.208373
O O8 0.954914 0.903521 0.042554
O O9 0.756442 0.069449 0.478348
O O10 0.750274 0.142484 0.280655
O O11 0.649323 0.988451 0.279630
O O12 0.997067 0.037298 0.401642
O O13 0.700431 0.942988 0.604741
O O14 0.707958 0.614297 0.302237
O O15 0.632662 0.517313 0.432026
O O16 0.046911 0.334796 0.753807
#
# Coordination Sequence:
#
# PCOD9250713 Si02
#       8
#     4   4   4   4   4   4   4   4
#     4  12  27  46  74 106 149 184 241 296 361 422
#     4  12  26  45  74 106 142 189 239 290 361 425
#     4  10  24  45  73 101 146 185 237 292 357 422
#     4  10  24  46  73 102 140 192 236 288 357 427
#     4  12  25  48  73 104 142 187 240 295 353 428
#     4  11  26  48  72 105 147 187 237 298 352 423
#     4  12  26  43  76 104 139 191 234 295 353 429
#     4  11  26  47  69 108 143 188 236 300 354 422
#
# _framework density 22.035247999999999
#
# number of rings (size 3 to 8) (size 9 to 14) (size 15 to 20)
#    0.000    0.750    3.750    2.250    7.000    3.500 
#    0.000    0.000    0.000    0.000    0.000    0.000 
#    0.000    0.000    0.000    0.000    0.000    0.000 
#
# Total GULP energy -179151.733728 kJ/mol
# GULP energy per Si atom -5598.491679 kJ/mol
# Density = 2.198509 g / cm^3
# Si number density = 22.035248 Si / 1000 Ang^3
#
#
#
# Elastic Constant Matrix: (Units=GPa)
#
#
# Indices 1 2 3 4 5 6 
#
# 1 45.4512 32.9632 13.6325 0.0000 -13.7105 0.0000
# 2 32.9632 88.2473 53.3468 0.0000 -13.3120 0.0000
# 3 13.6325 53.3468 107.5316 0.0000 -17.6264 0.0000
# 4 0.0000 0.0000 0.0000 31.4218 0.0000 3.5303
# 5 -13.7105 -13.3120 -17.6264 0.0000 32.7687 0.0000
# 6 0.0000 0.0000 0.0000 3.5303 0.0000 33.6871
#
#
#
# Elastic Compliance Matrix: (Units=1/GPa)
#
#
# Indices 1 2 3 4 5 6 
#
# 1 0.033861 -0.013551 0.004222 0.000000 0.010934 0.000000
# 2 -0.013551 0.021794 -0.009401 0.000000 -0.001873 0.000000
# 3 0.004222 -0.009401 0.014358 0.000000 0.005671 0.000000
# 4 0.000000 0.000000 0.000000 0.032204 0.000000 -0.003375
# 5 0.010934 -0.001873 0.005671 0.000000 0.037381 0.000000
# 6 0.000000 0.000000 0.000000 -0.003375 0.000000 0.030039
#
#
# Mechanical properties :
#
#
# Convention : Reuss Voigt Hill
#
# Bulk Modulus (GPa) = 30.71935 49.01279 39.86607
# Shear Modulus (GPa) = 22.94113 28.99470 25.96791
#
# Velocity S-wave (km/s) = 3.23013 3.63138 3.43661
# Velocity P-wave (km/s) = 5.28042 6.31456 5.82051
#
# Compressibility (1/GPa) = 0.03255277
#
# Stress axis : x y z
#
# Youngs Moduli (GPa) = 29.53211 45.88341 69.64839
#
# Poissons Ratio (x) = 0.62179 -0.29408
# Poissons Ratio (y) = 0.40020 0.65479
# Poissons Ratio (z) = -0.12469 0.43136
#
# Static dielectric constant tensor:
#      x y z
#    x 1.834530 0.000000 0.002710 
#    y 0.000000 1.771060 0.000000 
#    z 0.002710 0.000000 1.797580 
# 
# From -- ./inp_files/25542.got.cif
#   From: 2010.05.17/outbox.cif.g08.bks.cpg/sg14_13_cif.got.tgz:25542.got - 2010.06.03 17:49:19.
