data_PCOD9250068
_publ_section_title
;
Structure prediction by ZEFSAII (Michael W. Deem and Ramdas Pophale) SiO2 
 PCOD9250068
Probable space group: P 21/C
;
_chemical_formula_sum "Si O2"
_cell_formula_units_Z 16
_cell_length_a 7.640549
_cell_length_b 13.129691
_cell_length_c 9.949102
_cell_angle_alpha 90.000000
_cell_angle_beta 40.085901
_cell_angle_gamma 90.000000
_cell_volume 642.695477
_symmetry_space_group_name_H-M "P 21/C"
_symmetry_group_IT_number 14
_symmetry_cell_setting 'monoclinic'
loop_
_space_group_symop_operation_xyz
x,y,z
-x,1/2+y,1/2-z
-x,-y,-z
x,1/2-y,1/2+z
loop_
_atom_site_type_symbol
_atom_site_label
_atom_site_fract_x
_atom_site_fract_y
_atom_site_fract_z
Si Si1 0.081075 0.445055 0.587724
Si Si2 0.763818 0.262994 0.726612
Si Si3 0.450817 0.634949 0.399066
Si Si4 0.941761 0.091468 0.436900
O O1 0.325582 0.520636 0.488436
O O2 0.859680 0.447954 0.838943
O O3 0.000000 0.500000 0.500000
O O4 0.051822 0.324535 0.568866
O O5 0.579387 0.337985 0.742251
O O6 0.765206 0.167680 0.625301
O O7 0.695709 0.214692 0.912254
O O8 0.762239 0.640390 0.260635
O O9 0.000000 0.000000 0.500000
#
# Coordination Sequence:
#
# PCOD9250068 Si02
#       4
#     4   4   4   4
#     4  10  23  46  67  97 138 173 222 280 331 400
#     4  11  24  44  67 101 135 181 225 277 336 400
#     4  11  25  43  69  99 140 178 226 278 333 401
#     4  12  25  42  71  98 134 179 226 278 337 396
#
# _framework density 24.895149
#
# number of rings (size 3 to 8) (size 9 to 14) (size 15 to 20)
#    0.000    1.000    5.000    0.750    3.500    0.000 
#    0.000    2.500    0.000    0.000    0.000    0.000 
#    0.000    0.000    0.000    0.000    0.000    0.000 
#
# Total GULP energy -89077.805408 kJ/mol
# GULP energy per Si atom -5567.362838 kJ/mol
# Density = 2.483849 g / cm^3
# Si number density = 24.895149 Si / 1000 Ang^3
#
#
#
# Elastic Constant Matrix: (Units=GPa)
#
#
# Indices 1 2 3 4 5 6 
#
# 1 97.6219 5.2851 30.2036 0.0000 36.6108 0.0000
# 2 5.2851 80.7646 31.0289 0.0000 7.3520 0.0000
# 3 30.2036 31.0289 74.7783 0.0000 38.8839 0.0000
# 4 0.0000 0.0000 0.0000 39.4989 0.0000 13.8102
# 5 36.6108 7.3520 38.8839 0.0000 55.3864 0.0000
# 6 0.0000 0.0000 0.0000 13.8102 0.0000 28.4020
#
#
#
# Elastic Compliance Matrix: (Units=1/GPa)
#
#
# Indices 1 2 3 4 5 6 
#
# 1 0.013711 0.000423 -0.001530 0.000000 -0.008045 0.000000
# 2 0.000423 0.015235 -0.008340 0.000000 0.003553 0.000000
# 3 -0.001530 -0.008340 0.025750 0.000000 -0.015959 0.000000
# 4 0.000000 0.000000 0.000000 0.030503 0.000000 -0.014832
# 5 -0.008045 0.003553 -0.015959 0.000000 0.034105 0.000000
# 6 0.000000 0.000000 0.000000 -0.014832 0.000000 0.042421
#
#
# Mechanical properties :
#
#
# Convention : Reuss Voigt Hill
#
# Bulk Modulus (GPa) = 27.93171 42.91108 35.42140
# Shear Modulus (GPa) = 25.96682 37.10063 31.53372
#
# Velocity S-wave (km/s) = 3.23313 3.86460 3.56288
# Velocity P-wave (km/s) = 5.01813 6.09817 5.58432
#
# Compressibility (1/GPa) = 0.03580160
#
# Stress axis : x y z
#
# Youngs Moduli (GPa) = 72.93275 65.63969 38.83451
#
# Poissons Ratio (x) = -0.02777 0.05943
# Poissons Ratio (y) = -0.03085 0.32388
# Poissons Ratio (z) = 0.11161 0.54744
#
# Static dielectric constant tensor:
#      x y z
#    x 2.162620 0.000000 0.067780 
#    y 0.000000 2.546010 0.000000 
#    z 0.067780 0.000000 1.975800 
# 
# From -- ./inp_files/5135.got.cif
#   From: 2010.05.17/outbox.cif.g08.bks.cpg/sg14_3_cif.got.tgz:5135.got - 2010.06.03 17:49:19.
