data_PCOD9250726
_publ_section_title
;
Structure prediction by ZEFSAII (Michael W. Deem and Ramdas Pophale) SiO2 
 PCOD9250726
Probable space group: P 21/C
;
_chemical_formula_sum "Si O2"
_cell_formula_units_Z 18
_cell_length_a 15.812945
_cell_length_b 4.798428
_cell_length_c 13.515155
_cell_angle_alpha 90.000000
_cell_angle_beta 44.593905
_cell_angle_gamma 90.000000
_cell_volume 719.975484
_symmetry_space_group_name_H-M "P 21/C"
_symmetry_group_IT_number 14
_symmetry_cell_setting 'monoclinic'
loop_
_space_group_symop_operation_xyz
x,y,z
-x,1/2+y,1/2-z
-x,-y,-z
x,1/2-y,1/2+z
loop_
_atom_site_type_symbol
_atom_site_label
_atom_site_fract_x
_atom_site_fract_y
_atom_site_fract_z
Si Si1 0.543885 0.368043 0.772483
Si Si2 0.914725 0.071642 0.206077
Si Si3 0.735521 0.785517 0.207522
Si Si4 0.500000 0.000000 0.000000
Si Si5 0.078497 0.929119 0.568177
O O1 0.460895 0.624674 0.804905
O O2 0.673887 0.505517 0.680066
O O3 0.497627 0.238408 0.912698
O O4 0.807742 0.963478 0.228121
O O5 0.887049 0.040280 0.345337
O O6 0.033524 0.882811 0.086189
O O7 0.957455 0.385920 0.154112
O O8 0.625550 0.623170 0.349331
O O9 0.820252 0.564683 0.082685
#
# Coordination Sequence:
#
# PCOD9250726 Si02
#       5
#     4   4   4   2   4
#     4  12  29  53  76 110 158 208 268 322 392 468
#     4  10  24  45  75 109 149 197 260 320 390 459
#     4  12  27  46  81 108 159 206 259 324 390 471
#     4  12  30  52  74 122 150 216 266 324 392 474
#     4  10  24  46  72 113 149 198 256 323 389 460
#
# _framework density 25.000851000000001
#
# number of rings (size 3 to 8) (size 9 to 14) (size 15 to 20)
#    0.000    0.889    2.222    2.000    9.333    0.000 
#    8.000    0.000    0.000    0.000    0.000    0.000 
#    0.000    0.000    0.000    0.000    0.000    0.000 
#
# Total GULP energy -100535.742372 kJ/mol
# GULP energy per Si atom -5585.319021 kJ/mol
# Density = 2.494395 g / cm^3
# Si number density = 25.000851 Si / 1000 Ang^3
#
#
#
# Elastic Constant Matrix: (Units=GPa)
#
#
# Indices 1 2 3 4 5 6 
#
# 1 157.5363 53.6516 42.1639 0.0000 -8.2305 0.0000
# 2 53.6516 107.5263 21.9602 0.0000 0.1464 0.0000
# 3 42.1639 21.9602 107.9436 0.0000 5.2931 0.0000
# 4 0.0000 0.0000 0.0000 26.8896 0.0000 -2.6849
# 5 -8.2305 0.1464 5.2931 0.0000 12.7209 0.0000
# 6 0.0000 0.0000 0.0000 -2.6849 0.0000 51.4329
#
#
#
# Elastic Compliance Matrix: (Units=1/GPa)
#
#
# Indices 1 2 3 4 5 6 
#
# 1 0.008811 -0.003790 -0.003014 0.000000 0.006998 0.000000
# 2 -0.003790 0.011340 -0.000714 0.000000 -0.002286 0.000000
# 3 -0.003014 -0.000714 0.010904 0.000000 -0.006479 0.000000
# 4 0.000000 0.000000 0.000000 0.037384 0.000000 0.001952
# 5 0.006998 -0.002286 -0.006479 0.000000 0.085861 0.000000
# 6 0.000000 0.000000 0.000000 0.001952 0.000000 0.019545
#
#
# Mechanical properties :
#
#
# Convention : Reuss Voigt Hill
#
# Bulk Modulus (GPa) = 62.42763 67.61750 65.02257
# Shear Modulus (GPa) = 25.74385 35.22404 30.48395
#
# Velocity S-wave (km/s) = 3.21240 3.75762 3.49566
# Velocity P-wave (km/s) = 6.22766 6.77725 6.50826
#
# Compressibility (1/GPa) = 0.01601855
#
# Stress axis : x y z
#
# Youngs Moduli (GPa) = 113.49692 88.18104 91.70686
#
# Poissons Ratio (x) = 0.33423 0.27637
# Poissons Ratio (y) = 0.43019 0.06552
# Poissons Ratio (z) = 0.34204 0.06300
#
# Static dielectric constant tensor:
#      x y z
#    x 2.015350 0.000000 0.002140 
#    y 0.000000 1.976990 0.000000 
#    z 0.002140 0.000000 1.918250 
# 
# From -- ./inp_files/45765.got.cif
#   From: 2010.05.17/outbox.cif.g08.bks.cpg/sg14_23_cif.got.tgz:45765.got - 2010.06.03 17:49:19.
