data_PCOD9250739
_publ_section_title
;
Structure prediction by ZEFSAII (Michael W. Deem and Ramdas Pophale) SiO2 
 PCOD9250739
Probable space group: P 21/C
;
_chemical_formula_sum "Si O2"
_cell_formula_units_Z 32
_cell_length_a 12.498687
_cell_length_b 13.557516
_cell_length_c 16.361851
_cell_angle_alpha 90.000000
_cell_angle_beta 147.549576
_cell_angle_gamma 90.000000
_cell_volume 1487.657842
_symmetry_space_group_name_H-M "P 21/C"
_symmetry_group_IT_number 14
_symmetry_cell_setting 'monoclinic'
loop_
_space_group_symop_operation_xyz
x,y,z
-x,1/2+y,1/2-z
-x,-y,-z
x,1/2-y,1/2+z
loop_
_atom_site_type_symbol
_atom_site_label
_atom_site_fract_x
_atom_site_fract_y
_atom_site_fract_z
Si Si1 0.666482 0.304176 0.494248
Si Si2 0.600573 0.785701 0.032225
Si Si3 0.382379 0.077128 0.368680
Si Si4 0.826291 0.058430 0.435107
Si Si5 0.398391 0.740942 0.730713
Si Si6 0.056826 0.521947 0.395511
Si Si7 0.577084 0.488909 0.267420
Si Si8 0.962604 0.126511 0.694264
O O1 0.542286 0.339362 0.493285
O O2 0.552669 0.270858 0.336106
O O3 0.817369 0.389924 0.564095
O O4 0.803659 0.212209 0.607461
O O5 0.600698 0.678047 0.072546
O O6 0.820692 0.827624 0.179584
O O7 0.534661 0.778288 0.894521
O O8 0.147862 0.061489 0.200002
O O9 0.500000 0.000000 0.500000
O O10 0.475975 0.060604 0.340700
O O11 0.775484 0.174091 0.379730
O O12 0.902804 0.064766 0.576758
O O13 0.615330 0.998897 0.297564
O O14 0.000000 0.000000 0.500000
O O15 0.375004 0.622721 0.733109
O O16 0.220697 0.475193 0.560178
O O17 0.980580 0.444081 0.281940
#
# Coordination Sequence:
#
# PCOD9250739 Si02
#       8
#     4   4   4   4   4   4   4   4
#     4  10  24  46  65 100 144 179 235 294 347 430
#     4  12  24  43  73  99 141 189 229 299 355 422
#     4  12  22  43  71 104 137 184 232 293 356 417
#     4  11  26  47  70 103 143 188 237 298 359 425
#     4  10  24  46  68 103 139 184 240 283 363 423
#     4  11  24  43  70 101 139 182 234 290 358 427
#     4  11  24  46  72 102 144 186 239 300 350 438
#     4  11  25  43  66 102 134 181 239 289 360 425
#
# _framework density 21.510321999999999
#
# number of rings (size 3 to 8) (size 9 to 14) (size 15 to 20)
#    0.000    1.000    2.500    4.125    5.250    0.500 
#    0.000    0.000    0.000    0.000    0.000    0.000 
#    0.000    0.000    0.000    0.000    0.000    0.000 
#
# Total GULP energy -178382.346158 kJ/mol
# GULP energy per Si atom -5574.448317 kJ/mol
# Density = 2.146136 g / cm^3
# Si number density = 21.510322 Si / 1000 Ang^3
#
#
#
# Elastic Constant Matrix: (Units=GPa)
#
#
# Indices 1 2 3 4 5 6 
#
# 1 79.9893 3.4304 31.3030 0.0000 17.9389 0.0000
# 2 3.4304 62.6593 -5.9537 0.0000 -11.9635 0.0000
# 3 31.3030 -5.9537 124.5492 0.0000 -12.5599 0.0000
# 4 0.0000 0.0000 0.0000 32.4411 0.0000 3.8839
# 5 17.9389 -11.9635 -12.5599 0.0000 32.1243 0.0000
# 6 0.0000 0.0000 0.0000 3.8839 0.0000 27.7953
#
#
#
# Elastic Compliance Matrix: (Units=1/GPa)
#
#
# Indices 1 2 3 4 5 6 
#
# 1 0.018345 -0.004330 -0.006260 0.000000 -0.014305 0.000000
# 2 -0.004330 0.018487 0.003030 0.000000 0.010487 0.000000
# 3 -0.006260 0.003030 0.010633 0.000000 0.008781 0.000000
# 4 0.000000 0.000000 0.000000 0.031350 0.000000 -0.004381
# 5 -0.014305 0.010487 0.008781 0.000000 0.046456 0.000000
# 6 0.000000 0.000000 0.000000 -0.004381 0.000000 0.036589
#
#
# Mechanical properties :
#
#
# Convention : Reuss Voigt Hill
#
# Bulk Modulus (GPa) = 30.91896 36.08413 33.50154
# Shear Modulus (GPa) = 26.62936 34.36669 30.49802
#
# Velocity S-wave (km/s) = 3.52231 4.00144 3.76950
# Velocity P-wave (km/s) = 5.56304 6.17741 5.87826
#
# Compressibility (1/GPa) = 0.03234261
#
# Stress axis : x y z
#
# Youngs Moduli (GPa) = 54.50971 54.09320 94.04941
#
# Poissons Ratio (x) = 0.23424 0.58878
# Poissons Ratio (y) = 0.23605 -0.28494
# Poissons Ratio (z) = 0.34125 -0.16388
#
# Static dielectric constant tensor:
#      x y z
#    x 1.853190 0.000000 0.019350 
#    y 0.000000 1.804210 0.000000 
#    z 0.019350 0.000000 1.787460 
# 
# From -- ./inp_files/45126.got.cif
#   From: 2010.05.17/outbox.cif.g08.bks.cpg/sg14_23_cif.got.tgz:45126.got - 2010.06.03 17:49:19.
