data_PCOD9250047
_publ_section_title
;
Structure prediction by ZEFSAII (Michael W. Deem and Ramdas Pophale) SiO2 
 PCOD9250047
Probable space group: P 21/C
;
_chemical_formula_sum "Si O2"
_cell_formula_units_Z 18
_cell_length_a 20.312998
_cell_length_b 7.809607
_cell_length_c 7.828398
_cell_angle_alpha 90.000000
_cell_angle_beta 29.796809
_cell_angle_gamma 90.000000
_cell_volume 617.116987
_symmetry_space_group_name_H-M "P 21/C"
_symmetry_group_IT_number 14
_symmetry_cell_setting 'monoclinic'
loop_
_space_group_symop_operation_xyz
x,y,z
-x,1/2+y,1/2-z
-x,-y,-z
x,1/2-y,1/2+z
loop_
_atom_site_type_symbol
_atom_site_label
_atom_site_fract_x
_atom_site_fract_y
_atom_site_fract_z
Si Si1 0.231967 0.063505 0.678446
Si Si2 0.513129 0.789317 0.037850
Si Si3 0.086421 0.363052 0.174249
Si Si4 0.000000 0.500000 0.000000
Si Si5 0.359569 0.925668 0.682270
O O1 0.152352 0.031362 0.683399
O O2 0.228751 0.951119 0.862415
O O3 0.198503 0.250270 0.826680
O O4 0.387330 0.077675 0.276754
O O5 0.482229 0.852440 0.296458
O O6 0.598062 0.614278 0.860187
O O7 0.366630 0.717622 0.310285
O O8 0.030286 0.470381 0.143081
O O9 0.008188 0.209611 0.443981
#
# Coordination Sequence:
#
# PCOD9250047 Si02
#       5
#     4   4   4   2   4
#     4  11  20  40  66  93 125 179 214 260 316 403
#     4  11  22  37  61  89 132 179 214 255 310 368
#     4  10  23  45  74  93 133 166 225 274 354 402
#     4  10  24  46  76 102 122 174 210 290 358 416
#     4  11  22  37  59  90 133 178 216 259 304 374
#
# _framework density 29.167891000000001
#
# number of rings (size 3 to 8) (size 9 to 14) (size 15 to 20)
#    0.000    1.333    4.444    0.667    0.000    3.556 
#    0.000    6.667    0.000    0.000    0.000    0.000 
#    0.000    0.000    0.000    0.000    0.000    0.000 
#
# Total GULP energy -100201.089926 kJ/mol
# GULP energy per Si atom -5566.727218 kJ/mol
# Density = 2.910150 g / cm^3
# Si number density = 29.167891 Si / 1000 Ang^3
#
#
#
# Elastic Constant Matrix: (Units=GPa)
#
#
# Indices 1 2 3 4 5 6 
#
# 1 308.4560 67.8593 20.6860 0.0000 -28.6425 0.0000
# 2 67.8593 97.1385 -2.3637 0.0000 -18.8847 0.0000
# 3 20.6860 -2.3637 27.1101 0.0000 -4.6320 0.0000
# 4 0.0000 0.0000 0.0000 36.8421 0.0000 13.0758
# 5 -28.6425 -18.8847 -4.6320 0.0000 51.7687 0.0000
# 6 0.0000 0.0000 0.0000 13.0758 0.0000 86.3516
#
#
#
# Elastic Compliance Matrix: (Units=1/GPa)
#
#
# Indices 1 2 3 4 5 6 
#
# 1 0.004168 -0.002798 -0.003254 0.000000 0.000994 0.000000
# 2 -0.002798 0.013034 0.003878 0.000000 0.003554 0.000000
# 3 -0.003254 0.003878 0.040257 0.000000 0.003216 0.000000
# 4 0.000000 0.000000 0.000000 0.028684 0.000000 -0.004344
# 5 0.000994 0.003554 0.003216 0.000000 0.021451 0.000000
# 6 0.000000 0.000000 0.000000 -0.004344 0.000000 0.012238
#
#
# Mechanical properties :
#
#
# Convention : Reuss Voigt Hill
#
# Bulk Modulus (GPa) = 18.82799 67.22977 43.02888
# Shear Modulus (GPa) = 35.23987 58.09402 46.66694
#
# Velocity S-wave (km/s) = 3.47965 4.46770 4.00427
# Velocity P-wave (km/s) = 4.75531 7.05075 6.01357
#
# Compressibility (1/GPa) = 0.05311240
#
# Stress axis : x y z
#
# Youngs Moduli (GPa) = 239.92388 76.72120 24.84012
#
# Poissons Ratio (x) = 0.21463 0.08084
# Poissons Ratio (y) = 0.67120 -0.09634
# Poissons Ratio (z) = 0.78080 -0.29755
#
# Static dielectric constant tensor:
#      x y z
#    x 2.275430 0.000000 -0.161510 
#    y 0.000000 2.438310 0.000000 
#    z -0.161510 0.000000 2.506710 
# 
# From -- ./inp_files/11527.got.cif
#   From: 2010.05.17/outbox.cif.g08.bks.cpg/sg14_6_cif.got.tgz:11527.got - 2010.06.03 17:49:19.
