data_PCOD9250003
_publ_section_title
;
Structure prediction by ZEFSAII (Michael W. Deem and Ramdas Pophale) SiO2 
 PCOD9250003
Probable space group: P 21/C
;
_chemical_formula_sum "Si O2"
_cell_formula_units_Z 24
_cell_length_a 23.448572
_cell_length_b 11.958032
_cell_length_c 11.648594
_cell_angle_alpha 90.000000
_cell_angle_beta 158.255187
_cell_angle_gamma 90.000000
_cell_volume 1210.059130
_symmetry_space_group_name_H-M "P 21/C"
_symmetry_group_IT_number 14
_symmetry_cell_setting 'monoclinic'
loop_
_space_group_symop_operation_xyz
x,y,z
-x,1/2+y,1/2-z
-x,-y,-z
x,1/2-y,1/2+z
loop_
_atom_site_type_symbol
_atom_site_label
_atom_site_fract_x
_atom_site_fract_y
_atom_site_fract_z
Si Si1 0.921130 0.091953 0.271413
Si Si2 0.392787 0.327703 0.323330
Si Si3 0.497096 0.016880 0.812312
Si Si4 0.575855 0.399112 0.213237
Si Si5 0.054344 0.176856 0.090548
Si Si6 0.858161 0.463640 0.392584
O O1 0.012353 0.207572 0.452890
O O2 0.748680 0.114601 0.992900
O O3 0.910122 0.051496 0.119970
O O4 0.000000 0.000000 0.500000
O O5 0.408144 0.414758 0.456592
O O6 0.474598 0.389369 0.368473
O O7 0.476906 0.212538 0.508734
O O8 0.215711 0.311067 0.958766
O O9 0.571688 0.067817 0.838824
O O10 0.326271 0.972180 0.461867
O O11 0.500000 0.500000 0.000000
O O12 0.075697 0.078021 0.037942
O O13 0.924663 0.135364 0.937391
#
# Coordination Sequence:
#
# PCOD9250003 Si02
#       6
#     4   4   4   4   4   4
#     4  12  27  42  66 101 133 173 224 274 333 386
#     4  10  24  44  69  98 129 176 219 270 332 389
#     4  10  23  45  69  95 132 174 221 268 329 395
#     4  12  25  42  67  97 134 172 227 273 323 386
#     4  10  24  44  71  95 134 177 215 273 332 391
#     4  10  23  46  66  97 136 172 221 265 330 399
#
# _framework density 19.833741
#
# number of rings (size 3 to 8) (size 9 to 14) (size 15 to 20)
#    0.000    1.333    1.667    2.000    7.000    4.000 
#    0.000    0.000    0.000    0.000    0.000    0.000 
#    0.000    0.000    0.000    0.000    0.000    0.000 
#
# Total GULP energy -134307.994511 kJ/mol
# GULP energy per Si atom -5596.166438 kJ/mol
# Density = 1.978860 g / cm^3
# Si number density = 19.833741 Si / 1000 Ang^3
#
#
#
# Elastic Constant Matrix: (Units=GPa)
#
#
# Indices 1 2 3 4 5 6 
#
# 1 116.8337 38.7552 51.6476 0.0000 -28.2064 0.0000
# 2 38.7552 117.7224 61.9467 0.0000 -26.0220 0.0000
# 3 51.6476 61.9467 91.3572 0.0000 -20.0812 0.0000
# 4 0.0000 0.0000 0.0000 36.1577 0.0000 -7.5298
# 5 -28.2064 -26.0220 -20.0812 0.0000 36.8718 0.0000
# 6 0.0000 0.0000 0.0000 -7.5298 0.0000 16.3173
#
#
#
# Elastic Compliance Matrix: (Units=1/GPa)
#
#
# Indices 1 2 3 4 5 6 
#
# 1 0.012693 0.000484 -0.006015 0.000000 0.006776 0.000000
# 2 0.000484 0.014108 -0.008599 0.000000 0.005643 0.000000
# 3 -0.006015 -0.008599 0.020257 0.000000 0.000362 0.000000
# 4 0.000000 0.000000 0.000000 0.030597 0.000000 0.014119
# 5 0.006776 0.005643 0.000362 0.000000 0.036485 0.000000
# 6 0.000000 0.000000 0.000000 0.014119 0.000000 0.067800
#
#
# Mechanical properties :
#
#
# Convention : Reuss Voigt Hill
#
# Bulk Modulus (GPa) = 53.19671 70.06804 61.63237
# Shear Modulus (GPa) = 23.09828 29.44025 26.26927
#
# Velocity S-wave (km/s) = 3.41632 3.85691 3.64328
# Velocity P-wave (km/s) = 6.51469 7.43228 6.98856
#
# Compressibility (1/GPa) = 0.01879816
#
# Stress axis : x y z
#
# Youngs Moduli (GPa) = 78.78072 70.88367 49.36563
#
# Poissons Ratio (x) = -0.03432 0.29693
# Poissons Ratio (y) = -0.03814 0.42451
# Poissons Ratio (z) = 0.47386 0.60954
#
# Static dielectric constant tensor:
#      x y z
#    x 1.676290 0.000000 0.005970 
#    y 0.000000 1.670180 0.000000 
#    z 0.005970 0.000000 1.672830 
# 
# From -- ./inp_files/35889.got.cif
#   From: 2010.05.17/outbox.cif.g08.bks.cpg/sg14_18_cif.got.tgz:35889.got - 2010.06.03 17:49:19.
