data_PCOD9250718
_publ_section_title
;
Structure prediction by ZEFSAII (Michael W. Deem and Ramdas Pophale) SiO2 
 PCOD9250718
Probable space group: P 21/C
;
_chemical_formula_sum "Si O2"
_cell_formula_units_Z 30
_cell_length_a 13.047751
_cell_length_b 11.867011
_cell_length_c 8.812466
_cell_angle_alpha 90.000000
_cell_angle_beta 114.464841
_cell_angle_gamma 90.000000
_cell_volume 1241.991778
_symmetry_space_group_name_H-M "P 21/C"
_symmetry_group_IT_number 14
_symmetry_cell_setting 'monoclinic'
loop_
_space_group_symop_operation_xyz
x,y,z
-x,1/2+y,1/2-z
-x,-y,-z
x,1/2-y,1/2+z
loop_
_atom_site_type_symbol
_atom_site_label
_atom_site_fract_x
_atom_site_fract_y
_atom_site_fract_z
Si Si1 0.652825 0.600291 0.076175
Si Si2 0.000000 0.000000 0.000000
Si Si3 0.103684 0.231284 0.993517
Si Si4 0.306010 0.752244 0.483252
Si Si5 0.081197 0.884881 0.755906
Si Si6 0.740688 0.836911 0.165927
Si Si7 0.760380 0.475024 0.884412
Si Si8 0.413353 0.897609 0.281400
O O1 0.658907 0.729662 0.126618
O O2 0.643638 0.517248 0.213466
O O3 0.754123 0.554193 0.031349
O O4 0.543273 0.586455 0.903433
O O5 0.054619 0.981092 0.861194
O O6 0.974557 0.866403 0.991079
O O7 0.208447 0.174356 0.969627
O O8 0.025915 0.308594 0.842854
O O9 0.156863 0.304435 0.159830
O O10 0.185889 0.694003 0.375346
O O11 0.292784 0.857944 0.590601
O O12 0.359459 0.810705 0.369396
O O13 0.384854 0.656562 0.603910
O O14 0.123251 0.939289 0.622469
O O15 0.700138 0.954716 0.211017
#
# Coordination Sequence:
#
# PCOD9250718 Si02
#       8
#     4   2   4   4   4   4   4   4
#     4  10  25  47  72 100 146 178 236 301 356 421
#     4  12  26  42  68  98 142 184 238 290 348 406
#     4  12  27  43  65 101 137 185 239 283 352 408
#     4  11  24  45  72 104 138 185 235 289 355 427
#     4  12  26  45  68 103 141 186 242 293 343 430
#     4  12  25  45  67 100 138 190 228 288 352 416
#     4  11  24  45  69 100 138 185 229 290 353 411
#     4  10  24  45  74 105 138 185 231 295 367 418
#
# _framework density 24.15475
#
# number of rings (size 3 to 8) (size 9 to 14) (size 15 to 20)
#    0.000    0.800    5.333    0.800    3.733    2.667 
#    0.000    1.333    0.000    0.000    0.000    0.000 
#    0.000    0.000    0.000    0.000    0.000    0.000 
#
# Total GULP energy -167261.700099 kJ/mol
# GULP energy per Si atom -5575.390003 kJ/mol
# Density = 2.409977 g / cm^3
# Si number density = 24.154750 Si / 1000 Ang^3
#
#
#
# Elastic Constant Matrix: (Units=GPa)
#
#
# Indices 1 2 3 4 5 6 
#
# 1 48.7506 25.7043 16.3566 0.0000 -0.6964 0.0000
# 2 25.7043 90.4810 36.8332 0.0000 10.3492 0.0000
# 3 16.3566 36.8332 46.1166 0.0000 12.1734 0.0000
# 4 0.0000 0.0000 0.0000 36.0252 0.0000 -4.0827
# 5 -0.6964 10.3492 12.1734 0.0000 22.3984 0.0000
# 6 0.0000 0.0000 0.0000 -4.0827 0.0000 23.6343
#
#
#
# Elastic Compliance Matrix: (Units=1/GPa)
#
#
# Indices 1 2 3 4 5 6 
#
# 1 0.025672 -0.005385 -0.006622 0.000000 0.006885 0.000000
# 2 -0.005385 0.017512 -0.011554 0.000000 -0.001979 0.000000
# 3 -0.006622 -0.011554 0.037251 0.000000 -0.015113 0.000000
# 4 0.000000 0.000000 0.000000 0.028313 0.000000 0.004891
# 5 0.006885 -0.001979 -0.015113 0.000000 0.053988 0.000000
# 6 0.000000 0.000000 0.000000 0.004891 0.000000 0.043156
#
#
# Mechanical properties :
#
#
# Convention : Reuss Voigt Hill
#
# Bulk Modulus (GPa) = 30.01915 38.12625 34.07270
# Shear Modulus (GPa) = 18.93097 23.50852 21.21974
#
# Velocity S-wave (km/s) = 2.80257 3.12307 2.96715
# Velocity P-wave (km/s) = 4.78825 5.36873 5.08677
#
# Compressibility (1/GPa) = 0.03331207
#
# Stress axis : x y z
#
# Youngs Moduli (GPa) = 38.95302 57.10468 26.84526
#
# Poissons Ratio (x) = 0.30750 0.17777
# Poissons Ratio (y) = 0.20976 0.31018
# Poissons Ratio (z) = 0.25794 0.65980
#
# Static dielectric constant tensor:
#      x y z
#    x 1.936040 0.000000 -0.024370 
#    y 0.000000 1.917420 0.000000 
#    z -0.024370 0.000000 1.931620 
# 
# From -- ./inp_files/15916.got.cif
#   From: 2010.05.17/outbox.cif.g08.bks.cpg/sg14_8_cif.got.tgz:15916.got - 2010.06.03 17:49:19.
