data_PCOD9250873
_publ_section_title
;
Structure prediction by ZEFSAII (Michael W. Deem and Ramdas Pophale) SiO2 
 PCOD9250873
Probable space group: P 21/C
;
_chemical_formula_sum "Si O2"
_cell_formula_units_Z 18
_cell_length_a 14.386139
_cell_length_b 6.587657
_cell_length_c 7.323233
_cell_angle_alpha 90.000000
_cell_angle_beta 61.187706
_cell_angle_gamma 90.000000
_cell_volume 608.111144
_symmetry_space_group_name_H-M "P 21/C"
_symmetry_group_IT_number 14
_symmetry_cell_setting 'monoclinic'
loop_
_space_group_symop_operation_xyz
x,y,z
-x,1/2+y,1/2-z
-x,-y,-z
x,1/2-y,1/2+z
loop_
_atom_site_type_symbol
_atom_site_label
_atom_site_fract_x
_atom_site_fract_y
_atom_site_fract_z
Si Si1 0.000000 0.000000 0.000000
Si Si2 0.081256 0.653412 0.036168
Si Si3 0.219080 0.546773 0.573540
Si Si4 0.622363 0.791088 0.270184
Si Si5 0.389294 0.906014 0.376737
O O1 0.022591 0.263162 0.964683
O O2 0.068456 0.952830 0.738516
O O3 0.119718 0.897362 0.032318
O O4 0.167784 0.568162 0.818238
O O5 0.277318 0.349746 0.448444
O O6 0.304447 0.727807 0.463923
O O7 0.625262 0.947591 0.434399
O O8 0.508982 0.826606 0.278442
O O9 0.622172 0.548330 0.290125
#
# Coordination Sequence:
#
# PCOD9250873 Si02
#       5
#     2   4   4   4   4
#     4  10  24  50  76 102 134 182 220 304 392 430
#     4  10  24  48  73 101 139 174 232 300 370 436
#     4  11  22  45  65 106 142 183 233 291 331 434
#     4  11  24  40  64  98 143 193 236 279 336 402
#     4  11  24  40  64 100 140 196 236 279 341 399
#
# _framework density 29.599853
#
# number of rings (size 3 to 8) (size 9 to 14) (size 15 to 20)
#    0.000    1.333    4.444    0.000    3.111    4.444 
#   16.000    0.000    0.000    0.000    0.000    0.000 
#    0.000    0.000    0.000    0.000    0.000    0.000 
#
# Total GULP energy -100660.092574 kJ/mol
# GULP energy per Si atom -5592.227365 kJ/mol
# Density = 2.953248 g / cm^3
# Si number density = 29.599853 Si / 1000 Ang^3
#
#
#
# Elastic Constant Matrix: (Units=GPa)
#
#
# Indices 1 2 3 4 5 6 
#
# 1 128.4673 52.7005 52.3217 0.0000 -15.6737 0.0000
# 2 52.7005 74.0355 48.1276 0.0000 -28.0598 0.0000
# 3 52.3217 48.1276 231.0845 0.0000 7.2524 0.0000
# 4 0.0000 0.0000 0.0000 67.9438 0.0000 -11.0142
# 5 -15.6737 -28.0598 7.2524 0.0000 55.0597 0.0000
# 6 0.0000 0.0000 0.0000 -11.0142 0.0000 73.2643
#
#
#
# Elastic Compliance Matrix: (Units=1/GPa)
#
#
# Indices 1 2 3 4 5 6 
#
# 1 0.011208 -0.007570 -0.000944 0.000000 -0.000543 0.000000
# 2 -0.007570 0.025918 -0.004048 0.000000 0.011587 0.000000
# 3 -0.000944 -0.004048 0.005480 0.000000 -0.003053 0.000000
# 4 0.000000 0.000000 0.000000 0.015086 0.000000 0.002268
# 5 -0.000543 0.011587 -0.003053 0.000000 0.024315 0.000000
# 6 0.000000 0.000000 0.000000 0.002268 0.000000 0.013990
#
#
# Mechanical properties :
#
#
# Convention : Reuss Voigt Hill
#
# Bulk Modulus (GPa) = 57.19990 82.20963 69.70477
# Shear Modulus (GPa) = 39.38638 57.94941 48.66789
#
# Velocity S-wave (km/s) = 3.65173 4.42946 4.05926
# Velocity P-wave (km/s) = 6.09480 7.34807 6.75058
#
# Compressibility (1/GPa) = 0.01748255
#
# Stress axis : x y z
#
# Youngs Moduli (GPa) = 89.22398 38.58276 182.48318
#
# Poissons Ratio (x) = 0.29208 0.17226
# Poissons Ratio (y) = 0.67544 0.73861
# Poissons Ratio (z) = 0.08422 0.15617
#
# Static dielectric constant tensor:
#      x y z
#    x 3.042080 0.000000 0.134010 
#    y 0.000000 2.691960 0.000000 
#    z 0.134010 0.000000 2.189030 
# 
# From -- ./inp_files/17376.got.cif
#   From: 2010.05.17/outbox.cif.g08.bks.cpg/sg14_9_cif.got.tgz:17376.got - 2010.06.03 17:49:19.
