data_PCOD9250262
_publ_section_title
;
Structure prediction by ZEFSAII (Michael W. Deem and Ramdas Pophale) SiO2 
 PCOD9250262
Probable space group: P 21/C
;
_chemical_formula_sum "Si O2"
_cell_formula_units_Z 28
_cell_length_a 17.608106
_cell_length_b 8.507987
_cell_length_c 9.106854
_cell_angle_alpha 90.000000
_cell_angle_beta 131.576718
_cell_angle_gamma 90.000000
_cell_volume 1020.584116
_symmetry_space_group_name_H-M "P 21/C"
_symmetry_group_IT_number 14
_symmetry_cell_setting 'monoclinic'
loop_
_space_group_symop_operation_xyz
x,y,z
-x,1/2+y,1/2-z
-x,-y,-z
x,1/2-y,1/2+z
loop_
_atom_site_type_symbol
_atom_site_label
_atom_site_fract_x
_atom_site_fract_y
_atom_site_fract_z
Si Si1 0.145497 0.706706 0.996052
Si Si2 0.424724 0.303221 0.389734
Si Si3 0.695843 0.913719 0.994527
Si Si4 0.858034 0.797580 0.794763
Si Si5 0.567435 0.305162 0.331075
Si Si6 0.733725 0.093458 0.614806
Si Si7 0.975231 0.593737 0.175556
O O1 0.224144 0.611946 0.996178
O O2 0.058134 0.578010 0.924117
O O3 0.089336 0.844639 0.833728
O O4 0.204004 0.786437 0.203858
O O5 0.342812 0.388902 0.386760
O O6 0.367617 0.189693 0.202112
O O7 0.500839 0.387730 0.372736
O O8 0.498099 0.220885 0.601935
O O9 0.665030 0.089855 0.917253
O O10 0.808036 0.846659 0.142267
O O11 0.935429 0.893288 0.792234
O O12 0.765605 0.919389 0.706549
O O13 0.914253 0.722603 0.003480
O O14 0.616682 0.145255 0.459007
#
# Coordination Sequence:
#
# PCOD9250262 Si02
#       7
#     4   4   4   4   4   4   4
#     4  11  24  42  65  93 125 162 204 251 304 362
#     4  10  24  40  62  92 124 158 204 258 306 360
#     4  11  23  41  64  90 122 162 206 252 306 364
#     4  11  25  42  62  92 127 161 203 254 304 361
#     4  11  23  41  64  90 122 162 206 252 306 364
#     4  11  25  42  62  92 127 161 203 254 304 361
#     4  11  24  42  65  93 125 162 204 251 304 362
#
# _framework density 27.435269999999999
#
# number of rings (size 3 to 8) (size 9 to 14) (size 15 to 20)
#    0.000    1.143    0.000    5.143    0.000   19.429 
#    0.000    0.000    0.000    0.000    0.000    0.000 
#    0.000    0.000    0.000    0.000    0.000    0.000 
#
# Total GULP energy -157034.092282 kJ/mol
# GULP energy per Si atom -5608.360439 kJ/mol
# Density = 2.737283 g / cm^3
# Si number density = 27.435270 Si / 1000 Ang^3
#
#
#
# Elastic Constant Matrix: (Units=GPa)
#
#
# Indices 1 2 3 4 5 6 
#
# 1 76.9474 1.4012 13.7888 0.0000 -7.9692 0.0000
# 2 1.4012 82.8845 31.1344 0.0000 -5.7037 0.0000
# 3 13.7888 31.1344 187.5643 0.0000 -0.7522 0.0000
# 4 0.0000 0.0000 0.0000 56.2120 0.0000 10.6807
# 5 -7.9692 -5.7037 -0.7522 0.0000 31.9288 0.0000
# 6 0.0000 0.0000 0.0000 10.6807 0.0000 41.7409
#
#
#
# Elastic Compliance Matrix: (Units=1/GPa)
#
#
# Indices 1 2 3 4 5 6 
#
# 1 0.013531 0.000400 -0.001047 0.000000 0.003424 0.000000
# 2 0.000400 0.013043 -0.002185 0.000000 0.002378 0.000000
# 3 -0.001047 -0.002185 0.005769 0.000000 -0.000516 0.000000
# 4 0.000000 0.000000 0.000000 0.018699 0.000000 -0.004785
# 5 0.003424 0.002378 -0.000516 0.000000 0.032587 0.000000
# 6 0.000000 0.000000 0.000000 -0.004785 0.000000 0.025182
#
#
# Mechanical properties :
#
#
# Convention : Reuss Voigt Hill
#
# Bulk Modulus (GPa) = 37.48317 48.89392 43.18854
# Shear Modulus (GPa) = 40.52946 46.04780 43.28863
#
# Velocity S-wave (km/s) = 3.84770 4.10129 3.97652
# Velocity P-wave (km/s) = 5.78203 6.34726 6.07122
#
# Compressibility (1/GPa) = 0.02667864
#
# Stress axis : x y z
#
# Youngs Moduli (GPa) = 73.90482 76.67186 173.33681
#
# Poissons Ratio (x) = -0.03069 0.18156
# Poissons Ratio (y) = -0.02959 0.37872
# Poissons Ratio (z) = 0.07741 0.16752
#
# Static dielectric constant tensor:
#      x y z
#    x 2.132770 0.000000 0.010690 
#    y 0.000000 2.180480 0.000000 
#    z 0.010690 0.000000 2.007750 
# 
# From -- ./inp_files/18766.got.cif
#   From: 2010.05.17/outbox.cif.g08.bks.cpg/sg14_10_cif.got.tgz:18766.got - 2010.06.03 17:49:19.
