data_PCOD9250370
_publ_section_title
;
Structure prediction by ZEFSAII (Michael W. Deem and Ramdas Pophale) SiO2 
 PCOD9250370
Probable space group: P 21/C
;
_chemical_formula_sum "Si O2"
_cell_formula_units_Z 32
_cell_length_a 21.919607
_cell_length_b 13.588769
_cell_length_c 21.443597
_cell_angle_alpha 90.000000
_cell_angle_beta 166.548120
_cell_angle_gamma 90.000000
_cell_volume 1485.845616
_symmetry_space_group_name_H-M "P 21/C"
_symmetry_group_IT_number 14
_symmetry_cell_setting 'monoclinic'
loop_
_space_group_symop_operation_xyz
x,y,z
-x,1/2+y,1/2-z
-x,-y,-z
x,1/2-y,1/2+z
loop_
_atom_site_type_symbol
_atom_site_label
_atom_site_fract_x
_atom_site_fract_y
_atom_site_fract_z
Si Si1 0.752287 0.463276 0.715020
Si Si2 0.175847 0.574164 0.588109
Si Si3 0.574776 0.180015 0.856924
Si Si4 0.308700 0.419759 0.979190
Si Si5 0.226441 0.024538 0.905669
Si Si6 0.543957 0.259004 0.463169
Si Si7 0.282533 0.892608 0.537879
Si Si8 0.026321 0.145555 0.981650
O O1 0.500000 0.500000 0.500000
O O2 0.775789 0.509396 0.669921
O O3 0.693758 0.347688 0.647252
O O4 0.000000 0.500000 0.000000
O O5 0.465946 0.590383 0.849510
O O6 0.132106 0.459858 0.562989
O O7 0.095925 0.633229 0.570766
O O8 0.970175 0.599328 0.329265
O O9 0.375385 0.150506 0.603858
O O10 0.719367 0.279863 0.983192
O O11 0.458139 0.201350 0.809665
O O12 0.754168 0.084002 0.044420
O O13 0.316533 0.530412 0.014833
O O14 0.975745 0.077993 0.682627
O O15 0.476479 0.085037 0.176874
O O16 0.279380 0.217005 0.231109
O O17 0.778741 0.179405 0.693780
#
# Coordination Sequence:
#
# PCOD9250370 Si02
#       8
#     4   4   4   4   4   4   4   4
#     4  11  23  45  66  89 127 173 213 279 329 368
#     4  11  23  41  63  93 139 169 206 274 334 393
#     4  10  24  42  67  94 131 171 220 271 330 390
#     4  11  23  41  63  97 133 171 215 271 338 395
#     4  10  24  42  63  95 130 161 221 267 317 401
#     4  11  24  42  67  96 121 172 235 267 312 410
#     4  11  22  41  65  94 126 173 211 262 334 391
#     4  11  23  42  66  96 127 174 221 264 326 398
#
# _framework density 21.536559
#
# number of rings (size 3 to 8) (size 9 to 14) (size 15 to 20)
#    0.000    1.250    0.000    6.000    0.000   12.000 
#   13.500    0.000    0.000    0.000    0.000    0.000 
#    0.000    0.000    0.000    0.000    0.000    0.000 
#
# Total GULP energy -179036.123171 kJ/mol
# GULP energy per Si atom -5594.878849 kJ/mol
# Density = 2.148754 g / cm^3
# Si number density = 21.536559 Si / 1000 Ang^3
#
#
#
# Elastic Constant Matrix: (Units=GPa)
#
#
# Indices 1 2 3 4 5 6 
#
# 1 102.1689 52.9396 49.9844 0.0000 -0.3893 0.0000
# 2 52.9396 80.4428 21.9976 0.0000 10.6334 0.0000
# 3 49.9844 21.9976 125.4263 0.0000 21.5987 0.0000
# 4 0.0000 0.0000 0.0000 14.6887 0.0000 8.0621
# 5 -0.3893 10.6334 21.5987 0.0000 40.2606 0.0000
# 6 0.0000 0.0000 0.0000 8.0621 0.0000 31.6281
#
#
#
# Elastic Compliance Matrix: (Units=1/GPa)
#
#
# Indices 1 2 3 4 5 6 
#
# 1 0.019191 -0.011687 -0.006789 0.000000 0.006914 0.000000
# 2 -0.011687 0.020397 0.002234 0.000000 -0.006699 0.000000
# 3 -0.006789 0.002234 0.011458 0.000000 -0.006802 0.000000
# 4 0.000000 0.000000 0.000000 0.079154 0.000000 -0.020177
# 5 0.006914 -0.006699 -0.006802 0.000000 0.030324 0.000000
# 6 0.000000 0.000000 0.000000 -0.020177 0.000000 0.036761
#
#
# Mechanical properties :
#
#
# Convention : Reuss Voigt Hill
#
# Bulk Modulus (GPa) = 53.87507 61.98680 57.93093
# Shear Modulus (GPa) = 21.19032 29.52325 25.35679
#
# Velocity S-wave (km/s) = 3.14016 3.70651 3.43502
# Velocity P-wave (km/s) = 6.18202 6.86747 6.53374
#
# Compressibility (1/GPa) = 0.01856146
#
# Stress axis : x y z
#
# Youngs Moduli (GPa) = 52.10677 49.02605 87.27556
#
# Poissons Ratio (x) = 0.57299 0.59251
# Poissons Ratio (y) = 0.60899 -0.19495
# Poissons Ratio (z) = 0.35375 -0.10951
#
# Static dielectric constant tensor:
#      x y z
#    x 1.777330 0.000000 -0.015870 
#    y 0.000000 1.777820 0.000000 
#    z -0.015870 0.000000 1.734640 
# 
# From -- ./inp_files/75031.got.cif
#   From: 2010.05.17/outbox.cif.g08.bks.cpg/sg14_38_cif.got.tgz:75031.got - 2010.06.03 17:49:19.
