data_PCOD9250179
_publ_section_title
;
Structure prediction by ZEFSAII (Michael W. Deem and Ramdas Pophale) SiO2 
 PCOD9250179
Probable space group: P 21/C
;
_chemical_formula_sum "Si O2"
_cell_formula_units_Z 28
_cell_length_a 21.325697
_cell_length_b 7.488308
_cell_length_c 14.190361
_cell_angle_alpha 90.000000
_cell_angle_beta 147.694487
_cell_angle_gamma 90.000000
_cell_volume 1211.083801
_symmetry_space_group_name_H-M "P 21/C"
_symmetry_group_IT_number 14
_symmetry_cell_setting 'monoclinic'
loop_
_space_group_symop_operation_xyz
x,y,z
-x,1/2+y,1/2-z
-x,-y,-z
x,1/2-y,1/2+z
loop_
_atom_site_type_symbol
_atom_site_label
_atom_site_fract_x
_atom_site_fract_y
_atom_site_fract_z
Si Si1 0.372039 0.785691 0.551005
Si Si2 0.688884 0.826604 0.576922
Si Si3 0.897773 0.789157 0.467502
Si Si4 0.567679 0.735308 0.669946
Si Si5 0.132774 0.604535 0.217351
Si Si6 0.543123 0.334826 0.646126
Si Si7 0.803428 0.828805 0.041077
O O1 0.493555 0.707523 0.669648
O O2 0.259054 0.690159 0.368295
O O3 0.372348 0.774042 0.663701
O O4 0.373153 0.985314 0.512761
O O5 0.792003 0.819209 0.784991
O O6 0.589525 0.678934 0.476607
O O7 0.756773 0.798557 0.565019
O O8 0.882402 0.761114 0.560017
O O9 0.030705 0.750175 0.603675
O O10 0.885672 0.983264 0.399753
O O11 0.595641 0.527291 0.681142
O O12 0.478409 0.784326 0.473231
O O13 0.678308 0.859560 0.828807
O O14 0.138445 0.484696 0.321511
#
# Coordination Sequence:
#
# PCOD9250179 Si02
#       7
#     4   4   4   4   4   4   4
#     4  12  24  38  62 100 132 169 217 266 333 392
#     4  11  23  38  66  95 132 174 212 274 320 393
#     4  10  23  48  66  91 129 172 224 272 328 385
#     4  11  23  37  66  94 129 179 207 268 329 390
#     4  10  26  44  69  92 130 176 214 278 329 388
#     4  11  22  40  59  96 133 170 211 260 330 392
#     4  11  21  41  69  92 124 173 220 268 325 389
#
# _framework density 23.119786999999999
#
# number of rings (size 3 to 8) (size 9 to 14) (size 15 to 20)
#    0.000    1.143    4.286    1.714    4.000    3.429 
#    0.000    4.286    0.000    0.000    0.000    0.000 
#    0.000    0.000    0.000    0.000    0.000    0.000 
#
# Total GULP energy -156030.086402 kJ/mol
# GULP energy per Si atom -5572.503086 kJ/mol
# Density = 2.306717 g / cm^3
# Si number density = 23.119787 Si / 1000 Ang^3
#
#
#
# Elastic Constant Matrix: (Units=GPa)
#
#
# Indices 1 2 3 4 5 6 
#
# 1 109.3373 15.0075 1.8654 0.0000 -12.8433 0.0000
# 2 15.0075 50.5161 7.3626 0.0000 -1.7779 0.0000
# 3 1.8654 7.3626 68.0704 0.0000 2.5623 0.0000
# 4 0.0000 0.0000 0.0000 18.7962 0.0000 -8.9865
# 5 -12.8433 -1.7779 2.5623 0.0000 38.3400 0.0000
# 6 0.0000 0.0000 0.0000 -8.9865 0.0000 21.9305
#
#
#
# Elastic Compliance Matrix: (Units=1/GPa)
#
#
# Indices 1 2 3 4 5 6 
#
# 1 0.009910 -0.002819 -0.000087 0.000000 0.003195 0.000000
# 2 -0.002819 0.020959 -0.002196 0.000000 0.000174 0.000000
# 3 -0.000087 -0.002196 0.014973 0.000000 -0.001132 0.000000
# 4 0.000000 0.000000 0.000000 0.066165 0.000000 0.027112
# 5 0.003195 0.000174 -0.001132 0.000000 0.027236 0.000000
# 6 0.000000 0.000000 0.000000 0.027112 0.000000 0.056709
#
#
# Mechanical properties :
#
#
# Convention : Reuss Voigt Hill
#
# Bulk Modulus (GPa) = 28.05993 30.71052 29.38522
# Shear Modulus (GPa) = 22.93204 29.39255 26.16229
#
# Velocity S-wave (km/s) = 3.15283 3.56942 3.36757
# Velocity P-wave (km/s) = 5.04152 5.50452 5.27810
#
# Compressibility (1/GPa) = 0.03563801
#
# Stress axis : x y z
#
# Youngs Moduli (GPa) = 100.91144 47.71138 66.78598
#
# Poissons Ratio (x) = 0.13449 0.00581
# Poissons Ratio (y) = 0.28446 0.14668
# Poissons Ratio (z) = 0.00877 0.10479
#
# Static dielectric constant tensor:
#      x y z
#    x 1.907780 0.000000 -0.051060 
#    y 0.000000 1.887370 0.000000 
#    z -0.051060 0.000000 1.940420 
# 
# From -- ./inp_files/43368.got.cif
#   From: 2010.05.17/outbox.cif.g08.bks.cpg/sg14_22_cif.got.tgz:43368.got - 2010.06.03 17:49:19.
