data_PCOD9250430
_publ_section_title
;
Structure prediction by ZEFSAII (Michael W. Deem and Ramdas Pophale) SiO2 
 PCOD9250430
Probable space group: P 21/C
;
_chemical_formula_sum "Si O2"
_cell_formula_units_Z 28
_cell_length_a 10.928522
_cell_length_b 21.812594
_cell_length_c 8.503932
_cell_angle_alpha 90.000000
_cell_angle_beta 141.090708
_cell_angle_gamma 90.000000
_cell_volume 1273.238886
_symmetry_space_group_name_H-M "P 21/C"
_symmetry_group_IT_number 14
_symmetry_cell_setting 'monoclinic'
loop_
_space_group_symop_operation_xyz
x,y,z
-x,1/2+y,1/2-z
-x,-y,-z
x,1/2-y,1/2+z
loop_
_atom_site_type_symbol
_atom_site_label
_atom_site_fract_x
_atom_site_fract_y
_atom_site_fract_z
Si Si1 0.810719 0.569079 0.688210
Si Si2 0.250000 0.750000 0.743305
Si Si3 0.310719 0.430921 0.933229
Si Si4 0.448908 0.933253 0.649650
Si Si5 0.904885 0.338715 0.171882
Si Si6 0.948908 0.066747 0.248165
Si Si7 0.595116 0.338715 0.362114
O O1 0.579022 0.574604 0.436442
O O2 0.908572 0.620641 0.677191
O O3 0.864133 0.501711 0.675507
O O4 0.910480 0.573974 0.958961
O O5 0.143175 0.799556 0.530395
O O6 0.096514 0.712146 0.694164
O O7 0.356825 0.700444 0.744045
O O8 0.403486 0.787854 0.001137
O O9 0.364133 0.498289 0.052758
O O10 0.408572 0.379359 0.139954
O O11 0.410481 0.426026 0.862000
O O12 0.079022 0.425396 0.721602
O O13 0.274239 0.885042 0.474725
O O14 0.774239 0.114958 0.073753
#
# Coordination Sequence:
#
# PCOD9250430 Si02
#       7
#     4   4   4   4   4   4   4
#     4  11  24  40  66 101 132 166 211 272 332 383
#     4  10  24  42  70  82 136 184 212 260 314 382
#     4  11  24  40  66 101 132 166 211 272 332 383
#     4  11  24  40  66 101 132 166 211 272 332 383
#     4  11  22  46  64  96 128 175 220 262 318 391
#     4  11  24  40  66 101 132 166 211 272 332 383
#     4  11  22  46  64  96 128 175 220 262 318 391
#
# _framework density 21.991160000000001
#
# number of rings (size 3 to 8) (size 9 to 14) (size 15 to 20)
#    0.000    1.143    5.714    0.000    4.000    1.143 
#    0.000    8.571    0.000    0.000    0.000    0.000 
#    0.000    0.000    0.000    0.000    0.000    0.000 
#
# Total GULP energy -156634.699806 kJ/mol
# GULP energy per Si atom -5594.096422 kJ/mol
# Density = 2.194111 g / cm^3
# Si number density = 21.991160 Si / 1000 Ang^3
#
#
#
# Elastic Constant Matrix: (Units=GPa)
#
#
# Indices 1 2 3 4 5 6 
#
# 1 37.5225 24.3774 1.6536 0.0000 -6.6891 0.0000
# 2 24.3774 129.4958 19.9727 0.0000 -14.6890 0.0000
# 3 1.6536 19.9727 34.3638 0.0000 -3.8447 0.0000
# 4 0.0000 0.0000 0.0000 26.5932 0.0000 -5.3983
# 5 -6.6891 -14.6890 -3.8447 0.0000 26.4174 0.0000
# 6 0.0000 0.0000 0.0000 -5.3983 0.0000 28.2120
#
#
#
# Elastic Compliance Matrix: (Units=1/GPa)
#
#
# Indices 1 2 3 4 5 6 
#
# 1 0.031120 -0.005644 0.002352 0.000000 0.005084 0.000000
# 2 -0.005644 0.009959 -0.005141 0.000000 0.003360 0.000000
# 3 0.002352 -0.005141 0.032247 0.000000 0.002430 0.000000
# 4 0.000000 0.000000 0.000000 0.039123 0.000000 0.007486
# 5 0.005084 0.003360 0.002430 0.000000 0.041363 0.000000
# 6 0.000000 0.000000 0.000000 0.007486 0.000000 0.036878
#
#
# Mechanical properties :
#
#
# Convention : Reuss Voigt Hill
#
# Bulk Modulus (GPa) = 17.71177 32.59884 25.15531
# Shear Modulus (GPa) = 22.08702 26.60307 24.34504
#
# Velocity S-wave (km/s) = 3.17260 3.48187 3.33083
# Velocity P-wave (km/s) = 4.63595 5.56959 5.12408
#
# Compressibility (1/GPa) = 0.05645962
#
# Stress axis : x y z
#
# Youngs Moduli (GPa) = 32.13332 100.41349 31.01072
#
# Poissons Ratio (x) = 0.56678 -0.07293
# Poissons Ratio (y) = 0.18137 0.15942
# Poissons Ratio (z) = -0.07557 0.51619
#
# Static dielectric constant tensor:
#      x y z
#    x 1.886820 0.000000 0.014340 
#    y 0.000000 1.771040 0.000000 
#    z 0.014340 0.000000 1.891120 
# 
# From -- ./inp_files/14265.got.cif
#   From: 2010.05.17/outbox.cif.g08.bks.cpg/sg14_8_cif.got.tgz:14265.got - 2010.06.03 17:49:19.
