data_PCOD9250096
_publ_section_title
;
Structure prediction by ZEFSAII (Michael W. Deem and Ramdas Pophale) SiO2 
 PCOD9250096
Probable space group: P 21/C
;
_chemical_formula_sum "Si O2"
_cell_formula_units_Z 18
_cell_length_a 9.627714
_cell_length_b 6.687681
_cell_length_c 13.445379
_cell_angle_alpha 90.000000
_cell_angle_beta 47.383648
_cell_angle_gamma 90.000000
_cell_volume 637.078386
_symmetry_space_group_name_H-M "P 21/C"
_symmetry_group_IT_number 14
_symmetry_cell_setting 'monoclinic'
loop_
_space_group_symop_operation_xyz
x,y,z
-x,1/2+y,1/2-z
-x,-y,-z
x,1/2-y,1/2+z
loop_
_atom_site_type_symbol
_atom_site_label
_atom_site_fract_x
_atom_site_fract_y
_atom_site_fract_z
Si Si1 0.366507 0.192593 0.355515
Si Si2 0.500000 0.500000 0.000000
Si Si3 0.881666 0.668251 0.197150
Si Si4 0.847781 0.421614 0.773383
Si Si5 0.224525 0.858755 0.912712
O O1 0.402734 0.079165 0.439807
O O2 0.565915 0.224367 0.204294
O O3 0.270035 0.408980 0.416301
O O4 0.232026 0.082420 0.339683
O O5 0.665700 0.322007 0.909454
O O6 0.970184 0.551137 0.246561
O O7 0.069206 0.767655 0.059954
O O8 0.755236 0.853060 0.303052
O O9 0.870886 0.348120 0.651246
#
# Coordination Sequence:
#
# PCOD9250096 Si02
#       5
#     4   2   4   4   4
#     4  10  23  46  71  98 142 182 238 291 353 412
#     4  10  24  42  68  94 138 180 234 292 340 414
#     4  11  25  42  72 101 143 190 234 289 353 420
#     4  10  24  42  65 102 137 184 242 282 354 418
#     4  10  24  46  68 101 146 185 233 292 348 425
#
# _framework density 28.253979000000001
#
# number of rings (size 3 to 8) (size 9 to 14) (size 15 to 20)
#    0.000    1.778    0.000    2.667   15.556    4.444 
#    0.000    5.556    0.000    0.000    0.000    0.000 
#    0.000    0.000    0.000    0.000    0.000    0.000 
#
# Total GULP energy -100326.012431 kJ/mol
# GULP energy per Si atom -5573.667357 kJ/mol
# Density = 2.818967 g / cm^3
# Si number density = 28.253979 Si / 1000 Ang^3
#
#
#
# Elastic Constant Matrix: (Units=GPa)
#
#
# Indices 1 2 3 4 5 6 
#
# 1 297.3258 57.7989 65.6260 0.0000 45.1932 0.0000
# 2 57.7989 71.3872 32.8457 0.0000 12.8449 0.0000
# 3 65.6260 32.8457 144.4838 0.0000 19.4877 0.0000
# 4 0.0000 0.0000 0.0000 37.1319 0.0000 -1.1129
# 5 45.1932 12.8449 19.4877 0.0000 67.6424 0.0000
# 6 0.0000 0.0000 0.0000 -1.1129 0.0000 52.5842
#
#
#
# Elastic Compliance Matrix: (Units=1/GPa)
#
#
# Indices 1 2 3 4 5 6 
#
# 1 0.004464 -0.002712 -0.001122 0.000000 -0.002144 0.000000
# 2 -0.002712 0.017564 -0.002659 0.000000 -0.000757 0.000000
# 3 -0.001122 -0.002659 0.008184 0.000000 -0.001103 0.000000
# 4 0.000000 0.000000 0.000000 0.026948 0.000000 0.000570
# 5 -0.002144 -0.000757 -0.001103 0.000000 0.016678 0.000000
# 6 0.000000 0.000000 0.000000 0.000570 0.000000 0.019029
#
#
# Mechanical properties :
#
#
# Convention : Reuss Voigt Hill
#
# Bulk Modulus (GPa) = 58.05171 91.74867 74.90019
# Shear Modulus (GPa) = 44.80492 55.26677 50.03584
#
# Velocity S-wave (km/s) = 3.98652 4.42755 4.21281
# Velocity P-wave (km/s) = 6.46381 7.66034 7.08737
#
# Compressibility (1/GPa) = 0.01722602
#
# Stress axis : x y z
#
# Youngs Moduli (GPa) = 224.00740 56.93550 122.19024
#
# Poissons Ratio (x) = 0.15443 0.13708
# Poissons Ratio (y) = 0.60760 0.32486
# Poissons Ratio (z) = 0.25130 0.15137
#
# Static dielectric constant tensor:
#      x y z
#    x 1.909820 0.000000 0.310960 
#    y 0.000000 2.002940 0.000000 
#    z 0.310960 0.000000 1.518610 
# 
# From -- ./inp_files/22718.got.cif
#   From: 2010.05.17/outbox.cif.g08.bks.cpg/sg14_12_cif.got.tgz:22718.got - 2010.06.03 17:49:19.
