data_PCOD9250490
_publ_section_title
;
Structure prediction by ZEFSAII (Michael W. Deem and Ramdas Pophale) SiO2 
 PCOD9250490
Probable space group: P 21/C
;
_chemical_formula_sum "Si O2"
_cell_formula_units_Z 28
_cell_length_a 8.457779
_cell_length_b 18.683245
_cell_length_c 9.910698
_cell_angle_alpha 90.000000
_cell_angle_beta 128.800770
_cell_angle_gamma 90.000000
_cell_volume 1220.489436
_symmetry_space_group_name_H-M "P 21/C"
_symmetry_group_IT_number 14
_symmetry_cell_setting 'monoclinic'
loop_
_space_group_symop_operation_xyz
x,y,z
-x,1/2+y,1/2-z
-x,-y,-z
x,1/2-y,1/2+z
loop_
_atom_site_type_symbol
_atom_site_label
_atom_site_fract_x
_atom_site_fract_y
_atom_site_fract_z
Si Si1 0.574831 0.297134 0.492914
Si Si2 0.155761 0.209790 0.629676
Si Si3 0.567866 0.062742 0.134612
Si Si4 0.945001 0.141270 0.020488
Si Si5 0.047796 0.413277 0.859555
Si Si6 0.835177 0.339225 0.178496
Si Si7 0.621252 0.031329 0.441788
O O1 0.384617 0.277498 0.299385
O O2 0.499276 0.358277 0.555169
O O3 0.736350 0.335777 0.481699
O O4 0.698772 0.232342 0.629176
O O5 0.121823 0.155367 0.486672
O O6 0.062407 0.286220 0.546400
O O7 0.028104 0.181156 0.690458
O O8 0.491389 0.037521 0.238054
O O9 0.813274 0.069878 0.267374
O O10 0.500000 0.000000 0.000000
O O11 0.058131 0.100564 0.202935
O O12 0.890661 0.114934 0.841674
O O13 0.189016 0.478665 0.976412
O O14 0.697761 0.389808 0.013968
O O15 0.500000 0.000000 0.500000
#
# Coordination Sequence:
#
# PCOD9250490 Si02
#       7
#     4   4   4   4   4   4   4
#     4  10  25  42  75  99 138 185 239 282 352 424
#     4  11  22  45  74 100 135 189 235 288 349 422
#     4  11  24  47  74 102 136 190 236 282 356 430
#     4  10  24  43  67 105 140 174 233 296 346 418
#     4  11  25  47  69 102 142 188 233 288 357 434
#     4  11  26  45  67 105 143 179 234 297 346 419
#     4  12  29  45  69 104 145 181 235 300 357 416
#
# _framework density 22.941614999999999
#
# number of rings (size 3 to 8) (size 9 to 14) (size 15 to 20)
#    0.000    1.143    1.429    3.857   12.000    2.857 
#    0.000    0.000    0.000    0.000    0.000    0.000 
#    0.000    0.000    0.000    0.000    0.000    0.000 
#
# Total GULP energy -156588.475760 kJ/mol
# GULP energy per Si atom -5592.445563 kJ/mol
# Density = 2.288940 g / cm^3
# Si number density = 22.941615 Si / 1000 Ang^3
#
#
#
# Elastic Constant Matrix: (Units=GPa)
#
#
# Indices 1 2 3 4 5 6 
#
# 1 27.1010 0.1081 15.5765 0.0000 -0.4210 0.0000
# 2 0.1081 63.0295 14.6494 0.0000 -10.8584 0.0000
# 3 15.5765 14.6494 125.5845 0.0000 -26.4977 0.0000
# 4 0.0000 0.0000 0.0000 34.9031 0.0000 -16.6508
# 5 -0.4210 -10.8584 -26.4977 0.0000 48.4341 0.0000
# 6 0.0000 0.0000 0.0000 -16.6508 0.0000 0.6304
#
#
#
# Elastic Compliance Matrix: (Units=1/GPa)
#
#
# Indices 1 2 3 4 5 6 
#
# 1 0.040074 0.000796 -0.005598 0.000000 -0.002536 0.000000
# 2 0.000796 0.016707 -0.001420 0.000000 0.002976 0.000000
# 3 -0.005598 -0.001420 0.009887 0.000000 0.005042 0.000000
# 4 0.000000 0.000000 0.000000 -0.002470 0.000000 -0.065234
# 5 -0.002536 0.002976 0.005042 0.000000 0.024050 0.000000
# 6 0.000000 0.000000 0.000000 -0.065234 0.000000 -0.136743
#
#
# Mechanical properties :
#
#
# Convention : Reuss Voigt Hill
#
# Bulk Modulus (GPa) = 18.44253 30.70923 24.57588
# Shear Modulus (GPa) = -278.14376 29.15226 -124.49575
#
# Velocity S-wave (km/s) = -11.02284 3.56858 -7.37456
# Velocity P-wave (km/s) = 12.40757 5.51312 7.85981
#
# Compressibility (1/GPa) = 0.05422250
#
# Stress axis : x y z
#
# Youngs Moduli (GPa) = 24.95374 59.85577 101.14746
#
# Poissons Ratio (x) = -0.04762 0.56626
# Poissons Ratio (y) = -0.01985 0.14359
# Poissons Ratio (z) = 0.13970 0.08497
#
# Static dielectric constant tensor:
#      x y z
#    x 1.876490 0.000000 -0.015340 
#    y 0.000000 1.807970 0.000000 
#    z -0.015340 0.000000 1.812190 
# 
# From -- ./inp_files/10438.got.cif
#   From: 2010.05.17/outbox.cif.g08.bks.cpg/sg14_6_cif.got.tgz:10438.got - 2010.06.03 17:49:19.
