data_PCOD9250652
_publ_section_title
;
Structure prediction by ZEFSAII (Michael W. Deem and Ramdas Pophale) SiO2 
 PCOD9250652
Probable space group: P 21/C
;
_chemical_formula_sum "Si O2"
_cell_formula_units_Z 30
_cell_length_a 8.791119
_cell_length_b 11.578042
_cell_length_c 15.009815
_cell_angle_alpha 90.000000
_cell_angle_beta 121.351474
_cell_angle_gamma 90.000000
_cell_volume 1304.692892
_symmetry_space_group_name_H-M "P 21/C"
_symmetry_group_IT_number 14
_symmetry_cell_setting 'monoclinic'
loop_
_space_group_symop_operation_xyz
x,y,z
-x,1/2+y,1/2-z
-x,-y,-z
x,1/2-y,1/2+z
loop_
_atom_site_type_symbol
_atom_site_label
_atom_site_fract_x
_atom_site_fract_y
_atom_site_fract_z
Si Si1 0.509361 0.124722 0.763715
Si Si2 0.196443 0.052889 0.549725
Si Si3 0.579526 0.249249 0.108017
Si Si4 0.117318 0.915635 0.804395
Si Si5 0.948285 0.723142 0.114591
Si Si6 0.112922 0.968705 0.122195
Si Si7 0.348615 0.355498 0.396515
Si Si8 0.500000 0.000000 0.500000
O O1 0.328688 0.063677 0.674053
O O2 0.553210 0.225303 0.704992
O O3 0.674135 0.035296 0.817580
O O4 0.478063 0.168292 0.853951
O O5 0.153722 0.183470 0.504287
O O6 0.317043 0.995969 0.509058
O O7 0.000000 0.000000 0.500000
O O8 0.773685 0.200831 0.142779
O O9 0.544651 0.372772 0.053671
O O10 0.447638 0.157728 0.020987
O O11 0.047623 0.887348 0.684882
O O12 0.253042 0.022096 0.855138
O O13 0.957703 0.948529 0.821382
O O14 0.805455 0.759973 0.145543
O O15 0.061736 0.836451 0.130446
O O16 0.000000 0.000000 0.000000
#
# Coordination Sequence:
#
# PCOD9250652 Si02
#       8
#     4   4   4   4   4   4   4   2
#     4  11  24  47  73 114 152 211 266 324 412 490
#     4  11  25  46  73 112 154 208 273 331 400 495
#     4  11  23  48  73 111 152 205 268 330 405 484
#     4  11  25  45  75 103 157 205 254 335 408 473
#     4  11  24  46  68 111 157 203 262 331 406 479
#     4  11  26  47  74 115 157 204 275 333 406 492
#     4  11  24  46  74 106 151 207 260 334 404 474
#     4  10  24  44  78 102 158 204 254 346 398 472
#
# _framework density 22.993915000000001
#
# number of rings (size 3 to 8) (size 9 to 14) (size 15 to 20)
#    0.000    1.067    4.000    2.000    3.733    5.333 
#    7.200    0.000    0.000    0.000    0.000    0.000 
#    0.000    0.000    0.000    0.000    0.000    0.000 
#
# Total GULP energy -167031.911316 kJ/mol
# GULP energy per Si atom -5567.730377 kJ/mol
# Density = 2.294158 g / cm^3
# Si number density = 22.993915 Si / 1000 Ang^3
#
#
#
# Elastic Constant Matrix: (Units=GPa)
#
#
# Indices 1 2 3 4 5 6 
#
# 1 142.0989 40.5865 50.5511 0.0000 9.8630 0.0000
# 2 40.5865 67.5075 41.3090 0.0000 -4.7059 0.0000
# 3 50.5511 41.3090 115.7120 0.0000 19.1187 0.0000
# 4 0.0000 0.0000 0.0000 29.2668 0.0000 5.9485
# 5 9.8630 -4.7059 19.1187 0.0000 31.5869 0.0000
# 6 0.0000 0.0000 0.0000 5.9485 0.0000 28.1280
#
#
#
# Elastic Compliance Matrix: (Units=1/GPa)
#
#
# Indices 1 2 3 4 5 6 
#
# 1 0.009192 -0.004426 -0.002058 0.000000 -0.002284 0.000000
# 2 -0.004426 0.022929 -0.007827 0.000000 0.009536 0.000000
# 3 -0.002058 -0.007827 0.013803 0.000000 -0.008878 0.000000
# 4 0.000000 0.000000 0.000000 0.035703 0.000000 -0.007550
# 5 -0.002284 0.009536 -0.008878 0.000000 0.039166 0.000000
# 6 0.000000 0.000000 0.000000 -0.007550 0.000000 0.037148
#
#
# Mechanical properties :
#
#
# Convention : Reuss Voigt Hill
#
# Bulk Modulus (GPa) = 57.80444 65.57906 61.69175
# Shear Modulus (GPa) = 25.99675 30.65446 28.32561
#
# Velocity S-wave (km/s) = 3.36608 3.65520 3.51361
# Velocity P-wave (km/s) = 6.34830 6.81147 6.58396
#
# Compressibility (1/GPa) = 0.01729971
#
# Stress axis : x y z
#
# Youngs Moduli (GPa) = 108.78611 43.61344 72.45020
#
# Poissons Ratio (x) = 0.19304 0.14913
# Poissons Ratio (y) = 0.48151 0.56710
# Poissons Ratio (z) = 0.22392 0.34138
#
# Static dielectric constant tensor:
#      x y z
#    x 1.901040 0.000000 0.043520 
#    y 0.000000 1.846190 0.000000 
#    z 0.043520 0.000000 1.931150 
# 
# From -- ./inp_files/40430.got.cif
#   From: 2010.05.17/outbox.cif.g08.bks.cpg/sg14_21_cif.got.tgz:40430.got - 2010.06.03 17:49:19.
