data_PCOD9250712
_publ_section_title
;
Structure prediction by ZEFSAII (Michael W. Deem and Ramdas Pophale) SiO2 
 PCOD9250712
Probable space group: P 21/C
;
_chemical_formula_sum "Si O2"
_cell_formula_units_Z 22
_cell_length_a 15.940204
_cell_length_b 9.746460
_cell_length_c 12.531639
_cell_angle_alpha 90.000000
_cell_angle_beta 27.290677
_cell_angle_gamma 90.000000
_cell_volume 892.673596
_symmetry_space_group_name_H-M "P 21/C"
_symmetry_group_IT_number 14
_symmetry_cell_setting 'monoclinic'
loop_
_space_group_symop_operation_xyz
x,y,z
-x,1/2+y,1/2-z
-x,-y,-z
x,1/2-y,1/2+z
loop_
_atom_site_type_symbol
_atom_site_label
_atom_site_fract_x
_atom_site_fract_y
_atom_site_fract_z
Si Si1 0.500000 0.000000 0.500000
Si Si2 0.080750 0.025040 0.027209
Si Si3 0.079668 0.759425 0.156224
Si Si4 0.178167 0.558628 0.856195
Si Si5 0.456270 0.095863 0.177752
Si Si6 0.552727 0.342282 0.159952
O O1 0.702388 0.986376 0.222015
O O2 0.585920 0.077600 0.512474
O O3 0.019520 0.908979 0.183281
O O4 0.000000 0.000000 0.000000
O O5 0.028566 0.173095 0.132948
O O6 0.099409 0.668091 0.027837
O O7 0.283852 0.749330 0.974457
O O8 0.349411 0.627180 0.599108
O O9 0.293233 0.436494 0.781518
O O10 0.000000 0.500000 0.000000
O O11 0.403204 0.225078 0.309584
O O12 0.489125 0.958058 0.206705
#
# Coordination Sequence:
#
# PCOD9250712 Si02
#       6
#     2   4   4   4   4   4
#     4  12  26  48  84 110 160 212 268 328 406 482
#     4  12  28  54  80 122 161 217 272 342 404 492
#     4  11  27  50  79 113 166 203 271 335 401 477
#     4  10  24  45  72 109 142 203 258 320 388 482
#     4  10  24  47  71 107 157 191 254 329 395 464
#     4  11  24  47  76 113 155 205 256 331 393 485
#
# _framework density 24.645066
#
# number of rings (size 3 to 8) (size 9 to 14) (size 15 to 20)
#    0.000    1.091    1.818    2.182    5.091    7.273 
#    3.273    0.000    0.000    0.000    0.000    0.000 
#    0.000    0.000    0.000    0.000    0.000    0.000 
#
# Total GULP energy -122523.352277 kJ/mol
# GULP energy per Si atom -5569.243285 kJ/mol
# Density = 2.458897 g / cm^3
# Si number density = 24.645066 Si / 1000 Ang^3
#
#
#
# Elastic Constant Matrix: (Units=GPa)
#
#
# Indices 1 2 3 4 5 6 
#
# 1 134.7706 40.7481 11.1892 0.0000 -12.2464 0.0000
# 2 40.7481 58.8887 15.4781 0.0000 9.4993 0.0000
# 3 11.1892 15.4781 97.0586 0.0000 -10.8484 0.0000
# 4 0.0000 0.0000 0.0000 8.6411 0.0000 4.6719
# 5 -12.2464 9.4993 -10.8484 0.0000 28.9051 0.0000
# 6 0.0000 0.0000 0.0000 4.6719 0.0000 52.6725
#
#
#
# Elastic Compliance Matrix: (Units=1/GPa)
#
#
# Indices 1 2 3 4 5 6 
#
# 1 0.010780 -0.009025 0.001084 0.000000 0.007940 0.000000
# 2 -0.009025 0.026836 -0.004856 0.000000 -0.014466 0.000000
# 3 0.001084 -0.004856 0.011672 0.000000 0.006436 0.000000
# 4 0.000000 0.000000 0.000000 0.121556 0.000000 -0.010782
# 5 0.007940 -0.014466 0.006436 0.000000 0.045129 0.000000
# 6 0.000000 0.000000 0.000000 -0.010782 0.000000 0.019942
#
#
# Mechanical properties :
#
#
# Convention : Reuss Voigt Hill
#
# Bulk Modulus (GPa) = 42.20532 47.28319 44.74425
# Shear Modulus (GPa) = 18.55928 32.93055 25.74492
#
# Velocity S-wave (km/s) = 2.74718 3.65936 3.23558
# Velocity P-wave (km/s) = 5.21777 6.08949 5.67040
#
# Compressibility (1/GPa) = 0.02369369
#
# Stress axis : x y z
#
# Youngs Moduli (GPa) = 92.76158 37.26344 85.67659
#
# Poissons Ratio (x) = 0.33631 -0.09287
# Poissons Ratio (y) = 0.83719 0.41604
# Poissons Ratio (z) = -0.10055 0.18095
#
# Static dielectric constant tensor:
#      x y z
#    x 2.014440 0.000000 0.006910 
#    y 0.000000 2.026810 0.000000 
#    z 0.006910 0.000000 1.982930 
# 
# From -- ./inp_files/32120.got.cif
#   From: 2010.05.17/outbox.cif.g08.bks.cpg/sg14_17_cif.got.tgz:32120.got - 2010.06.03 17:49:19.
