data_PCOD9250316
_publ_section_title
;
Structure prediction by ZEFSAII (Michael W. Deem and Ramdas Pophale) SiO2 
 PCOD9250316
Probable space group: P 21/C
;
_chemical_formula_sum "Si O2"
_cell_formula_units_Z 28
_cell_length_a 14.612606
_cell_length_b 12.050360
_cell_length_c 8.029719
_cell_angle_alpha 90.000000
_cell_angle_beta 73.703377
_cell_angle_gamma 90.000000
_cell_volume 1357.121304
_symmetry_space_group_name_H-M "P 21/C"
_symmetry_group_IT_number 14
_symmetry_cell_setting 'monoclinic'
loop_
_space_group_symop_operation_xyz
x,y,z
-x,1/2+y,1/2-z
-x,-y,-z
x,1/2-y,1/2+z
loop_
_atom_site_type_symbol
_atom_site_label
_atom_site_fract_x
_atom_site_fract_y
_atom_site_fract_z
Si Si1 0.464035 0.162691 0.948995
Si Si2 0.849833 0.404591 0.202483
Si Si3 0.345439 0.541748 0.588528
Si Si4 0.573320 0.595998 0.912214
Si Si5 0.762245 0.995912 0.196443
Si Si6 0.105857 0.673957 0.183165
Si Si7 0.932038 0.924919 0.918947
O O1 0.571204 0.131878 0.946253
O O2 0.450411 0.127465 0.765757
O O3 0.441138 0.291043 0.979905
O O4 0.394552 0.078784 0.085166
O O5 0.738772 0.435178 0.239311
O O6 0.856005 0.297933 0.319934
O O7 0.900635 0.504359 0.273627
O O8 0.894787 0.370105 0.004559
O O9 0.295486 0.542868 0.433054
O O10 0.682623 0.555083 0.857084
O O11 0.500000 0.500000 0.000000
O O12 0.824401 0.091304 0.251331
O O13 0.837040 0.907649 0.077420
O O14 0.000563 0.671424 0.318789
O O15 0.000000 0.000000 0.000000
#
# Coordination Sequence:
#
# PCOD9250316 Si02
#       7
#     4   4   4   4   4   4   4
#     4  10  24  41  64  89 134 170 212 269 323 378
#     4  11  22  36  63  93 120 165 212 257 322 381
#     4   9  21  41  61  89 126 171 213 263 317 373
#     4  11  26  41  65  95 130 169 222 260 330 392
#     4   9  21  41  61  90 123 164 210 263 317 384
#     4  11  22  37  62  90 125 158 210 265 318 379
#     4   9  19  41  60  84 125 153 201 260 308 375
#
# _framework density 20.631907999999999
#
# number of rings (size 3 to 8) (size 9 to 14) (size 15 to 20)
#    0.000    2.000    0.000    3.000   10.000    0.000 
#    0.000   14.286    0.000    0.000    0.000    0.000 
#    0.000    0.000    0.000    0.000    0.000    0.000 
#
# Total GULP energy -156358.768216 kJ/mol
# GULP energy per Si atom -5584.241722 kJ/mol
# Density = 2.058495 g / cm^3
# Si number density = 20.631908 Si / 1000 Ang^3
#
#
#
# Elastic Constant Matrix: (Units=GPa)
#
#
# Indices 1 2 3 4 5 6 
#
# 1 108.2666 32.7698 25.7340 0.0000 -24.4400 0.0000
# 2 32.7698 95.0391 23.3586 0.0000 -27.3853 0.0000
# 3 25.7340 23.3586 62.1151 0.0000 -23.8821 0.0000
# 4 0.0000 0.0000 0.0000 30.2220 0.0000 -2.4765
# 5 -24.4400 -27.3853 -23.8821 0.0000 35.5077 0.0000
# 6 0.0000 0.0000 0.0000 -2.4765 0.0000 14.3032
#
#
#
# Elastic Compliance Matrix: (Units=1/GPa)
#
#
# Indices 1 2 3 4 5 6 
#
# 1 0.011456 -0.002017 -0.002096 0.000000 0.004919 0.000000
# 2 -0.002017 0.013981 -0.001092 0.000000 0.008660 0.000000
# 3 -0.002096 -0.001092 0.022255 0.000000 0.012683 0.000000
# 4 0.000000 0.000000 0.000000 0.033565 0.000000 0.005811
# 5 0.004919 0.008660 0.012683 0.000000 0.046758 0.000000
# 6 0.000000 0.000000 0.000000 0.005811 0.000000 0.070921
#
#
# Mechanical properties :
#
#
# Convention : Reuss Voigt Hill
#
# Bulk Modulus (GPa) = 26.82381 47.68286 37.25333
# Shear Modulus (GPa) = 22.54548 28.24380 25.39464
#
# Velocity S-wave (km/s) = 3.30926 3.70393 3.51214
# Velocity P-wave (km/s) = 5.25652 6.43844 5.87726
#
# Compressibility (1/GPa) = 0.03728032
#
# Stress axis : x y z
#
# Youngs Moduli (GPa) = 87.29239 71.52371 44.93422
#
# Poissons Ratio (x) = 0.14429 0.09418
# Poissons Ratio (y) = 0.17610 0.04909
# Poissons Ratio (z) = 0.18297 0.07813
#
# Static dielectric constant tensor:
#      x y z
#    x 1.736800 0.000000 -0.022060 
#    y 0.000000 1.366530 0.000000 
#    z -0.022060 0.000000 1.790240 
# 
# From -- ./inp_files/15509.got.cif
#   From: 2010.05.17/outbox.cif.g08.bks.cpg/sg14_8_cif.got.tgz:15509.got - 2010.06.03 17:49:19.
