data_PCOD9250526
_publ_section_title
;
Structure prediction by ZEFSAII (Michael W. Deem and Ramdas Pophale) SiO2 
 PCOD9250526
Probable space group: P 21/C
;
_chemical_formula_sum "Si O2"
_cell_formula_units_Z 28
_cell_length_a 18.718527
_cell_length_b 5.163004
_cell_length_c 19.913886
_cell_angle_alpha 90.000000
_cell_angle_beta 142.076715
_cell_angle_gamma 90.000000
_cell_volume 1182.842243
_symmetry_space_group_name_H-M "P 21/C"
_symmetry_group_IT_number 14
_symmetry_cell_setting 'monoclinic'
loop_
_space_group_symop_operation_xyz
x,y,z
-x,1/2+y,1/2-z
-x,-y,-z
x,1/2-y,1/2+z
loop_
_atom_site_type_symbol
_atom_site_label
_atom_site_fract_x
_atom_site_fract_y
_atom_site_fract_z
Si Si1 0.636500 0.641290 0.428466
Si Si2 0.271936 0.887004 0.705407
Si Si3 0.020483 0.405401 0.674664
Si Si4 0.533252 0.132680 0.593457
Si Si5 0.874112 0.606569 0.385655
Si Si6 0.886451 0.600950 0.104114
Si Si7 0.533864 0.719619 0.710229
O O1 0.576934 0.729046 0.453645
O O2 0.759027 0.774257 0.508688
O O3 0.604070 0.335815 0.404184
O O4 0.562509 0.702999 0.306694
O O5 0.354652 0.821712 0.831479
O O6 0.208194 0.617245 0.646278
O O7 0.175736 0.112592 0.632208
O O8 0.374732 0.985807 0.734161
O O9 0.964819 0.687392 0.624336
O O10 0.115687 0.373371 0.687636
O O11 0.075840 0.398949 0.789728
O O12 0.921402 0.180230 0.600929
O O13 0.500000 0.000000 0.500000
O O14 0.564689 0.921124 0.674092
O O15 0.000000 0.500000 0.500000
#
# Coordination Sequence:
#
# PCOD9250526 Si02
#       7
#     4   4   4   4   4   4   4
#     4  11  25  41  77 103 146 193 238 303 374 442
#     4  11  26  46  71 102 150 186 242 308 364 441
#     4  10  24  45  64 104 137 176 249 288 357 441
#     4  11  26  48  74 111 148 194 249 307 383 455
#     4  12  26  44  71 104 141 194 238 303 370 437
#     4  10  24  43  70  97 138 186 230 305 355 432
#     4  11  24  46  69 112 143 190 251 298 370 461
#
# _framework density 23.671796000000001
#
# number of rings (size 3 to 8) (size 9 to 14) (size 15 to 20)
#    0.000    1.143    2.857    1.286    8.000    3.429 
#    0.000    0.000    0.000    0.000    0.000    0.000 
#    0.000    0.000    0.000    0.000    0.000    0.000 
#
# Total GULP energy -156142.722411 kJ/mol
# GULP energy per Si atom -5576.525800 kJ/mol
# Density = 2.361792 g / cm^3
# Si number density = 23.671796 Si / 1000 Ang^3
#
#
#
# Elastic Constant Matrix: (Units=GPa)
#
#
# Indices 1 2 3 4 5 6 
#
# 1 48.8692 8.2636 21.7071 0.0000 -19.7804 0.0000
# 2 8.2636 101.0674 20.1166 0.0000 -3.9098 0.0000
# 3 21.7071 20.1166 66.8295 0.0000 3.4545 0.0000
# 4 0.0000 0.0000 0.0000 39.7238 0.0000 10.9383
# 5 -19.7804 -3.9098 3.4545 0.0000 29.6953 0.0000
# 6 0.0000 0.0000 0.0000 10.9383 0.0000 34.5696
#
#
#
# Elastic Compliance Matrix: (Units=1/GPa)
#
#
# Indices 1 2 3 4 5 6 
#
# 1 0.037061 0.000699 -0.013611 0.000000 0.026362 0.000000
# 2 0.000699 0.010631 -0.003545 0.000000 0.002277 0.000000
# 3 -0.013611 -0.003545 0.021071 0.000000 -0.011984 0.000000
# 4 0.000000 0.000000 0.000000 0.027576 0.000000 -0.008726
# 5 0.026362 0.002277 -0.011984 0.000000 0.052930 0.000000
# 6 0.000000 0.000000 0.000000 -0.008726 0.000000 0.031688
#
#
# Mechanical properties :
#
#
# Convention : Reuss Voigt Hill
#
# Bulk Modulus (GPa) = 27.89486 35.21565 31.55525
# Shear Modulus (GPa) = 22.14150 31.90965 27.02557
#
# Velocity S-wave (km/s) = 3.06167 3.67550 3.38254
# Velocity P-wave (km/s) = 4.93032 5.73771 5.34927
#
# Compressibility (1/GPa) = 0.03584890
#
# Stress axis : x y z
#
# Youngs Moduli (GPa) = 26.98265 94.06529 47.45864
#
# Poissons Ratio (x) = -0.06573 0.64596
# Poissons Ratio (y) = -0.01885 0.16823
# Poissons Ratio (z) = 0.36726 0.33344
#
# Static dielectric constant tensor:
#      x y z
#    x 1.929000 0.000000 0.053450 
#    y 0.000000 2.102030 0.000000 
#    z 0.053450 0.000000 1.983300 
# 
# From -- ./inp_files/68976.got.cif
#   From: 2010.05.17/outbox.cif.g08.bks.cpg/sg14_35_cif.got.tgz:68976.got - 2010.06.03 17:49:19.
