data_PCOD9250385
_publ_section_title
;
Structure prediction by ZEFSAII (Michael W. Deem and Ramdas Pophale) SiO2 
 PCOD9250385
Probable space group: P 21/C
;
_chemical_formula_sum "Si O2"
_cell_formula_units_Z 20
_cell_length_a 10.873818
_cell_length_b 8.953329
_cell_length_c 10.678813
_cell_angle_alpha 90.000000
_cell_angle_beta 104.095151
_cell_angle_gamma 90.000000
_cell_volume 1008.354506
_symmetry_space_group_name_H-M "P 21/C"
_symmetry_group_IT_number 14
_symmetry_cell_setting 'monoclinic'
loop_
_space_group_symop_operation_xyz
x,y,z
-x,1/2+y,1/2-z
-x,-y,-z
x,1/2-y,1/2+z
loop_
_atom_site_type_symbol
_atom_site_label
_atom_site_fract_x
_atom_site_fract_y
_atom_site_fract_z
Si Si1 0.322411 0.977481 0.851464
Si Si2 0.937797 0.426898 0.107795
Si Si3 0.329684 0.978060 0.567670
Si Si4 0.474464 0.250095 0.992766
Si Si5 0.949982 0.425421 0.614580
O O1 0.282167 0.967644 0.697509
O O2 0.428571 0.852843 0.905466
O O3 0.200480 0.953015 0.907675
O O4 0.385666 0.137009 0.894993
O O5 0.971231 0.252029 0.118398
O O6 0.984124 0.503293 0.246998
O O7 0.786625 0.446293 0.053801
O O8 0.000000 0.500000 0.000000
O O9 0.439785 0.856838 0.572393
O O10 0.389977 0.139463 0.555323
O O11 0.000000 0.500000 0.500000
#
# Coordination Sequence:
#
# PCOD9250385 Si02
#       5
#     4   4   4   4   4
#     4  11  23  45  69  96 139 169 228 274 341 401
#     4  12  26  47  71  99 139 182 235 284 343 406
#     4  11  23  44  71  97 134 172 227 275 342 400
#     4  10  24  42  66 104 129 177 215 281 337 407
#     4  12  28  45  71 103 137 186 231 285 344 405
#
# _framework density 19.834295000000001
#
# number of rings (size 3 to 8) (size 9 to 14) (size 15 to 20)
#    0.000    0.800    4.000    2.400    5.600    0.000 
#   14.400    0.000    0.000    0.000    0.000    0.000 
#    0.000    0.000    0.000    0.000    0.000    0.000 
#
# Total GULP energy -111871.225004 kJ/mol
# GULP energy per Si atom -5593.561250 kJ/mol
# Density = 1.978915 g / cm^3
# Si number density = 19.834295 Si / 1000 Ang^3
#
#
#
# Elastic Constant Matrix: (Units=GPa)
#
#
# Indices 1 2 3 4 5 6 
#
# 1 71.0105 49.6307 41.3464 0.0000 -7.0921 0.0000
# 2 49.6307 179.2715 65.4265 0.0000 -0.5368 0.0000
# 3 41.3464 65.4265 128.4368 0.0000 -2.1971 0.0000
# 4 0.0000 0.0000 0.0000 20.9223 0.0000 -0.0371
# 5 -7.0921 -0.5368 -2.1971 0.0000 36.8904 0.0000
# 6 0.0000 0.0000 0.0000 -0.0371 0.0000 13.7934
#
#
#
# Elastic Compliance Matrix: (Units=1/GPa)
#
#
# Indices 1 2 3 4 5 6 
#
# 1 0.019623 -0.003855 -0.004294 0.000000 0.003461 0.000000
# 2 -0.003855 0.007610 -0.002649 0.000000 -0.000788 0.000000
# 3 -0.004294 -0.002649 0.010514 0.000000 -0.000238 0.000000
# 4 0.000000 0.000000 0.000000 0.047796 0.000000 0.000129
# 5 0.003461 -0.000788 -0.000238 0.000000 0.027747 0.000000
# 6 0.000000 0.000000 0.000000 0.000129 0.000000 0.072499
#
#
# Mechanical properties :
#
#
# Convention : Reuss Voigt Hill
#
# Bulk Modulus (GPa) = 61.91900 76.83621 69.37761
# Shear Modulus (GPa) = 23.49988 29.14222 26.32105
#
# Velocity S-wave (km/s) = 3.44584 3.83728 3.64682
# Velocity P-wave (km/s) = 6.86423 7.64566 7.26546
#
# Compressibility (1/GPa) = 0.01615013
#
# Stress axis : x y z
#
# Youngs Moduli (GPa) = 50.96186 131.41020 95.11519
#
# Poissons Ratio (x) = 0.50658 0.40842
# Poissons Ratio (y) = 0.19646 0.25196
# Poissons Ratio (z) = 0.21883 0.34810
#
# Static dielectric constant tensor:
#      x y z
#    x 1.691040 0.000000 0.008390 
#    y 0.000000 1.668550 0.000000 
#    z 0.008390 0.000000 1.665180 
# 
# From -- ./inp_files/11799.got.cif
#   From: 2010.05.17/outbox.cif.g08.bks.cpg/sg14_6_cif.got.tgz:11799.got - 2010.06.03 17:49:19.
