data_PCOD9250793
_publ_section_title
;
Structure prediction by ZEFSAII (Michael W. Deem and Ramdas Pophale) SiO2 
 PCOD9250793
Probable space group: P 21/C
;
_chemical_formula_sum "Si O2"
_cell_formula_units_Z 12
_cell_length_a 8.062232
_cell_length_b 8.026358
_cell_length_c 6.515321
_cell_angle_alpha 90.000000
_cell_angle_beta 73.266058
_cell_angle_gamma 90.000000
_cell_volume 403.754521
_symmetry_space_group_name_H-M "P 21/C"
_symmetry_group_IT_number 14
_symmetry_cell_setting 'monoclinic'
loop_
_space_group_symop_operation_xyz
x,y,z
-x,1/2+y,1/2-z
-x,-y,-z
x,1/2-y,1/2+z
loop_
_atom_site_type_symbol
_atom_site_label
_atom_site_fract_x
_atom_site_fract_y
_atom_site_fract_z
Si Si1 0.934603 0.492048 0.261652
Si Si2 0.401249 0.422442 0.727147
Si Si3 0.731967 0.355930 0.845329
O O1 0.781080 0.632279 0.311591
O O2 0.839389 0.315373 0.337016
O O3 0.117165 0.528267 0.308335
O O4 0.000000 0.500000 0.000000
O O5 0.500000 0.500000 0.500000
O O6 0.557193 0.323317 0.779181
O O7 0.337477 0.540410 0.935639
#
# Coordination Sequence:
#
# PCOD9250793 Si02
#       3
#     4   4   4
#     4  10  24  48  76 114 153 204 257 320 394 463
#     4  10  24  46  73 108 150 205 253 314 383 463
#     4  10  24  50  75 109 158 199 260 324 387 465
#
# _framework density 29.721032000000001
#
# number of rings (size 3 to 8) (size 9 to 14) (size 15 to 20)
#    0.000    2.000    0.000    0.000    9.333    4.000 
#   12.000    0.000    0.000    0.000    0.000    0.000 
#    0.000    0.000    0.000    0.000    0.000    0.000 
#
# Total GULP energy -66979.425314 kJ/mol
# GULP energy per Si atom -5581.618776 kJ/mol
# Density = 2.965339 g / cm^3
# Si number density = 29.721032 Si / 1000 Ang^3
#
#
#
# Elastic Constant Matrix: (Units=GPa)
#
#
# Indices 1 2 3 4 5 6 
#
# 1 285.0617 80.7752 43.1067 0.0000 -46.7267 0.0000
# 2 80.7752 154.4174 48.7840 0.0000 -28.4308 0.0000
# 3 43.1067 48.7840 114.2922 0.0000 -52.0565 0.0000
# 4 0.0000 0.0000 0.0000 56.7611 0.0000 -12.5312
# 5 -46.7267 -28.4308 -52.0565 0.0000 77.6501 0.0000
# 6 0.0000 0.0000 0.0000 -12.5312 0.0000 50.3748
#
#
#
# Elastic Compliance Matrix: (Units=1/GPa)
#
#
# Indices 1 2 3 4 5 6 
#
# 1 0.004371 -0.001949 0.000081 0.000000 0.001971 0.000000
# 2 -0.001949 0.008395 -0.002854 0.000000 -0.000012 0.000000
# 3 0.000081 -0.002854 0.013652 0.000000 0.008156 0.000000
# 4 0.000000 0.000000 0.000000 0.018641 0.000000 0.004637
# 5 0.001971 -0.000012 0.008156 0.000000 0.019528 0.000000
# 6 0.000000 0.000000 0.000000 0.004637 0.000000 0.021005
#
#
# Mechanical properties :
#
#
# Convention : Reuss Voigt Hill
#
# Bulk Modulus (GPa) = 58.91277 99.90031 79.40654
# Shear Modulus (GPa) = 49.65563 62.36424 56.00994
#
# Velocity S-wave (km/s) = 4.09188 4.58571 4.34582
# Velocity P-wave (km/s) = 6.49535 7.85646 7.20811
#
# Compressibility (1/GPa) = 0.01697425
#
# Stress axis : x y z
#
# Youngs Moduli (GPa) = 228.77079 119.12035 73.25030
#
# Poissons Ratio (x) = 0.23220 -0.00594
# Poissons Ratio (y) = 0.44594 0.20903
# Poissons Ratio (z) = -0.01856 0.33993
#
# Static dielectric constant tensor:
#      x y z
#    x 2.656310 0.000000 0.235000 
#    y 0.000000 2.422610 0.000000 
#    z 0.235000 0.000000 2.391110 
# 
# From -- ./inp_files/7130.got.cif
#   From: 2010.05.17/outbox.cif.g08.bks.cpg/sg14_4_cif.got.tgz:7130.got - 2010.06.03 17:49:19.
