data_PCOD9250572
_publ_section_title
;
Structure prediction by ZEFSAII (Michael W. Deem and Ramdas Pophale) SiO2 
 PCOD9250572
Probable space group: P 21/C
;
_chemical_formula_sum "Si O2"
_cell_formula_units_Z 28
_cell_length_a 7.934954
_cell_length_b 5.746728
_cell_length_c 32.037932
_cell_angle_alpha 90.000000
_cell_angle_beta 64.099586
_cell_angle_gamma 90.000000
_cell_volume 1314.186708
_symmetry_space_group_name_H-M "P 21/C"
_symmetry_group_IT_number 14
_symmetry_cell_setting 'monoclinic'
loop_
_space_group_symop_operation_xyz
x,y,z
-x,1/2+y,1/2-z
-x,-y,-z
x,1/2-y,1/2+z
loop_
_atom_site_type_symbol
_atom_site_label
_atom_site_fract_x
_atom_site_fract_y
_atom_site_fract_z
Si Si1 0.782551 0.505886 0.533763
Si Si2 0.370273 0.066523 0.642438
Si Si3 0.306263 0.900659 0.733829
Si Si4 0.039947 0.837471 0.329842
Si Si5 0.594452 0.502600 0.034787
Si Si6 0.711456 0.767384 0.706832
Si Si7 0.702639 0.401005 0.635871
O O1 0.696021 0.252247 0.529399
O O2 0.746814 0.516916 0.587247
O O3 0.000000 0.500000 0.500000
O O4 0.706751 0.752188 0.524265
O O5 0.452375 0.982334 0.589611
O O6 0.533248 0.221694 0.646040
O O7 0.176846 0.200017 0.654578
O O8 0.315786 0.874598 0.683331
O O9 0.169627 0.742019 0.776358
O O10 0.518530 0.908000 0.728804
O O11 0.240021 0.158739 0.753768
O O12 0.116097 0.723067 0.363891
O O13 0.102874 0.103318 0.328013
O O14 0.500000 0.500000 0.000000
O O15 0.659330 0.581425 0.676952
#
# Coordination Sequence:
#
# PCOD9250572 Si02
#       7
#     4   4   4   4   4   4   4
#     4  11  25  46  81 107 141 192 236 300 373 443
#     4  11  25  44  68  98 142 184 237 292 361 428
#     4  11  21  38  61  93 132 178 232 284 348 416
#     4  11  25  40  65  99 135 190 233 291 352 433
#     4  11  26  50  74 111 147 185 240 308 369 429
#     4  11  20  40  65  90 134 180 226 291 345 414
#     4  10  24  44  66  97 140 176 237 287 363 417
#
# _framework density 21.305952000000001
#
# number of rings (size 3 to 8) (size 9 to 14) (size 15 to 20)
#    0.000    1.143    2.857    2.571    6.000    1.143 
#   12.857    0.000    0.000    0.000    0.000    0.000 
#    0.000    0.000    0.000    0.000    0.000    0.000 
#
# Total GULP energy -156084.057351 kJ/mol
# GULP energy per Si atom -5574.430620 kJ/mol
# Density = 2.125746 g / cm^3
# Si number density = 21.305952 Si / 1000 Ang^3
#
#
#
# Elastic Constant Matrix: (Units=GPa)
#
#
# Indices 1 2 3 4 5 6 
#
# 1 124.9742 37.2589 57.2045 0.0000 5.1393 0.0000
# 2 37.2589 84.7424 44.9910 0.0000 7.9861 0.0000
# 3 57.2045 44.9910 128.6771 0.0000 19.7142 0.0000
# 4 0.0000 0.0000 0.0000 26.2265 0.0000 5.8542
# 5 5.1393 7.9861 19.7142 0.0000 33.2758 0.0000
# 6 0.0000 0.0000 0.0000 5.8542 0.0000 23.6584
#
#
#
# Elastic Compliance Matrix: (Units=1/GPa)
#
#
# Indices 1 2 3 4 5 6 
#
# 1 0.010557 -0.002662 -0.003971 0.000000 0.001361 0.000000
# 2 -0.002662 0.015170 -0.003988 0.000000 -0.000867 0.000000
# 3 -0.003971 -0.003988 0.011758 0.000000 -0.005395 0.000000
# 4 0.000000 0.000000 0.000000 0.040359 0.000000 -0.009987
# 5 0.001361 -0.000867 -0.005395 0.000000 0.033246 0.000000
# 6 0.000000 0.000000 0.000000 -0.009987 0.000000 0.044739
#
#
# Mechanical properties :
#
#
# Convention : Reuss Voigt Hill
#
# Bulk Modulus (GPa) = 61.56424 68.58918 65.07671
# Shear Modulus (GPa) = 27.39971 29.89477 28.64724
#
# Velocity S-wave (km/s) = 3.58999 3.74989 3.67081
# Velocity P-wave (km/s) = 6.79280 7.14222 6.96970
#
# Compressibility (1/GPa) = 0.01624320
#
# Stress axis : x y z
#
# Youngs Moduli (GPa) = 94.72528 65.92127 85.05048
#
# Poissons Ratio (x) = 0.17545 0.33774
# Poissons Ratio (y) = 0.25211 0.33917
# Poissons Ratio (z) = 0.37616 0.26289
#
# Static dielectric constant tensor:
#      x y z
#    x 1.777500 0.000000 -0.006730 
#    y 0.000000 1.957380 0.000000 
#    z -0.006730 0.000000 1.797560 
# 
# From -- ./inp_files/79194.got.cif
#   From: 2010.05.17/outbox.cif.g08.bks.cpg/sg14_40_cif.got.tgz:79194.got - 2010.06.03 17:49:19.
