data_PCOD9250029
_publ_section_title
;
Structure prediction by ZEFSAII (Michael W. Deem and Ramdas Pophale) SiO2 
 PCOD9250029
Probable space group: P 21/C
;
_chemical_formula_sum "Si O2"
_cell_formula_units_Z 24
_cell_length_a 15.996189
_cell_length_b 5.020687
_cell_length_c 23.538180
_cell_angle_alpha 90.000000
_cell_angle_beta 34.956163
_cell_angle_gamma 90.000000
_cell_volume 1083.100922
_symmetry_space_group_name_H-M "P 21/C"
_symmetry_group_IT_number 14
_symmetry_cell_setting 'monoclinic'
loop_
_space_group_symop_operation_xyz
x,y,z
-x,1/2+y,1/2-z
-x,-y,-z
x,1/2-y,1/2+z
loop_
_atom_site_type_symbol
_atom_site_label
_atom_site_fract_x
_atom_site_fract_y
_atom_site_fract_z
Si Si1 0.854707 0.876504 0.205762
Si Si2 0.646712 0.582128 0.233518
Si Si3 0.083144 0.751147 0.926042
Si Si4 0.102060 0.540241 0.196394
Si Si5 0.664535 0.869636 0.104805
Si Si6 0.830084 0.137733 0.462353
O O1 0.728718 0.736401 0.238894
O O2 0.907141 0.142166 0.143853
O O3 0.817329 0.956053 0.290857
O O4 0.995764 0.682400 0.129177
O O5 0.751639 0.341232 0.156334
O O6 0.636044 0.782841 0.185887
O O7 0.491882 0.452277 0.333505
O O8 0.000000 0.500000 0.000000
O O9 0.000000 0.000000 0.000000
O O10 0.012562 0.277251 0.226737
O O11 0.195986 0.642204 0.090958
O O12 0.762942 0.121916 0.035358
O O13 0.753675 0.625472 0.028212
#
# Coordination Sequence:
#
# PCOD9250029 Si02
#       6
#     4   4   4   4   4   4
#     4  11  26  45  76 109 142 185 248 305 350 424
#     4  12  29  47  69 107 151 193 233 297 372 429
#     4  12  25  41  69 106 138 177 237 295 354 422
#     4  10  23  45  72 106 143 183 237 308 364 406
#     4  12  28  46  68 101 152 194 227 289 368 436
#     4  11  25  46  74 104 139 189 244 290 352 431
#
# _framework density 22.1586
#
# number of rings (size 3 to 8) (size 9 to 14) (size 15 to 20)
#    0.000    0.667    1.667    5.000   14.000    0.000 
#    0.000    1.667    0.000    0.000    0.000    0.000 
#    0.000    0.000    0.000    0.000    0.000    0.000 
#
# Total GULP energy -134131.939730 kJ/mol
# GULP energy per Si atom -5588.830822 kJ/mol
# Density = 2.210817 g / cm^3
# Si number density = 22.158600 Si / 1000 Ang^3
#
#
#
# Elastic Constant Matrix: (Units=GPa)
#
#
# Indices 1 2 3 4 5 6 
#
# 1 141.4481 44.9845 52.7182 0.0000 14.3926 0.0000
# 2 44.9845 170.8460 26.2830 0.0000 2.1360 0.0000
# 3 52.7182 26.2830 50.0013 0.0000 -2.4438 0.0000
# 4 0.0000 0.0000 0.0000 21.3003 0.0000 -1.6913
# 5 14.3926 2.1360 -2.4438 0.0000 43.7320 0.0000
# 6 0.0000 0.0000 0.0000 -1.6913 0.0000 42.2789
#
#
#
# Elastic Compliance Matrix: (Units=1/GPa)
#
#
# Indices 1 2 3 4 5 6 
#
# 1 0.012880 -0.001310 -0.013131 0.000000 -0.004909 0.000000
# 2 -0.001310 0.006512 -0.002042 0.000000 -0.000001 0.000000
# 3 -0.013131 -0.002042 0.035230 0.000000 0.006390 0.000000
# 4 0.000000 0.000000 0.000000 0.047097 0.000000 0.001884
# 5 -0.004909 -0.000001 0.006390 0.000000 0.024839 0.000000
# 6 0.000000 0.000000 0.000000 0.001884 0.000000 0.023728
#
#
# Mechanical properties :
#
#
# Convention : Reuss Voigt Hill
#
# Bulk Modulus (GPa) = 46.17716 67.80742 56.99229
# Shear Modulus (GPa) = 26.25078 37.34955 31.80017
#
# Velocity S-wave (km/s) = 3.44565 4.11001 3.79240
# Velocity P-wave (km/s) = 6.05926 7.29316 6.70466
#
# Compressibility (1/GPa) = 0.02165573
#
# Stress axis : x y z
#
# Youngs Moduli (GPa) = 77.64153 153.55561 28.38516
#
# Poissons Ratio (x) = 0.20113 0.37272
# Poissons Ratio (y) = 0.10170 0.05797
# Poissons Ratio (z) = 1.01951 0.31359
#
# Static dielectric constant tensor:
#      x y z
#    x 1.573050 0.000000 -0.198050 
#    y 0.000000 3.708530 0.000000 
#    z -0.198050 0.000000 1.681320 
# 
# From -- ./inp_files/77656.got.cif
#   From: 2010.05.17/outbox.cif.g08.bks.cpg/sg14_39_cif.got.tgz:77656.got - 2010.06.03 17:49:19.
