data_PCOD9250825
_publ_section_title
;
Structure prediction by ZEFSAII (Michael W. Deem and Ramdas Pophale) SiO2 
 PCOD9250825
Probable space group: P 21/C
;
_chemical_formula_sum "Si O2"
_cell_formula_units_Z 32
_cell_length_a 13.110267
_cell_length_b 12.161803
_cell_length_c 9.169832
_cell_angle_alpha 90.000000
_cell_angle_beta 62.121956
_cell_angle_gamma 90.000000
_cell_volume 1292.397364
_symmetry_space_group_name_H-M "P 21/C"
_symmetry_group_IT_number 14
_symmetry_cell_setting 'monoclinic'
loop_
_space_group_symop_operation_xyz
x,y,z
-x,1/2+y,1/2-z
-x,-y,-z
x,1/2-y,1/2+z
loop_
_atom_site_type_symbol
_atom_site_label
_atom_site_fract_x
_atom_site_fract_y
_atom_site_fract_z
Si Si1 0.388038 0.204541 0.489001
Si Si2 0.621692 0.120880 0.241419
Si Si3 0.519225 0.557880 0.642499
Si Si4 0.907776 0.345480 0.074624
Si Si5 0.247353 0.243056 0.321603
Si Si6 0.687003 0.344514 0.033731
Si Si7 0.875158 0.939972 0.725542
Si Si8 0.971982 0.876741 0.969392
O O1 0.484681 0.124352 0.366735
O O2 0.446325 0.320486 0.425087
O O3 0.273677 0.205913 0.467429
O O4 0.355063 0.194105 0.678478
O O5 0.656967 0.220356 0.109646
O O6 0.676376 0.136508 0.366399
O O7 0.624695 0.006634 0.152360
O O8 0.500000 0.500000 0.500000
O O9 0.403747 0.578789 0.817747
O O10 0.816724 0.363876 0.005649
O O11 0.863437 0.428529 0.230116
O O12 0.928390 0.216483 0.089327
O O13 0.033823 0.395474 0.956277
O O14 0.236510 0.129684 0.239385
O O15 0.136826 0.320661 0.376828
O O16 0.928391 0.893810 0.835952
O O17 0.000000 0.000000 0.000000
#
# Coordination Sequence:
#
# PCOD9250825 Si02
#       8
#     4   4   4   4   4   4   4   4
#     4  11  23  42  70 101 136 188 238 297 347 436
#     4  11  24  45  65 102 148 182 246 298 359 437
#     4  11  24  44  68 101 145 190 241 302 362 432
#     4  10  26  45  72 102 144 189 240 302 371 438
#     4  11  23  43  71 105 136 188 242 288 372 428
#     4  11  25  43  69 103 136 195 235 296 369 435
#     4  10  24  47  68 105 140 185 239 305 362 438
#     4  11  26  45  74 106 145 184 242 308 362 449
#
# _framework density 24.760185
#
# number of rings (size 3 to 8) (size 9 to 14) (size 15 to 20)
#    0.000    1.250    1.250    4.125    8.750    2.000 
#    0.000    0.000    0.000    0.000    0.000    0.000 
#    0.000    0.000    0.000    0.000    0.000    0.000 
#
# Total GULP energy -178820.010195 kJ/mol
# GULP energy per Si atom -5588.125319 kJ/mol
# Density = 2.470383 g / cm^3
# Si number density = 24.760185 Si / 1000 Ang^3
#
#
#
# Elastic Constant Matrix: (Units=GPa)
#
#
# Indices 1 2 3 4 5 6 
#
# 1 77.0893 24.6821 -2.4988 0.0000 16.2251 0.0000
# 2 24.6821 137.2898 7.6705 0.0000 16.3054 0.0000
# 3 -2.4988 7.6705 57.3568 0.0000 17.1773 0.0000
# 4 0.0000 0.0000 0.0000 20.2518 0.0000 16.3285
# 5 16.2251 16.3054 17.1773 0.0000 50.7077 0.0000
# 6 0.0000 0.0000 0.0000 16.3285 0.0000 30.1085
#
#
#
# Elastic Compliance Matrix: (Units=1/GPa)
#
#
# Indices 1 2 3 4 5 6 
#
# 1 0.014774 -0.002217 0.002384 0.000000 -0.004822 0.000000
# 2 -0.002217 0.007911 -0.000673 0.000000 -0.001606 0.000000
# 3 0.002384 -0.000673 0.019801 0.000000 -0.007254 0.000000
# 4 0.000000 0.000000 0.000000 0.087747 0.000000 -0.047587
# 5 -0.004822 -0.001606 -0.007254 0.000000 0.024238 0.000000
# 6 0.000000 0.000000 0.000000 -0.047587 0.000000 0.059021
#
#
# Mechanical properties :
#
#
# Convention : Reuss Voigt Hill
#
# Bulk Modulus (GPa) = 24.11137 36.82705 30.46921
# Shear Modulus (GPa) = 21.89841 36.33907 29.11874
#
# Velocity S-wave (km/s) = 2.97715 3.83514 3.43305
# Velocity P-wave (km/s) = 4.64510 5.87510 5.29593
#
# Compressibility (1/GPa) = 0.04147420
#
# Stress axis : x y z
#
# Youngs Moduli (GPa) = 67.68707 126.41001 50.50229
#
# Poissons Ratio (x) = 0.28020 -0.12041
# Poissons Ratio (y) = 0.15003 0.03401
# Poissons Ratio (z) = -0.16138 0.08513
#
# Static dielectric constant tensor:
#      x y z
#    x 2.048420 0.000000 0.010630 
#    y 0.000000 2.006030 0.000000 
#    z 0.010630 0.000000 2.529030 
# 
# From -- ./inp_files/15750.got.cif
#   From: 2010.05.17/outbox.cif.g08.bks.cpg/sg14_8_cif.got.tgz:15750.got - 2010.06.03 17:49:19.
