data_PCOD9250382
_publ_section_title
;
Structure prediction by ZEFSAII (Michael W. Deem and Ramdas Pophale) SiO2 
 PCOD9250382
Probable space group: P 21/C
;
_chemical_formula_sum "Si O2"
_cell_formula_units_Z 28
_cell_length_a 24.977265
_cell_length_b 7.821109
_cell_length_c 11.915374
_cell_angle_alpha 90.000000
_cell_angle_beta 31.617435
_cell_angle_gamma 90.000000
_cell_volume 1220.268066
_symmetry_space_group_name_H-M "P 21/C"
_symmetry_group_IT_number 14
_symmetry_cell_setting 'monoclinic'
loop_
_space_group_symop_operation_xyz
x,y,z
-x,1/2+y,1/2-z
-x,-y,-z
x,1/2-y,1/2+z
loop_
_atom_site_type_symbol
_atom_site_label
_atom_site_fract_x
_atom_site_fract_y
_atom_site_fract_z
Si Si1 0.620004 0.812719 0.755771
Si Si2 0.115873 0.920583 0.989169
Si Si3 0.568939 0.030436 0.039547
Si Si4 0.840416 0.560766 0.826146
Si Si5 0.254468 0.771985 0.390429
Si Si6 0.013829 0.376468 0.866906
Si Si7 0.403974 0.956839 0.750734
O O1 0.525132 0.869674 0.848674
O O2 0.718437 0.922975 0.552061
O O3 0.660750 0.626321 0.656269
O O4 0.580432 0.850384 0.952848
O O5 0.082994 0.738231 0.995466
O O6 0.039677 0.004792 0.214429
O O7 0.215241 0.886559 0.886694
O O8 0.127723 0.038473 0.859238
O O9 0.558611 0.033246 0.189562
O O10 0.675177 0.120851 0.819613
O O11 0.900927 0.724692 0.766129
O O12 0.843497 0.378538 0.887780
O O13 0.333663 0.702112 0.343058
O O14 0.000000 0.500000 0.000000
O O15 0.500000 0.000000 0.500000
#
# Coordination Sequence:
#
# PCOD9250382 Si02
#       7
#     4   4   4   4   4   4   4
#     4  10  24  42  65  97 135 186 234 289 359 421
#     4  12  25  44  75  99 142 178 230 298 362 429
#     4  10  24  43  63  94 144 181 235 294 345 430
#     4  11  25  44  70 100 140 178 239 292 360 431
#     4  11  24  44  66 105 137 188 237 291 359 427
#     4  12  26  48  74 106 139 180 236 292 377 445
#     4  12  25  38  67  95 137 189 243 288 356 417
#
# _framework density 22.945779000000002
#
# number of rings (size 3 to 8) (size 9 to 14) (size 15 to 20)
#    0.000    0.857    1.429    4.714    4.000    3.429 
#    0.000    0.000    0.000    0.000    0.000    0.000 
#    0.000    0.000    0.000    0.000    0.000    0.000 
#
# Total GULP energy -156307.983041 kJ/mol
# GULP energy per Si atom -5582.427966 kJ/mol
# Density = 2.289355 g / cm^3
# Si number density = 22.945779 Si / 1000 Ang^3
#
#
#
# Elastic Constant Matrix: (Units=GPa)
#
#
# Indices 1 2 3 4 5 6 
#
# 1 126.5728 31.5871 46.7383 0.0000 28.1540 0.0000
# 2 31.5871 84.9073 10.7895 0.0000 16.5282 0.0000
# 3 46.7383 10.7895 81.5047 0.0000 31.9802 0.0000
# 4 0.0000 0.0000 0.0000 35.8424 0.0000 -6.3332
# 5 28.1540 16.5282 31.9802 0.0000 49.0991 0.0000
# 6 0.0000 0.0000 0.0000 -6.3332 0.0000 34.9313
#
#
#
# Elastic Compliance Matrix: (Units=1/GPa)
#
#
# Indices 1 2 3 4 5 6 
#
# 1 0.010991 -0.003061 -0.005144 0.000000 -0.001922 0.000000
# 2 -0.003061 0.013456 0.001428 0.000000 -0.003704 0.000000
# 3 -0.005144 0.001428 0.018888 0.000000 -0.009834 0.000000
# 4 0.000000 0.000000 0.000000 0.028823 0.000000 0.005226
# 5 -0.001922 -0.003704 -0.009834 0.000000 0.029121 0.000000
# 6 0.000000 0.000000 0.000000 0.005226 0.000000 0.029575
#
#
# Mechanical properties :
#
#
# Convention : Reuss Voigt Hill
#
# Bulk Modulus (GPa) = 33.57821 52.35718 42.96770
# Shear Modulus (GPa) = 32.39666 37.56589 34.98127
#
# Velocity S-wave (km/s) = 3.76157 4.05057 3.90874
# Velocity P-wave (km/s) = 5.79063 6.68906 6.25599
#
# Compressibility (1/GPa) = 0.02978122
#
# Stress axis : x y z
#
# Youngs Moduli (GPa) = 90.98054 74.31602 52.94256
#
# Poissons Ratio (x) = 0.22750 0.27232
# Poissons Ratio (y) = 0.27852 -0.07558
# Poissons Ratio (z) = 0.46797 -0.10609
#
# Static dielectric constant tensor:
#      x y z
#    x 1.868720 0.000000 -0.044170 
#    y 0.000000 2.312970 0.000000 
#    z -0.044170 0.000000 1.873930 
# 
# From -- ./inp_files/36140.got.cif
#   From: 2010.05.17/outbox.cif.g08.bks.cpg/sg14_19_cif.got.tgz:36140.got - 2010.06.03 17:49:19.
