data_PCOD9250340
_publ_section_title
;
Structure prediction by ZEFSAII (Michael W. Deem and Ramdas Pophale) SiO2 
 PCOD9250340
Probable space group: P 21/C
;
_chemical_formula_sum "Si O2"
_cell_formula_units_Z 28
_cell_length_a 21.028614
_cell_length_b 9.073111
_cell_length_c 14.912273
_cell_angle_alpha 90.000000
_cell_angle_beta 150.569109
_cell_angle_gamma 90.000000
_cell_volume 1398.048890
_symmetry_space_group_name_H-M "P 21/C"
_symmetry_group_IT_number 14
_symmetry_cell_setting 'monoclinic'
loop_
_space_group_symop_operation_xyz
x,y,z
-x,1/2+y,1/2-z
-x,-y,-z
x,1/2-y,1/2+z
loop_
_atom_site_type_symbol
_atom_site_label
_atom_site_fract_x
_atom_site_fract_y
_atom_site_fract_z
Si Si1 0.122889 0.583375 0.194420
Si Si2 0.436427 0.594324 0.342228
Si Si3 0.790238 0.873818 0.881078
Si Si4 0.004530 0.791744 0.727530
Si Si5 0.797937 0.215425 0.869188
Si Si6 0.702968 0.697580 0.602361
Si Si7 0.270685 0.154486 0.554341
O O1 0.159138 0.717818 0.173330
O O2 0.238214 0.465116 0.337406
O O3 0.087204 0.634256 0.250539
O O4 0.000000 0.500000 0.000000
O O5 0.500000 0.500000 0.500000
O O6 0.326702 0.697428 0.248949
O O7 0.551128 0.683490 0.436088
O O8 0.366628 0.478062 0.191327
O O9 0.773165 0.773042 0.772904
O O10 0.767168 0.042170 0.830171
O O11 0.934156 0.852097 0.098740
O O12 0.700107 0.796763 0.845981
O O13 0.875354 0.884899 0.593666
O O14 0.087907 0.762524 0.917718
O O15 0.729189 0.792016 0.546551
#
# Coordination Sequence:
#
# PCOD9250340 Si02
#       7
#     4   4   4   4   4   4   4
#     4  12  22  43  70  97 139 193 223 281 369 419
#     4  12  24  50  71  97 141 197 233 281 354 427
#     4  10  24  43  65 107 139 175 229 305 337 416
#     4  10  24  41  69 104 140 175 239 288 357 413
#     4  12  26  41  72 102 139 185 230 291 358 422
#     4  12  24  46  73  99 144 189 238 288 352 421
#     4  10  24  45  71  97 142 179 234 296 345 415
#
# _framework density 20.027912000000001
#
# number of rings (size 3 to 8) (size 9 to 14) (size 15 to 20)
#    0.857    0.000    4.286    2.571    4.000    4.571 
#    2.571    0.000    0.000    0.000    0.000    0.000 
#    0.000    0.000    0.000    0.000    0.000    0.000 
#
# Total GULP energy -156459.127955 kJ/mol
# GULP energy per Si atom -5587.825998 kJ/mol
# Density = 1.998233 g / cm^3
# Si number density = 20.027912 Si / 1000 Ang^3
#
#
#
# Elastic Constant Matrix: (Units=GPa)
#
#
# Indices 1 2 3 4 5 6 
#
# 1 102.7637 6.0766 34.6271 0.0000 -10.6962 0.0000
# 2 6.0766 66.9786 20.1584 0.0000 6.0006 0.0000
# 3 34.6271 20.1584 64.1711 0.0000 -4.7901 0.0000
# 4 0.0000 0.0000 0.0000 30.1595 0.0000 3.0014
# 5 -10.6962 6.0006 -4.7901 0.0000 30.2153 0.0000
# 6 0.0000 0.0000 0.0000 3.0014 0.0000 31.5595
#
#
#
# Elastic Compliance Matrix: (Units=1/GPa)
#
#
# Indices 1 2 3 4 5 6 
#
# 1 0.012233 0.000575 -0.006544 0.000000 0.003179 0.000000
# 2 0.000575 0.017046 -0.005973 0.000000 -0.004129 0.000000
# 3 -0.006544 -0.005973 0.021157 0.000000 0.002224 0.000000
# 4 0.000000 0.000000 0.000000 0.033474 0.000000 -0.003183
# 5 0.003179 -0.004129 0.002224 0.000000 0.035393 0.000000
# 6 0.000000 0.000000 0.000000 -0.003183 0.000000 0.031989
#
#
# Mechanical properties :
#
#
# Convention : Reuss Voigt Hill
#
# Bulk Modulus (GPa) = 37.66361 39.51528 38.58945
# Shear Modulus (GPa) = 27.16989 29.92362 28.54675
#
# Velocity S-wave (km/s) = 3.68720 3.86955 3.77947
# Velocity P-wave (km/s) = 6.08060 6.30377 6.19319
#
# Compressibility (1/GPa) = 0.02655083
#
# Stress axis : x y z
#
# Youngs Moduli (GPa) = 81.74527 58.66633 47.26547
#
# Poissons Ratio (x) = -0.03374 0.30933
# Poissons Ratio (y) = -0.04701 0.28232
# Poissons Ratio (z) = 0.53498 0.35042
#
# Static dielectric constant tensor:
#      x y z
#    x 1.684830 0.000000 0.007720 
#    y 0.000000 1.715930 0.000000 
#    z 0.007720 0.000000 1.715150 
# 
# From -- ./inp_files/50145.got.cif
#   From: 2010.05.17/outbox.cif.g08.bks.cpg/sg14_26_cif.got.tgz:50145.got - 2010.06.03 17:49:19.
