data_PCOD9250020
_publ_section_title
;
Structure prediction by ZEFSAII (Michael W. Deem and Ramdas Pophale) SiO2 
 PCOD9250020
Probable space group: P 21/C
;
_chemical_formula_sum "Si O2"
_cell_formula_units_Z 16
_cell_length_a 8.285807
_cell_length_b 10.072253
_cell_length_c 8.727092
_cell_angle_alpha 90.000000
_cell_angle_beta 90.072665
_cell_angle_gamma 90.000000
_cell_volume 728.334101
_symmetry_space_group_name_H-M "P 21/C"
_symmetry_group_IT_number 14
_symmetry_cell_setting 'monoclinic'
loop_
_space_group_symop_operation_xyz
x,y,z
-x,1/2+y,1/2-z
-x,-y,-z
x,1/2-y,1/2+z
loop_
_atom_site_type_symbol
_atom_site_label
_atom_site_fract_x
_atom_site_fract_y
_atom_site_fract_z
Si Si1 0.058412 0.380262 0.895834
Si Si2 0.436759 0.413851 0.856817
Si Si3 0.646104 0.146706 0.836558
Si Si4 0.132089 0.803742 0.891866
O O1 0.248598 0.379577 0.873311
O O2 0.959142 0.386502 0.737544
O O3 0.000000 0.500000 0.000000
O O4 0.999982 0.253154 0.991490
O O5 0.536849 0.278622 0.845772
O O6 0.446785 0.515192 0.714477
O O7 0.500000 0.500000 0.000000
O O8 0.774743 0.186696 0.702206
O O9 0.738330 0.128569 0.996780
#
# Coordination Sequence:
#
# PCOD9250020 Si02
#       4
#     4   4   4   4
#     4  11  23  46  71  99 139 186 235 288 347 418
#     4  12  25  45  73 105 146 182 233 296 357 417
#     4  11  23  46  70 105 143 189 231 296 350 419
#     4  10  23  45  70  98 141 186 236 289 344 421
#
# _framework density 21.967941
#
# number of rings (size 3 to 8) (size 9 to 14) (size 15 to 20)
#    0.000    1.000    5.000    1.500    3.500    2.000 
#    0.000    0.000    0.000    0.000    0.000    0.000 
#    0.000    0.000    0.000    0.000    0.000    0.000 
#
# Total GULP energy -89498.939044 kJ/mol
# GULP energy per Si atom -5593.683690 kJ/mol
# Density = 2.191794 g / cm^3
# Si number density = 21.967941 Si / 1000 Ang^3
#
#
#
# Elastic Constant Matrix: (Units=GPa)
#
#
# Indices 1 2 3 4 5 6 
#
# 1 139.3015 76.9024 72.3291 0.0000 18.9308 0.0000
# 2 76.9024 99.5077 59.7916 0.0000 15.3443 0.0000
# 3 72.3291 59.7916 173.0311 0.0000 49.6235 0.0000
# 4 0.0000 0.0000 0.0000 37.0164 0.0000 2.2804
# 5 18.9308 15.3443 49.6235 0.0000 48.1174 0.0000
# 6 0.0000 0.0000 0.0000 2.2804 0.0000 32.7683
#
#
#
# Elastic Compliance Matrix: (Units=1/GPa)
#
#
# Indices 1 2 3 4 5 6 
#
# 1 0.013354 -0.008786 -0.002617 0.000000 0.000247 0.000000
# 2 -0.008786 0.018479 -0.002860 0.000000 0.000513 0.000000
# 3 -0.002617 -0.002860 0.010373 0.000000 -0.008756 0.000000
# 4 0.000000 0.000000 0.000000 0.027131 0.000000 -0.001888
# 5 0.000247 0.000513 -0.008756 0.000000 0.029551 0.000000
# 6 0.000000 0.000000 0.000000 -0.001888 0.000000 0.030649
#
#
# Mechanical properties :
#
#
# Convention : Reuss Voigt Hill
#
# Bulk Modulus (GPa) = 73.10162 92.20961 82.65562
# Shear Modulus (GPa) = 30.74581 37.10158 33.92370
#
# Velocity S-wave (km/s) = 3.74515 4.11408 3.93394
# Velocity P-wave (km/s) = 7.21459 8.03948 7.63818
#
# Compressibility (1/GPa) = 0.01367959
#
# Stress axis : x y z
#
# Youngs Moduli (GPa) = 74.88126 54.11516 96.40872
#
# Poissons Ratio (x) = 0.47547 0.25230
# Poissons Ratio (y) = 0.65793 0.27573
# Poissons Ratio (z) = 0.19596 0.15477
#
# Static dielectric constant tensor:
#      x y z
#    x 1.794580 0.000000 -0.014400 
#    y 0.000000 1.823330 0.000000 
#    z -0.014400 0.000000 1.811600 
# 
# From -- ./inp_files/7249.got.cif
#   From: 2010.05.17/outbox.cif.g08.bks.cpg/sg14_4_cif.got.tgz:7249.got - 2010.06.03 17:49:19.
