data_PCOD9250407
_publ_section_title
;
Structure prediction by ZEFSAII (Michael W. Deem and Ramdas Pophale) SiO2 
 PCOD9250407
Probable space group: P 21/C
;
_chemical_formula_sum "Si O2"
_cell_formula_units_Z 28
_cell_length_a 8.512468
_cell_length_b 29.775404
_cell_length_c 5.299131
_cell_angle_alpha 90.000000
_cell_angle_beta 123.406102
_cell_angle_gamma 90.000000
_cell_volume 1121.229846
_symmetry_space_group_name_H-M "P 21/C"
_symmetry_group_IT_number 14
_symmetry_cell_setting 'monoclinic'
loop_
_space_group_symop_operation_xyz
x,y,z
-x,1/2+y,1/2-z
-x,-y,-z
x,1/2-y,1/2+z
loop_
_atom_site_type_symbol
_atom_site_label
_atom_site_fract_x
_atom_site_fract_y
_atom_site_fract_z
Si Si1 0.733276 0.398892 0.702012
Si Si2 0.390863 0.064136 0.202921
Si Si3 0.116850 0.361896 0.237217
Si Si4 0.879913 0.012327 0.138777
Si Si5 0.993374 0.723570 0.592660
Si Si6 0.417832 0.138173 0.602336
Si Si7 0.444891 0.722592 0.031636
O O1 0.594548 0.426298 0.764609
O O2 0.829877 0.435340 0.605893
O O3 0.599663 0.363713 0.443740
O O4 0.904467 0.374492 0.985750
O O5 0.394073 0.086847 0.482361
O O6 0.231580 0.095052 0.931508
O O7 0.314742 0.014827 0.079159
O O8 0.100343 0.323541 0.428989
O O9 0.236703 0.347371 0.099925
O O10 0.000000 0.000000 0.500000
O O11 0.000000 0.000000 0.000000
O O12 0.943278 0.743464 0.278712
O O13 0.219077 0.718703 0.813320
O O14 0.472909 0.172920 0.433512
O O15 0.499285 0.746282 0.340742
#
# Coordination Sequence:
#
# PCOD9250407 Si02
#       7
#     4   4   4   4   4   4   4
#     4  11  26  47  75 105 147 193 237 303 362 434
#     4  11  26  47  73 108 145 192 244 294 367 436
#     4  11  25  45  72 104 146 186 244 300 358 432
#     4  12  27  49  78 110 147 191 242 299 366 434
#     4  10  24  42  68 104 139 191 240 295 361 425
#     4  11  27  43  74 109 140 196 244 298 363 429
#     4  10  24  44  70 103 147 191 241 299 361 430
#
# _framework density 24.972579
#
# number of rings (size 3 to 8) (size 9 to 14) (size 15 to 20)
#    0.000    1.143    1.429    2.143   16.000    4.000 
#    0.000    0.000    0.000    0.000    0.000    0.000 
#    0.000    0.000    0.000    0.000    0.000    0.000 
#
# Total GULP energy -157007.368908 kJ/mol
# GULP energy per Si atom -5607.406032 kJ/mol
# Density = 2.491574 g / cm^3
# Si number density = 24.972579 Si / 1000 Ang^3
#
#
#
# Elastic Constant Matrix: (Units=GPa)
#
#
# Indices 1 2 3 4 5 6 
#
# 1 127.2037 11.0084 64.2147 0.0000 5.8522 0.0000
# 2 11.0084 65.6415 -3.8230 0.0000 -0.9176 0.0000
# 3 64.2147 -3.8230 82.7121 0.0000 15.9509 0.0000
# 4 0.0000 0.0000 0.0000 12.0297 0.0000 -14.5850
# 5 5.8522 -0.9176 15.9509 0.0000 45.7328 0.0000
# 6 0.0000 0.0000 0.0000 -14.5850 0.0000 30.2321
#
#
#
# Elastic Compliance Matrix: (Units=1/GPa)
#
#
# Indices 1 2 3 4 5 6 
#
# 1 0.013628 -0.002904 -0.011115 0.000000 0.002074 0.000000
# 2 -0.002904 0.015894 0.003062 0.000000 -0.000377 0.000000
# 3 -0.011115 0.003062 0.022058 0.000000 -0.006210 0.000000
# 4 0.000000 0.000000 0.000000 0.200263 0.000000 0.096613
# 5 0.002074 -0.000377 -0.006210 0.000000 0.023759 0.000000
# 6 0.000000 0.000000 0.000000 0.096613 0.000000 0.079687
#
#
# Mechanical properties :
#
#
# Convention : Reuss Voigt Hill
#
# Bulk Modulus (GPa) = 33.70703 46.48415 40.09559
# Shear Modulus (GPa) = 12.91683 31.20941 22.06312
#
# Velocity S-wave (km/s) = 2.27676 3.53901 2.97559
# Velocity P-wave (km/s) = 4.52089 5.94592 5.28168
#
# Compressibility (1/GPa) = 0.02966740
#
# Stress axis : x y z
#
# Youngs Moduli (GPa) = 73.37750 62.91563 45.33455
#
# Poissons Ratio (x) = 0.18270 0.50388
# Poissons Ratio (y) = 0.21308 -0.13881
# Poissons Ratio (z) = 0.81557 -0.19264
#
# Static dielectric constant tensor:
#      x y z
#    x 1.954570 0.000000 -0.018370 
#    y 0.000000 1.947580 0.000000 
#    z -0.018370 0.000000 2.004620 
# 
# From -- ./inp_files/2165.got.cif
#   From: 2010.05.17/outbox.cif.g08.bks.cpg/sg14_2_cif.got.tgz:2165.got - 2010.06.03 17:49:19.
