data_PCOD9250842
_publ_section_title
;
Structure prediction by ZEFSAII (Michael W. Deem and Ramdas Pophale) SiO2 
 PCOD9250842
Probable space group: P 21/C
;
_chemical_formula_sum "Si O2"
_cell_formula_units_Z 20
_cell_length_a 5.182448
_cell_length_b 7.572256
_cell_length_c 22.786481
_cell_angle_alpha 90.000000
_cell_angle_beta 60.792476
_cell_angle_gamma 90.000000
_cell_volume 780.514725
_symmetry_space_group_name_H-M "P 21/C"
_symmetry_group_IT_number 14
_symmetry_cell_setting 'monoclinic'
loop_
_space_group_symop_operation_xyz
x,y,z
-x,1/2+y,1/2-z
-x,-y,-z
x,1/2-y,1/2+z
loop_
_atom_site_type_symbol
_atom_site_label
_atom_site_fract_x
_atom_site_fract_y
_atom_site_fract_z
Si Si1 0.111827 0.883229 0.166798
Si Si2 0.489526 0.799313 0.895385
Si Si3 0.351731 0.532792 0.199231
Si Si4 0.810021 0.799928 0.472868
Si Si5 0.074315 0.335378 0.910398
O O1 0.185206 0.704613 0.193555
O O2 0.810941 0.968738 0.224675
O O3 0.075480 0.829050 0.103379
O O4 0.370208 0.024859 0.146196
O O5 0.641044 0.631293 0.846689
O O6 0.138771 0.781155 0.928020
O O7 0.585463 0.785642 0.952649
O O8 0.693740 0.589371 0.163022
O O9 0.753223 0.790846 0.548680
O O10 0.852297 0.007240 0.452058
#
# Coordination Sequence:
#
# PCOD9250842 Si02
#       5
#     4   4   4   4   4
#     4  12  25  44  71 103 142 192 244 297 362 432
#     4  11  25  45  74 105 145 182 242 294 360 427
#     4  11  25  45  67 104 144 189 243 299 360 427
#     4  10  24  47  73 108 144 187 233 301 359 433
#     4  10  25  43  75 100 145 189 238 296 365 421
#
# _framework density 25.624116000000001
#
# number of rings (size 3 to 8) (size 9 to 14) (size 15 to 20)
#    0.000    1.200    4.000    0.000    5.600    8.800 
#    0.000    0.000    0.000    0.000    0.000    0.000 
#    0.000    0.000    0.000    0.000    0.000    0.000 
#
# Total GULP energy -112217.244855 kJ/mol
# GULP energy per Si atom -5610.862243 kJ/mol
# Density = 2.556579 g / cm^3
# Si number density = 25.624116 Si / 1000 Ang^3
#
#
#
# Elastic Constant Matrix: (Units=GPa)
#
#
# Indices 1 2 3 4 5 6 
#
# 1 81.2799 33.7520 35.2404 0.0000 -5.6173 0.0000
# 2 33.7520 148.7850 45.2522 0.0000 -2.2383 0.0000
# 3 35.2404 45.2522 98.1372 0.0000 -19.9365 0.0000
# 4 0.0000 0.0000 0.0000 36.3233 0.0000 2.1361
# 5 -5.6173 -2.2383 -19.9365 0.0000 44.9212 0.0000
# 6 0.0000 0.0000 0.0000 2.1361 0.0000 34.2249
#
#
#
# Elastic Compliance Matrix: (Units=1/GPa)
#
#
# Indices 1 2 3 4 5 6 
#
# 1 0.015101 -0.002054 -0.004520 0.000000 -0.000220 0.000000
# 2 -0.002054 0.008170 -0.003296 0.000000 -0.001313 0.000000
# 3 -0.004520 -0.003296 0.014491 0.000000 0.005702 0.000000
# 4 0.000000 0.000000 0.000000 0.027632 0.000000 -0.001725
# 5 -0.000220 -0.001313 0.005702 0.000000 0.024699 0.000000
# 6 0.000000 0.000000 0.000000 -0.001725 0.000000 0.029326
#
#
# Mechanical properties :
#
#
# Convention : Reuss Voigt Hill
#
# Bulk Modulus (GPa) = 55.49139 61.85458 58.67298
# Shear Modulus (GPa) = 34.44315 37.35771 35.90043
#
# Velocity S-wave (km/s) = 3.67027 3.82240 3.74711
# Velocity P-wave (km/s) = 6.29794 6.60853 6.45510
#
# Compressibility (1/GPa) = 0.01802081
#
# Stress axis : x y z
#
# Youngs Moduli (GPa) = 66.22200 122.40066 69.00719
#
# Poissons Ratio (x) = 0.25143 0.31192
# Poissons Ratio (y) = 0.13603 0.22747
# Poissons Ratio (z) = 0.29933 0.40347
#
# Static dielectric constant tensor:
#      x y z
#    x 2.000740 0.000000 -0.013100 
#    y 0.000000 1.986910 0.000000 
#    z -0.013100 0.000000 2.004230 
# 
# From -- ./inp_files/63011.got.cif
#   From: 2010.05.17/outbox.cif.g08.bks.cpg/sg14_32_cif.got.tgz:63011.got - 2010.06.03 17:49:19.
