data_PCOD9250379
_publ_section_title
;
Structure prediction by ZEFSAII (Michael W. Deem and Ramdas Pophale) SiO2 
 PCOD9250379
Probable space group: P 21/C
;
_chemical_formula_sum "Si O2"
_cell_formula_units_Z 20
_cell_length_a 5.255355
_cell_length_b 11.664799
_cell_length_c 13.697736
_cell_angle_alpha 90.000000
_cell_angle_beta 109.031703
_cell_angle_gamma 90.000000
_cell_volume 793.807791
_symmetry_space_group_name_H-M "P 21/C"
_symmetry_group_IT_number 14
_symmetry_cell_setting 'monoclinic'
loop_
_space_group_symop_operation_xyz
x,y,z
-x,1/2+y,1/2-z
-x,-y,-z
x,1/2-y,1/2+z
loop_
_atom_site_type_symbol
_atom_site_label
_atom_site_fract_x
_atom_site_fract_y
_atom_site_fract_z
Si Si1 0.479701 0.396291 0.576914
Si Si2 0.014382 0.196063 0.897436
Si Si3 0.135602 0.055784 0.423171
Si Si4 0.570151 0.598542 0.707283
Si Si5 0.404594 0.651126 0.895077
O O1 0.500000 0.500000 0.500000
O O2 0.188091 0.340836 0.514905
O O3 0.542207 0.462421 0.684851
O O4 0.668575 0.283356 0.597489
O O5 0.975396 0.331133 0.876446
O O6 0.198792 0.151024 0.831602
O O7 0.721976 0.142677 0.864095
O O8 0.421788 0.112280 0.489642
O O9 0.185073 0.949820 0.357689
O O10 0.000000 0.000000 0.500000
O O11 0.584117 0.638356 0.820607
#
# Coordination Sequence:
#
# PCOD9250379 Si02
#       5
#     4   4   4   4   4
#     4   9  21  44  68  92 135 178 221 271 343 409
#     4  10  24  43  68  95 136 178 220 271 345 404
#     4  10  24  42  69  91 141 181 226 277 347 412
#     4  11  24  43  68 103 131 172 227 286 329 405
#     4  10  24  42  65 103 128 182 226 284 341 404
#
# _framework density 25.195014
#
# number of rings (size 3 to 8) (size 9 to 14) (size 15 to 20)
#    0.000    2.000    0.000    0.600   16.800    0.000 
#    7.200    0.000    0.000    0.000    0.000    0.000 
#    0.000    0.000    0.000    0.000    0.000    0.000 
#
# Total GULP energy -111715.649433 kJ/mol
# GULP energy per Si atom -5585.782472 kJ/mol
# Density = 2.513767 g / cm^3
# Si number density = 25.195014 Si / 1000 Ang^3
#
#
#
# Elastic Constant Matrix: (Units=GPa)
#
#
# Indices 1 2 3 4 5 6 
#
# 1 94.7552 57.7467 16.8776 0.0000 -14.8470 0.0000
# 2 57.7467 255.2350 39.1620 0.0000 -3.5834 0.0000
# 3 16.8776 39.1620 72.8752 0.0000 -7.7885 0.0000
# 4 0.0000 0.0000 0.0000 31.9387 0.0000 -7.2717
# 5 -14.8470 -3.5834 -7.7885 0.0000 35.9449 0.0000
# 6 0.0000 0.0000 0.0000 -7.2717 0.0000 29.0227
#
#
#
# Elastic Compliance Matrix: (Units=1/GPa)
#
#
# Indices 1 2 3 4 5 6 
#
# 1 0.013194 -0.002755 -0.001046 0.000000 0.004949 0.000000
# 2 -0.002755 0.004846 -0.002084 0.000000 -0.001107 0.000000
# 3 -0.001046 -0.002084 0.015372 0.000000 0.002691 0.000000
# 4 0.000000 0.000000 0.000000 0.033204 0.000000 0.008319
# 5 0.004949 -0.001107 0.002691 0.000000 0.030337 0.000000
# 6 0.000000 0.000000 0.000000 0.008319 0.000000 0.036540
#
#
# Mechanical properties :
#
#
# Convention : Reuss Voigt Hill
#
# Bulk Modulus (GPa) = 46.20924 72.27088 59.24006
# Shear Modulus (GPa) = 32.79163 39.98654 36.38909
#
# Velocity S-wave (km/s) = 3.61156 3.98814 3.80451
# Velocity P-wave (km/s) = 5.98094 7.06781 6.54697
#
# Compressibility (1/GPa) = 0.02164069
#
# Stress axis : x y z
#
# Youngs Moduli (GPa) = 75.79001 206.37463 65.05361
#
# Poissons Ratio (x) = 0.56860 0.06806
# Poissons Ratio (y) = 0.20882 0.13558
# Poissons Ratio (z) = 0.07930 0.43010
#
# Static dielectric constant tensor:
#      x y z
#    x 2.000580 0.000000 0.047280 
#    y 0.000000 2.044920 0.000000 
#    z 0.047280 0.000000 2.160970 
# 
# From -- ./inp_files/36913.got.cif
#   From: 2010.05.17/outbox.cif.g08.bks.cpg/sg14_19_cif.got.tgz:36913.got - 2010.06.03 17:49:19.
