data_PCOD9250229
_publ_section_title
;
Structure prediction by ZEFSAII (Michael W. Deem and Ramdas Pophale) SiO2 
 PCOD9250229
Probable space group: P 21/C
;
_chemical_formula_sum "Si O2"
_cell_formula_units_Z 32
_cell_length_a 13.026217
_cell_length_b 9.253656
_cell_length_c 13.951953
_cell_angle_alpha 90.000000
_cell_angle_beta 130.906506
_cell_angle_gamma 90.000000
_cell_volume 1271.046831
_symmetry_space_group_name_H-M "P 21/C"
_symmetry_group_IT_number 14
_symmetry_cell_setting 'monoclinic'
loop_
_space_group_symop_operation_xyz
x,y,z
-x,1/2+y,1/2-z
-x,-y,-z
x,1/2-y,1/2+z
loop_
_atom_site_type_symbol
_atom_site_label
_atom_site_fract_x
_atom_site_fract_y
_atom_site_fract_z
Si Si1 0.177923 0.128547 0.659105
Si Si2 0.265453 0.231707 0.902728
Si Si3 0.764804 0.316005 0.723944
Si Si4 0.028353 0.898289 0.238444
Si Si5 0.956460 0.373759 0.545693
Si Si6 0.742194 0.995649 0.489136
Si Si7 0.591395 0.462153 0.463714
Si Si8 0.354452 0.726641 0.661606
O O1 0.281635 0.199390 0.799497
O O2 0.048751 0.233881 0.581833
O O3 0.224997 0.108402 0.579675
O O4 0.168196 0.962485 0.691773
O O5 0.304669 0.392758 0.953836
O O6 0.108060 0.189992 0.824766
O O7 0.342683 0.116997 0.016096
O O8 0.875897 0.194302 0.773217
O O9 0.700178 0.357743 0.582778
O O10 0.647660 0.263319 0.726462
O O11 0.988008 0.050472 0.166556
O O12 0.119950 0.931294 0.386985
O O13 0.000000 0.500000 0.500000
O O14 0.798430 0.337848 0.441267
O O15 0.644420 0.120695 0.392586
O O16 0.500000 0.500000 0.500000
O O17 0.551672 0.383827 0.340583
#
# Coordination Sequence:
#
# PCOD9250229 Si02
#       8
#     4   4   4   4   4   4   4   4
#     4  10  24  37  57  93 140 175 212 261 332 409
#     4  11  24  40  62  94 133 176 217 275 329 401
#     4  10  24  42  66  97 132 173 221 277 338 403
#     4  12  22  36  62  96 140 171 215 264 346 404
#     4  12  22  36  59  99 139 176 209 264 339 415
#     4  11  24  38  60  96 136 175 212 272 332 404
#     4  11  25  48  69  92 127 182 229 274 328 397
#     4  11  23  41  66  95 131 177 223 274 338 390
#
# _framework density 25.176098
#
# number of rings (size 3 to 8) (size 9 to 14) (size 15 to 20)
#    0.000    1.000    5.000    1.500    5.250    2.500 
#    0.000    4.375    0.000    0.000    0.000    0.000 
#    0.000    0.000    0.000    0.000    0.000    0.000 
#
# Total GULP energy -179069.240913 kJ/mol
# GULP energy per Si atom -5595.913779 kJ/mol
# Density = 2.511880 g / cm^3
# Si number density = 25.176098 Si / 1000 Ang^3
#
#
#
# Elastic Constant Matrix: (Units=GPa)
#
#
# Indices 1 2 3 4 5 6 
#
# 1 85.6776 38.9323 17.4290 0.0000 -17.3965 0.0000
# 2 38.9323 105.8736 19.8996 0.0000 -9.5792 0.0000
# 3 17.4290 19.8996 63.1001 0.0000 -19.2852 0.0000
# 4 0.0000 0.0000 0.0000 45.6546 0.0000 -20.9555
# 5 -17.3965 -9.5792 -19.2852 0.0000 29.5541 0.0000
# 6 0.0000 0.0000 0.0000 -20.9555 0.0000 36.6901
#
#
#
# Elastic Compliance Matrix: (Units=1/GPa)
#
#
# Indices 1 2 3 4 5 6 
#
# 1 0.015481 -0.004945 -0.000526 0.000000 0.007166 0.000000
# 2 -0.004945 0.011673 -0.002559 0.000000 -0.000797 0.000000
# 3 -0.000526 -0.002559 0.020550 0.000000 0.012271 0.000000
# 4 0.000000 0.000000 0.000000 0.029686 0.000000 0.016955
# 5 0.007166 -0.000797 0.012271 0.000000 0.045803 0.000000
# 6 0.000000 0.000000 0.000000 0.016955 0.000000 0.036939
#
#
# Mechanical properties :
#
#
# Convention : Reuss Voigt Hill
#
# Bulk Modulus (GPa) = 31.60246 45.24146 38.42196
# Shear Modulus (GPa) = 26.77500 34.27245 30.52372
#
# Velocity S-wave (km/s) = 3.26469 3.69360 3.48574
# Velocity P-wave (km/s) = 5.17597 6.01658 5.61204
#
# Compressibility (1/GPa) = 0.03164310
#
# Stress axis : x y z
#
# Youngs Moduli (GPa) = 64.59520 85.67070 48.66067
#
# Poissons Ratio (x) = 0.42368 0.02560
# Poissons Ratio (y) = 0.31945 0.12452
# Poissons Ratio (z) = 0.03399 0.21922
#
# Static dielectric constant tensor:
#      x y z
#    x 2.032410 0.000000 -0.002480 
#    y 0.000000 1.979290 0.000000 
#    z -0.002480 0.000000 2.041350 
# 
# From -- ./inp_files/46527.got.cif
#   From: 2010.05.17/outbox.cif.g08.bks.cpg/sg14_24_cif.got.tgz:46527.got - 2010.06.03 17:49:19.
