data_PCOD9250341
_publ_section_title
;
Structure prediction by ZEFSAII (Michael W. Deem and Ramdas Pophale) SiO2 
 PCOD9250341
Probable space group: P 21/C
;
_chemical_formula_sum "Si O2"
_cell_formula_units_Z 18
_cell_length_a 9.005179
_cell_length_b 9.405451
_cell_length_c 8.644384
_cell_angle_alpha 90.000000
_cell_angle_beta 115.590431
_cell_angle_gamma 90.000000
_cell_volume 660.338570
_symmetry_space_group_name_H-M "P 21/C"
_symmetry_group_IT_number 14
_symmetry_cell_setting 'monoclinic'
loop_
_space_group_symop_operation_xyz
x,y,z
-x,1/2+y,1/2-z
-x,-y,-z
x,1/2-y,1/2+z
loop_
_atom_site_type_symbol
_atom_site_label
_atom_site_fract_x
_atom_site_fract_y
_atom_site_fract_z
Si Si1 0.806942 0.344133 0.949339
Si Si2 0.559042 0.731232 0.122421
Si Si3 0.300335 0.545262 0.616369
Si Si4 0.870108 0.909221 0.237815
Si Si5 0.500000 0.500000 0.000000
O O1 0.626767 0.378939 0.941930
O O2 0.946947 0.361254 0.139549
O O3 0.798699 0.185463 0.882517
O O4 0.841951 0.450083 0.827063
O O5 0.631182 0.546076 0.208719
O O6 0.448432 0.877856 0.086541
O O7 0.739855 0.793270 0.232572
O O8 0.555341 0.661493 0.946837
O O9 0.184443 0.450081 0.458472
#
# Coordination Sequence:
#
# PCOD9250341 Si02
#       5
#     4   4   4   4   2
#     4   9  24  43  71 107 142 189 246 296 372 444
#     4  10  24  41  69 105 143 189 245 297 360 451
#     4  10  24  42  71 106 141 189 247 298 364 444
#     4  11  21  48  73  99 155 196 229 314 377 423
#     4  12  24  42  72 106 142 188 250 294 366 440
#
# _framework density 27.258744
#
# number of rings (size 3 to 8) (size 9 to 14) (size 15 to 20)
#    1.333    0.444    0.000    3.333    3.111    1.778 
#    8.000    2.222    0.000    0.000    0.000    0.000 
#    0.000    0.000    0.000    0.000    0.000    0.000 
#
# Total GULP energy -100247.499353 kJ/mol
# GULP energy per Si atom -5569.305520 kJ/mol
# Density = 2.719670 g / cm^3
# Si number density = 27.258744 Si / 1000 Ang^3
#
#
#
# Elastic Constant Matrix: (Units=GPa)
#
#
# Indices 1 2 3 4 5 6 
#
# 1 57.7411 36.9229 21.1637 0.0000 8.7398 0.0000
# 2 36.9229 165.8014 64.4166 0.0000 16.9235 0.0000
# 3 21.1637 64.4166 189.2181 0.0000 25.9749 0.0000
# 4 0.0000 0.0000 0.0000 22.7510 0.0000 8.7474
# 5 8.7398 16.9235 25.9749 0.0000 36.9404 0.0000
# 6 0.0000 0.0000 0.0000 8.7474 0.0000 6.3379
#
#
#
# Elastic Compliance Matrix: (Units=1/GPa)
#
#
# Indices 1 2 3 4 5 6 
#
# 1 0.020530 -0.004095 -0.000546 0.000000 -0.002598 0.000000
# 2 -0.004095 0.007863 -0.002056 0.000000 -0.001188 0.000000
# 3 -0.000546 -0.002056 0.006529 0.000000 -0.003520 0.000000
# 4 0.000000 0.000000 0.000000 0.093652 0.000000 -0.129257
# 5 -0.002598 -0.001188 -0.003520 0.000000 0.030705 0.000000
# 6 0.000000 0.000000 0.000000 -0.129257 0.000000 0.336181
#
#
# Mechanical properties :
#
#
# Convention : Reuss Voigt Hill
#
# Bulk Modulus (GPa) = 46.44700 73.08521 59.76610
# Shear Modulus (GPa) = 9.68937 32.55634 21.12286
#
# Velocity S-wave (km/s) = 1.88741 3.45968 2.78673
# Velocity P-wave (km/s) = 4.67183 6.54439 5.68573
#
# Compressibility (1/GPa) = 0.02152992
#
# Stress axis : x y z
#
# Youngs Moduli (GPa) = 48.70843 127.17497 153.16226
#
# Poissons Ratio (x) = 0.52076 0.08357
# Poissons Ratio (y) = 0.19945 0.31488
# Poissons Ratio (z) = 0.02658 0.26145
#
# Static dielectric constant tensor:
#      x y z
#    x 2.184400 0.000000 -0.008220 
#    y 0.000000 2.221350 0.000000 
#    z -0.008220 0.000000 2.074890 
# 
# From -- ./inp_files/22876.got.cif
#   From: 2010.05.17/outbox.cif.g08.bks.cpg/sg14_12_cif.got.tgz:22876.got - 2010.06.03 17:49:19.
