data_PCOD9250365
_publ_section_title
;
Structure prediction by ZEFSAII (Michael W. Deem and Ramdas Pophale) SiO2 
 PCOD9250365
Probable space group: P 21/C
;
_chemical_formula_sum "Si O2"
_cell_formula_units_Z 30
_cell_length_a 12.294863
_cell_length_b 11.302514
_cell_length_c 9.366450
_cell_angle_alpha 90.000000
_cell_angle_beta 119.971820
_cell_angle_gamma 90.000000
_cell_volume 1127.528818
_symmetry_space_group_name_H-M "P 21/C"
_symmetry_group_IT_number 14
_symmetry_cell_setting 'monoclinic'
loop_
_space_group_symop_operation_xyz
x,y,z
-x,1/2+y,1/2-z
-x,-y,-z
x,1/2-y,1/2+z
loop_
_atom_site_type_symbol
_atom_site_label
_atom_site_fract_x
_atom_site_fract_y
_atom_site_fract_z
Si Si1 0.878021 0.902089 0.123312
Si Si2 0.700589 0.623824 0.867505
Si Si3 0.285653 0.904929 0.112589
Si Si4 0.365111 0.258297 0.434770
Si Si5 0.085611 0.484379 0.864583
Si Si6 0.294600 0.676139 0.940861
Si Si7 0.000000 0.500000 0.500000
Si Si8 0.523747 0.073251 0.217751
O O1 0.946939 0.965024 0.300423
O O2 0.761138 0.826196 0.090420
O O3 0.990341 0.868695 0.091835
O O4 0.837867 0.011303 0.985754
O O5 0.657743 0.736721 0.747928
O O6 0.636087 0.514651 0.743898
O O7 0.637540 0.635622 0.982874
O O8 0.845772 0.612357 0.995208
O O9 0.295881 0.844759 0.272913
O O10 0.404973 0.989238 0.168970
O O11 0.274873 0.808708 0.981773
O O12 0.482076 0.333388 0.570304
O O13 0.186855 0.590655 0.933153
O O14 0.069369 0.438722 0.692338
O O15 0.422390 0.635508 0.105206
#
# Coordination Sequence:
#
# PCOD9250365 Si02
#       8
#     4   4   4   4   4   4   2   4
#     4   9  20  40  63  85 123 159 197 241 293 350
#     4  11  25  40  63  90 122 158 203 250 302 360
#     4  11  22  38  61  90 116 154 197 243 298 357
#     4  11  25  40  63  90 122 158 203 250 302 360
#     4   9  20  40  63  85 123 159 197 241 293 350
#     4  11  22  38  61  90 116 154 197 243 298 357
#     4   8  16  40  66  82 124 158 202 236 298 348
#     4  10  24  42  62  82 118 158 206 250 300 352
#
# _framework density 26.606859
#
# number of rings (size 3 to 8) (size 9 to 14) (size 15 to 20)
#    0.800    1.067    1.333    1.600    1.867   11.200 
#    0.000    2.667    0.000    0.000    0.000    0.000 
#    0.000    0.000    0.000    0.000    0.000    0.000 
#
# Total GULP energy -167311.063907 kJ/mol
# GULP energy per Si atom -5577.035464 kJ/mol
# Density = 2.654630 g / cm^3
# Si number density = 26.606859 Si / 1000 Ang^3
#
#
#
# Elastic Constant Matrix: (Units=GPa)
#
#
# Indices 1 2 3 4 5 6 
#
# 1 59.7817 10.3013 34.1844 0.0000 14.2475 0.0000
# 2 10.3013 58.2602 22.6201 0.0000 12.4337 0.0000
# 3 34.1844 22.6201 170.4957 0.0000 25.2381 0.0000
# 4 0.0000 0.0000 0.0000 41.2161 0.0000 7.4788
# 5 14.2475 12.4337 25.2381 0.0000 49.2373 0.0000
# 6 0.0000 0.0000 0.0000 7.4788 0.0000 39.4338
#
#
#
# Elastic Compliance Matrix: (Units=1/GPa)
#
#
# Indices 1 2 3 4 5 6 
#
# 1 0.019691 -0.001449 -0.003210 0.000000 -0.003687 0.000000
# 2 -0.001449 0.018817 -0.001693 0.000000 -0.003465 0.000000
# 3 -0.003210 -0.001693 0.007069 0.000000 -0.002267 0.000000
# 4 0.000000 0.000000 0.000000 0.025127 0.000000 -0.004766
# 5 -0.003687 -0.003465 -0.002267 0.000000 0.023414 0.000000
# 6 0.000000 0.000000 0.000000 -0.004766 0.000000 0.026263
#
#
# Mechanical properties :
#
#
# Convention : Reuss Voigt Hill
#
# Bulk Modulus (GPa) = 30.41924 46.97214 38.69569
# Shear Modulus (GPa) = 34.71178 40.73954 37.72566
#
# Velocity S-wave (km/s) = 3.61587 3.91726 3.76958
# Velocity P-wave (km/s) = 5.37497 6.17676 5.78976
#
# Compressibility (1/GPa) = 0.03287394
#
# Stress axis : x y z
#
# Youngs Moduli (GPa) = 50.78351 53.14245 141.46023
#
# Poissons Ratio (x) = 0.07698 0.45412
# Poissons Ratio (y) = 0.07356 0.23952
# Poissons Ratio (z) = 0.16303 0.08998
#
# Static dielectric constant tensor:
#      x y z
#    x 2.345130 0.000000 -0.020900 
#    y 0.000000 2.200050 0.000000 
#    z -0.020900 0.000000 2.105530 
# 
# From -- ./inp_files/15932.got.cif
#   From: 2010.05.17/outbox.cif.g08.bks.cpg/sg14_8_cif.got.tgz:15932.got - 2010.06.03 17:49:19.
