data_PCOD9250527
_publ_section_title
;
Structure prediction by ZEFSAII (Michael W. Deem and Ramdas Pophale) SiO2 
 PCOD9250527
Probable space group: P 21/C
;
_chemical_formula_sum "Si O2"
_cell_formula_units_Z 24
_cell_length_a 11.255142
_cell_length_b 11.826207
_cell_length_c 8.891277
_cell_angle_alpha 90.000000
_cell_angle_beta 105.700198
_cell_angle_gamma 90.000000
_cell_volume 1139.324462
_symmetry_space_group_name_H-M "P 21/C"
_symmetry_group_IT_number 14
_symmetry_cell_setting 'monoclinic'
loop_
_space_group_symop_operation_xyz
x,y,z
-x,1/2+y,1/2-z
-x,-y,-z
x,1/2-y,1/2+z
loop_
_atom_site_type_symbol
_atom_site_label
_atom_site_fract_x
_atom_site_fract_y
_atom_site_fract_z
Si Si1 0.655386 0.476049 0.411803
Si Si2 0.040070 0.278839 0.282601
Si Si3 0.622293 0.930212 0.574099
Si Si4 0.200105 0.352262 0.081276
Si Si5 0.922054 0.110836 0.007425
Si Si6 0.419646 0.173322 0.882240
O O1 0.667334 0.534222 0.253889
O O2 0.783557 0.419564 0.500641
O O3 0.623996 0.577104 0.515888
O O4 0.548831 0.380194 0.371378
O O5 0.098504 0.365543 0.179458
O O6 0.142857 0.233252 0.437009
O O7 0.932362 0.322631 0.353265
O O8 0.989479 0.178510 0.162486
O O9 0.736272 0.949176 0.497834
O O10 0.578133 0.799427 0.552128
O O11 0.500000 0.000000 0.500000
O O12 0.318325 0.313522 0.216997
O O13 0.000000 0.000000 0.000000
#
# Coordination Sequence:
#
# PCOD9250527 Si02
#       6
#     4   4   4   4   4   4
#     4  11  26  45  69  99 138 186 221 297 347 405
#     4  10  24  43  70  98 138 186 227 290 331 412
#     4  12  24  40  68 106 134 180 225 279 353 415
#     4  11  20  40  70  96 135 178 226 277 338 415
#     4  11  24  47  70 100 137 188 235 278 354 407
#     4  11  24  44  69 102 138 176 232 282 354 415
#
# _framework density 21.065114999999999
#
# number of rings (size 3 to 8) (size 9 to 14) (size 15 to 20)
#    0.000    1.000    3.333    3.000    4.667    1.333 
#    3.000   15.000    0.000    0.000    0.000    0.000 
#    0.000    0.000    0.000    0.000    0.000    0.000 
#
# Total GULP energy -133931.647135 kJ/mol
# GULP energy per Si atom -5580.485297 kJ/mol
# Density = 2.101717 g / cm^3
# Si number density = 21.065115 Si / 1000 Ang^3
#
#
#
# Elastic Constant Matrix: (Units=GPa)
#
#
# Indices 1 2 3 4 5 6 
#
# 1 72.6958 21.2967 21.5731 0.0000 14.3541 0.0000
# 2 21.2967 84.4764 29.0651 0.0000 9.5138 0.0000
# 3 21.5731 29.0651 109.9306 0.0000 -8.1977 0.0000
# 4 0.0000 0.0000 0.0000 -25.7072 0.0000 17.2435
# 5 14.3541 9.5138 -8.1977 0.0000 26.4459 0.0000
# 6 0.0000 0.0000 0.0000 17.2435 0.0000 23.3909
#
#
#
# Elastic Compliance Matrix: (Units=1/GPa)
#
#
# Indices 1 2 3 4 5 6 
#
# 1 0.017356 -0.002033 -0.003600 0.000000 -0.009805 0.000000
# 2 -0.002033 0.014222 -0.003747 0.000000 -0.005175 0.000000
# 3 -0.003600 -0.003747 0.011301 0.000000 0.006805 0.000000
# 4 0.000000 0.000000 0.000000 -0.026029 0.000000 0.019188
# 5 -0.009805 -0.005175 0.006805 0.000000 0.047106 0.000000
# 6 0.000000 0.000000 0.000000 0.019188 0.000000 0.028606
#
#
# Mechanical properties :
#
#
# Convention : Reuss Voigt Hill
#
# Bulk Modulus (GPa) = 41.45951 45.66361 43.56156
# Shear Modulus (GPa) = 41.88956 17.83712 29.86334
#
# Velocity S-wave (km/s) = 4.46418 2.91307 3.76928
# Velocity P-wave (km/s) = 6.80413 5.74796 6.29823
#
# Compressibility (1/GPa) = 0.02411992
#
# Stress axis : x y z
#
# Youngs Moduli (GPa) = 57.61806 70.31302 88.48568
#
# Poissons Ratio (x) = 0.14292 0.31852
# Poissons Ratio (y) = 0.11712 0.33158
# Poissons Ratio (z) = 0.20740 0.26348
#
# Static dielectric constant tensor:
#      x y z
#    x 1.804110 0.000000 -0.037780 
#    y 0.000000 1.820320 0.000000 
#    z -0.037780 0.000000 1.770400 
# 
# From -- ./inp_files/12499.got.cif
#   From: 2010.05.17/outbox.cif.g08.bks.cpg/sg14_7_cif.got.tgz:12499.got - 2010.06.03 17:49:19.
