data_PCOD9250937
_publ_section_title
;
Structure prediction by ZEFSAII (Michael W. Deem and Ramdas Pophale) SiO2 
 PCOD9250937
Probable space group: P 21/C
;
_chemical_formula_sum "Si O2"
_cell_formula_units_Z 16
_cell_length_a 5.425100
_cell_length_b 19.154119
_cell_length_c 6.771529
_cell_angle_alpha 90.000000
_cell_angle_beta 80.722604
_cell_angle_gamma 90.000000
_cell_volume 694.445800
_symmetry_space_group_name_H-M "P 21/C"
_symmetry_group_IT_number 14
_symmetry_cell_setting 'monoclinic'
loop_
_space_group_symop_operation_xyz
x,y,z
-x,1/2+y,1/2-z
-x,-y,-z
x,1/2-y,1/2+z
loop_
_atom_site_type_symbol
_atom_site_label
_atom_site_fract_x
_atom_site_fract_y
_atom_site_fract_z
Si Si1 0.336464 0.808710 0.733611
Si Si2 0.158357 0.137598 0.283204
Si Si3 0.795826 0.157148 0.657811
Si Si4 0.224569 0.990280 0.127316
O O1 0.277033 0.727152 0.718661
O O2 0.381615 0.843474 0.512831
O O3 0.586519 0.826456 0.816520
O O4 0.212296 0.914727 0.227587
O O5 0.059162 0.165198 0.507395
O O6 0.925772 0.156600 0.169247
O O7 0.190876 0.054687 0.282875
O O8 0.500000 0.000000 0.000000
O O9 0.000000 0.000000 0.000000
#
# Coordination Sequence:
#
# PCOD9250937 Si02
#       4
#     4   4   4   4
#     4  10  25  40  73  97 134 175 224 274 339 391
#     4  10  25  45  67  98 137 173 225 273 336 392
#     4  10  27  43  72  96 139 175 226 276 338 398
#     4  12  28  43  72 100 137 179 227 276 335 399
#
# _framework density 23.039954999999999
#
# number of rings (size 3 to 8) (size 9 to 14) (size 15 to 20)
#    1.500    0.000    0.000    2.250   14.000    1.000 
#    0.000    0.000    0.000    0.000    0.000    0.000 
#    0.000    0.000    0.000    0.000    0.000    0.000 
#
# Total GULP energy -89246.186408 kJ/mol
# GULP energy per Si atom -5577.886651 kJ/mol
# Density = 2.298752 g / cm^3
# Si number density = 23.039955 Si / 1000 Ang^3
#
#
#
# Elastic Constant Matrix: (Units=GPa)
#
#
# Indices 1 2 3 4 5 6 
#
# 1 174.0463 46.5778 34.9095 0.0000 -35.3746 0.0000
# 2 46.5778 183.1306 35.6452 0.0000 -12.6777 0.0000
# 3 34.9095 35.6452 51.2492 0.0000 -5.2492 0.0000
# 4 0.0000 0.0000 0.0000 44.8835 0.0000 3.1433
# 5 -35.3746 -12.6777 -5.2492 0.0000 23.2108 0.0000
# 6 0.0000 0.0000 0.0000 3.1433 0.0000 23.7047
#
#
#
# Elastic Compliance Matrix: (Units=1/GPa)
#
#
# Indices 1 2 3 4 5 6 
#
# 1 0.009518 -0.000593 -0.004728 0.000000 0.013112 0.000000
# 2 -0.000593 0.006499 -0.003937 0.000000 0.001756 0.000000
# 3 -0.004728 -0.003937 0.025094 0.000000 -0.003680 0.000000
# 4 0.000000 0.000000 0.000000 0.022489 0.000000 -0.002982
# 5 0.013112 0.001756 -0.003680 0.000000 0.063194 0.000000
# 6 0.000000 0.000000 0.000000 -0.002982 0.000000 0.042581
#
#
# Mechanical properties :
#
#
# Convention : Reuss Voigt Hill
#
# Bulk Modulus (GPa) = 44.25503 71.41011 57.83257
# Shear Modulus (GPa) = 25.58575 37.77939 31.68257
#
# Velocity S-wave (km/s) = 3.33602 4.05376 3.71228
# Velocity P-wave (km/s) = 5.83853 7.27818 6.59774
#
# Compressibility (1/GPa) = 0.02259630
#
# Stress axis : x y z
#
# Youngs Moduli (GPa) = 105.06905 153.86579 39.85011
#
# Poissons Ratio (x) = 0.09120 0.18840
# Poissons Ratio (y) = 0.06228 0.15688
# Poissons Ratio (z) = 0.49674 0.60572
#
# Static dielectric constant tensor:
#      x y z
#    x 1.886040 0.000000 0.034310 
#    y 0.000000 1.815640 0.000000 
#    z 0.034310 0.000000 1.904420 
# 
# From -- ./inp_files/391.got.cif
#   From: 2010.05.17/outbox.cif.g08.bks.cpg/sg14_1_cif.got.tgz:391.got - 2010.06.03 17:49:19.
