data_PCOD9250286
_publ_section_title
;
Structure prediction by ZEFSAII (Michael W. Deem and Ramdas Pophale) SiO2 
 PCOD9250286
Probable space group: P 21/C
;
_chemical_formula_sum "Si O2"
_cell_formula_units_Z 28
_cell_length_a 21.508855
_cell_length_b 8.480157
_cell_length_c 15.016018
_cell_angle_alpha 90.000000
_cell_angle_beta 26.692918
_cell_angle_gamma 90.000000
_cell_volume 1230.336756
_symmetry_space_group_name_H-M "P 21/C"
_symmetry_group_IT_number 14
_symmetry_cell_setting 'monoclinic'
loop_
_space_group_symop_operation_xyz
x,y,z
-x,1/2+y,1/2-z
-x,-y,-z
x,1/2-y,1/2+z
loop_
_atom_site_type_symbol
_atom_site_label
_atom_site_fract_x
_atom_site_fract_y
_atom_site_fract_z
Si Si1 0.053882 0.241519 0.384902
Si Si2 0.668097 0.641814 0.713554
Si Si3 0.734927 0.144636 0.515486
Si Si4 0.348369 0.330482 0.951230
Si Si5 0.536204 0.206120 0.374252
Si Si6 0.961144 0.488537 0.368535
Si Si7 0.914870 0.108184 0.733401
O O1 0.958392 0.365333 0.453861
O O2 0.999688 0.205441 0.552059
O O3 0.070109 0.073228 0.314921
O O4 0.206036 0.312455 0.187696
O O5 0.662032 0.732698 0.627325
O O6 0.595385 0.470725 0.802747
O O7 0.826886 0.601311 0.536143
O O8 0.576511 0.732495 0.904752
O O9 0.668137 0.179284 0.697211
O O10 0.762998 0.311192 0.429756
O O11 0.644153 0.014559 0.582133
O O12 0.889025 0.071196 0.322937
O O13 0.465032 0.276559 0.869273
O O14 0.959493 0.390667 0.278751
#
# Coordination Sequence:
#
# PCOD9250286 Si02
#       7
#     4   4   4   4   4   4   4
#     4  10  24  40  68 106 135 182 232 282 359 399
#     4  11  25  46  71  98 140 189 233 289 360 411
#     4  11  25  40  71 103 135 185 238 285 360 408
#     4  11  24  43  68 101 142 185 231 290 346 427
#     4  11  25  46  68  99 139 189 234 288 347 433
#     4  11  23  44  70 101 141 184 231 297 343 424
#     4  11  22  42  66 103 142 174 223 297 343 413
#
# _framework density 22.757995000000001
#
# number of rings (size 3 to 8) (size 9 to 14) (size 15 to 20)
#    0.000    1.143    2.857    1.714    6.000    1.714 
#    0.000    1.429    0.000    0.000    0.000    0.000 
#    0.000    0.000    0.000    0.000    0.000    0.000 
#
# Total GULP energy -156463.340474 kJ/mol
# GULP energy per Si atom -5587.976445 kJ/mol
# Density = 2.270620 g / cm^3
# Si number density = 22.757995 Si / 1000 Ang^3
#
#
#
# Elastic Constant Matrix: (Units=GPa)
#
#
# Indices 1 2 3 4 5 6 
#
# 1 65.9706 16.3687 38.2006 0.0000 4.0764 0.0000
# 2 16.3687 45.1962 28.7518 0.0000 10.1963 0.0000
# 3 38.2006 28.7518 151.9118 0.0000 25.5925 0.0000
# 4 0.0000 0.0000 0.0000 42.5804 0.0000 9.6894
# 5 4.0764 10.1963 25.5925 0.0000 31.2517 0.0000
# 6 0.0000 0.0000 0.0000 9.6894 0.0000 35.2668
#
#
#
# Elastic Compliance Matrix: (Units=1/GPa)
#
#
# Indices 1 2 3 4 5 6 
#
# 1 0.018597 -0.004618 -0.004231 0.000000 0.002546 0.000000
# 2 -0.004618 0.026992 -0.002976 0.000000 -0.005767 0.000000
# 3 -0.004231 -0.002976 0.009226 0.000000 -0.006033 0.000000
# 4 0.000000 0.000000 0.000000 0.025051 0.000000 -0.006883
# 5 0.002546 -0.005767 -0.006033 0.000000 0.038488 0.000000
# 6 0.000000 0.000000 0.000000 -0.006883 0.000000 0.030246
#
#
# Mechanical properties :
#
#
# Convention : Reuss Voigt Hill
#
# Bulk Modulus (GPa) = 32.08680 47.74676 39.91678
# Shear Modulus (GPa) = 27.37621 33.80362 30.58991
#
# Velocity S-wave (km/s) = 3.47209 3.85821 3.67023
# Velocity P-wave (km/s) = 5.49578 6.39323 5.96142
#
# Compressibility (1/GPa) = 0.03116547
#
# Stress axis : x y z
#
# Youngs Moduli (GPa) = 53.77223 37.04740 108.38452
#
# Poissons Ratio (x) = 0.17108 0.45862
# Poissons Ratio (y) = 0.24831 0.32254
# Poissons Ratio (z) = 0.22753 0.11025
#
# Static dielectric constant tensor:
#      x y z
#    x 1.831150 0.000000 -0.006100 
#    y 0.000000 1.927550 0.000000 
#    z -0.006100 0.000000 1.876240 
# 
# From -- ./inp_files/50048.got.cif
#   From: 2010.05.17/outbox.cif.g08.bks.cpg/sg14_26_cif.got.tgz:50048.got - 2010.06.03 17:49:19.
