data_PCOD9250204
_publ_section_title
;
Structure prediction by ZEFSAII (Michael W. Deem and Ramdas Pophale) SiO2 
 PCOD9250204
Probable space group: P 21/C
;
_chemical_formula_sum "Si O2"
_cell_formula_units_Z 16
_cell_length_a 8.195445
_cell_length_b 7.006851
_cell_length_c 20.925851
_cell_angle_alpha 90.000000
_cell_angle_beta 147.526071
_cell_angle_gamma 90.000000
_cell_volume 645.185690
_symmetry_space_group_name_H-M "P 21/C"
_symmetry_group_IT_number 14
_symmetry_cell_setting 'monoclinic'
loop_
_space_group_symop_operation_xyz
x,y,z
-x,1/2+y,1/2-z
-x,-y,-z
x,1/2-y,1/2+z
loop_
_atom_site_type_symbol
_atom_site_label
_atom_site_fract_x
_atom_site_fract_y
_atom_site_fract_z
Si Si1 0.446403 0.707611 0.322369
Si Si2 0.878281 0.609465 0.863715
Si Si3 0.353087 0.580632 0.514908
Si Si4 0.519975 0.972697 0.583065
O O1 0.226872 0.547393 0.221506
O O2 0.602596 0.821701 0.316351
O O3 0.676579 0.583502 0.442422
O O4 0.299495 0.864602 0.320943
O O5 0.043124 0.806538 0.896851
O O6 0.171196 0.508854 0.993179
O O7 0.500000 0.500000 0.500000
O O8 0.575316 0.750489 0.613537
O O9 0.500000 0.000000 0.500000
#
# Coordination Sequence:
#
# PCOD9250204 Si02
#       4
#     4   4   4   4
#     4  12  23  48  70 104 153 180 242 297 354 430
#     4  10  27  42  72 109 137 196 232 290 366 420
#     4  10  23  49  72 104 139 191 238 299 353 425
#     4  10  23  49  70 104 141 189 242 290 356 419
#
# _framework density 24.799060999999998
#
# number of rings (size 3 to 8) (size 9 to 14) (size 15 to 20)
#    1.500    0.000    2.500    1.500    3.500    2.000 
#    9.000    2.500    0.000    0.000    0.000    0.000 
#    0.000    0.000    0.000    0.000    0.000    0.000 
#
# Total GULP energy -89252.990532 kJ/mol
# GULP energy per Si atom -5578.311908 kJ/mol
# Density = 2.474262 g / cm^3
# Si number density = 24.799061 Si / 1000 Ang^3
#
#
#
# Elastic Constant Matrix: (Units=GPa)
#
#
# Indices 1 2 3 4 5 6 
#
# 1 71.9679 33.6304 21.0550 0.0000 -5.2042 0.0000
# 2 33.6304 187.1542 42.9896 0.0000 -26.6856 0.0000
# 3 21.0550 42.9896 55.2704 0.0000 -0.2804 0.0000
# 4 0.0000 0.0000 0.0000 66.6049 0.0000 -19.4357
# 5 -5.2042 -26.6856 -0.2804 0.0000 20.1478 0.0000
# 6 0.0000 0.0000 0.0000 -19.4357 0.0000 53.8208
#
#
#
# Elastic Compliance Matrix: (Units=1/GPa)
#
#
# Indices 1 2 3 4 5 6 
#
# 1 0.016202 -0.001438 -0.005042 0.000000 0.002210 0.000000
# 2 -0.001438 0.008535 -0.006036 0.000000 0.010849 0.000000
# 3 -0.005042 -0.006036 0.024663 0.000000 -0.008953 0.000000
# 4 0.000000 0.000000 0.000000 0.016782 0.000000 0.006060
# 5 0.002210 0.010849 -0.008953 0.000000 0.064449 0.000000
# 6 0.000000 0.000000 0.000000 0.006060 0.000000 0.020769
#
#
# Mechanical properties :
#
#
# Convention : Reuss Voigt Hill
#
# Bulk Modulus (GPa) = 41.03786 56.63805 48.83795
# Shear Modulus (GPa) = 27.09222 42.56253 34.82738
#
# Velocity S-wave (km/s) = 3.30884 4.14731 3.75158
# Velocity P-wave (km/s) = 5.58408 6.76919 6.20500
#
# Compressibility (1/GPa) = 0.02436774
#
# Stress axis : x y z
#
# Youngs Moduli (GPa) = 61.72041 117.16581 40.54670
#
# Poissons Ratio (x) = 0.16849 0.20445
# Poissons Ratio (y) = 0.08875 0.24473
# Poissons Ratio (z) = 0.31122 0.70717
#
# Static dielectric constant tensor:
#      x y z
#    x 1.990170 0.000000 0.002200 
#    y 0.000000 1.987870 0.000000 
#    z 0.002200 0.000000 2.048990 
# 
# From -- ./inp_files/64943.got.cif
#   From: 2010.05.17/outbox.cif.g08.bks.cpg/sg14_33_cif.got.tgz:64943.got - 2010.06.03 17:49:19.
