data_PCOD9250553
_publ_section_title
;
Structure prediction by ZEFSAII (Michael W. Deem and Ramdas Pophale) SiO2 
 PCOD9250553
Probable space group: P 21/C
;
_chemical_formula_sum "Si O2"
_cell_formula_units_Z 22
_cell_length_a 10.722084
_cell_length_b 5.068939
_cell_length_c 25.911534
_cell_angle_alpha 90.000000
_cell_angle_beta 145.522496
_cell_angle_gamma 90.000000
_cell_volume 797.203532
_symmetry_space_group_name_H-M "P 21/C"
_symmetry_group_IT_number 14
_symmetry_cell_setting 'monoclinic'
loop_
_space_group_symop_operation_xyz
x,y,z
-x,1/2+y,1/2-z
-x,-y,-z
x,1/2-y,1/2+z
loop_
_atom_site_type_symbol
_atom_site_label
_atom_site_fract_x
_atom_site_fract_y
_atom_site_fract_z
Si Si1 0.216494 0.100046 0.651157
Si Si2 0.179409 0.544099 0.921719
Si Si3 0.500000 0.000000 0.000000
Si Si4 0.311259 0.908486 0.136542
Si Si5 0.847928 0.606080 0.195266
Si Si6 0.522742 0.734526 0.899538
O O1 0.144899 0.387400 0.607313
O O2 0.076840 0.024396 0.653686
O O3 0.468827 0.129012 0.754229
O O4 0.208918 0.880958 0.603795
O O5 0.280749 0.826864 0.946076
O O6 0.259856 0.363294 0.899904
O O7 0.282492 0.434874 0.009270
O O8 0.446136 0.904698 0.922085
O O9 0.397791 0.069737 0.117114
O O10 0.672642 0.482089 0.175449
O O11 0.977279 0.868110 0.253817
#
# Coordination Sequence:
#
# PCOD9250553 Si02
#       6
#     4   4   2   4   4   4
#     4  10  24  46  71 105 140 192 248 303 356 439
#     4  11  26  44  72 102 150 188 238 307 366 434
#     4  10  24  44  64  98 140 182 232 290 358 436
#     4  10  24  46  72 103 143 189 250 300 361 430
#     4  11  26  43  70 102 140 192 246 289 365 438
#     4  11  26  44  71 102 148 189 234 310 363 437
#
# _framework density 27.596465999999999
#
# number of rings (size 3 to 8) (size 9 to 14) (size 15 to 20)
#    0.000    1.455    0.000    3.273   15.273    5.818 
#    0.000    0.000    0.000    0.000    0.000    0.000 
#    0.000    0.000    0.000    0.000    0.000    0.000 
#
# Total GULP energy -122855.582994 kJ/mol
# GULP energy per Si atom -5584.344682 kJ/mol
# Density = 2.753365 g / cm^3
# Si number density = 27.596466 Si / 1000 Ang^3
#
#
#
# Elastic Constant Matrix: (Units=GPa)
#
#
# Indices 1 2 3 4 5 6 
#
# 1 104.7599 25.0438 3.9729 0.0000 -0.1686 0.0000
# 2 25.0438 129.2625 18.6025 0.0000 -3.7360 0.0000
# 3 3.9729 18.6025 40.7617 0.0000 -1.0873 0.0000
# 4 0.0000 0.0000 0.0000 26.5959 0.0000 -5.1150
# 5 -0.1686 -3.7360 -1.0873 0.0000 39.8127 0.0000
# 6 0.0000 0.0000 0.0000 -5.1150 0.0000 41.4828
#
#
#
# Elastic Compliance Matrix: (Units=1/GPa)
#
#
# Indices 1 2 3 4 5 6 
#
# 1 0.010010 -0.001929 -0.000099 0.000000 -0.000141 0.000000
# 2 -0.001929 0.008670 -0.003750 0.000000 0.000703 0.000000
# 3 -0.000099 -0.003750 0.026264 0.000000 0.000365 0.000000
# 4 0.000000 0.000000 0.000000 0.038513 0.000000 0.004749
# 5 -0.000141 0.000703 0.000365 0.000000 0.025193 0.000000
# 6 0.000000 0.000000 0.000000 0.004749 0.000000 0.024692
#
#
# Mechanical properties :
#
#
# Convention : Reuss Voigt Hill
#
# Bulk Modulus (GPa) = 29.95132 41.11362 35.53247
# Shear Modulus (GPa) = 32.04563 36.72260 34.38411
#
# Velocity S-wave (km/s) = 3.41137 3.65183 3.53365
# Velocity P-wave (km/s) = 5.13746 5.71941 5.43623
#
# Compressibility (1/GPa) = 0.03338751
#
# Stress axis : x y z
#
# Youngs Moduli (GPa) = 99.89633 115.34069 38.07557
#
# Poissons Ratio (x) = 0.22253 0.00377
# Poissons Ratio (y) = 0.19273 0.14278
# Poissons Ratio (z) = 0.00989 0.43252
#
# Static dielectric constant tensor:
#      x y z
#    x 2.085460 0.000000 -0.044980 
#    y 0.000000 2.215090 0.000000 
#    z -0.044980 0.000000 2.275660 
# 
# From -- ./inp_files/79849.got.cif
#   From: 2010.05.17/outbox.cif.g08.bks.cpg/sg14_40_cif.got.tgz:79849.got - 2010.06.03 17:49:19.
