data_PCOD9250156
_publ_section_title
;
Structure prediction by ZEFSAII (Michael W. Deem and Ramdas Pophale) SiO2 
 PCOD9250156
Probable space group: P 21/C
;
_chemical_formula_sum "Si O2"
_cell_formula_units_Z 22
_cell_length_a 10.301641
_cell_length_b 13.241980
_cell_length_c 10.566154
_cell_angle_alpha 90.000000
_cell_angle_beta 144.159673
_cell_angle_gamma 90.000000
_cell_volume 843.964601
_symmetry_space_group_name_H-M "P 21/C"
_symmetry_group_IT_number 14
_symmetry_cell_setting 'monoclinic'
loop_
_space_group_symop_operation_xyz
x,y,z
-x,1/2+y,1/2-z
-x,-y,-z
x,1/2-y,1/2+z
loop_
_atom_site_type_symbol
_atom_site_label
_atom_site_fract_x
_atom_site_fract_y
_atom_site_fract_z
Si Si1 0.000000 0.500000 0.000000
Si Si2 0.868305 0.394174 0.596654
Si Si3 0.723513 0.898810 0.734420
Si Si4 0.475539 0.777561 0.327612
Si Si5 0.506247 0.041923 0.201327
Si Si6 0.118064 0.203322 0.521743
O O1 0.755327 0.492669 0.873879
O O2 0.053009 0.378416 0.074674
O O3 0.751698 0.322596 0.402744
O O4 0.693561 0.474697 0.515805
O O5 0.949315 0.325408 0.776151
O O6 0.086163 0.445816 0.705480
O O7 0.561279 0.829801 0.522180
O O8 0.574410 0.961398 0.714393
O O9 0.864106 0.819432 0.928308
O O10 0.496006 0.657281 0.348654
O O11 0.641421 0.812684 0.348633
#
# Coordination Sequence:
#
# PCOD9250156 Si02
#       6
#     2   4   4   4   4   4
#     4  12  24  44  68 104 138 198 236 298 360 436
#     4  11  23  47  71 105 142 188 249 298 366 432
#     4  10  24  47  74 106 142 192 242 303 364 435
#     4  10  23  47  71 106 146 188 243 302 361 432
#     4  11  25  44  73 105 145 194 241 302 362 437
#     4  10  24  43  70 103 142 185 237 298 369 430
#
# _framework density 26.067443999999998
#
# number of rings (size 3 to 8) (size 9 to 14) (size 15 to 20)
#    0.000    1.455    1.818    1.636    2.545    7.273 
#    6.545    0.000    0.000    0.000    0.000    0.000 
#    0.000    0.000    0.000    0.000    0.000    0.000 
#
# Total GULP energy -122577.559442 kJ/mol
# GULP energy per Si atom -5571.707247 kJ/mol
# Density = 2.600811 g / cm^3
# Si number density = 26.067444 Si / 1000 Ang^3
#
#
#
# Elastic Constant Matrix: (Units=GPa)
#
#
# Indices 1 2 3 4 5 6 
#
# 1 133.9132 37.0081 72.5562 0.0000 45.5186 0.0000
# 2 37.0081 114.2004 30.5788 0.0000 21.8129 0.0000
# 3 72.5562 30.5788 109.3629 0.0000 30.3286 0.0000
# 4 0.0000 0.0000 0.0000 40.6694 0.0000 10.6823
# 5 45.5186 21.8129 30.3286 0.0000 46.9605 0.0000
# 6 0.0000 0.0000 0.0000 10.6823 0.0000 40.1160
#
#
#
# Elastic Compliance Matrix: (Units=1/GPa)
#
#
# Indices 1 2 3 4 5 6 
#
# 1 0.014615 -0.001148 -0.006815 0.000000 -0.009232 0.000000
# 2 -0.001148 0.009987 -0.001283 0.000000 -0.002698 0.000000
# 3 -0.006815 -0.001283 0.014651 0.000000 -0.002260 0.000000
# 4 0.000000 0.000000 0.000000 0.026438 0.000000 -0.007040
# 5 -0.009232 -0.002698 -0.002260 0.000000 0.032956 0.000000
# 6 0.000000 0.000000 0.000000 -0.007040 0.000000 0.026802
#
#
# Mechanical properties :
#
#
# Convention : Reuss Voigt Hill
#
# Bulk Modulus (GPa) = 48.16615 70.86251 59.51433
# Shear Modulus (GPa) = 33.14284 40.03807 36.59046
#
# Velocity S-wave (km/s) = 3.56958 3.92336 3.75064
# Velocity P-wave (km/s) = 5.95876 6.91137 6.45267
#
# Compressibility (1/GPa) = 0.02076147
#
# Stress axis : x y z
#
# Youngs Moduli (GPa) = 68.42060 100.12661 68.25510
#
# Poissons Ratio (x) = 0.11495 0.46518
# Poissons Ratio (y) = 0.07855 0.08755
# Poissons Ratio (z) = 0.46631 0.12843
#
# Static dielectric constant tensor:
#      x y z
#    x 2.090600 0.000000 -0.048170 
#    y 0.000000 1.949000 0.000000 
#    z -0.048170 0.000000 2.181540 
# 
# From -- ./inp_files/30092.got.cif
#   From: 2010.05.17/outbox.cif.g08.bks.cpg/sg14_16_cif.got.tgz:30092.got - 2010.06.03 17:49:19.
