data_PCOD9250390
_publ_section_title
;
Structure prediction by ZEFSAII (Michael W. Deem and Ramdas Pophale) SiO2 
 PCOD9250390
Probable space group: P 21/C
;
_chemical_formula_sum "Si O2"
_cell_formula_units_Z 24
_cell_length_a 9.015149
_cell_length_b 10.221653
_cell_length_c 12.351604
_cell_angle_alpha 90.000000
_cell_angle_beta 99.362146
_cell_angle_gamma 90.000000
_cell_volume 1123.035958
_symmetry_space_group_name_H-M "P 21/C"
_symmetry_group_IT_number 14
_symmetry_cell_setting 'monoclinic'
loop_
_space_group_symop_operation_xyz
x,y,z
-x,1/2+y,1/2-z
-x,-y,-z
x,1/2-y,1/2+z
loop_
_atom_site_type_symbol
_atom_site_label
_atom_site_fract_x
_atom_site_fract_y
_atom_site_fract_z
Si Si1 0.680339 0.853323 0.734451
Si Si2 0.344000 0.732248 0.163643
Si Si3 0.820333 0.384742 0.186705
Si Si4 0.067326 0.858835 0.526656
Si Si5 0.336546 0.001652 0.036682
Si Si6 0.113784 0.151611 0.856432
O O1 0.511215 0.819628 0.679468
O O2 0.675682 0.903291 0.858705
O O3 0.784242 0.728845 0.719076
O O4 0.743672 0.973764 0.670611
O O5 0.302343 0.789854 0.275176
O O6 0.215365 0.629898 0.118432
O O7 0.316895 0.856260 0.081802
O O8 0.965371 0.404231 0.281124
O O9 0.878455 0.318991 0.085341
O O10 0.953157 0.758763 0.567978
O O11 0.000000 0.000000 0.500000
O O12 0.213490 0.048958 0.935138
O O13 0.500000 0.000000 0.000000
#
# Coordination Sequence:
#
# PCOD9250390 Si02
#       6
#     4   4   4   4   4   4
#     4  11  23  44  65 100 133 173 223 275 332 392
#     4  10  25  43  66  97 134 174 225 274 328 401
#     4  10  24  42  66  97 133 174 219 271 330 399
#     4  11  23  44  67  99 133 177 219 276 336 392
#     4  11  24  43  69  99 130 178 221 271 338 393
#     4  11  23  44  71  97 133 172 227 274 333 402
#
# _framework density 21.370643999999999
#
# number of rings (size 3 to 8) (size 9 to 14) (size 15 to 20)
#    0.000    1.333    3.333    1.000    2.333    9.333 
#    6.000    0.000    0.000    0.000    0.000    0.000 
#    0.000    0.000    0.000    0.000    0.000    0.000 
#
# Total GULP energy -134158.551704 kJ/mol
# GULP energy per Si atom -5589.939654 kJ/mol
# Density = 2.132200 g / cm^3
# Si number density = 21.370644 Si / 1000 Ang^3
#
#
#
# Elastic Constant Matrix: (Units=GPa)
#
#
# Indices 1 2 3 4 5 6 
#
# 1 137.0386 53.3526 21.3518 0.0000 6.5892 0.0000
# 2 53.3526 78.1207 32.6662 0.0000 17.9366 0.0000
# 3 21.3518 32.6662 52.9213 0.0000 -8.9428 0.0000
# 4 0.0000 0.0000 0.0000 20.2025 0.0000 16.6862
# 5 6.5892 17.9366 -8.9428 0.0000 45.8198 0.0000
# 6 0.0000 0.0000 0.0000 16.6862 0.0000 4.7955
#
#
#
# Elastic Compliance Matrix: (Units=1/GPa)
#
#
# Indices 1 2 3 4 5 6 
#
# 1 0.010048 -0.007673 0.000978 0.000000 0.001749 0.000000
# 2 -0.007673 0.027818 -0.016266 0.000000 -0.012961 0.000000
# 3 0.000978 -0.016266 0.030603 0.000000 0.012200 0.000000
# 4 0.000000 0.000000 0.000000 -0.026414 0.000000 0.091911
# 5 0.001749 -0.012961 0.012200 0.000000 0.029028 0.000000
# 6 0.000000 0.000000 0.000000 0.091911 0.000000 -0.111279
#
#
# Mechanical properties :
#
#
# Convention : Reuss Voigt Hill
#
# Bulk Modulus (GPa) = 44.34966 53.64685 48.99826
# Shear Modulus (GPa) = 377.61932 24.87755 201.24844
#
# Velocity S-wave (km/s) = 13.30728 3.41559 9.71468
# Velocity P-wave (km/s) = 16.02839 6.38064 12.19881
#
# Compressibility (1/GPa) = 0.02254809
#
# Stress axis : x y z
#
# Youngs Moduli (GPa) = 99.52265 35.94777 32.67644
#
# Poissons Ratio (x) = 0.27582 -0.03195
# Poissons Ratio (y) = 0.76362 0.53150
# Poissons Ratio (z) = -0.09731 0.58471
#
# Static dielectric constant tensor:
#      x y z
#    x 1.779030 0.000000 -0.063780 
#    y 0.000000 1.803620 0.000000 
#    z -0.063780 0.000000 1.838950 
# 
# From -- ./inp_files/24266.got.cif
#   From: 2010.05.17/outbox.cif.g08.bks.cpg/sg14_13_cif.got.tgz:24266.got - 2010.06.03 17:49:19.
