data_PCOD9250049
_publ_section_title
;
Structure prediction by ZEFSAII (Michael W. Deem and Ramdas Pophale) SiO2 
 PCOD9250049
Probable space group: P 21/C
;
_chemical_formula_sum "Si O2"
_cell_formula_units_Z 20
_cell_length_a 16.633459
_cell_length_b 8.488581
_cell_length_c 17.274173
_cell_angle_alpha 90.000000
_cell_angle_beta 17.800074
_cell_angle_gamma 90.000000
_cell_volume 745.599228
_symmetry_space_group_name_H-M "P 21/C"
_symmetry_group_IT_number 14
_symmetry_cell_setting 'monoclinic'
loop_
_space_group_symop_operation_xyz
x,y,z
-x,1/2+y,1/2-z
-x,-y,-z
x,1/2-y,1/2+z
loop_
_atom_site_type_symbol
_atom_site_label
_atom_site_fract_x
_atom_site_fract_y
_atom_site_fract_z
Si Si1 0.880955 0.504366 0.875340
Si Si2 0.325268 0.815029 0.890896
Si Si3 0.540731 0.299763 0.897573
Si Si4 0.953879 0.388028 0.115559
Si Si5 0.231726 0.121509 0.802596
O O1 0.086676 0.559576 0.620402
O O2 0.053403 0.525595 0.796088
O O3 0.776046 0.326860 0.962178
O O4 0.613259 0.605738 0.133537
O O5 0.362632 0.735164 0.771734
O O6 0.708405 0.219034 0.812716
O O7 0.551693 0.490877 0.875863
O O8 0.260290 0.287137 0.194566
O O9 0.000000 0.500000 0.000000
O O10 0.181709 0.255406 0.909720
O O11 0.000000 0.000000 0.000000
#
# Coordination Sequence:
#
# PCOD9250049 Si02
#       5
#     4   4   4   4   4
#     4  12  30  50  78 114 160 207 257 325 391 472
#     4  12  29  51  78 113 158 209 254 322 397 467
#     4  10  23  45  75 104 147 194 254 310 381 457
#     4  11  24  45  72 108 146 196 261 310 376 447
#     4   9  22  40  71 106 141 188 245 315 371 452
#
# _framework density 26.824062999999999
#
# number of rings (size 3 to 8) (size 9 to 14) (size 15 to 20)
#    0.000    1.200    2.000    1.200   14.000    4.000 
#    0.000    0.000    0.000    0.000    0.000    0.000 
#    0.000    0.000    0.000    0.000    0.000    0.000 
#
# Total GULP energy -111554.642580 kJ/mol
# GULP energy per Si atom -5577.732129 kJ/mol
# Density = 2.676301 g / cm^3
# Si number density = 26.824063 Si / 1000 Ang^3
#
#
#
# Elastic Constant Matrix: (Units=GPa)
#
#
# Indices 1 2 3 4 5 6 
#
# 1 75.3623 7.8212 19.2325 0.0000 -0.6832 0.0000
# 2 7.8212 88.3420 25.0804 0.0000 -9.1622 0.0000
# 3 19.2325 25.0804 135.3945 0.0000 7.1237 0.0000
# 4 0.0000 0.0000 0.0000 41.1251 0.0000 7.1340
# 5 -0.6832 -9.1622 7.1237 0.0000 25.7887 0.0000
# 6 0.0000 0.0000 0.0000 7.1340 0.0000 33.3718
#
#
#
# Elastic Compliance Matrix: (Units=1/GPa)
#
#
# Indices 1 2 3 4 5 6 
#
# 1 0.013820 -0.000620 -0.001883 0.000000 0.000666 0.000000
# 2 -0.000620 0.012627 -0.002523 0.000000 0.005166 0.000000
# 3 -0.001883 -0.002523 0.008291 0.000000 -0.003236 0.000000
# 4 0.000000 0.000000 0.000000 0.025252 0.000000 -0.005398
# 5 0.000666 0.005166 -0.003236 0.000000 0.041524 0.000000
# 6 0.000000 0.000000 0.000000 -0.005398 0.000000 0.031119
#
#
# Mechanical properties :
#
#
# Convention : Reuss Voigt Hill
#
# Bulk Modulus (GPa) = 40.50883 44.81856 42.66370
# Shear Modulus (GPa) = 33.13146 36.52143 34.82645
#
# Velocity S-wave (km/s) = 3.51827 3.69388 3.60714
# Velocity P-wave (km/s) = 5.62483 5.91080 5.76959
#
# Compressibility (1/GPa) = 0.02468598
#
# Stress axis : x y z
#
# Youngs Moduli (GPa) = 72.35767 79.19821 120.61346
#
# Poissons Ratio (x) = 0.04908 0.22716
# Poissons Ratio (y) = 0.04484 0.30428
# Poissons Ratio (z) = 0.13628 0.19980
#
# Static dielectric constant tensor:
#      x y z
#    x 2.275140 0.000000 -0.053970 
#    y 0.000000 2.156880 0.000000 
#    z -0.053970 0.000000 2.418480 
# 
# From -- ./inp_files/60274.got.cif
#   From: 2010.05.17/outbox.cif.g08.bks.cpg/sg14_31_cif.got.tgz:60274.got - 2010.06.03 17:49:19.
