data_PCOD9250561
_publ_section_title
;
Structure prediction by ZEFSAII (Michael W. Deem and Ramdas Pophale) SiO2 
 PCOD9250561
Probable space group: P 21/C
;
_chemical_formula_sum "Si O2"
_cell_formula_units_Z 28
_cell_length_a 13.330864
_cell_length_b 9.051343
_cell_length_c 11.399542
_cell_angle_alpha 90.000000
_cell_angle_beta 65.975233
_cell_angle_gamma 90.000000
_cell_volume 1256.334409
_symmetry_space_group_name_H-M "P 21/C"
_symmetry_group_IT_number 14
_symmetry_cell_setting 'monoclinic'
loop_
_space_group_symop_operation_xyz
x,y,z
-x,1/2+y,1/2-z
-x,-y,-z
x,1/2-y,1/2+z
loop_
_atom_site_type_symbol
_atom_site_label
_atom_site_fract_x
_atom_site_fract_y
_atom_site_fract_z
Si Si1 0.935924 0.075559 0.135627
Si Si2 0.947376 0.348429 0.982548
Si Si3 0.348561 0.021425 0.149445
Si Si4 0.116993 0.329557 0.717947
Si Si5 0.473202 0.751712 0.017964
Si Si6 0.795511 0.970696 0.392100
Si Si7 0.433006 0.488932 0.876663
O O1 0.027501 0.072728 0.193875
O O2 0.825115 0.010510 0.243926
O O3 0.912158 0.241566 0.103162
O O4 0.000000 0.000000 0.000000
O O5 0.848138 0.401015 0.947188
O O6 0.045659 0.273467 0.861693
O O7 0.000000 0.500000 0.000000
O O8 0.395438 0.016516 0.260139
O O9 0.224190 0.079864 0.204417
O O10 0.423243 0.137967 0.041779
O O11 0.369453 0.860246 0.083366
O O12 0.150838 0.191650 0.620443
O O13 0.472451 0.649100 0.902539
O O14 0.483973 0.639903 0.122708
O O15 0.671222 0.959121 0.489435
#
# Coordination Sequence:
#
# PCOD9250561 Si02
#       7
#     4   4   4   4   4   4   4
#     4  11  24  41  63  93 132 173 214 270 320 384
#     4  11  22  39  63  88 132 172 210 265 325 381
#     4  11  23  43  72  94 130 176 217 272 338 391
#     4  11  23  40  64  97 127 170 224 263 318 404
#     4  10  24  44  66 102 131 163 226 277 327 408
#     4  11  23  40  64  97 129 169 220 266 319 401
#     4  11  23  43  68  97 135 170 215 279 339 383
#
# _framework density 22.287057999999998
#
# number of rings (size 3 to 8) (size 9 to 14) (size 15 to 20)
#    0.000    1.143    4.286    1.714    0.000    3.429 
#    0.000    1.429    0.000    0.000    0.000    0.000 
#    0.000    0.000    0.000    0.000    0.000    0.000 
#
# Total GULP energy -156397.910411 kJ/mol
# GULP energy per Si atom -5585.639658 kJ/mol
# Density = 2.223633 g / cm^3
# Si number density = 22.287058 Si / 1000 Ang^3
#
#
#
# Elastic Constant Matrix: (Units=GPa)
#
#
# Indices 1 2 3 4 5 6 
#
# 1 51.8995 16.4338 -2.3641 0.0000 5.0314 0.0000
# 2 16.4338 97.0670 9.4742 0.0000 5.3767 0.0000
# 3 -2.3641 9.4742 45.5947 0.0000 8.0898 0.0000
# 4 0.0000 0.0000 0.0000 39.5386 0.0000 1.8103
# 5 5.0314 5.3767 8.0898 0.0000 37.7015 0.0000
# 6 0.0000 0.0000 0.0000 1.8103 0.0000 21.8285
#
#
#
# Elastic Compliance Matrix: (Units=1/GPa)
#
#
# Indices 1 2 3 4 5 6 
#
# 1 0.020778 -0.003591 0.002313 0.000000 -0.002757 0.000000
# 2 -0.003591 0.011178 -0.002402 0.000000 -0.000599 0.000000
# 3 0.002313 -0.002402 0.023438 0.000000 -0.004995 0.000000
# 4 0.000000 0.000000 0.000000 0.025388 0.000000 -0.002106
# 5 -0.002757 -0.000599 -0.004995 0.000000 0.028049 0.000000
# 6 0.000000 0.000000 0.000000 -0.002106 0.000000 0.045986
#
#
# Mechanical properties :
#
#
# Convention : Reuss Voigt Hill
#
# Bulk Modulus (GPa) = 20.81947 26.84989 23.83468
# Shear Modulus (GPa) = 28.06010 31.21486 29.63748
#
# Velocity S-wave (km/s) = 3.55213 3.74650 3.65061
# Velocity P-wave (km/s) = 5.11716 5.54873 5.33731
#
# Compressibility (1/GPa) = 0.04803197
#
# Stress axis : x y z
#
# Youngs Moduli (GPa) = 48.12868 89.46324 42.66617
#
# Poissons Ratio (x) = 0.32124 -0.09867
# Poissons Ratio (y) = 0.17282 0.10250
# Poissons Ratio (z) = -0.11130 0.21493
#
# Static dielectric constant tensor:
#      x y z
#    x 1.833610 0.000000 0.013890 
#    y 0.000000 2.331410 0.000000 
#    z 0.013890 0.000000 1.891190 
# 
# From -- ./inp_files/31669.got.cif
#   From: 2010.05.17/outbox.cif.g08.bks.cpg/sg14_16_cif.got.tgz:31669.got - 2010.06.03 17:49:19.
