data_PCOD9250532
_publ_section_title
;
Structure prediction by ZEFSAII (Michael W. Deem and Ramdas Pophale) SiO2 
 PCOD9250532
Probable space group: P 21/C
;
_chemical_formula_sum "Si O2"
_cell_formula_units_Z 32
_cell_length_a 11.720554
_cell_length_b 27.976695
_cell_length_c 9.120867
_cell_angle_alpha 90.000000
_cell_angle_beta 152.257750
_cell_angle_gamma 90.000000
_cell_volume 1392.180398
_symmetry_space_group_name_H-M "P 21/C"
_symmetry_group_IT_number 14
_symmetry_cell_setting 'monoclinic'
loop_
_space_group_symop_operation_xyz
x,y,z
-x,1/2+y,1/2-z
-x,-y,-z
x,1/2-y,1/2+z
loop_
_atom_site_type_symbol
_atom_site_label
_atom_site_fract_x
_atom_site_fract_y
_atom_site_fract_z
Si Si1 0.542749 0.282611 0.715820
Si Si2 0.188993 0.292495 0.761601
Si Si3 0.020256 0.998296 0.197797
Si Si4 0.124149 0.643540 0.055841
Si Si5 0.544882 0.946825 0.804989
Si Si6 0.028161 0.725838 0.178917
Si Si7 0.679925 0.853582 0.824474
Si Si8 0.065742 0.053138 0.517473
O O1 0.337765 0.255844 0.389702
O O2 0.645834 0.328829 0.749812
O O3 0.426225 0.305138 0.727856
O O4 0.722913 0.238305 0.948243
O O5 0.282929 0.341952 0.803511
O O6 0.967123 0.276848 0.404134
O O7 0.147176 0.288503 0.885365
O O8 0.279709 0.970843 0.521526
O O9 0.053921 0.047252 0.329179
O O10 0.763797 0.975277 0.966950
O O11 0.000000 0.000000 0.000000
O O12 0.043511 0.681726 0.086565
O O13 0.930705 0.638676 0.701777
O O14 0.120426 0.592429 0.130447
O O15 0.515093 0.898521 0.677516
O O16 0.671896 0.936252 0.107576
O O17 0.000000 0.000000 0.500000
#
# Coordination Sequence:
#
# PCOD9250532 Si02
#       8
#     4   4   4   4   4   4   4   4
#     4  12  22  38  67  84 133 173 217 267 337 386
#     4  12  23  41  57  92 130 172 218 270 332 391
#     4  11  23  46  72  99 141 173 220 292 354 406
#     4  11  23  42  64  97 127 172 225 274 334 402
#     4  10  24  43  71 101 132 180 231 273 346 417
#     4  12  23  40  60  89 133 169 222 272 326 406
#     4  11  24  40  65  93 128 173 223 272 325 411
#     4   9  22  44  69 100 131 176 229 285 342 415
#
# _framework density 22.985526
#
# number of rings (size 3 to 8) (size 9 to 14) (size 15 to 20)
#    0.000    1.000    5.000    1.500    5.250    1.000 
#    4.500    0.000    0.000    0.000    0.000    0.000 
#    0.000    0.000    0.000    0.000    0.000    0.000 
#
# Total GULP energy -178288.945530 kJ/mol
# GULP energy per Si atom -5571.529548 kJ/mol
# Density = 2.293321 g / cm^3
# Si number density = 22.985526 Si / 1000 Ang^3
#
#
#
# Elastic Constant Matrix: (Units=GPa)
#
#
# Indices 1 2 3 4 5 6 
#
# 1 89.2039 -12.7491 7.3558 0.0000 -14.1259 0.0000
# 2 -12.7491 45.1050 -13.1793 0.0000 11.4755 0.0000
# 3 7.3558 -13.1793 11.9904 0.0000 0.9200 0.0000
# 4 0.0000 0.0000 0.0000 13.2262 0.0000 1.5193
# 5 -14.1259 11.4755 0.9200 0.0000 34.0689 0.0000
# 6 0.0000 0.0000 0.0000 1.5193 0.0000 35.7219
#
#
#
# Elastic Compliance Matrix: (Units=1/GPa)
#
#
# Indices 1 2 3 4 5 6 
#
# 1 0.012768 -0.000359 -0.008660 0.000000 0.005648 0.000000
# 2 -0.000359 0.038423 0.043548 0.000000 -0.014267 0.000000
# 3 -0.008660 0.043548 0.138267 0.000000 -0.021993 0.000000
# 4 0.000000 0.000000 0.000000 0.075978 0.000000 -0.003232
# 5 0.005648 -0.014267 -0.021993 0.000000 0.037094 0.000000
# 6 0.000000 0.000000 0.000000 -0.003232 0.000000 0.028132
#
#
# Mechanical properties :
#
#
# Convention : Reuss Voigt Hill
#
# Bulk Modulus (GPa) = 3.86824 12.12822 7.99823
# Shear Modulus (GPa) = 14.37709 27.59487 20.98598
#
# Velocity S-wave (km/s) = 2.50368 3.46863 3.02488
# Velocity P-wave (km/s) = 3.16930 4.61842 3.96070
#
# Compressibility (1/GPa) = 0.25851556
#
# Stress axis : x y z
#
# Youngs Moduli (GPa) = 78.32325 26.02595 7.23239
#
# Poissons Ratio (x) = 0.00934 0.06263
# Poissons Ratio (y) = 0.02810 -0.31496
# Poissons Ratio (z) = 0.67831 -1.13338
#
# Static dielectric constant tensor:
#      x y z
#    x 1.947340 0.000000 0.052490 
#    y 0.000000 1.904080 0.000000 
#    z 0.052490 0.000000 1.887420 
# 
# From -- ./inp_files/14680.got.cif
#   From: 2010.05.17/outbox.cif.g08.bks.cpg/sg14_8_cif.got.tgz:14680.got - 2010.06.03 17:49:19.
