data_PCOD9250899
_publ_section_title
;
Structure prediction by ZEFSAII (Michael W. Deem and Ramdas Pophale) SiO2 
 PCOD9250899
Probable space group: P 21/C
;
_chemical_formula_sum "Si O2"
_cell_formula_units_Z 24
_cell_length_a 24.157215
_cell_length_b 5.491459
_cell_length_c 24.337970
_cell_angle_alpha 90.000000
_cell_angle_beta 160.742007
_cell_angle_gamma 90.000000
_cell_volume 1064.875998
_symmetry_space_group_name_H-M "P 21/C"
_symmetry_group_IT_number 14
_symmetry_cell_setting 'monoclinic'
loop_
_space_group_symop_operation_xyz
x,y,z
-x,1/2+y,1/2-z
-x,-y,-z
x,1/2-y,1/2+z
loop_
_atom_site_type_symbol
_atom_site_label
_atom_site_fract_x
_atom_site_fract_y
_atom_site_fract_z
Si Si1 0.031015 0.891648 0.811940
Si Si2 0.106458 0.246147 0.100069
Si Si3 0.368172 0.068095 0.155452
Si Si4 0.844936 0.797242 0.232335
Si Si5 0.802476 0.928087 0.426314
Si Si6 0.480376 0.294885 0.639877
O O1 0.982962 0.637970 0.737039
O O2 0.082591 0.414301 0.739767
O O3 0.223928 0.867162 0.010700
O O4 0.197419 0.239957 0.244259
O O5 0.201178 0.257934 0.130966
O O6 0.000000 0.500000 0.000000
O O7 0.000000 0.000000 0.000000
O O8 0.499877 0.989624 0.325577
O O9 0.260415 0.287109 0.079076
O O10 0.448989 0.104650 0.172086
O O11 0.675404 0.873838 0.042924
O O12 0.008597 0.973531 0.388139
O O13 0.657139 0.126255 0.279915
#
# Coordination Sequence:
#
# PCOD9250899 Si02
#       6
#     4   4   4   4   4   4
#     4  12  25  41  71 103 140 189 240 290 364 432
#     4  10  24  49  77 104 140 190 243 300 360 426
#     4  12  25  43  67 103 157 186 241 301 372 426
#     4  11  25  46  73 106 140 189 247 296 359 438
#     4  11  25  49  72 100 147 192 236 303 366 429
#     4  12  26  42  69 107 143 191 240 300 360 439
#
# _framework density 22.537834
#
# number of rings (size 3 to 8) (size 9 to 14) (size 15 to 20)
#    0.000    0.667    5.000    2.000    4.667    2.000 
#    6.000    0.833    0.000    0.000    0.000    0.000 
#    0.000    0.000    0.000    0.000    0.000    0.000 
#
# Total GULP energy -133899.586359 kJ/mol
# GULP energy per Si atom -5579.149432 kJ/mol
# Density = 2.248654 g / cm^3
# Si number density = 22.537834 Si / 1000 Ang^3
#
#
#
# Elastic Constant Matrix: (Units=GPa)
#
#
# Indices 1 2 3 4 5 6 
#
# 1 94.3345 25.9851 47.9799 0.0000 -25.7135 0.0000
# 2 25.9851 78.6754 38.0413 0.0000 -5.8949 0.0000
# 3 47.9799 38.0413 146.4100 0.0000 -10.7738 0.0000
# 4 0.0000 0.0000 0.0000 24.9978 0.0000 8.3208
# 5 -25.7135 -5.8949 -10.7738 0.0000 31.4413 0.0000
# 6 0.0000 0.0000 0.0000 8.3208 0.0000 14.6264
#
#
#
# Elastic Compliance Matrix: (Units=1/GPa)
#
#
# Indices 1 2 3 4 5 6 
#
# 1 0.016475 -0.002713 -0.003837 0.000000 0.011650 0.000000
# 2 -0.002713 0.015050 -0.003054 0.000000 -0.000444 0.000000
# 3 -0.003837 -0.003054 0.008831 0.000000 -0.000684 0.000000
# 4 0.000000 0.000000 0.000000 0.049348 0.000000 -0.028074
# 5 0.011650 -0.000444 -0.000684 0.000000 0.041015 0.000000
# 6 0.000000 0.000000 0.000000 -0.028074 0.000000 0.084340
#
#
# Mechanical properties :
#
#
# Convention : Reuss Voigt Hill
#
# Bulk Modulus (GPa) = 47.28646 60.38138 53.83392
# Shear Modulus (GPa) = 20.71966 28.04067 24.38017
#
# Velocity S-wave (km/s) = 3.03533 3.53109 3.29256
# Velocity P-wave (km/s) = 5.77155 6.59349 6.19616
#
# Compressibility (1/GPa) = 0.02114770
#
# Stress axis : x y z
#
# Youngs Moduli (GPa) = 60.69811 66.44521 113.24295
#
# Poissons Ratio (x) = 0.18029 0.43448
# Poissons Ratio (y) = 0.16470 0.34583
# Poissons Ratio (z) = 0.23288 0.20291
#
# Static dielectric constant tensor:
#      x y z
#    x 1.862630 0.000000 -0.004300 
#    y 0.000000 1.938770 0.000000 
#    z -0.004300 0.000000 1.905160 
# 
# From -- ./inp_files/74818.got.cif
#   From: 2010.05.17/outbox.cif.g08.bks.cpg/sg14_38_cif.got.tgz:74818.got - 2010.06.03 17:49:19.
