data_PCOD9250221
_publ_section_title
;
Structure prediction by ZEFSAII (Michael W. Deem and Ramdas Pophale) SiO2 
 PCOD9250221
Probable space group: P 21/C
;
_chemical_formula_sum "Si O2"
_cell_formula_units_Z 20
_cell_length_a 14.927310
_cell_length_b 11.590985
_cell_length_c 9.532745
_cell_angle_alpha 90.000000
_cell_angle_beta 27.972542
_cell_angle_gamma 90.000000
_cell_volume 773.637485
_symmetry_space_group_name_H-M "P 21/C"
_symmetry_group_IT_number 14
_symmetry_cell_setting 'monoclinic'
loop_
_space_group_symop_operation_xyz
x,y,z
-x,1/2+y,1/2-z
-x,-y,-z
x,1/2-y,1/2+z
loop_
_atom_site_type_symbol
_atom_site_label
_atom_site_fract_x
_atom_site_fract_y
_atom_site_fract_z
Si Si1 0.157857 0.872880 0.323884
Si Si2 0.444006 0.878505 0.143703
Si Si3 0.180671 0.468748 0.548871
Si Si4 0.228154 0.510387 0.186887
Si Si5 0.802197 0.773319 0.194538
O O1 0.313621 0.814988 0.208178
O O2 0.038723 0.958261 0.593957
O O3 0.000896 0.787042 0.469160
O O4 0.258008 0.956476 0.071576
O O5 0.319546 0.903568 0.453516
O O6 0.500000 0.000000 0.000000
O O7 0.261547 0.537372 0.303382
O O8 0.195227 0.339379 0.460909
O O9 0.362459 0.318244 0.582716
O O10 0.272578 0.375609 0.100004
O O11 0.000000 0.500000 0.500000
#
# Coordination Sequence:
#
# PCOD9250221 Si02
#       5
#     4   4   4   4   4
#     4  11  22  49  83 114 154 222 265 333 413 485
#     4  12  25  48  80 119 164 207 273 336 399 496
#     4   9  22  45  80 111 159 207 267 329 400 483
#     4  10  23  50  81 114 164 215 264 333 407 487
#     4  10  26  46  80 117 164 210 266 339 408 479
#
# _framework density 25.851899
#
# number of rings (size 3 to 8) (size 9 to 14) (size 15 to 20)
#    1.200    0.400    2.000    2.400    2.800    0.000 
#    7.200    8.000    8.800    0.000    0.000    0.000 
#    0.000    0.000    0.000    0.000    0.000    0.000 
#
# Total GULP energy -111532.315869 kJ/mol
# GULP energy per Si atom -5576.615793 kJ/mol
# Density = 2.579306 g / cm^3
# Si number density = 25.851899 Si / 1000 Ang^3
#
#
#
# Elastic Constant Matrix: (Units=GPa)
#
#
# Indices 1 2 3 4 5 6 
#
# 1 140.1727 77.4086 79.7553 0.0000 1.6375 0.0000
# 2 77.4086 125.4215 56.4089 0.0000 -1.2213 0.0000
# 3 79.7553 56.4089 133.4396 0.0000 22.4083 0.0000
# 4 0.0000 0.0000 0.0000 33.1754 0.0000 9.4710
# 5 1.6375 -1.2213 22.4083 0.0000 49.1156 0.0000
# 6 0.0000 0.0000 0.0000 9.4710 0.0000 18.4936
#
#
#
# Elastic Compliance Matrix: (Units=1/GPa)
#
#
# Indices 1 2 3 4 5 6 
#
# 1 0.013783 -0.005694 -0.006206 0.000000 0.002230 0.000000
# 2 -0.005694 0.012448 -0.002104 0.000000 0.001459 0.000000
# 3 -0.006206 -0.002104 0.013068 0.000000 -0.005807 0.000000
# 4 0.000000 0.000000 0.000000 0.035304 0.000000 -0.018080
# 5 0.002230 0.001459 -0.005807 0.000000 0.022972 0.000000
# 6 0.000000 0.000000 0.000000 -0.018080 0.000000 0.063332
#
#
# Mechanical properties :
#
#
# Convention : Reuss Voigt Hill
#
# Bulk Modulus (GPa) = 88.56015 91.79770 90.17893
# Shear Modulus (GPa) = 25.95003 32.52098 29.23551
#
# Velocity S-wave (km/s) = 3.17171 3.55064 3.36651
# Velocity P-wave (km/s) = 6.90971 7.23848 7.07600
#
# Compressibility (1/GPa) = 0.01129176
#
# Stress axis : x y z
#
# Youngs Moduli (GPa) = 72.55097 80.33468 76.52552
#
# Poissons Ratio (x) = 0.45745 0.47488
# Poissons Ratio (y) = 0.41312 0.16099
# Poissons Ratio (z) = 0.45022 0.16900
#
# Static dielectric constant tensor:
#      x y z
#    x 1.913610 0.000000 0.051300 
#    y 0.000000 2.179060 0.000000 
#    z 0.051300 0.000000 1.976670 
# 
# From -- ./inp_files/15971.got.cif
#   From: 2010.05.17/outbox.cif.g08.bks.cpg/sg14_8_cif.got.tgz:15971.got - 2010.06.03 17:49:19.
