data_PCOD9250273
_publ_section_title
;
Structure prediction by ZEFSAII (Michael W. Deem and Ramdas Pophale) SiO2 
 PCOD9250273
Probable space group: P 21/C
;
_chemical_formula_sum "Si O2"
_cell_formula_units_Z 20
_cell_length_a 10.503990
_cell_length_b 8.673826
_cell_length_c 9.230148
_cell_angle_alpha 90.000000
_cell_angle_beta 102.463631
_cell_angle_gamma 90.000000
_cell_volume 821.138106
_symmetry_space_group_name_H-M "P 21/C"
_symmetry_group_IT_number 14
_symmetry_cell_setting 'monoclinic'
loop_
_space_group_symop_operation_xyz
x,y,z
-x,1/2+y,1/2-z
-x,-y,-z
x,1/2-y,1/2+z
loop_
_atom_site_type_symbol
_atom_site_label
_atom_site_fract_x
_atom_site_fract_y
_atom_site_fract_z
Si Si1 0.888445 0.954217 0.582852
Si Si2 0.362427 0.640180 0.982950
Si Si3 0.963405 0.596365 0.634637
Si Si4 0.689406 0.489372 0.564825
Si Si5 0.460099 0.019574 0.236489
O O1 0.920750 0.774306 0.612855
O O2 0.742697 0.006779 0.505729
O O3 0.000000 0.000000 0.500000
O O4 0.918379 0.059902 0.730165
O O5 0.408220 0.614856 0.828817
O O6 0.307305 0.810513 0.978783
O O7 0.481873 0.629362 0.124613
O O8 0.829788 0.524773 0.661359
O O9 0.000000 0.500000 0.500000
O O10 0.651365 0.574571 0.403905
O O11 0.578080 0.518364 0.656093
#
# Coordination Sequence:
#
# PCOD9250273 Si02
#       5
#     4   4   4   4   4
#     4  12  26  45  70  99 134 175 223 275 333 396
#     4  11  23  42  68  97 133 174 221 273 326 390
#     4  12  26  45  70  99 134 175 223 275 333 396
#     4  11  23  42  68  97 133 174 221 273 326 390
#     4  10  24  40  64  96 132 170 212 266 328 386
#
# _framework density 24.356442000000001
#
# number of rings (size 3 to 8) (size 9 to 14) (size 15 to 20)
#    0.000    0.800    0.000    7.200    0.000    9.600 
#    0.000    0.000    0.000    0.000    0.000    0.000 
#    0.000    0.000    0.000    0.000    0.000    0.000 
#
# Total GULP energy -111800.618758 kJ/mol
# GULP energy per Si atom -5590.030938 kJ/mol
# Density = 2.430101 g / cm^3
# Si number density = 24.356442 Si / 1000 Ang^3
#
#
#
# Elastic Constant Matrix: (Units=GPa)
#
#
# Indices 1 2 3 4 5 6 
#
# 1 68.9434 11.6406 5.7846 0.0000 -2.0719 0.0000
# 2 11.6406 140.1414 -2.2302 0.0000 5.8781 0.0000
# 3 5.7846 -2.2302 115.5591 0.0000 -6.1523 0.0000
# 4 0.0000 0.0000 0.0000 18.1656 0.0000 0.1403
# 5 -2.0719 5.8781 -6.1523 0.0000 42.1787 0.0000
# 6 0.0000 0.0000 0.0000 0.1403 0.0000 34.2669
#
#
#
# Elastic Compliance Matrix: (Units=1/GPa)
#
#
# Indices 1 2 3 4 5 6 
#
# 1 0.014805 -0.001275 -0.000723 0.000000 0.000799 0.000000
# 2 -0.001275 0.007288 0.000148 0.000000 -0.001057 0.000000
# 3 -0.000723 0.000148 0.008758 0.000000 0.001221 0.000000
# 4 0.000000 0.000000 0.000000 0.055051 0.000000 -0.000225
# 5 0.000799 -0.001057 0.001221 0.000000 0.024073 0.000000
# 6 0.000000 0.000000 0.000000 -0.000225 0.000000 0.029184
#
#
# Mechanical properties :
#
#
# Convention : Reuss Voigt Hill
#
# Bulk Modulus (GPa) = 36.83091 39.44823 38.13957
# Shear Modulus (GPa) = 32.91471 39.55218 36.23344
#
# Velocity S-wave (km/s) = 3.68009 4.03412 3.86117
# Velocity P-wave (km/s) = 5.76298 6.15875 5.96415
#
# Compressibility (1/GPa) = 0.02715111
#
# Stress axis : x y z
#
# Youngs Moduli (GPa) = 67.54669 137.20779 114.18581
#
# Poissons Ratio (x) = 0.17491 0.08257
# Poissons Ratio (y) = 0.08611 -0.01692
# Poissons Ratio (z) = 0.04884 -0.02034
#
# Static dielectric constant tensor:
#      x y z
#    x 1.900500 0.000000 0.008860 
#    y 0.000000 1.967380 0.000000 
#    z 0.008860 0.000000 1.867800 
# 
# From -- ./inp_files/10075.got.cif
#   From: 2010.05.17/outbox.cif.g08.bks.cpg/sg14_6_cif.got.tgz:10075.got - 2010.06.03 17:49:19.
