data_PCOD9250054
_publ_section_title
;
Structure prediction by ZEFSAII (Michael W. Deem and Ramdas Pophale) SiO2 
 PCOD9250054
Probable space group: P 21/C
;
_chemical_formula_sum "Si O2"
_cell_formula_units_Z 28
_cell_length_a 9.489324
_cell_length_b 13.658195
_cell_length_c 11.173886
_cell_angle_alpha 90.000000
_cell_angle_beta 124.769264
_cell_angle_gamma 90.000000
_cell_volume 1189.643205
_symmetry_space_group_name_H-M "P 21/C"
_symmetry_group_IT_number 14
_symmetry_cell_setting 'monoclinic'
loop_
_space_group_symop_operation_xyz
x,y,z
-x,1/2+y,1/2-z
-x,-y,-z
x,1/2-y,1/2+z
loop_
_atom_site_type_symbol
_atom_site_label
_atom_site_fract_x
_atom_site_fract_y
_atom_site_fract_z
Si Si1 0.752281 0.458936 0.074396
Si Si2 0.075100 0.831223 0.807759
Si Si3 0.908328 0.873244 0.199396
Si Si4 0.568037 0.255761 0.019186
Si Si5 0.722341 0.636625 0.214182
Si Si6 0.778824 0.010182 0.305573
Si Si7 0.429154 0.094662 0.111703
O O1 0.633347 0.367338 0.051133
O O2 0.700007 0.566571 0.089055
O O3 0.921309 0.436563 0.233614
O O4 0.782971 0.461526 0.946661
O O5 0.262578 0.800453 0.948462
O O6 0.117712 0.910046 0.725041
O O7 0.975829 0.735648 0.707174
O O8 0.927385 0.857354 0.831938
O O9 0.855360 0.904367 0.309661
O O10 0.747808 0.909199 0.045638
O O11 0.519600 0.197571 0.116774
O O12 0.386019 0.264121 0.862607
O O13 0.627559 0.590049 0.279693
O O14 0.579818 0.016262 0.168058
#
# Coordination Sequence:
#
# PCOD9250054 Si02
#       7
#     4   4   4   4   4   4   4
#     4  11  24  44  74 103 135 185 241 288 346 419
#     4  10  24  43  69 103 140 175 239 286 345 423
#     4  11  23  42  68 103 136 185 231 281 364 403
#     4  10  23  46  64 101 137 182 232 283 348 420
#     4  12  23  46  71 102 140 180 238 292 347 424
#     4  11  23  46  71 101 140 184 236 294 342 419
#     4  11  25  43  67 101 145 180 228 293 351 419
#
# _framework density 23.536467999999999
#
# number of rings (size 3 to 8) (size 9 to 14) (size 15 to 20)
#    0.000    1.143    4.286    1.286    0.000    4.000 
#    2.571    0.000    0.000    0.000    0.000    0.000 
#    0.000    0.000    0.000    0.000    0.000    0.000 
#
# Total GULP energy -156005.392650 kJ/mol
# GULP energy per Si atom -5571.621166 kJ/mol
# Density = 2.348290 g / cm^3
# Si number density = 23.536468 Si / 1000 Ang^3
#
#
#
# Elastic Constant Matrix: (Units=GPa)
#
#
# Indices 1 2 3 4 5 6 
#
# 1 163.2068 31.4334 35.1312 0.0000 30.8522 0.0000
# 2 31.4334 62.5534 12.5292 0.0000 9.1989 0.0000
# 3 35.1312 12.5292 62.9037 0.0000 23.8883 0.0000
# 4 0.0000 0.0000 0.0000 20.1045 0.0000 -4.5861
# 5 30.8522 9.1989 23.8883 0.0000 37.1341 0.0000
# 6 0.0000 0.0000 0.0000 -4.5861 0.0000 -12.6106
#
#
#
# Elastic Compliance Matrix: (Units=1/GPa)
#
#
# Indices 1 2 3 4 5 6 
#
# 1 0.008016 -0.002926 -0.002170 0.000000 -0.004539 0.000000
# 2 -0.002926 0.017916 -0.001551 0.000000 -0.001009 0.000000
# 3 -0.002170 -0.001551 0.021950 0.000000 -0.011933 0.000000
# 4 0.000000 0.000000 0.000000 0.045930 0.000000 -0.016703
# 5 -0.004539 -0.001009 -0.011933 0.000000 0.038627 0.000000
# 6 0.000000 0.000000 0.000000 -0.016703 0.000000 -0.073224
#
#
# Mechanical properties :
#
#
# Convention : Reuss Voigt Hill
#
# Bulk Modulus (GPa) = 28.91245 49.65016 39.28131
# Shear Modulus (GPa) = 59.49667 22.89693 41.19680
#
# Velocity S-wave (km/s) = 5.03323 3.12240 4.18824
# Velocity P-wave (km/s) = 6.78886 5.84294 6.33359
#
# Compressibility (1/GPa) = 0.03458717
#
# Stress axis : x y z
#
# Youngs Moduli (GPa) = 124.75185 55.81692 45.55796
#
# Poissons Ratio (x) = 0.16331 0.09888
# Poissons Ratio (y) = 0.36501 0.07066
# Poissons Ratio (z) = 0.27076 0.08657
#
# Static dielectric constant tensor:
#      x y z
#    x 1.917400 0.000000 0.077500 
#    y 0.000000 1.974970 0.000000 
#    z 0.077500 0.000000 1.914530 
# 
# From -- ./inp_files/25363.got.cif
#   From: 2010.05.17/outbox.cif.g08.bks.cpg/sg14_13_cif.got.tgz:25363.got - 2010.06.03 17:49:19.
