data_PCOD9250456
_publ_section_title
;
Structure prediction by ZEFSAII (Michael W. Deem and Ramdas Pophale) SiO2 
 PCOD9250456
Probable space group: P 21/C
;
_chemical_formula_sum "Si O2"
_cell_formula_units_Z 28
_cell_length_a 13.423261
_cell_length_b 4.860833
_cell_length_c 19.554814
_cell_angle_alpha 90.000000
_cell_angle_beta 122.659237
_cell_angle_gamma 90.000000
_cell_volume 1074.188045
_symmetry_space_group_name_H-M "P 21/C"
_symmetry_group_IT_number 14
_symmetry_cell_setting 'monoclinic'
loop_
_space_group_symop_operation_xyz
x,y,z
-x,1/2+y,1/2-z
-x,-y,-z
x,1/2-y,1/2+z
loop_
_atom_site_type_symbol
_atom_site_label
_atom_site_fract_x
_atom_site_fract_y
_atom_site_fract_z
Si Si1 0.000000 0.000000 0.000000
Si Si2 0.687177 0.842700 0.016256
Si Si3 0.577900 0.071235 0.257031
Si Si4 0.500000 0.500000 0.000000
Si Si5 0.776439 0.356914 0.418699
Si Si6 0.322271 0.773795 0.852804
Si Si7 0.917906 0.973006 0.565547
Si Si8 0.051808 0.615827 0.238084
O O1 0.141736 0.083094 0.085617
O O2 0.025515 0.209269 0.946462
O O3 0.793074 0.623346 0.050198
O O4 0.672771 0.046086 0.075149
O O5 0.566683 0.678797 0.968516
O O6 0.701896 0.027317 0.953988
O O7 0.469289 0.272221 0.238872
O O8 0.692957 0.169691 0.342756
O O9 0.614019 0.106198 0.191079
O O10 0.380586 0.494332 0.903778
O O11 0.891997 0.209977 0.499886
O O12 0.183221 0.767270 0.784541
O O13 0.006395 0.058897 0.656795
O O14 0.034739 0.379279 0.288569
#
# Coordination Sequence:
#
# PCOD9250456 Si02
#       8
#     2   4   4   2   4   4   4   4
#     4  10  24  42  76 110 144 202 262 324 388 496
#     4  11  24  45  76 111 146 201 258 332 381 486
#     4  12  32  53  77 112 161 215 266 341 400 479
#     4  12  26  44  76 108 144 204 264 322 392 468
#     4  11  25  50  76 113 157 209 270 331 409 485
#     4  12  28  48  76 112 156 203 268 324 404 475
#     4  11  24  46  76 109 155 202 264 322 408 479
#     4  12  26  48  76 118 161 199 252 335 410 473
#
# _framework density 26.066199999999998
#
# number of rings (size 3 to 8) (size 9 to 14) (size 15 to 20)
#    0.000    0.571    1.429    5.143   12.000    0.000 
#    0.000    0.000    0.000    0.000    0.000    0.000 
#    0.000    0.000    0.000    0.000    0.000    0.000 
#
# Total GULP energy -155878.741509 kJ/mol
# GULP energy per Si atom -5567.097911 kJ/mol
# Density = 2.600687 g / cm^3
# Si number density = 26.066200 Si / 1000 Ang^3
#
#
#
# Elastic Constant Matrix: (Units=GPa)
#
#
# Indices 1 2 3 4 5 6 
#
# 1 -39.1701 10.2051 118.3850 0.0000 -49.2449 0.0000
# 2 10.2051 73.9322 24.2310 0.0000 -24.4250 0.0000
# 3 118.3850 24.2310 77.6907 0.0000 20.9849 0.0000
# 4 0.0000 0.0000 0.0000 27.5576 0.0000 -9.2480
# 5 -49.2449 -24.4250 20.9849 0.0000 20.2019 0.0000
# 6 0.0000 0.0000 0.0000 -9.2480 0.0000 40.5778
#
#
#
# Elastic Compliance Matrix: (Units=1/GPa)
#
#
# Indices 1 2 3 4 5 6 
#
# 1 -0.000009 -0.004973 0.004442 0.000000 -0.010650 0.000000
# 2 -0.004973 0.016764 0.000208 0.000000 0.007929 0.000000
# 3 0.004442 0.000208 0.004232 0.000000 0.006684 0.000000
# 4 0.000000 0.000000 0.000000 0.039293 0.000000 0.008955
# 5 -0.010650 0.007929 0.006684 0.000000 0.026183 0.000000
# 6 0.000000 0.000000 0.000000 0.008955 0.000000 0.026685
#
#
# Mechanical properties :
#
#
# Convention : Reuss Voigt Hill
#
# Bulk Modulus (GPa) = 49.16297 46.45501 47.80899
# Shear Modulus (GPa) = 41.46848 14.97623 28.22236
#
# Velocity S-wave (km/s) = 3.99292 2.39957 3.29404
# Velocity P-wave (km/s) = 6.33717 5.05350 5.73139
#
# Compressibility (1/GPa) = 0.02034051
#
# Stress axis : x y z
#
# Youngs Moduli (GPa) = -105538.01793 59.65197 236.28439
#
# Poissons Ratio (x) = 0.29666 -1.04965
# Poissons Ratio (y) = -524.86380 -0.04911
# Poissons Ratio (z) = 468.83193 -0.01240
#
# Static dielectric constant tensor:
#      x y z
#    x -1.351350 0.000000 1.117820 
#    y 0.000000 4.888550 0.000000 
#    z 1.117820 0.000000 1.913250 
# 
# From -- ./inp_files/66571.got.cif
#   From: 2010.05.17/outbox.cif.g08.bks.cpg/sg14_34_cif.got.tgz:66571.got - 2010.06.03 17:49:19.
