data_PCOD9250009
_publ_section_title
;
Structure prediction by ZEFSAII (Michael W. Deem and Ramdas Pophale) SiO2 
 PCOD9250009
Probable space group: P 21/C
;
_chemical_formula_sum "Si O2"
_cell_formula_units_Z 20
_cell_length_a 11.497555
_cell_length_b 9.798615
_cell_length_c 10.768694
_cell_angle_alpha 90.000000
_cell_angle_beta 38.792684
_cell_angle_gamma 90.000000
_cell_volume 760.076452
_symmetry_space_group_name_H-M "P 21/C"
_symmetry_group_IT_number 14
_symmetry_cell_setting 'monoclinic'
loop_
_space_group_symop_operation_xyz
x,y,z
-x,1/2+y,1/2-z
-x,-y,-z
x,1/2-y,1/2+z
loop_
_atom_site_type_symbol
_atom_site_label
_atom_site_fract_x
_atom_site_fract_y
_atom_site_fract_z
Si Si1 0.295106 0.458163 0.255473
Si Si2 0.596323 0.003694 0.713112
Si Si3 0.614614 0.824226 0.923883
Si Si4 0.061279 0.690894 0.343536
Si Si5 0.024995 0.627491 0.111941
O O1 0.463572 0.487723 0.206743
O O2 0.337406 0.333570 0.127346
O O3 0.230682 0.592527 0.237781
O O4 0.122025 0.401580 0.480456
O O5 0.815505 0.014742 0.504009
O O6 0.558987 0.874201 0.832512
O O7 0.535800 0.131259 0.851082
O O8 0.806269 0.904218 0.797101
O O9 0.062856 0.728268 0.197373
O O10 0.053084 0.806503 0.453846
#
# Coordination Sequence:
#
# PCOD9250009 Si02
#       5
#     4   4   4   4   4
#     4  10  23  45  70 101 139 190 235 292 345 427
#     4  11  24  40  73 100 138 184 239 285 355 421
#     4  10  24  46  64 102 146 181 230 294 352 420
#     4  10  24  46  72 102 145 183 236 292 356 417
#     4  11  24  45  70 103 138 189 228 295 353 421
#
# _framework density 26.313141000000002
#
# number of rings (size 3 to 8) (size 9 to 14) (size 15 to 20)
#    0.000    1.600    2.000    0.600    5.600    4.000 
#   14.400    0.000    0.000    0.000    0.000    0.000 
#    0.000    0.000    0.000    0.000    0.000    0.000 
#
# Total GULP energy -112118.672784 kJ/mol
# GULP energy per Si atom -5605.933639 kJ/mol
# Density = 2.625325 g / cm^3
# Si number density = 26.313141 Si / 1000 Ang^3
#
#
#
# Elastic Constant Matrix: (Units=GPa)
#
#
# Indices 1 2 3 4 5 6 
#
# 1 160.8336 28.6896 51.2936 0.0000 -16.9754 0.0000
# 2 28.6896 42.8433 5.8629 0.0000 -6.0482 0.0000
# 3 51.2936 5.8629 101.3757 0.0000 -18.0605 0.0000
# 4 0.0000 0.0000 0.0000 32.4205 0.0000 -3.7329
# 5 -16.9754 -6.0482 -18.0605 0.0000 54.0865 0.0000
# 6 0.0000 0.0000 0.0000 -3.7329 0.0000 29.0190
#
#
#
# Elastic Compliance Matrix: (Units=1/GPa)
#
#
# Indices 1 2 3 4 5 6 
#
# 1 0.008414 -0.004997 -0.003825 0.000000 0.000805 0.000000
# 2 -0.004997 0.026771 0.001312 0.000000 0.001863 0.000000
# 3 -0.003825 0.001312 0.012266 0.000000 0.003042 0.000000
# 4 0.000000 0.000000 0.000000 0.031308 0.000000 0.004027
# 5 0.000805 0.001863 0.003042 0.000000 0.019966 0.000000
# 6 0.000000 0.000000 0.000000 0.004027 0.000000 0.034978
#
#
# Mechanical properties :
#
#
# Convention : Reuss Voigt Hill
#
# Bulk Modulus (GPa) = 30.83523 52.97164 41.90344
# Shear Modulus (GPa) = 31.34167 37.71896 34.53032
#
# Velocity S-wave (km/s) = 3.45498 3.79022 3.62648
# Velocity P-wave (km/s) = 5.25926 6.27131 5.78745
#
# Compressibility (1/GPa) = 0.03243044
#
# Stress axis : x y z
#
# Youngs Moduli (GPa) = 118.85308 37.35437 81.52881
#
# Poissons Ratio (x) = 0.18667 0.31183
# Poissons Ratio (y) = 0.59393 -0.10698
# Poissons Ratio (z) = 0.45459 -0.04902
#
# Static dielectric constant tensor:
#      x y z
#    x 2.004860 0.000000 -0.004450 
#    y 0.000000 2.067000 0.000000 
#    z -0.004450 0.000000 2.069440 
# 
# From -- ./inp_files/28441.got.cif
#   From: 2010.05.17/outbox.cif.g08.bks.cpg/sg14_15_cif.got.tgz:28441.got - 2010.06.03 17:49:19.
