data_PCOD9250836
_publ_section_title
;
Structure prediction by ZEFSAII (Michael W. Deem and Ramdas Pophale) SiO2 
 PCOD9250836
Probable space group: P 21/C
;
_chemical_formula_sum "Si O2"
_cell_formula_units_Z 32
_cell_length_a 20.362460
_cell_length_b 14.953644
_cell_length_c 13.860425
_cell_angle_alpha 90.000000
_cell_angle_beta 20.309339
_cell_angle_gamma 90.000000
_cell_volume 1464.853110
_symmetry_space_group_name_H-M "P 21/C"
_symmetry_group_IT_number 14
_symmetry_cell_setting 'monoclinic'
loop_
_space_group_symop_operation_xyz
x,y,z
-x,1/2+y,1/2-z
-x,-y,-z
x,1/2-y,1/2+z
loop_
_atom_site_type_symbol
_atom_site_label
_atom_site_fract_x
_atom_site_fract_y
_atom_site_fract_z
Si Si1 0.104488 0.524343 0.129435
Si Si2 0.590342 0.309935 0.596226
Si Si3 0.616963 0.744981 0.795681
Si Si4 0.699102 0.545973 0.750283
Si Si5 0.206725 0.092467 0.671069
Si Si6 0.703982 0.213895 0.629905
Si Si7 0.896207 0.068449 0.573571
Si Si8 0.981325 0.741009 0.668590
O O1 0.184240 0.466066 0.106118
O O2 0.169441 0.512843 0.929927
O O3 0.876938 0.515017 0.441471
O O4 0.174669 0.624948 0.052807
O O5 0.518006 0.243151 0.612596
O O6 0.686270 0.261919 0.553153
O O7 0.406288 0.357939 0.891011
O O8 0.722854 0.383521 0.364972
O O9 0.661400 0.650089 0.781426
O O10 0.815043 0.776434 0.476018
O O11 0.499815 0.800596 0.037477
O O12 0.782083 0.538224 0.744907
O O13 0.500000 0.500000 0.000000
O O14 0.051136 0.171331 0.873457
O O15 0.824261 0.271075 0.541554
O O16 0.018981 0.155755 0.368611
O O17 0.000000 0.000000 0.500000
#
# Coordination Sequence:
#
# PCOD9250836 Si02
#       8
#     4   4   4   4   4   4   4   4
#     4  11  26  49  68 107 144 187 240 305 369 428
#     4  11  25  43  70 103 135 187 238 287 364 429
#     4  11  22  47  67 101 138 183 241 292 352 433
#     4  12  27  44  70 101 144 188 245 300 367 435
#     4  11  27  45  69 108 140 186 242 296 365 439
#     4  11  23  46  74  97 142 190 236 298 359 433
#     4  11  25  45  72 102 142 185 238 296 363 425
#     4  10  24  47  72 101 143 186 241 293 365 435
#
# _framework density 21.845195
#
# number of rings (size 3 to 8) (size 9 to 14) (size 15 to 20)
#    0.000    1.000    6.250    0.375    8.750    0.500 
#    4.500    0.000    0.000    0.000    0.000    0.000 
#    0.000    0.000    0.000    0.000    0.000    0.000 
#
# Total GULP energy -178657.693349 kJ/mol
# GULP energy per Si atom -5583.052917 kJ/mol
# Density = 2.179547 g / cm^3
# Si number density = 21.845195 Si / 1000 Ang^3
#
#
#
# Elastic Constant Matrix: (Units=GPa)
#
#
# Indices 1 2 3 4 5 6 
#
# 1 127.6963 23.1980 -2.1431 0.0000 -0.9856 0.0000
# 2 23.1980 31.7905 -12.9279 0.0000 -6.8766 0.0000
# 3 -2.1431 -12.9279 30.0713 0.0000 1.2770 0.0000
# 4 0.0000 0.0000 0.0000 24.4514 0.0000 -11.8733
# 5 -0.9856 -6.8766 1.2770 0.0000 30.6086 0.0000
# 6 0.0000 0.0000 0.0000 -11.8733 0.0000 48.0529
#
#
#
# Elastic Compliance Matrix: (Units=1/GPa)
#
#
# Indices 1 2 3 4 5 6 
#
# 1 0.009265 -0.008212 -0.002810 0.000000 -0.001429 0.000000
# 2 -0.008212 0.047404 0.019388 0.000000 0.009577 0.000000
# 3 -0.002810 0.019388 0.041281 0.000000 0.002543 0.000000
# 4 0.000000 0.000000 0.000000 0.046473 0.000000 0.011483
# 5 -0.001429 0.009577 0.002543 0.000000 0.034670 0.000000
# 6 0.000000 0.000000 0.000000 0.011483 0.000000 0.023648
#
#
# Mechanical properties :
#
#
# Convention : Reuss Voigt Hill
#
# Bulk Modulus (GPa) = 8.71982 22.86800 15.79391
# Shear Modulus (GPa) = 22.29781 32.71799 27.50790
#
# Velocity S-wave (km/s) = 3.19834 3.87424 3.55240
# Velocity P-wave (km/s) = 4.19993 5.52303 4.90629
#
# Compressibility (1/GPa) = 0.11468123
#
# Stress axis : x y z
#
# Youngs Moduli (GPa) = 107.93520 21.09510 24.22422
#
# Poissons Ratio (x) = 0.17324 0.06806
# Poissons Ratio (y) = 0.88641 -0.46965
# Poissons Ratio (z) = 0.30326 -0.40898
#
# Static dielectric constant tensor:
#      x y z
#    x 1.819510 0.000000 0.030050 
#    y 0.000000 1.860530 0.000000 
#    z 0.030050 0.000000 1.828480 
# 
# From -- ./inp_files/50666.got.cif
#   From: 2010.05.17/outbox.cif.g08.bks.cpg/sg14_26_cif.got.tgz:50666.got - 2010.06.03 17:49:19.
