data_PCOD9250742
_publ_section_title
;
Structure prediction by ZEFSAII (Michael W. Deem and Ramdas Pophale) SiO2 
 PCOD9250742
Probable space group: P 21/C
;
_chemical_formula_sum "Si O2"
_cell_formula_units_Z 26
_cell_length_a 8.378680
_cell_length_b 8.191308
_cell_length_c 21.545462
_cell_angle_alpha 90.000000
_cell_angle_beta 130.969525
_cell_angle_gamma 90.000000
_cell_volume 1116.516714
_symmetry_space_group_name_H-M "P 21/C"
_symmetry_group_IT_number 14
_symmetry_cell_setting 'monoclinic'
loop_
_space_group_symop_operation_xyz
x,y,z
-x,1/2+y,1/2-z
-x,-y,-z
x,1/2-y,1/2+z
loop_
_atom_site_type_symbol
_atom_site_label
_atom_site_fract_x
_atom_site_fract_y
_atom_site_fract_z
Si Si1 0.582219 0.533150 0.429447
Si Si2 0.178726 0.956679 0.276964
Si Si3 0.832251 0.081431 0.098434
Si Si4 0.000000 0.500000 0.000000
Si Si5 0.003375 0.438765 0.138397
Si Si6 0.433665 0.695124 0.142379
Si Si7 0.377488 0.843615 0.766971
O O1 0.397051 0.603041 0.426893
O O2 0.789326 0.520762 0.524741
O O3 0.535169 0.347598 0.395617
O O4 0.580872 0.626016 0.362871
O O5 0.137363 0.980729 0.338582
O O6 0.238356 0.773605 0.274348
O O7 0.366839 0.075741 0.306531
O O8 0.971870 0.992155 0.184697
O O9 0.957294 0.247692 0.115306
O O10 0.771569 0.404590 0.931707
O O11 0.051477 0.472861 0.939012
O O12 0.240622 0.493503 0.218115
O O13 0.407515 0.741262 0.208410
#
# Coordination Sequence:
#
# PCOD9250742 Si02
#       7
#     4   4   4   2   4   4   4
#     4  11  22  45  69 104 146 187 240 306 357 429
#     4  12  24  43  73 109 134 200 241 299 374 442
#     4  11  24  42  71 108 142 185 244 300 362 429
#     4  10  24  46  66 108 140 190 236 314 356 430
#     4  11  21  45  73 100 146 185 243 295 366 435
#     4  11  25  45  72  99 149 192 243 299 369 431
#     4  11  24  44  69 106 147 190 245 301 368 441
#
# _framework density 23.286709999999999
#
# number of rings (size 3 to 8) (size 9 to 14) (size 15 to 20)
#    0.000    0.923    4.615    1.846    2.154    1.846 
#    5.538    1.538    0.000    0.000    0.000    0.000 
#    0.000    0.000    0.000    0.000    0.000    0.000 
#
# Total GULP energy -144785.178619 kJ/mol
# GULP energy per Si atom -5568.660716 kJ/mol
# Density = 2.323371 g / cm^3
# Si number density = 23.286710 Si / 1000 Ang^3
#
#
#
# Elastic Constant Matrix: (Units=GPa)
#
#
# Indices 1 2 3 4 5 6 
#
# 1 66.9115 9.5973 31.3633 0.0000 -16.9320 0.0000
# 2 9.5973 32.0049 2.5067 0.0000 5.6194 0.0000
# 3 31.3633 2.5067 91.8553 0.0000 -42.6022 0.0000
# 4 0.0000 0.0000 0.0000 13.7460 0.0000 1.6641
# 5 -16.9320 5.6194 -42.6022 0.0000 30.2798 0.0000
# 6 0.0000 0.0000 0.0000 1.6641 0.0000 24.6825
#
#
#
# Elastic Compliance Matrix: (Units=1/GPa)
#
#
# Indices 1 2 3 4 5 6 
#
# 1 0.019294 -0.007195 -0.002211 0.000000 0.009014 0.000000
# 2 -0.007195 0.038962 -0.011012 0.000000 -0.026747 0.000000
# 3 -0.002211 -0.011012 0.035447 0.000000 0.050679 0.000000
# 4 0.000000 0.000000 0.000000 0.073347 0.000000 -0.004945
# 5 0.009014 -0.026747 0.050679 0.000000 0.114333 0.000000
# 6 0.000000 0.000000 0.000000 -0.004945 0.000000 0.040848
#
#
# Mechanical properties :
#
#
# Convention : Reuss Voigt Hill
#
# Bulk Modulus (GPa) = 18.91533 30.85625 24.88579
# Shear Modulus (GPa) = 13.13408 23.56196 18.34802
#
# Velocity S-wave (km/s) = 2.37748 3.18436 2.81003
# Velocity P-wave (km/s) = 3.95942 5.17683 4.60850
#
# Compressibility (1/GPa) = 0.05286718
#
# Stress axis : x y z
#
# Youngs Moduli (GPa) = 51.82836 25.66629 28.21107
#
# Poissons Ratio (x) = 0.18468 0.06238
# Poissons Ratio (y) = 0.37292 0.31065
# Poissons Ratio (z) = 0.11460 0.28263
#
# Static dielectric constant tensor:
#      x y z
#    x 1.846460 0.000000 0.009410 
#    y 0.000000 1.673580 0.000000 
#    z 0.009410 0.000000 1.877170 
# 
# From -- ./inp_files/64892.got.cif
#   From: 2010.05.17/outbox.cif.g08.bks.cpg/sg14_33_cif.got.tgz:64892.got - 2010.06.03 17:49:19.
