data_PCOD9250432
_publ_section_title
;
Structure prediction by ZEFSAII (Michael W. Deem and Ramdas Pophale) SiO2 
 PCOD9250432
Probable space group: P 21/C
;
_chemical_formula_sum "Si O2"
_cell_formula_units_Z 30
_cell_length_a 9.183916
_cell_length_b 10.745348
_cell_length_c 18.155867
_cell_angle_alpha 90.000000
_cell_angle_beta 53.937019
_cell_angle_gamma 90.000000
_cell_volume 1448.357530
_symmetry_space_group_name_H-M "P 21/C"
_symmetry_group_IT_number 14
_symmetry_cell_setting 'monoclinic'
loop_
_space_group_symop_operation_xyz
x,y,z
-x,1/2+y,1/2-z
-x,-y,-z
x,1/2-y,1/2+z
loop_
_atom_site_type_symbol
_atom_site_label
_atom_site_fract_x
_atom_site_fract_y
_atom_site_fract_z
Si Si1 0.000000 0.000000 0.000000
Si Si2 0.432630 0.604774 0.196114
Si Si3 0.958817 0.360406 0.361999
Si Si4 0.000216 0.549033 0.817670
Si Si5 0.470714 0.659352 0.868619
Si Si6 0.134994 0.756362 0.882306
Si Si7 0.323088 0.853311 0.567543
Si Si8 0.271201 0.339336 0.778292
O O1 0.962303 0.145633 0.036289
O O2 0.043469 0.963079 0.074079
O O3 0.428874 0.455109 0.200645
O O4 0.266613 0.666249 0.288455
O O5 0.424060 0.646360 0.114761
O O6 0.616087 0.644542 0.180959
O O7 0.996047 0.411944 0.268787
O O8 0.777665 0.278319 0.413029
O O9 0.116572 0.262251 0.332300
O O10 0.012251 0.666717 0.868906
O O11 0.177617 0.466040 0.780993
O O12 0.829258 0.460768 0.883465
O O13 0.273946 0.676388 0.891120
O O14 0.583923 0.784346 0.822404
O O15 0.448958 0.627441 0.960138
#
# Coordination Sequence:
#
# PCOD9250432 Si02
#       8
#     2   4   4   4   4   4   4   4
#     4  12  24  42  64  96 138 168 222 288 338 382
#     4  11  22  43  67  92 134 180 217 270 346 405
#     4  11  24  44  65 103 129 178 230 282 332 410
#     4  11  23  45  70  95 132 183 231 273 340 410
#     4  11  22  42  63  99 132 168 224 280 335 396
#     4  11  23  40  67  96 132 176 221 281 332 407
#     4  11  23  41  68  98 134 169 231 282 327 404
#     4  10  24  42  70  93 132 179 220 270 347 407
#
# _framework density 20.713118999999999
#
# number of rings (size 3 to 8) (size 9 to 14) (size 15 to 20)
#    0.000    1.067    4.000    2.800    1.867    1.600 
#    2.400    0.667    0.000    0.000    0.000    0.000 
#    0.000    0.000    0.000    0.000    0.000    0.000 
#
# Total GULP energy -167257.312834 kJ/mol
# GULP energy per Si atom -5575.243761 kJ/mol
# Density = 2.066597 g / cm^3
# Si number density = 20.713119 Si / 1000 Ang^3
#
#
#
# Elastic Constant Matrix: (Units=GPa)
#
#
# Indices 1 2 3 4 5 6 
#
# 1 102.9299 38.3709 40.4653 0.0000 26.7260 0.0000
# 2 38.3709 72.8639 20.1894 0.0000 12.8769 0.0000
# 3 40.4653 20.1894 74.7623 0.0000 34.2266 0.0000
# 4 0.0000 0.0000 0.0000 15.3839 0.0000 9.6761
# 5 26.7260 12.8769 34.2266 0.0000 26.6317 0.0000
# 6 0.0000 0.0000 0.0000 9.6761 0.0000 27.5550
#
#
#
# Elastic Compliance Matrix: (Units=1/GPa)
#
#
# Indices 1 2 3 4 5 6 
#
# 1 0.015230 -0.005688 -0.002355 0.000000 -0.009508 0.000000
# 2 -0.005688 0.017228 -0.000907 0.000000 -0.001456 0.000000
# 3 -0.002355 -0.000907 0.033070 0.000000 -0.039699 0.000000
# 4 0.000000 0.000000 0.000000 0.083430 0.000000 -0.029297
# 5 -0.009508 -0.001456 -0.039699 0.000000 0.098815 0.000000
# 6 0.000000 0.000000 0.000000 -0.029297 0.000000 0.046579
#
#
# Mechanical properties :
#
#
# Convention : Reuss Voigt Hill
#
# Bulk Modulus (GPa) = 20.99571 49.84525 35.42048
# Shear Modulus (GPa) = 15.23799 24.01615 19.62707
#
# Velocity S-wave (km/s) = 2.71526 3.40879 3.08160
# Velocity P-wave (km/s) = 4.47087 6.29364 5.45887
#
# Compressibility (1/GPa) = 0.04762877
#
# Stress axis : x y z
#
# Youngs Moduli (GPa) = 65.65979 58.04464 30.23926
#
# Poissons Ratio (x) = 0.33013 0.07120
# Poissons Ratio (y) = 0.37345 0.02743
# Poissons Ratio (z) = 0.15461 0.05266
#
# Static dielectric constant tensor:
#      x y z
#    x 1.741040 0.000000 -0.018800 
#    y 0.000000 1.738000 0.000000 
#    z -0.018800 0.000000 1.727810 
# 
# From -- ./inp_files/40263.got.cif
#   From: 2010.05.17/outbox.cif.g08.bks.cpg/sg14_21_cif.got.tgz:40263.got - 2010.06.03 17:49:19.
