data_PCOD9250434
_publ_section_title
;
Structure prediction by ZEFSAII (Michael W. Deem and Ramdas Pophale) SiO2 
 PCOD9250434
Probable space group: P 21/C
;
_chemical_formula_sum "Si O2"
_cell_formula_units_Z 16
_cell_length_a 10.944931
_cell_length_b 8.309666
_cell_length_c 14.494533
_cell_angle_alpha 90.000000
_cell_angle_beta 32.822154
_cell_angle_gamma 90.000000
_cell_volume 714.540251
_symmetry_space_group_name_H-M "P 21/C"
_symmetry_group_IT_number 14
_symmetry_cell_setting 'monoclinic'
loop_
_space_group_symop_operation_xyz
x,y,z
-x,1/2+y,1/2-z
-x,-y,-z
x,1/2-y,1/2+z
loop_
_atom_site_type_symbol
_atom_site_label
_atom_site_fract_x
_atom_site_fract_y
_atom_site_fract_z
Si Si1 0.424607 0.335522 0.271899
Si Si2 0.178003 0.468493 0.963851
Si Si3 0.123473 0.190059 0.127871
Si Si4 0.744385 0.935011 0.311852
O O1 0.684157 0.377509 0.091096
O O2 0.374529 0.146592 0.299195
O O3 0.335825 0.370482 0.431851
O O4 0.277395 0.418990 0.285048
O O5 0.064508 0.358536 0.113339
O O6 0.000000 0.500000 0.000000
O O7 0.196737 0.259521 0.180815
O O8 0.926939 0.064409 0.231268
O O9 0.500000 0.000000 0.500000
#
# Coordination Sequence:
#
# PCOD9250434 Si02
#       4
#     4   4   4   4
#     4  10  24  45  70  97 145 177 230 282 345 402
#     4  10  24  42  70  98 137 184 225 271 348 404
#     4  10  27  41  70  99 138 179 230 276 352 396
#     4  12  24  46  69 102 140 177 232 285 341 418
#
# _framework density 22.392021
#
# number of rings (size 3 to 8) (size 9 to 14) (size 15 to 20)
#    1.500    0.000    2.500    0.750   10.500    2.000 
#    0.000    2.500    0.000    0.000    0.000    0.000 
#    0.000    0.000    0.000    0.000    0.000    0.000 
#
# Total GULP energy -89098.751063 kJ/mol
# GULP energy per Si atom -5568.671941 kJ/mol
# Density = 2.234106 g / cm^3
# Si number density = 22.392021 Si / 1000 Ang^3
#
#
#
# Elastic Constant Matrix: (Units=GPa)
#
#
# Indices 1 2 3 4 5 6 
#
# 1 110.3590 18.3253 14.8662 0.0000 -3.5575 0.0000
# 2 18.3253 37.1336 17.7369 0.0000 -4.6437 0.0000
# 3 14.8662 17.7369 47.2977 0.0000 -0.5975 0.0000
# 4 0.0000 0.0000 0.0000 45.2995 0.0000 -9.5160
# 5 -3.5575 -4.6437 -0.5975 0.0000 20.4877 0.0000
# 6 0.0000 0.0000 0.0000 -9.5160 0.0000 41.4195
#
#
#
# Elastic Compliance Matrix: (Units=1/GPa)
#
#
# Indices 1 2 3 4 5 6 
#
# 1 0.009976 -0.004062 -0.001603 0.000000 0.000765 0.000000
# 2 -0.004062 0.035520 -0.011955 0.000000 0.006997 0.000000
# 3 -0.001603 -0.011955 0.026101 0.000000 -0.002227 0.000000
# 4 0.000000 0.000000 0.000000 0.023195 0.000000 0.005329
# 5 0.000765 0.006997 -0.002227 0.000000 0.050464 0.000000
# 6 0.000000 0.000000 0.000000 0.005329 0.000000 0.025368
#
#
# Mechanical properties :
#
#
# Convention : Reuss Voigt Hill
#
# Bulk Modulus (GPa) = 27.50424 32.96078 30.23251
# Shear Modulus (GPa) = 22.93763 31.03213 26.98488
#
# Velocity S-wave (km/s) = 3.20404 3.72675 3.47524
# Velocity P-wave (km/s) = 5.09878 5.76802 5.44369
#
# Compressibility (1/GPa) = 0.03635804
#
# Stress axis : x y z
#
# Youngs Moduli (GPa) = 100.23640 28.15334 38.31202
#
# Poissons Ratio (x) = 0.11436 0.06140
# Poissons Ratio (y) = 0.40718 0.45802
# Poissons Ratio (z) = 0.16065 0.33657
#
# Static dielectric constant tensor:
#      x y z
#    x 1.875010 0.000000 0.069820 
#    y 0.000000 2.048970 0.000000 
#    z 0.069820 0.000000 1.839300 
# 
# From -- ./inp_files/22866.got.cif
#   From: 2010.05.17/outbox.cif.g08.bks.cpg/sg14_12_cif.got.tgz:22866.got - 2010.06.03 17:49:19.
