data_PCOD9250404
_publ_section_title
;
Structure prediction by ZEFSAII (Michael W. Deem and Ramdas Pophale) SiO2 
 PCOD9250404
Probable space group: P 21/C
;
_chemical_formula_sum "Si O2"
_cell_formula_units_Z 28
_cell_length_a 7.098993
_cell_length_b 28.768927
_cell_length_c 9.500877
_cell_angle_alpha 90.000000
_cell_angle_beta 133.240603
_cell_angle_gamma 90.000000
_cell_volume 1413.525767
_symmetry_space_group_name_H-M "P 21/C"
_symmetry_group_IT_number 14
_symmetry_cell_setting 'monoclinic'
loop_
_space_group_symop_operation_xyz
x,y,z
-x,1/2+y,1/2-z
-x,-y,-z
x,1/2-y,1/2+z
loop_
_atom_site_type_symbol
_atom_site_label
_atom_site_fract_x
_atom_site_fract_y
_atom_site_fract_z
Si Si1 0.268515 0.810334 0.020386
Si Si2 0.317932 0.314258 0.778482
Si Si3 0.474881 0.747634 0.369889
Si Si4 0.054827 0.968396 0.894635
Si Si5 0.002450 0.037313 0.624623
Si Si6 0.526228 0.903005 0.221964
Si Si7 0.475214 0.087065 0.442293
O O1 0.302207 0.777611 0.174073
O O2 0.474683 0.851150 0.143014
O O3 0.317190 0.783274 0.900298
O O4 0.979634 0.829171 0.872389
O O5 0.372148 0.285148 0.663186
O O6 0.478777 0.361909 0.872777
O O7 0.371078 0.281993 0.943940
O O8 0.794373 0.939479 0.725976
O O9 0.111578 0.006707 0.806709
O O10 0.297495 0.935057 0.043709
O O11 0.000000 0.000000 0.000000
O O12 0.197322 0.078298 0.685127
O O13 0.718459 0.056672 0.515489
O O14 0.000000 0.000000 0.500000
O O15 0.507488 0.905474 0.381201
#
# Coordination Sequence:
#
# PCOD9250404 Si02
#       7
#     4   4   4   4   4   4   4
#     4  11  23  44  68 100 134 174 223 270 336 396
#     4  11  23  44  69  98 137 173 221 273 337 391
#     4  10  24  42  68 101 132 174 219 274 332 401
#     4  12  24  45  72  93 134 178 222 277 338 394
#     4  12  26  45  70  99 136 176 228 278 336 396
#     4  12  25  44  69 100 137 176 224 281 333 400
#     4  12  25  45  68 100 140 174 219 288 331 394
#
# _framework density 19.808623999999998
#
# number of rings (size 3 to 8) (size 9 to 14) (size 15 to 20)
#    0.000    0.571    5.714    2.571    0.000    4.571 
#   10.286    0.000    0.000    0.000    0.000    0.000 
#    0.000    0.000    0.000    0.000    0.000    0.000 
#
# Total GULP energy -156444.699149 kJ/mol
# GULP energy per Si atom -5587.310684 kJ/mol
# Density = 1.976354 g / cm^3
# Si number density = 19.808624 Si / 1000 Ang^3
#
#
#
# Elastic Constant Matrix: (Units=GPa)
#
#
# Indices 1 2 3 4 5 6 
#
# 1 57.4142 15.3037 32.2378 0.0000 -9.2797 0.0000
# 2 15.3037 88.7774 22.2964 0.0000 -10.4507 0.0000
# 3 32.2378 22.2964 73.8896 0.0000 -17.0013 0.0000
# 4 0.0000 0.0000 0.0000 27.7390 0.0000 8.5938
# 5 -9.2797 -10.4507 -17.0013 0.0000 46.8354 0.0000
# 6 0.0000 0.0000 0.0000 8.5938 0.0000 29.6229
#
#
#
# Elastic Compliance Matrix: (Units=1/GPa)
#
#
# Indices 1 2 3 4 5 6 
#
# 1 0.023301 -0.001530 -0.009515 0.000000 0.000821 0.000000
# 2 -0.001530 0.012387 -0.002732 0.000000 0.001469 0.000000
# 3 -0.009515 -0.002732 0.019570 0.000000 0.004609 0.000000
# 4 0.000000 0.000000 0.000000 0.039610 0.000000 -0.011491
# 5 0.000821 0.001469 0.004609 0.000000 0.023515 0.000000
# 6 0.000000 0.000000 0.000000 -0.011491 0.000000 0.037091
#
#
# Mechanical properties :
#
#
# Convention : Reuss Voigt Hill
#
# Bulk Modulus (GPa) = 36.09792 39.97298 38.03545
# Shear Modulus (GPa) = 26.00591 30.85569 28.43080
#
# Velocity S-wave (km/s) = 3.62727 3.95104 3.79261
# Velocity P-wave (km/s) = 5.98378 6.40607 6.19852
#
# Compressibility (1/GPa) = 0.02770243
#
# Stress axis : x y z
#
# Youngs Moduli (GPa) = 42.91722 80.72958 51.09826
#
# Poissons Ratio (x) = 0.12353 0.48622
# Poissons Ratio (y) = 0.06567 0.13961
# Poissons Ratio (z) = 0.40837 0.22057
#
# Static dielectric constant tensor:
#      x y z
#    x 1.566260 0.000000 -0.022310 
#    y 0.000000 1.687500 0.000000 
#    z -0.022310 0.000000 1.654300 
# 
# From -- ./inp_files/6894.got.cif
#   From: 2010.05.17/outbox.cif.g08.bks.cpg/sg14_4_cif.got.tgz:6894.got - 2010.06.03 17:49:19.
