data_PCOD9250444
_publ_section_title
;
Structure prediction by ZEFSAII (Michael W. Deem and Ramdas Pophale) SiO2 
 PCOD9250444
Probable space group: P 21/C
;
_chemical_formula_sum "Si O2"
_cell_formula_units_Z 20
_cell_length_a 11.744458
_cell_length_b 10.710313
_cell_length_c 9.206367
_cell_angle_alpha 90.000000
_cell_angle_beta 55.009445
_cell_angle_gamma 90.000000
_cell_volume 948.720020
_symmetry_space_group_name_H-M "P 21/C"
_symmetry_group_IT_number 14
_symmetry_cell_setting 'monoclinic'
loop_
_space_group_symop_operation_xyz
x,y,z
-x,1/2+y,1/2-z
-x,-y,-z
x,1/2-y,1/2+z
loop_
_atom_site_type_symbol
_atom_site_label
_atom_site_fract_x
_atom_site_fract_y
_atom_site_fract_z
Si Si1 0.052093 0.622690 0.878502
Si Si2 0.377633 0.103571 0.590363
Si Si3 0.500054 0.777357 0.750094
Si Si4 0.947953 0.622654 0.621571
Si Si5 0.622311 0.103619 0.909454
O O1 0.217458 0.594635 0.748800
O O2 0.000086 0.630333 0.749967
O O3 0.000000 0.500000 0.000000
O O4 0.999971 0.750008 0.000058
O O5 0.432668 0.198690 0.671552
O O6 0.382467 0.145509 0.418638
O O7 0.217393 0.094527 0.748561
O O8 0.500000 0.000000 0.500000
O O9 0.432884 0.698613 0.671663
O O10 0.382439 0.854329 0.918916
O O11 0.000000 0.500000 0.500000
O O12 0.500000 0.000000 0.000000
#
# Coordination Sequence:
#
# PCOD9250444 Si02
#       5
#     4   4   4   4   4
#     4  12  29  49  76 108 153 195 246 305 378 441
#     4  11  25  43  74 102 142 187 245 294 362 435
#     4  10  24  42  72 100 140 178 244 292 360 422
#     4  12  29  49  76 108 153 195 246 305 378 441
#     4  11  25  43  74 102 142 187 245 294 362 435
#
# _framework density 21.081036000000001
#
# number of rings (size 3 to 8) (size 9 to 14) (size 15 to 20)
#    0.000    0.800    0.000    4.800   22.400    0.000 
#    0.000    0.000    0.000    0.000    0.000    0.000 
#    0.000    0.000    0.000    0.000    0.000    0.000 
#
# Total GULP energy -111383.762106 kJ/mol
# GULP energy per Si atom -5569.188105 kJ/mol
# Density = 2.103305 g / cm^3
# Si number density = 21.081036 Si / 1000 Ang^3
#
#
#
# Elastic Constant Matrix: (Units=GPa)
#
#
# Indices 1 2 3 4 5 6 
#
# 1 119.0541 52.8791 91.8731 0.0000 -15.9008 0.0000
# 2 52.8791 150.4732 116.8286 0.0000 -4.0670 0.0000
# 3 91.8731 116.8286 243.7188 0.0000 -22.8628 0.0000
# 4 0.0000 0.0000 0.0000 24.4618 0.0000 7.0437
# 5 -15.9008 -4.0670 -22.8628 0.0000 72.2624 0.0000
# 6 0.0000 0.0000 0.0000 7.0437 0.0000 16.4588
#
#
#
# Elastic Compliance Matrix: (Units=1/GPa)
#
#
# Indices 1 2 3 4 5 6 
#
# 1 0.012093 -0.001232 -0.003839 0.000000 0.001377 0.000000
# 2 -0.001232 0.010787 -0.004818 0.000000 -0.001188 0.000000
# 3 -0.003839 -0.004818 0.007992 0.000000 0.001413 0.000000
# 4 0.000000 0.000000 0.000000 0.046626 0.000000 -0.019954
# 5 0.001377 -0.001188 0.001413 0.000000 0.014522 0.000000
# 6 0.000000 0.000000 0.000000 -0.019954 0.000000 0.069297
#
#
# Mechanical properties :
#
#
# Convention : Reuss Voigt Hill
#
# Bulk Modulus (GPa) = 90.13173 115.15640 102.64406
# Shear Modulus (GPa) = 27.05725 39.41428 33.23577
#
# Velocity S-wave (km/s) = 3.58647 4.32864 3.97491
# Velocity P-wave (km/s) = 7.74584 8.92900 8.35838
#
# Compressibility (1/GPa) = 0.01109487
#
# Stress axis : x y z
#
# Youngs Moduli (GPa) = 82.69155 92.70173 125.11988
#
# Poissons Ratio (x) = 0.11420 0.48033
# Poissons Ratio (y) = 0.10187 0.60283
# Poissons Ratio (z) = 0.31745 0.44664
#
# Static dielectric constant tensor:
#      x y z
#    x 1.969720 0.000000 -0.164290 
#    y 0.000000 1.859620 0.000000 
#    z -0.164290 0.000000 1.874470 
# 
# From -- ./inp_files/7930.got.cif
#   From: 2010.05.17/outbox.cif.g08.bks.cpg/sg14_4_cif.got.tgz:7930.got - 2010.06.03 17:49:19.
