data_PCOD9250033
_publ_section_title
;
Structure prediction by ZEFSAII (Michael W. Deem and Ramdas Pophale) SiO2 
 PCOD9250033
Probable space group: P 21/C
;
_chemical_formula_sum "Si O2"
_cell_formula_units_Z 28
_cell_length_a 9.057077
_cell_length_b 5.051419
_cell_length_c 32.693539
_cell_angle_alpha 90.000000
_cell_angle_beta 47.431436
_cell_angle_gamma 90.000000
_cell_volume 1101.583638
_symmetry_space_group_name_H-M "P 21/C"
_symmetry_group_IT_number 14
_symmetry_cell_setting 'monoclinic'
loop_
_space_group_symop_operation_xyz
x,y,z
-x,1/2+y,1/2-z
-x,-y,-z
x,1/2-y,1/2+z
loop_
_atom_site_type_symbol
_atom_site_label
_atom_site_fract_x
_atom_site_fract_y
_atom_site_fract_z
Si Si1 0.264022 0.644614 0.174085
Si Si2 0.620961 0.812082 0.163679
Si Si3 0.625282 0.664614 0.510699
Si Si4 0.571647 0.165879 0.573537
Si Si5 0.056834 0.019419 0.793972
Si Si6 0.074121 0.653880 0.445163
Si Si7 0.720746 0.474092 0.212922
O O1 0.447638 0.773628 0.163433
O O2 0.105604 0.559519 0.238179
O O3 0.871267 0.232349 0.193640
O O4 0.161339 0.850644 0.162925
O O5 0.700140 0.541224 0.169078
O O6 0.794020 0.976841 0.110176
O O7 0.494738 0.932762 0.225349
O O8 0.500000 0.500000 0.500000
O O9 0.595079 0.462246 0.553905
O O10 0.439445 0.045244 0.461585
O O11 0.865490 0.707723 0.460314
O O12 0.365435 0.110310 0.635338
O O13 0.771098 0.125819 0.564824
O O14 0.191009 0.267316 0.781931
O O15 0.000000 0.500000 0.500000
#
# Coordination Sequence:
#
# PCOD9250033 Si02
#       7
#     4   4   4   4   4   4   4
#     4  11  23  43  70 102 138 190 240 295 355 431
#     4  11  23  45  73 102 144 192 242 298 359 441
#     4  11  25  47  72 103 142 180 232 300 367 435
#     4  11  24  45  72 102 138 184 239 292 359 438
#     4  11  25  43  67 100 146 186 238 299 362 431
#     4  10  23  45  73 105 139 186 241 298 358 427
#     4  11  25  44  66 104 144 192 242 298 368 435
#
# _framework density 25.417950999999999
#
# number of rings (size 3 to 8) (size 9 to 14) (size 15 to 20)
#    0.000    1.143    0.000    6.857    0.000    8.000 
#    0.000    7.143    0.000    0.000    0.000    0.000 
#    0.000    0.000    0.000    0.000    0.000    0.000 
#
# Total GULP energy -156637.636166 kJ/mol
# GULP energy per Si atom -5594.201292 kJ/mol
# Density = 2.536010 g / cm^3
# Si number density = 25.417951 Si / 1000 Ang^3
#
#
#
# Elastic Constant Matrix: (Units=GPa)
#
#
# Indices 1 2 3 4 5 6 
#
# 1 142.3093 42.4644 33.2178 0.0000 -8.5872 0.0000
# 2 42.4644 132.9311 33.0273 0.0000 -4.0003 0.0000
# 3 33.2178 33.0273 74.4289 0.0000 -1.2564 0.0000
# 4 0.0000 0.0000 0.0000 42.8815 0.0000 -3.9050
# 5 -8.5872 -4.0003 -1.2564 0.0000 29.0994 0.0000
# 6 0.0000 0.0000 0.0000 -3.9050 0.0000 61.3078
#
#
#
# Elastic Compliance Matrix: (Units=1/GPa)
#
#
# Indices 1 2 3 4 5 6 
#
# 1 0.008390 -0.001906 -0.002864 0.000000 0.002090 0.000000
# 2 -0.001906 0.008917 -0.003097 0.000000 0.000530 0.000000
# 3 -0.002864 -0.003097 0.016078 0.000000 -0.000577 0.000000
# 4 0.000000 0.000000 0.000000 0.023456 0.000000 0.001494
# 5 0.002090 0.000530 -0.000577 0.000000 0.035030 0.000000
# 6 0.000000 0.000000 0.000000 0.001494 0.000000 0.016406
#
#
# Mechanical properties :
#
#
# Convention : Reuss Voigt Hill
#
# Bulk Modulus (GPa) = 56.65072 63.00984 59.83028
# Shear Modulus (GPa) = 38.49256 42.72172 40.60714
#
# Velocity S-wave (km/s) = 3.89573 4.10417 4.00131
# Velocity P-wave (km/s) = 6.52470 6.87766 6.70350
#
# Compressibility (1/GPa) = 0.01765203
#
# Stress axis : x y z
#
# Youngs Moduli (GPa) = 119.18679 112.14540 62.19548
#
# Poissons Ratio (x) = 0.21373 0.17810
# Poissons Ratio (y) = 0.22715 0.19264
# Poissons Ratio (z) = 0.34130 0.34735
#
# Static dielectric constant tensor:
#      x y z
#    x 2.078540 0.000000 0.021540 
#    y 0.000000 2.040690 0.000000 
#    z 0.021540 0.000000 1.989390 
# 
# From -- ./inp_files/79457.got.cif
#   From: 2010.05.17/outbox.cif.g08.bks.cpg/sg14_40_cif.got.tgz:79457.got - 2010.06.03 17:49:19.
