data_PCOD9250522
_publ_section_title
;
Structure prediction by ZEFSAII (Michael W. Deem and Ramdas Pophale) SiO2 
 PCOD9250522
Probable space group: P 21/C
;
_chemical_formula_sum "Si O2"
_cell_formula_units_Z 20
_cell_length_a 11.813404
_cell_length_b 10.866520
_cell_length_c 8.007258
_cell_angle_alpha 90.000000
_cell_angle_beta 57.047419
_cell_angle_gamma 90.000000
_cell_volume 862.529523
_symmetry_space_group_name_H-M "P 21/C"
_symmetry_group_IT_number 14
_symmetry_cell_setting 'monoclinic'
loop_
_space_group_symop_operation_xyz
x,y,z
-x,1/2+y,1/2-z
-x,-y,-z
x,1/2-y,1/2+z
loop_
_atom_site_type_symbol
_atom_site_label
_atom_site_fract_x
_atom_site_fract_y
_atom_site_fract_z
Si Si1 0.814384 0.901488 0.020980
Si Si2 0.487349 0.124153 0.616083
Si Si3 0.419192 0.625225 0.610694
Si Si4 0.863239 0.355723 0.355742
Si Si5 0.965130 0.814420 0.585258
O O1 0.858160 0.876007 0.794415
O O2 0.851881 0.043805 0.011268
O O3 0.658122 0.879423 0.179326
O O4 0.895013 0.809475 0.073859
O O5 0.595612 0.123302 0.678276
O O6 0.502304 0.249146 0.499664
O O7 0.500000 0.000000 0.500000
O O8 0.500000 0.500000 0.500000
O O9 0.279087 0.636661 0.624173
O O10 0.908174 0.228196 0.403659
O O11 0.979878 0.381208 0.124006
#
# Coordination Sequence:
#
# PCOD9250522 Si02
#       5
#     4   4   4   4   4
#     4  11  23  45  67 100 135 179 233 283 344 414
#     4  12  27  47  73 102 142 187 232 290 351 416
#     4  12  25  46  72 103 142 183 234 287 348 418
#     4  11  23  44  68 100 135 179 231 284 345 411
#     4  10  24  43  70  96 136 180 231 283 346 404
#
# _framework density 23.187612000000001
#
# number of rings (size 3 to 8) (size 9 to 14) (size 15 to 20)
#    0.000    0.800    2.000    4.800    2.800    0.000 
#    7.200    0.000    0.000    0.000    0.000    0.000 
#    0.000    0.000    0.000    0.000    0.000    0.000 
#
# Total GULP energy -111871.863737 kJ/mol
# GULP energy per Si atom -5593.593187 kJ/mol
# Density = 2.313484 g / cm^3
# Si number density = 23.187612 Si / 1000 Ang^3
#
#
#
# Elastic Constant Matrix: (Units=GPa)
#
#
# Indices 1 2 3 4 5 6 
#
# 1 99.3670 24.3872 24.6479 0.0000 -8.3270 0.0000
# 2 24.3872 126.1699 49.3930 0.0000 -1.7116 0.0000
# 3 24.6479 49.3930 86.8353 0.0000 -9.5080 0.0000
# 4 0.0000 0.0000 0.0000 41.9615 0.0000 8.2598
# 5 -8.3270 -1.7116 -9.5080 0.0000 42.6987 0.0000
# 6 0.0000 0.0000 0.0000 8.2598 0.0000 35.6310
#
#
#
# Elastic Compliance Matrix: (Units=1/GPa)
#
#
# Indices 1 2 3 4 5 6 
#
# 1 0.011062 -0.001230 -0.002265 0.000000 0.001604 0.000000
# 2 -0.001230 0.010367 -0.005667 0.000000 -0.001086 0.000000
# 3 -0.002265 -0.005667 0.015692 0.000000 0.002825 0.000000
# 4 0.000000 0.000000 0.000000 0.024971 0.000000 -0.005789
# 5 0.001604 -0.001086 0.002825 0.000000 0.024318 0.000000
# 6 0.000000 0.000000 0.000000 -0.005789 0.000000 0.029407
#
#
# Mechanical properties :
#
#
# Convention : Reuss Voigt Hill
#
# Bulk Modulus (GPa) = 53.19759 56.58091 54.88925
# Shear Modulus (GPa) = 35.61111 38.32119 36.96615
#
# Velocity S-wave (km/s) = 3.92316 4.06970 3.99710
# Velocity P-wave (km/s) = 6.59648 6.82185 6.71011
#
# Compressibility (1/GPa) = 0.01879785
#
# Stress axis : x y z
#
# Youngs Moduli (GPa) = 90.40235 96.45753 63.72813
#
# Poissons Ratio (x) = 0.11862 0.14433
# Poissons Ratio (y) = 0.11117 0.36114
# Poissons Ratio (z) = 0.20474 0.54661
#
# Static dielectric constant tensor:
#      x y z
#    x 1.900840 0.000000 0.009120 
#    y 0.000000 1.944810 0.000000 
#    z 0.009120 0.000000 1.858020 
# 
# From -- ./inp_files/12331.got.cif
#   From: 2010.05.17/outbox.cif.g08.bks.cpg/sg14_7_cif.got.tgz:12331.got - 2010.06.03 17:49:19.
