data_PCOD9250702
_publ_section_title
;
Structure prediction by ZEFSAII (Michael W. Deem and Ramdas Pophale) SiO2 
 PCOD9250702
Probable space group: P 21/C
;
_chemical_formula_sum "Si O2"
_cell_formula_units_Z 20
_cell_length_a 11.076976
_cell_length_b 9.586446
_cell_length_c 17.344303
_cell_angle_alpha 90.000000
_cell_angle_beta 150.921367
_cell_angle_gamma 90.000000
_cell_volume 895.118332
_symmetry_space_group_name_H-M "P 21/C"
_symmetry_group_IT_number 14
_symmetry_cell_setting 'monoclinic'
loop_
_space_group_symop_operation_xyz
x,y,z
-x,1/2+y,1/2-z
-x,-y,-z
x,1/2-y,1/2+z
loop_
_atom_site_type_symbol
_atom_site_label
_atom_site_fract_x
_atom_site_fract_y
_atom_site_fract_z
Si Si1 0.940910 0.456334 0.554775
Si Si2 0.379273 0.543965 0.243444
Si Si3 0.939186 0.355352 0.233401
Si Si4 0.507341 0.341319 0.538510
Si Si5 0.938750 0.132539 0.566541
O O1 0.645237 0.474229 0.395114
O O2 0.997109 0.295790 0.602617
O O3 0.000000 0.500000 0.500000
O O4 0.058749 0.551859 0.688066
O O5 0.388244 0.657226 0.316245
O O6 0.167358 0.436682 0.149817
O O7 0.305527 0.606889 0.120515
O O8 0.707842 0.249354 0.104835
O O9 0.914311 0.433347 0.137544
O O10 0.220436 0.293536 0.383657
O O11 0.500000 0.500000 0.500000
#
# Coordination Sequence:
#
# PCOD9250702 Si02
#       5
#     4   4   4   4   4
#     4  11  26  46  69 106 138 184 243 295 346 438
#     4  10  24  45  71  96 145 187 227 296 363 420
#     4  11  24  44  77 103 144 186 240 298 361 427
#     4  11  22  47  69 105 143 190 234 295 358 430
#     4  11  24  44  70 101 141 185 233 290 366 419
#
# _framework density 22.343413999999999
#
# number of rings (size 3 to 8) (size 9 to 14) (size 15 to 20)
#    0.000    1.200    2.000    3.600    2.800    0.000 
#   10.800    5.000    0.000    0.000    0.000    0.000 
#    0.000    0.000    0.000    0.000    0.000    0.000 
#
# Total GULP energy -111779.445072 kJ/mol
# GULP energy per Si atom -5588.972254 kJ/mol
# Density = 2.229256 g / cm^3
# Si number density = 22.343414 Si / 1000 Ang^3
#
#
#
# Elastic Constant Matrix: (Units=GPa)
#
#
# Indices 1 2 3 4 5 6 
#
# 1 112.1156 33.5909 27.6526 0.0000 -25.6237 0.0000
# 2 33.5909 67.1556 27.8152 0.0000 -9.7039 0.0000
# 3 27.6526 27.8152 80.3957 0.0000 -39.2553 0.0000
# 4 0.0000 0.0000 0.0000 21.0989 0.0000 -0.9333
# 5 -25.6237 -9.7039 -39.2553 0.0000 50.0589 0.0000
# 6 0.0000 0.0000 0.0000 -0.9333 0.0000 27.2922
#
#
#
# Elastic Compliance Matrix: (Units=1/GPa)
#
#
# Indices 1 2 3 4 5 6 
#
# 1 0.011573 -0.005182 0.000347 0.000000 0.005192 0.000000
# 2 -0.005182 0.019851 -0.007295 0.000000 -0.004525 0.000000
# 3 0.000347 -0.007295 0.023074 0.000000 0.016858 0.000000
# 4 0.000000 0.000000 0.000000 0.047468 0.000000 0.001623
# 5 0.005192 -0.004525 0.016858 0.000000 0.034977 0.000000
# 6 0.000000 0.000000 0.000000 0.001623 0.000000 0.036696
#
#
# Mechanical properties :
#
#
# Convention : Reuss Voigt Hill
#
# Bulk Modulus (GPa) = 33.07105 48.64270 40.85688
# Shear Modulus (GPa) = 24.04109 31.06388 27.55248
#
# Velocity S-wave (km/s) = 3.28377 3.73271 3.51541
# Velocity P-wave (km/s) = 5.40471 6.35572 5.89941
#
# Compressibility (1/GPa) = 0.03023792
#
# Stress axis : x y z
#
# Youngs Moduli (GPa) = 86.40861 50.37632 43.33823
#
# Poissons Ratio (x) = 0.26107 -0.01505
# Poissons Ratio (y) = 0.44781 0.31615
# Poissons Ratio (z) = -0.03002 0.36749
#
# Static dielectric constant tensor:
#      x y z
#    x 1.883020 0.000000 -0.015810 
#    y 0.000000 1.838750 0.000000 
#    z -0.015810 0.000000 1.846630 
# 
# From -- ./inp_files/55300.got.cif
#   From: 2010.05.17/outbox.cif.g08.bks.cpg/sg14_28_cif.got.tgz:55300.got - 2010.06.03 17:49:19.
