data_PCOD9250662
_publ_section_title
;
Structure prediction by ZEFSAII (Michael W. Deem and Ramdas Pophale) SiO2 
 PCOD9250662
Probable space group: P 21/C
;
_chemical_formula_sum "Si O2"
_cell_formula_units_Z 32
_cell_length_a 16.673199
_cell_length_b 12.484654
_cell_length_c 21.738436
_cell_angle_alpha 90.000000
_cell_angle_beta 160.649787
_cell_angle_gamma 90.000000
_cell_volume 1499.337617
_symmetry_space_group_name_H-M "P 21/C"
_symmetry_group_IT_number 14
_symmetry_cell_setting 'monoclinic'
loop_
_space_group_symop_operation_xyz
x,y,z
-x,1/2+y,1/2-z
-x,-y,-z
x,1/2-y,1/2+z
loop_
_atom_site_type_symbol
_atom_site_label
_atom_site_fract_x
_atom_site_fract_y
_atom_site_fract_z
Si Si1 0.914582 0.527858 0.639904
Si Si2 0.627828 0.398317 0.332009
Si Si3 0.563274 0.709673 0.689892
Si Si4 0.008286 0.370451 0.511843
Si Si5 0.635400 0.238933 0.169592
Si Si6 0.260963 0.113025 0.464900
Si Si7 0.164124 0.751308 0.810457
Si Si8 0.464036 0.994288 0.900605
O O1 0.758842 0.484371 0.470070
O O2 0.727212 0.524290 0.560694
O O3 0.146480 0.458013 0.828184
O O4 0.016705 0.643291 0.700469
O O5 0.471622 0.323626 0.264374
O O6 0.849945 0.341659 0.457633
O O7 0.451898 0.439528 0.150239
O O8 0.296200 0.736444 0.471103
O O9 0.636678 0.602313 0.704290
O O10 0.736250 0.810465 0.803657
O O11 0.856880 0.315225 0.347996
O O12 0.000000 0.500000 0.500000
O O13 0.629009 0.243446 0.091332
O O14 0.677476 0.115290 0.217333
O O15 0.404478 0.288785 0.036748
O O16 0.032989 0.155735 0.338475
O O17 0.500000 0.000000 0.000000
#
# Coordination Sequence:
#
# PCOD9250662 Si02
#       8
#     4   4   4   4   4   4   4   4
#     4  11  24  42  66 101 138 177 229 288 348 411
#     4  10  24  45  67 100 141 181 234 283 346 418
#     4  11  25  42  71 102 141 188 233 287 356 415
#     4  11  26  47  68 104 142 180 240 293 350 422
#     4  11  24  42  70  97 135 183 228 287 349 407
#     4  11  23  44  67  98 136 180 231 280 353 411
#     4  12  23  41  71 100 136 181 230 287 347 420
#     4  11  21  42  68  98 137 178 233 282 340 421
#
# _framework density 21.342758
#
# number of rings (size 3 to 8) (size 9 to 14) (size 15 to 20)
#    0.000    1.000    5.000    1.500    5.250    2.000 
#    2.250    1.250    0.000    0.000    0.000    0.000 
#    0.000    0.000    0.000    0.000    0.000    0.000 
#
# Total GULP energy -178602.716277 kJ/mol
# GULP energy per Si atom -5581.334884 kJ/mol
# Density = 2.129418 g / cm^3
# Si number density = 21.342758 Si / 1000 Ang^3
#
#
#
# Elastic Constant Matrix: (Units=GPa)
#
#
# Indices 1 2 3 4 5 6 
#
# 1 79.1597 16.2024 3.6782 0.0000 6.1079 0.0000
# 2 16.2024 136.0552 41.5992 0.0000 -3.6944 0.0000
# 3 3.6782 41.5992 92.6539 0.0000 -6.7322 0.0000
# 4 0.0000 0.0000 0.0000 30.0689 0.0000 7.3048
# 5 6.1079 -3.6944 -6.7322 0.0000 23.9940 0.0000
# 6 0.0000 0.0000 0.0000 7.3048 0.0000 15.4353
#
#
#
# Elastic Compliance Matrix: (Units=1/GPa)
#
#
# Indices 1 2 3 4 5 6 
#
# 1 0.013256 -0.001664 -0.000044 0.000000 -0.003643 0.000000
# 2 -0.001664 0.008730 -0.003802 0.000000 0.000701 0.000000
# 3 -0.000044 -0.003802 0.012719 0.000000 0.002994 0.000000
# 4 0.000000 0.000000 0.000000 0.037577 0.000000 -0.017783
# 5 -0.003643 0.000701 0.002994 0.000000 0.043553 0.000000
# 6 0.000000 0.000000 0.000000 -0.017783 0.000000 0.073202
#
#
# Mechanical properties :
#
#
# Convention : Reuss Voigt Hill
#
# Bulk Modulus (GPa) = 42.22129 47.86982 45.04556
# Shear Modulus (GPa) = 24.04383 30.32558 27.18471
#
# Velocity S-wave (km/s) = 3.36006 3.77355 3.57279
# Velocity P-wave (km/s) = 5.90583 6.43926 6.17830
#
# Compressibility (1/GPa) = 0.02368473
#
# Stress axis : x y z
#
# Youngs Moduli (GPa) = 75.43495 114.55038 78.62028
#
# Poissons Ratio (x) = 0.19064 0.00344
# Poissons Ratio (y) = 0.12554 0.29895
# Poissons Ratio (z) = 0.00330 0.43557
#
# Static dielectric constant tensor:
#      x y z
#    x 1.830080 0.000000 -0.015420 
#    y 0.000000 1.796470 0.000000 
#    z -0.015420 0.000000 1.756400 
# 
# From -- ./inp_files/74416.got.cif
#   From: 2010.05.17/outbox.cif.g08.bks.cpg/sg14_38_cif.got.tgz:74416.got - 2010.06.03 17:49:19.
