data_PCOD9250454
_publ_section_title
;
Structure prediction by ZEFSAII (Michael W. Deem and Ramdas Pophale) SiO2 
 PCOD9250454
Probable space group: P 21/C
;
_chemical_formula_sum "Si O2"
_cell_formula_units_Z 16
_cell_length_a 16.631901
_cell_length_b 8.129136
_cell_length_c 5.341694
_cell_angle_alpha 90.000000
_cell_angle_beta 121.741765
_cell_angle_gamma 90.000000
_cell_volume 614.190026
_symmetry_space_group_name_H-M "P 21/C"
_symmetry_group_IT_number 14
_symmetry_cell_setting 'monoclinic'
loop_
_space_group_symop_operation_xyz
x,y,z
-x,1/2+y,1/2-z
-x,-y,-z
x,1/2-y,1/2+z
loop_
_atom_site_type_symbol
_atom_site_label
_atom_site_fract_x
_atom_site_fract_y
_atom_site_fract_z
Si Si1 0.800223 0.708613 0.263906
Si Si2 0.265302 0.963867 0.999877
Si Si3 0.532191 0.169625 0.674441
Si Si4 0.060777 0.655924 0.011921
O O1 0.855118 0.767972 0.599159
O O2 0.760257 0.530442 0.262032
O O3 0.721146 0.853738 0.105451
O O4 0.171726 0.889703 0.728295
O O5 0.354214 0.848563 0.131553
O O6 0.501842 0.299181 0.410085
O O7 0.500000 0.000000 0.500000
O O8 0.045568 0.795502 0.198976
O O9 0.000000 0.500000 0.000000
#
# Coordination Sequence:
#
# PCOD9250454 Si02
#       4
#     4   4   4   4
#     4   8  20  32  66  98 132 166 226 270 348 388
#     4  10  24  42  74  98 142 178 238 276 356 400
#     4  12  29  46  73 103 145 181 238 288 351 412
#     4  12  29  46  73 103 145 181 238 288 351 412
#
# _framework density 26.050568999999999
#
# number of rings (size 3 to 8) (size 9 to 14) (size 15 to 20)
#    1.500    0.000    0.000    3.000   14.000    0.000 
#    0.000    0.000    0.000    0.000    0.000    0.000 
#    0.000    0.000    0.000    0.000    0.000    0.000 
#
# Total GULP energy -89374.958670 kJ/mol
# GULP energy per Si atom -5585.934917 kJ/mol
# Density = 2.599128 g / cm^3
# Si number density = 26.050569 Si / 1000 Ang^3
#
#
#
# Elastic Constant Matrix: (Units=GPa)
#
#
# Indices 1 2 3 4 5 6 
#
# 1 37.7839 -18.6306 25.6005 0.0000 -6.2932 0.0000
# 2 -18.6306 65.9073 12.2889 0.0000 -4.8653 0.0000
# 3 25.6005 12.2889 118.6235 0.0000 -14.4432 0.0000
# 4 0.0000 0.0000 0.0000 66.8268 0.0000 -7.9765
# 5 -6.2932 -4.8653 -14.4432 0.0000 41.7003 0.0000
# 6 0.0000 0.0000 0.0000 -7.9765 0.0000 30.7229
#
#
#
# Elastic Compliance Matrix: (Units=1/GPa)
#
#
# Indices 1 2 3 4 5 6 
#
# 1 0.040340 0.013510 -0.009576 0.000000 0.004347 0.000000
# 2 0.013510 0.020064 -0.004657 0.000000 0.002767 0.000000
# 3 -0.009576 -0.004657 0.011210 0.000000 0.001894 0.000000
# 4 0.000000 0.000000 0.000000 0.015443 0.000000 0.004009
# 5 0.004347 0.002767 0.001894 0.000000 0.025616 0.000000
# 6 0.000000 0.000000 0.000000 0.004009 0.000000 0.033590
#
#
# Mechanical properties :
#
#
# Convention : Reuss Voigt Hill
#
# Bulk Modulus (GPa) = 14.25168 28.98136 21.61652
# Shear Modulus (GPa) = 29.22284 41.38706 35.30495
#
# Velocity S-wave (km/s) = 3.35292 3.99020 3.68536
# Velocity P-wave (km/s) = 4.52461 5.69018 5.14054
#
# Compressibility (1/GPa) = 0.07016715
#
# Stress axis : x y z
#
# Youngs Moduli (GPa) = 24.78911 49.83945 89.20770
#
# Poissons Ratio (x) = -0.67332 0.85427
# Poissons Ratio (y) = -0.33490 0.41547
# Poissons Ratio (z) = 0.23739 0.23212
#
# Static dielectric constant tensor:
#      x y z
#    x 2.070590 0.000000 -0.049790 
#    y 0.000000 2.054050 0.000000 
#    z -0.049790 0.000000 2.151090 
# 
# From -- ./inp_files/4043.got.cif
#   From: 2010.05.17/outbox.cif.g08.bks.cpg/sg14_3_cif.got.tgz:4043.got - 2010.06.03 17:49:19.
