data_PCOD9250605
_publ_section_title
;
Structure prediction by ZEFSAII (Michael W. Deem and Ramdas Pophale) SiO2 
 PCOD9250605
Probable space group: P 21/C
;
_chemical_formula_sum "Si O2"
_cell_formula_units_Z 16
_cell_length_a 18.896601
_cell_length_b 8.115946
_cell_length_c 14.552516
_cell_angle_alpha 90.000000
_cell_angle_beta 17.896793
_cell_angle_gamma 90.000000
_cell_volume 685.848554
_symmetry_space_group_name_H-M "P 21/C"
_symmetry_group_IT_number 14
_symmetry_cell_setting 'monoclinic'
loop_
_space_group_symop_operation_xyz
x,y,z
-x,1/2+y,1/2-z
-x,-y,-z
x,1/2-y,1/2+z
loop_
_atom_site_type_symbol
_atom_site_label
_atom_site_fract_x
_atom_site_fract_y
_atom_site_fract_z
Si Si1 0.567434 0.809582 0.187503
Si Si2 0.128050 0.171540 0.834377
Si Si3 0.148084 0.863831 0.195928
Si Si4 0.642184 0.840538 0.789454
O O1 0.310651 0.787712 0.464740
O O2 0.550752 0.754985 0.313713
O O3 0.748005 0.690196 0.914502
O O4 0.682185 0.983967 0.024590
O O5 0.322436 0.209202 0.671328
O O6 0.945652 0.315605 0.086378
O O7 0.000000 0.000000 0.000000
O O8 0.909099 0.889697 0.438645
O O9 0.500000 0.000000 0.000000
#
# Coordination Sequence:
#
# PCOD9250605 Si02
#       4
#     4   4   4   4
#     4  12  23  45  75 100 155 200 246 323 396 441
#     4  10  24  44  69 112 155 189 259 318 376 467
#     4  10  26  45  71 111 146 197 260 317 379 472
#     4  10  26  45  77 108 150 204 258 313 390 466
#
# _framework density 23.328765000000001
#
# number of rings (size 3 to 8) (size 9 to 14) (size 15 to 20)
#    1.500    0.000    0.000    3.750    7.000    2.000 
#    0.000    2.500    0.000    0.000    0.000    0.000 
#    0.000    0.000    0.000    0.000    0.000    0.000 
#
# Total GULP energy -89210.852231 kJ/mol
# GULP energy per Si atom -5575.678264 kJ/mol
# Density = 2.327567 g / cm^3
# Si number density = 23.328765 Si / 1000 Ang^3
#
#
#
# Elastic Constant Matrix: (Units=GPa)
#
#
# Indices 1 2 3 4 5 6 
#
# 1 86.4820 42.6627 39.5419 0.0000 3.2970 0.0000
# 2 42.6627 122.5705 38.1460 0.0000 -4.0032 0.0000
# 3 39.5419 38.1460 121.3608 0.0000 -21.3128 0.0000
# 4 0.0000 0.0000 0.0000 77.1199 0.0000 -1.1137
# 5 3.2970 -4.0032 -21.3128 0.0000 39.9654 0.0000
# 6 0.0000 0.0000 0.0000 -1.1137 0.0000 25.0491
#
#
#
# Elastic Compliance Matrix: (Units=1/GPa)
#
#
# Indices 1 2 3 4 5 6 
#
# 1 0.015915 -0.004249 -0.004584 0.000000 -0.004183 0.000000
# 2 -0.004249 0.010194 -0.001742 0.000000 0.000443 0.000000
# 3 -0.004584 -0.001742 0.011383 0.000000 0.006274 0.000000
# 4 0.000000 0.000000 0.000000 0.012975 0.000000 0.000577
# 5 -0.004183 0.000443 0.006274 0.000000 0.028757 0.000000
# 6 0.000000 0.000000 0.000000 0.000577 0.000000 0.039947
#
#
# Mechanical properties :
#
#
# Convention : Reuss Voigt Hill
#
# Bulk Modulus (GPa) = 61.19716 63.45717 62.32717
# Shear Modulus (GPa) = 34.30066 42.43107 38.36586
#
# Velocity S-wave (km/s) = 3.83863 4.26940 4.05973
# Velocity P-wave (km/s) = 6.77763 7.18081 6.98213
#
# Compressibility (1/GPa) = 0.01634063
#
# Stress axis : x y z
#
# Youngs Moduli (GPa) = 62.83384 98.09488 87.85067
#
# Poissons Ratio (x) = 0.41684 0.40275
# Poissons Ratio (y) = 0.26700 0.15303
# Poissons Ratio (z) = 0.28806 0.17088
#
# Static dielectric constant tensor:
#      x y z
#    x 1.951340 0.000000 -0.031240 
#    y 0.000000 1.973310 0.000000 
#    z -0.031240 0.000000 1.882740 
# 
# From -- ./inp_files/49797.got.cif
#   From: 2010.05.17/outbox.cif.g08.bks.cpg/sg14_25_cif.got.tgz:49797.got - 2010.06.03 17:49:19.
