data_PCOD9250642
_publ_section_title
;
Structure prediction by ZEFSAII (Michael W. Deem and Ramdas Pophale) SiO2 
 PCOD9250642
Probable space group: P 21/C
;
_chemical_formula_sum "Si O2"
_cell_formula_units_Z 18
_cell_length_a 5.003018
_cell_length_b 15.633909
_cell_length_c 9.596921
_cell_angle_alpha 90.000000
_cell_angle_beta 108.217804
_cell_angle_gamma 90.000000
_cell_volume 713.013906
_symmetry_space_group_name_H-M "P 21/C"
_symmetry_group_IT_number 14
_symmetry_cell_setting 'monoclinic'
loop_
_space_group_symop_operation_xyz
x,y,z
-x,1/2+y,1/2-z
-x,-y,-z
x,1/2-y,1/2+z
loop_
_atom_site_type_symbol
_atom_site_label
_atom_site_fract_x
_atom_site_fract_y
_atom_site_fract_z
Si Si1 0.671692 0.404157 0.227343
Si Si2 0.963546 0.439846 0.786797
Si Si3 0.054325 0.336022 0.064554
Si Si4 0.951931 0.642362 0.476536
Si Si5 0.500000 0.000000 0.000000
O O1 0.777436 0.493805 0.181830
O O2 0.362222 0.371843 0.148066
O O3 0.873160 0.338359 0.175759
O O4 0.766546 0.400976 0.406973
O O5 0.031133 0.366590 0.686139
O O6 0.694523 0.484751 0.675260
O O7 0.921291 0.400308 0.930137
O O8 0.070166 0.242259 0.000159
O O9 0.707093 0.581919 0.489827
#
# Coordination Sequence:
#
# PCOD9250642 Si02
#       5
#     4   4   4   4   2
#     4  11  27  48  73 109 149 196 246 307 380 437
#     4  11  26  48  74 106 148 205 241 310 369 456
#     4  12  28  46  76 113 150 189 253 319 362 431
#     4  11  27  45  76 105 151 197 253 300 373 448
#     4  10  24  44  74 100 144 194 244 286 372 444
#
# _framework density 25.244949999999999
#
# number of rings (size 3 to 8) (size 9 to 14) (size 15 to 20)
#    0.000    0.889    0.000    5.333   21.778    0.000 
#    0.000    0.000    0.000    0.000    0.000    0.000 
#    0.000    0.000    0.000    0.000    0.000    0.000 
#
# Total GULP energy -100535.695352 kJ/mol
# GULP energy per Si atom -5585.316408 kJ/mol
# Density = 2.518749 g / cm^3
# Si number density = 25.244950 Si / 1000 Ang^3
#
#
#
# Elastic Constant Matrix: (Units=GPa)
#
#
# Indices 1 2 3 4 5 6 
#
# 1 101.6016 -5.7655 33.0041 0.0000 27.0669 0.0000
# 2 -5.7655 129.2183 30.2084 0.0000 8.8147 0.0000
# 3 33.0041 30.2084 101.5967 0.0000 -6.9645 0.0000
# 4 0.0000 0.0000 0.0000 49.7724 0.0000 -7.2754
# 5 27.0669 8.8147 -6.9645 0.0000 35.7789 0.0000
# 6 0.0000 0.0000 0.0000 -7.2754 0.0000 11.8714
#
#
#
# Elastic Compliance Matrix: (Units=1/GPa)
#
#
# Indices 1 2 3 4 5 6 
#
# 1 0.016306 0.003435 -0.007320 0.000000 -0.014607 0.000000
# 2 0.003435 0.009280 -0.004267 0.000000 -0.005715 0.000000
# 3 -0.007320 -0.004267 0.014130 0.000000 0.009339 0.000000
# 4 0.000000 0.000000 0.000000 0.022068 0.000000 0.013525
# 5 -0.014607 -0.005715 0.009339 0.000000 0.042226 0.000000
# 6 0.000000 0.000000 0.000000 0.013525 0.000000 0.092524
#
#
# Mechanical properties :
#
#
# Convention : Reuss Voigt Hill
#
# Bulk Modulus (GPa) = 42.71239 49.70118 46.20678
# Shear Modulus (GPa) = 22.66119 37.81586 30.23852
#
# Velocity S-wave (km/s) = 2.99933 3.87454 3.46469
# Velocity P-wave (km/s) = 5.38058 6.30448 5.86076
#
# Compressibility (1/GPa) = 0.02341241
#
# Stress axis : x y z
#
# Youngs Moduli (GPa) = 61.32534 107.76433 70.77301
#
# Poissons Ratio (x) = -0.37020 0.51806
# Poissons Ratio (y) = -0.21067 0.30198
# Poissons Ratio (z) = 0.44890 0.45982
#
# Static dielectric constant tensor:
#      x y z
#    x 2.017970 0.000000 -0.085440 
#    y 0.000000 2.000250 0.000000 
#    z -0.085440 0.000000 1.976480 
# 
# From -- ./inp_files/5265.got.cif
#   From: 2010.05.17/outbox.cif.g08.bks.cpg/sg14_3_cif.got.tgz:5265.got - 2010.06.03 17:49:19.
