data_PCOD9250871
_publ_section_title
;
Structure prediction by ZEFSAII (Michael W. Deem and Ramdas Pophale) SiO2 
 PCOD9250871
Probable space group: P 21/C
;
_chemical_formula_sum "Si O2"
_cell_formula_units_Z 28
_cell_length_a 11.105417
_cell_length_b 19.452332
_cell_length_c 7.496372
_cell_angle_alpha 90.000000
_cell_angle_beta 140.811927
_cell_angle_gamma 90.000000
_cell_volume 1023.255332
_symmetry_space_group_name_H-M "P 21/C"
_symmetry_group_IT_number 14
_symmetry_cell_setting 'monoclinic'
loop_
_space_group_symop_operation_xyz
x,y,z
-x,1/2+y,1/2-z
-x,-y,-z
x,1/2-y,1/2+z
loop_
_atom_site_type_symbol
_atom_site_label
_atom_site_fract_x
_atom_site_fract_y
_atom_site_fract_z
Si Si1 0.995945 0.178361 0.018668
Si Si2 0.302078 0.801415 0.847403
Si Si3 0.479217 0.519186 0.770584
Si Si4 0.564486 0.873274 0.868231
Si Si5 0.042045 0.965021 0.853188
Si Si6 0.008001 0.899238 0.365300
Si Si7 0.584633 0.834951 0.472210
O O1 0.213220 0.204200 0.295525
O O2 0.986365 0.115039 0.143818
O O3 0.975031 0.142404 0.802167
O O4 0.833936 0.235711 0.840441
O O5 0.460693 0.822409 0.883126
O O6 0.419211 0.698630 0.665385
O O7 0.151815 0.862892 0.660922
O O8 0.525566 0.449961 0.717670
O O9 0.254451 0.530565 0.518662
O O10 0.597450 0.589322 0.890862
O O11 0.500000 0.500000 0.000000
O O12 0.542332 0.849267 0.634323
O O13 0.787829 0.885321 0.162848
O O14 0.941453 0.021210 0.612147
O O15 0.000000 0.000000 0.000000
#
# Coordination Sequence:
#
# PCOD9250871 Si02
#       7
#     4   4   4   4   4   4   4
#     4  10  24  48  72 113 159 208 267 327 399 483
#     4  12  26  49  77 117 157 212 262 327 408 470
#     4   9  18  37  74 113 148 199 256 316 395 467
#     4   9  22  48  77 114 162 205 255 322 398 483
#     4   9  18  38  75 106 147 207 262 316 384 472
#     4   9  22  48  73 113 158 202 265 327 390 476
#     4  10  24  48  77 117 159 206 267 327 398 481
#
# _framework density 27.36365
#
# number of rings (size 3 to 8) (size 9 to 14) (size 15 to 20)
#    0.000    2.286    0.000    2.571   10.000    1.714 
#   10.286    2.857    0.000    0.000    0.000    0.000 
#    0.000    0.000    0.000    0.000    0.000    0.000 
#
# Total GULP energy -156717.731979 kJ/mol
# GULP energy per Si atom -5597.061856 kJ/mol
# Density = 2.730137 g / cm^3
# Si number density = 27.363650 Si / 1000 Ang^3
#
#
#
# Elastic Constant Matrix: (Units=GPa)
#
#
# Indices 1 2 3 4 5 6 
#
# 1 141.9618 56.7633 82.8522 0.0000 -1.1913 0.0000
# 2 56.7633 143.0273 77.3070 0.0000 -0.0376 0.0000
# 3 82.8522 77.3070 187.0545 0.0000 10.9118 0.0000
# 4 0.0000 0.0000 0.0000 46.8047 0.0000 10.5486
# 5 -1.1913 -0.0376 10.9118 0.0000 29.4874 0.0000
# 6 0.0000 0.0000 0.0000 10.5486 0.0000 23.7956
#
#
#
# Elastic Compliance Matrix: (Units=1/GPa)
#
#
# Indices 1 2 3 4 5 6 
#
# 1 0.010021 -0.001959 -0.003733 0.000000 0.001784 0.000000
# 2 -0.001959 0.009444 -0.003098 0.000000 0.001079 0.000000
# 3 -0.003733 -0.003098 0.008472 0.000000 -0.003290 0.000000
# 4 0.000000 0.000000 0.000000 0.023737 0.000000 -0.010523
# 5 0.001784 0.001079 -0.003290 0.000000 0.035204 0.000000
# 6 0.000000 0.000000 0.000000 -0.010523 0.000000 0.046689
#
#
# Mechanical properties :
#
#
# Convention : Reuss Voigt Hill
#
# Bulk Modulus (GPa) = 96.55917 100.65429 98.60673
# Shear Modulus (GPa) = 32.34151 37.02560 34.68355
#
# Velocity S-wave (km/s) = 3.44163 3.68243 3.56407
# Velocity P-wave (km/s) = 7.15242 7.41244 7.28359
#
# Compressibility (1/GPa) = 0.01035634
#
# Stress axis : x y z
#
# Youngs Moduli (GPa) = 99.78939 105.88642 118.03545
#
# Poissons Ratio (x) = 0.20741 0.44065
# Poissons Ratio (y) = 0.19547 0.36573
# Poissons Ratio (z) = 0.37253 0.32808
#
# Static dielectric constant tensor:
#      x y z
#    x 2.166680 0.000000 0.180800 
#    y 0.000000 2.206660 0.000000 
#    z 0.180800 0.000000 2.594850 
# 
# From -- ./inp_files/32935.got.cif
#   From: 2010.05.17/outbox.cif.g08.bks.cpg/sg14_17_cif.got.tgz:32935.got - 2010.06.03 17:49:19.
