data_PCOD9250373
_publ_section_title
;
Structure prediction by ZEFSAII (Michael W. Deem and Ramdas Pophale) SiO2 
 PCOD9250373
Probable space group: P 21/C
;
_chemical_formula_sum "Si O2"
_cell_formula_units_Z 22
_cell_length_a 16.259197
_cell_length_b 10.097085
_cell_length_c 4.877583
_cell_angle_alpha 90.000000
_cell_angle_beta 79.538896
_cell_angle_gamma 90.000000
_cell_volume 787.445374
_symmetry_space_group_name_H-M "P 21/C"
_symmetry_group_IT_number 14
_symmetry_cell_setting 'monoclinic'
loop_
_space_group_symop_operation_xyz
x,y,z
-x,1/2+y,1/2-z
-x,-y,-z
x,1/2-y,1/2+z
loop_
_atom_site_type_symbol
_atom_site_label
_atom_site_fract_x
_atom_site_fract_y
_atom_site_fract_z
Si Si1 0.500000 0.000000 0.000000
Si Si2 0.324770 0.161167 0.094372
Si Si3 0.764811 0.075711 0.131135
Si Si4 0.057319 0.171861 0.363374
Si Si5 0.873608 0.103627 0.594587
Si Si6 0.418683 0.824732 0.597009
O O1 0.587486 0.912777 0.993599
O O2 0.480875 0.915102 0.724154
O O3 0.317756 0.208314 0.410608
O O4 0.257592 0.056972 0.023024
O O5 0.813994 0.161678 0.870033
O O6 0.676011 0.136964 0.277267
O O7 0.819563 0.057548 0.367774
O O8 0.088149 0.281947 0.137905
O O9 0.084888 0.024597 0.281471
O O10 0.956444 0.175449 0.434899
O O11 0.430295 0.817207 0.260031
#
# Coordination Sequence:
#
# PCOD9250373 Si02
#       6
#     2   4   4   4   4   4
#     4  10  24  42  64  90 124 160 204 252 296 356
#     4  11  24  41  63  91 122 161 203 247 302 357
#     4  11  24  40  62  91 124 158 200 251 300 356
#     4  11  24  41  64  90 120 161 202 245 302 358
#     4  11  24  42  62  91 124 156 202 251 296 360
#     4  11  24  41  63  91 122 161 203 247 302 357
#
# _framework density 27.938445000000002
#
# number of rings (size 3 to 8) (size 9 to 14) (size 15 to 20)
#    0.000    1.091    0.000    5.455    0.000   17.455 
#    0.000    0.000    0.000    0.000    0.000    0.000 
#    0.000    0.000    0.000    0.000    0.000    0.000 
#
# Total GULP energy -123091.393002 kJ/mol
# GULP energy per Si atom -5595.063318 kJ/mol
# Density = 2.787486 g / cm^3
# Si number density = 27.938445 Si / 1000 Ang^3
#
#
#
# Elastic Constant Matrix: (Units=GPa)
#
#
# Indices 1 2 3 4 5 6 
#
# 1 110.5360 4.9876 42.4345 0.0000 13.3363 0.0000
# 2 4.9876 57.4240 -15.0531 0.0000 7.0532 0.0000
# 3 42.4345 -15.0531 157.5096 0.0000 16.4618 0.0000
# 4 0.0000 0.0000 0.0000 37.1677 0.0000 0.5977
# 5 13.3363 7.0532 16.4618 0.0000 37.5504 0.0000
# 6 0.0000 0.0000 0.0000 0.5977 0.0000 44.6203
#
#
#
# Elastic Compliance Matrix: (Units=1/GPa)
#
#
# Indices 1 2 3 4 5 6 
#
# 1 0.010416 -0.001333 -0.002697 0.000000 -0.002267 0.000000
# 2 -0.001333 0.018721 0.002585 0.000000 -0.004176 0.000000
# 3 -0.002697 0.002585 0.007622 0.000000 -0.002869 0.000000
# 4 0.000000 0.000000 0.000000 0.026911 0.000000 -0.000360
# 5 -0.002267 -0.004176 -0.002869 0.000000 0.029478 0.000000
# 6 0.000000 0.000000 0.000000 -0.000360 0.000000 0.022416
#
#
# Mechanical properties :
#
#
# Convention : Reuss Voigt Hill
#
# Bulk Modulus (GPa) = 29.52597 43.35637 36.44117
# Shear Modulus (GPa) = 38.53770 43.40774 40.97272
#
# Velocity S-wave (km/s) = 3.71803 3.94597 3.83369
# Velocity P-wave (km/s) = 5.38728 6.02603 5.71559
#
# Compressibility (1/GPa) = 0.03386848
#
# Stress axis : x y z
#
# Youngs Moduli (GPa) = 96.00926 53.41706 131.19567
#
# Poissons Ratio (x) = 0.07121 0.35378
# Poissons Ratio (y) = 0.12799 -0.33911
# Poissons Ratio (z) = 0.25890 -0.13807
#
# Static dielectric constant tensor:
#      x y z
#    x 1.978620 0.000000 0.015760 
#    y 0.000000 1.989230 0.000000 
#    z 0.015760 0.000000 2.084000 
# 
# From -- ./inp_files/3476.got.cif
#   From: 2010.05.17/outbox.cif.g08.bks.cpg/sg14_2_cif.got.tgz:3476.got - 2010.06.03 17:49:19.
