data_PCOD9250163
_publ_section_title
;
Structure prediction by ZEFSAII (Michael W. Deem and Ramdas Pophale) SiO2 
 PCOD9250163
Probable space group: P 21/C
;
_chemical_formula_sum "Si O2"
_cell_formula_units_Z 16
_cell_length_a 5.026756
_cell_length_b 9.369493
_cell_length_c 13.218857
_cell_angle_alpha 90.000000
_cell_angle_beta 84.634935
_cell_angle_gamma 90.000000
_cell_volume 619.856338
_symmetry_space_group_name_H-M "P 21/C"
_symmetry_group_IT_number 14
_symmetry_cell_setting 'monoclinic'
loop_
_space_group_symop_operation_xyz
x,y,z
-x,1/2+y,1/2-z
-x,-y,-z
x,1/2-y,1/2+z
loop_
_atom_site_type_symbol
_atom_site_label
_atom_site_fract_x
_atom_site_fract_y
_atom_site_fract_z
Si Si1 0.218362 0.429688 0.418288
Si Si2 0.563140 0.493065 0.115934
Si Si3 0.046858 0.947002 0.738376
Si Si4 0.635805 0.687302 0.395064
O O1 0.457600 0.543490 0.394577
O O2 0.311238 0.299502 0.485234
O O3 0.000000 0.500000 0.500000
O O4 0.087752 0.416802 0.313237
O O5 0.850020 0.528383 0.151672
O O6 0.511036 0.325495 0.140102
O O7 0.336783 0.583664 0.182625
O O8 0.500000 0.500000 0.000000
O O9 0.902272 0.839666 0.821019
#
# Coordination Sequence:
#
# PCOD9250163 Si02
#       4
#     4   4   4   4
#     4   9  20  44  73 103 131 182 235 281 346 416
#     4  12  28  47  68 108 146 182 232 291 352 408
#     4  11  24  48  68 103 139 189 236 274 353 419
#     4  10  23  47  72 104 141 180 235 291 345 421
#
# _framework density 25.812432000000001
#
# number of rings (size 3 to 8) (size 9 to 14) (size 15 to 20)
#    0.000    1.500    2.500    0.750    7.000    2.000 
#   13.500    0.000    0.000    0.000    0.000    0.000 
#    0.000    0.000    0.000    0.000    0.000    0.000 
#
# Total GULP energy -89435.369449 kJ/mol
# GULP energy per Si atom -5589.710591 kJ/mol
# Density = 2.575368 g / cm^3
# Si number density = 25.812432 Si / 1000 Ang^3
#
#
#
# Elastic Constant Matrix: (Units=GPa)
#
#
# Indices 1 2 3 4 5 6 
#
# 1 111.3030 4.6894 35.7032 0.0000 11.0711 0.0000
# 2 4.6894 55.6146 1.9750 0.0000 1.2664 0.0000
# 3 35.7032 1.9750 171.0183 0.0000 23.8605 0.0000
# 4 0.0000 0.0000 0.0000 37.9299 0.0000 -0.5897
# 5 11.0711 1.2664 23.8605 0.0000 64.4642 0.0000
# 6 0.0000 0.0000 0.0000 -0.5897 0.0000 11.7133
#
#
#
# Elastic Compliance Matrix: (Units=1/GPa)
#
#
# Indices 1 2 3 4 5 6 
#
# 1 0.009715 -0.000730 -0.001886 0.000000 -0.000956 0.000000
# 2 -0.000730 0.018048 -0.000025 0.000000 -0.000220 0.000000
# 3 -0.001886 -0.000025 0.006534 0.000000 -0.002094 0.000000
# 4 0.000000 0.000000 0.000000 0.026385 0.000000 0.001328
# 5 -0.000956 -0.000220 -0.002094 0.000000 0.016456 0.000000
# 6 0.000000 0.000000 0.000000 0.001328 0.000000 0.085440
#
#
# Mechanical properties :
#
#
# Convention : Reuss Voigt Hill
#
# Bulk Modulus (GPa) = 34.46723 46.96344 40.71534
# Shear Modulus (GPa) = 28.16360 42.52603 35.34481
#
# Velocity S-wave (km/s) = 3.30674 4.06335 3.70441
# Velocity P-wave (km/s) = 5.28785 6.34413 5.83992
#
# Compressibility (1/GPa) = 0.02901306
#
# Stress axis : x y z
#
# Youngs Moduli (GPa) = 102.92858 55.40663 153.05523
#
# Poissons Ratio (x) = 0.04047 0.28873
# Poissons Ratio (y) = 0.07518 0.00387
# Poissons Ratio (z) = 0.19417 0.00140
#
# Static dielectric constant tensor:
#      x y z
#    x 2.030170 0.000000 0.074510 
#    y 0.000000 2.077990 0.000000 
#    z 0.074510 0.000000 2.067660 
# 
# From -- ./inp_files/20277.got.cif
#   From: 2010.05.17/outbox.cif.g08.bks.cpg/sg14_11_cif.got.tgz:20277.got - 2010.06.03 17:49:19.
