data_PCOD9250235
_publ_section_title
;
Structure prediction by ZEFSAII (Michael W. Deem and Ramdas Pophale) SiO2 
 PCOD9250235
Probable space group: P 21/C
;
_chemical_formula_sum "Si O2"
_cell_formula_units_Z 28
_cell_length_a 11.019006
_cell_length_b 12.168034
_cell_length_c 8.384541
_cell_angle_alpha 90.000000
_cell_angle_beta 60.084031
_cell_angle_gamma 90.000000
_cell_volume 974.405835
_symmetry_space_group_name_H-M "P 21/C"
_symmetry_group_IT_number 14
_symmetry_cell_setting 'monoclinic'
loop_
_space_group_symop_operation_xyz
x,y,z
-x,1/2+y,1/2-z
-x,-y,-z
x,1/2-y,1/2+z
loop_
_atom_site_type_symbol
_atom_site_label
_atom_site_fract_x
_atom_site_fract_y
_atom_site_fract_z
Si Si1 0.123924 0.301088 0.468952
Si Si2 0.025107 0.385779 0.193696
Si Si3 0.416199 0.093376 0.247228
Si Si4 0.858073 0.116816 0.311197
Si Si5 0.354738 0.858465 0.299998
Si Si6 0.254116 0.533692 0.457408
Si Si7 0.468567 0.299201 0.028423
O O1 0.093359 0.337180 0.310873
O O2 0.119903 0.169918 0.491130
O O3 0.222595 0.400281 0.472733
O O4 0.978973 0.308231 0.664637
O O5 0.071936 0.512041 0.156041
O O6 0.859078 0.404774 0.352033
O O7 0.584411 0.067877 0.119762
O O8 0.396947 0.126366 0.444198
O O9 0.342796 0.981742 0.246790
O O10 0.382391 0.200627 0.164739
O O11 0.776409 0.174135 0.508327
O O12 0.778212 0.073557 0.204742
O O13 0.472444 0.866569 0.362766
O O14 0.409416 0.767178 0.144906
#
# Coordination Sequence:
#
# PCOD9250235 Si02
#       7
#     4   4   4   4   4   4   4
#     4   9  19  36  55  79 111 148 188 226 280 340
#     4   9  19  36  55  79 111 148 188 226 280 340
#     4  11  22  41  60  87 119 146 193 243 279 347
#     4   9  19  36  58  79 111 152 182 231 283 330
#     4  11  22  41  60  87 119 146 193 243 279 347
#     4   9  19  36  58  79 111 152 182 231 283 330
#     4  10  24  38  62  88 106 164 192 222 302 334
#
# _framework density 28.735458999999999
#
# number of rings (size 3 to 8) (size 9 to 14) (size 15 to 20)
#    0.000    2.286    1.429    2.571    4.000    0.000 
#    7.714    1.429    0.000    0.000    0.000    0.000 
#    0.000    0.000    0.000    0.000    0.000    0.000 
#
# Total GULP energy -156754.470682 kJ/mol
# GULP energy per Si atom -5598.373953 kJ/mol
# Density = 2.867006 g / cm^3
# Si number density = 28.735459 Si / 1000 Ang^3
#
#
#
# Elastic Constant Matrix: (Units=GPa)
#
#
# Indices 1 2 3 4 5 6 
#
# 1 75.5314 7.3073 11.5404 0.0000 -10.8545 0.0000
# 2 7.3073 75.2547 5.5866 0.0000 2.9714 0.0000
# 3 11.5404 5.5866 118.4836 0.0000 -22.0598 0.0000
# 4 0.0000 0.0000 0.0000 64.6656 0.0000 7.0691
# 5 -10.8545 2.9714 -22.0598 0.0000 39.5691 0.0000
# 6 0.0000 0.0000 0.0000 7.0691 0.0000 29.0920
#
#
#
# Elastic Compliance Matrix: (Units=1/GPa)
#
#
# Indices 1 2 3 4 5 6 
#
# 1 0.013993 -0.001455 -0.000624 0.000000 0.003600 0.000000
# 2 -0.001455 0.013567 -0.000850 0.000000 -0.001892 0.000000
# 3 -0.000624 -0.000850 0.009508 0.000000 0.005193 0.000000
# 4 0.000000 0.000000 0.000000 0.015886 0.000000 -0.003860
# 5 0.003600 -0.001892 0.005193 0.000000 0.029297 0.000000
# 6 0.000000 0.000000 0.000000 -0.003860 0.000000 0.035312
#
#
# Mechanical properties :
#
#
# Convention : Reuss Voigt Hill
#
# Bulk Modulus (GPa) = 32.04090 35.34871 33.69481
# Shear Modulus (GPa) = 37.36247 42.98768 40.17508
#
# Velocity S-wave (km/s) = 3.60977 3.87199 3.74318
# Velocity P-wave (km/s) = 5.34307 5.68488 5.51662
#
# Compressibility (1/GPa) = 0.03121011
#
# Stress axis : x y z
#
# Youngs Moduli (GPa) = 71.46475 73.70680 105.17715
#
# Poissons Ratio (x) = 0.10721 0.06564
# Poissons Ratio (y) = 0.10395 0.08943
# Poissons Ratio (z) = 0.04460 0.06267
#
# Static dielectric constant tensor:
#      x y z
#    x 2.439720 0.000000 -0.086390 
#    y 0.000000 2.378210 0.000000 
#    z -0.086390 0.000000 2.244010 
# 
# From -- ./inp_files/15694.got.cif
#   From: 2010.05.17/outbox.cif.g08.bks.cpg/sg14_8_cif.got.tgz:15694.got - 2010.06.03 17:49:19.
