data_PCOD9250431
_publ_section_title
;
Structure prediction by ZEFSAII (Michael W. Deem and Ramdas Pophale) SiO2 
 PCOD9250431
Probable space group: P 21/C
;
_chemical_formula_sum "Si O2"
_cell_formula_units_Z 20
_cell_length_a 12.119550
_cell_length_b 14.883658
_cell_length_c 4.971670
_cell_angle_alpha 90.000000
_cell_angle_beta 113.559537
_cell_angle_gamma 90.000000
_cell_volume 822.052880
_symmetry_space_group_name_H-M "P 21/C"
_symmetry_group_IT_number 14
_symmetry_cell_setting 'monoclinic'
loop_
_space_group_symop_operation_xyz
x,y,z
-x,1/2+y,1/2-z
-x,-y,-z
x,1/2-y,1/2+z
loop_
_atom_site_type_symbol
_atom_site_label
_atom_site_fract_x
_atom_site_fract_y
_atom_site_fract_z
Si Si1 0.326465 0.876170 0.125884
Si Si2 0.589449 0.808426 0.245811
Si Si3 0.746287 0.550826 0.214679
Si Si4 0.098369 0.192021 0.817766
Si Si5 0.171165 0.876077 0.455173
O O1 0.450881 0.835795 0.151842
O O2 0.270608 0.836084 0.345839
O O3 0.340388 0.982312 0.207891
O O4 0.223273 0.869962 0.802534
O O5 0.611356 0.723040 0.463728
O O6 0.669469 0.888830 0.437987
O O7 0.824735 0.610266 0.492158
O O8 0.831158 0.480923 0.135588
O O9 0.122697 0.223832 0.539328
O O10 0.957998 0.167412 0.702386
#
# Coordination Sequence:
#
# PCOD9250431 Si02
#       5
#     4   4   4   4   4
#     4  10  24  42  70  91 129 169 218 253 318 382
#     4  12  26  42  67  97 131 165 212 269 319 369
#     4  10  26  44  68  92 130 172 216 254 318 386
#     4  12  26  42  67  97 131 165 212 269 319 369
#     4  10  24  42  70  91 129 169 218 253 318 382
#
# _framework density 24.329336000000001
#
# number of rings (size 3 to 8) (size 9 to 14) (size 15 to 20)
#    1.200    0.000    0.000    4.800    5.600    6.400 
#    0.000    0.000    0.000    0.000    0.000    0.000 
#    0.000    0.000    0.000    0.000    0.000    0.000 
#
# Total GULP energy -112123.589740 kJ/mol
# GULP energy per Si atom -5606.179487 kJ/mol
# Density = 2.427396 g / cm^3
# Si number density = 24.329336 Si / 1000 Ang^3
#
#
#
# Elastic Constant Matrix: (Units=GPa)
#
#
# Indices 1 2 3 4 5 6 
#
# 1 71.7560 14.2651 10.0421 0.0000 4.3841 0.0000
# 2 14.2651 109.5395 26.8700 0.0000 18.1238 0.0000
# 3 10.0421 26.8700 97.6073 0.0000 12.6846 0.0000
# 4 0.0000 0.0000 0.0000 7.4686 0.0000 0.0820
# 5 4.3841 18.1238 12.6846 0.0000 41.3586 0.0000
# 6 0.0000 0.0000 0.0000 0.0820 0.0000 16.5302
#
#
#
# Elastic Compliance Matrix: (Units=1/GPa)
#
#
# Indices 1 2 3 4 5 6 
#
# 1 0.014415 -0.001544 -0.000987 0.000000 -0.000549 0.000000
# 2 -0.001544 0.010501 -0.002245 0.000000 -0.003750 0.000000
# 3 -0.000987 -0.002245 0.011272 0.000000 -0.002369 0.000000
# 4 0.000000 0.000000 0.000000 0.133901 0.000000 -0.000664
# 5 -0.000549 -0.003750 -0.002369 0.000000 0.026607 0.000000
# 6 0.000000 0.000000 0.000000 -0.000664 0.000000 0.060499
#
#
# Mechanical properties :
#
#
# Convention : Reuss Voigt Hill
#
# Bulk Modulus (GPa) = 37.54167 42.36193 39.95180
# Shear Modulus (GPa) = 18.14055 28.25318 23.19686
#
# Velocity S-wave (km/s) = 2.73357 3.41145 3.09115
# Velocity P-wave (km/s) = 5.04256 5.74169 5.40344
#
# Compressibility (1/GPa) = 0.02663706
#
# Stress axis : x y z
#
# Youngs Moduli (GPa) = 69.37348 95.22664 88.71202
#
# Poissons Ratio (x) = 0.14707 0.08752
# Poissons Ratio (y) = 0.10714 0.19913
# Poissons Ratio (z) = 0.06844 0.21375
#
# Static dielectric constant tensor:
#      x y z
#    x 1.906280 0.000000 -0.015840 
#    y 0.000000 1.972910 0.000000 
#    z -0.015840 0.000000 1.847960 
# 
# From -- ./inp_files/2729.got.cif
#   From: 2010.05.17/outbox.cif.g08.bks.cpg/sg14_2_cif.got.tgz:2729.got - 2010.06.03 17:49:19.
