data_PCOD9250418
_publ_section_title
;
Structure prediction by ZEFSAII (Michael W. Deem and Ramdas Pophale) SiO2 
 PCOD9250418
Probable space group: P 21/C
;
_chemical_formula_sum "Si O2"
_cell_formula_units_Z 20
_cell_length_a 12.228876
_cell_length_b 8.558019
_cell_length_c 19.853568
_cell_angle_alpha 90.000000
_cell_angle_beta 159.006501
_cell_angle_gamma 90.000000
_cell_volume 744.387592
_symmetry_space_group_name_H-M "P 21/C"
_symmetry_group_IT_number 14
_symmetry_cell_setting 'monoclinic'
loop_
_space_group_symop_operation_xyz
x,y,z
-x,1/2+y,1/2-z
-x,-y,-z
x,1/2-y,1/2+z
loop_
_atom_site_type_symbol
_atom_site_label
_atom_site_fract_x
_atom_site_fract_y
_atom_site_fract_z
Si Si1 0.465428 0.237177 0.459355
Si Si2 0.435318 0.449681 0.278432
Si Si3 0.854844 0.020946 0.250265
Si Si4 0.165909 0.740963 0.578710
Si Si5 0.528219 0.457574 0.131948
O O1 0.168641 0.347560 0.292957
O O2 0.741032 0.360108 0.628602
O O3 0.508804 0.134100 0.550426
O O4 0.442465 0.134304 0.378849
O O5 0.377401 0.511347 0.320587
O O6 0.741652 0.361824 0.432941
O O7 0.393583 0.609706 0.212883
O O8 0.158337 0.327356 0.106290
O O9 0.189905 0.058740 0.468462
O O10 0.236849 0.625827 0.682642
#
# Coordination Sequence:
#
# PCOD9250418 Si02
#       5
#     4   4   4   4   4
#     4  10  24  42  69 104 136 193 242 300 370 426
#     4  11  26  47  72 108 146 191 244 308 370 446
#     4  11  23  45  69 101 147 185 245 306 359 444
#     4  11  25  47  74 107 144 191 245 303 377 437
#     4  11  22  44  70 102 143 187 243 303 362 443
#
# _framework density 26.867723999999999
#
# number of rings (size 3 to 8) (size 9 to 14) (size 15 to 20)
#    0.000    1.200    2.000    3.600    5.600    0.800 
#    0.000    0.000    0.000    0.000    0.000    0.000 
#    0.000    0.000    0.000    0.000    0.000    0.000 
#
# Total GULP energy -111956.956200 kJ/mol
# GULP energy per Si atom -5597.847810 kJ/mol
# Density = 2.680657 g / cm^3
# Si number density = 26.867724 Si / 1000 Ang^3
#
#
#
# Elastic Constant Matrix: (Units=GPa)
#
#
# Indices 1 2 3 4 5 6 
#
# 1 84.6724 44.2229 9.6769 0.0000 -10.3743 0.0000
# 2 44.2229 158.0157 45.4373 0.0000 2.6062 0.0000
# 3 9.6769 45.4373 83.2718 0.0000 -4.4649 0.0000
# 4 0.0000 0.0000 0.0000 43.8563 0.0000 -20.4897
# 5 -10.3743 2.6062 -4.4649 0.0000 33.6222 0.0000
# 6 0.0000 0.0000 0.0000 -20.4897 0.0000 36.0439
#
#
#
# Elastic Compliance Matrix: (Units=1/GPa)
#
#
# Indices 1 2 3 4 5 6 
#
# 1 0.014642 -0.004469 0.001005 0.000000 0.004998 0.000000
# 2 -0.004469 0.008914 -0.004487 0.000000 -0.002666 0.000000
# 3 0.001005 -0.004487 0.014479 0.000000 0.002581 0.000000
# 4 0.000000 0.000000 0.000000 0.031048 0.000000 0.017649
# 5 0.004998 -0.002666 0.002581 0.000000 0.031834 0.000000
# 6 0.000000 0.000000 0.000000 0.017649 0.000000 0.037777
#
#
# Mechanical properties :
#
#
# Convention : Reuss Voigt Hill
#
# Bulk Modulus (GPa) = 45.18427 58.29267 51.73847
# Shear Modulus (GPa) = 30.86947 37.81269 34.34108
#
# Velocity S-wave (km/s) = 3.39328 3.75556 3.57901
# Velocity P-wave (km/s) = 5.67506 6.36780 6.03138
#
# Compressibility (1/GPa) = 0.02213159
#
# Stress axis : x y z
#
# Youngs Moduli (GPa) = 68.29739 112.18925 69.06598
#
# Poissons Ratio (x) = 0.50139 -0.06942
# Poissons Ratio (y) = 0.30523 0.30992
# Poissons Ratio (z) = -0.06864 0.50342
#
# Static dielectric constant tensor:
#      x y z
#    x 2.113440 0.000000 -0.010110 
#    y 0.000000 2.201600 0.000000 
#    z -0.010110 0.000000 2.084740 
# 
# From -- ./inp_files/73776.got.cif
#   From: 2010.05.17/outbox.cif.g08.bks.cpg/sg14_37_cif.got.tgz:73776.got - 2010.06.03 17:49:19.
