data_PCOD9250127
_publ_section_title
;
Structure prediction by ZEFSAII (Michael W. Deem and Ramdas Pophale) SiO2 
 PCOD9250127
Probable space group: P 21/C
;
_chemical_formula_sum "Si O2"
_cell_formula_units_Z 32
_cell_length_a 11.271981
_cell_length_b 15.086710
_cell_length_c 8.886680
_cell_angle_alpha 90.000000
_cell_angle_beta 87.914676
_cell_angle_gamma 90.000000
_cell_volume 1510.242280
_symmetry_space_group_name_H-M "P 21/C"
_symmetry_group_IT_number 14
_symmetry_cell_setting 'monoclinic'
loop_
_space_group_symop_operation_xyz
x,y,z
-x,1/2+y,1/2-z
-x,-y,-z
x,1/2-y,1/2+z
loop_
_atom_site_type_symbol
_atom_site_label
_atom_site_fract_x
_atom_site_fract_y
_atom_site_fract_z
Si Si1 0.680644 0.394331 0.261990
Si Si2 0.368662 0.036126 0.013901
Si Si3 0.079692 0.687588 0.678909
Si Si4 0.730304 0.679845 0.281732
Si Si5 0.592282 0.635356 0.774747
Si Si6 0.948182 0.525507 0.839124
Si Si7 0.992956 0.853166 0.849555
Si Si8 0.712573 0.950715 0.517644
O O1 0.703336 0.456729 0.407670
O O2 0.785780 0.324529 0.269026
O O3 0.546938 0.355507 0.263467
O O4 0.694708 0.463029 0.122175
O O5 0.362558 0.117171 0.128998
O O6 0.344601 0.074132 0.852619
O O7 0.500000 0.000000 0.000000
O O8 0.000376 0.618141 0.778081
O O9 0.040146 0.786205 0.720496
O O10 0.056493 0.665664 0.505177
O O11 0.669344 0.774994 0.274379
O O12 0.852841 0.670296 0.368109
O O13 0.753966 0.630856 0.122146
O O14 0.598874 0.586017 0.934367
O O15 0.984791 0.451698 0.714666
O O16 0.810361 0.531014 0.886460
O O17 0.000000 0.500000 0.000000
#
# Coordination Sequence:
#
# PCOD9250127 Si02
#       8
#     4   4   4   4   4   4   4   4
#     4  10  23  47  63  94 139 177 222 273 336 408
#     4   9  21  42  64  92 128 173 222 267 330 401
#     4  12  27  47  68 100 142 179 230 283 343 411
#     4  11  23  42  64 101 132 170 222 285 334 401
#     4  11  23  39  70  97 130 175 227 279 334 393
#     4  12  22  45  73 101 136 183 225 281 349 408
#     4  12  28  44  71 102 139 180 229 285 344 409
#     4  11  23  40  70  98 136 171 225 278 335 409
#
# _framework density 21.188652999999999
#
# number of rings (size 3 to 8) (size 9 to 14) (size 15 to 20)
#    0.000    1.000    2.500    3.750    7.000    0.000 
#    6.750    1.250    0.000    0.000    0.000    0.000 
#    0.000    0.000    0.000    0.000    0.000    0.000 
#
# Total GULP energy -178717.080577 kJ/mol
# GULP energy per Si atom -5584.908768 kJ/mol
# Density = 2.114043 g / cm^3
# Si number density = 21.188653 Si / 1000 Ang^3
#
#
#
# Elastic Constant Matrix: (Units=GPa)
#
#
# Indices 1 2 3 4 5 6 
#
# 1 107.8937 36.7210 23.8114 0.0000 -1.1728 0.0000
# 2 36.7210 57.8873 4.4233 0.0000 9.0422 0.0000
# 3 23.8114 4.4233 69.7859 0.0000 5.7961 0.0000
# 4 0.0000 0.0000 0.0000 26.3155 0.0000 -7.1491
# 5 -1.1728 9.0422 5.7961 0.0000 22.8504 0.0000
# 6 0.0000 0.0000 0.0000 -7.1491 0.0000 -29.3727
#
#
#
# Elastic Compliance Matrix: (Units=1/GPa)
#
#
# Indices 1 2 3 4 5 6 
#
# 1 0.013359 -0.008973 -0.004435 0.000000 0.005361 0.000000
# 2 -0.008973 0.024463 0.002404 0.000000 -0.010751 0.000000
# 3 -0.004435 0.002404 0.016128 0.000000 -0.005270 0.000000
# 4 0.000000 0.000000 0.000000 0.035644 0.000000 -0.008675
# 5 0.005361 -0.010751 -0.005270 0.000000 0.049629 0.000000
# 6 0.000000 0.000000 0.000000 -0.008675 0.000000 -0.031934
#
#
# Mechanical properties :
#
#
# Convention : Reuss Voigt Hill
#
# Bulk Modulus (GPa) = 31.30649 40.60870 35.95760
# Shear Modulus (GPa) = 35.72847 15.33272 25.53060
#
# Velocity S-wave (km/s) = 4.11080 2.69295 3.47496
# Velocity P-wave (km/s) = 6.11055 5.37366 5.75391
#
# Compressibility (1/GPa) = 0.03194226
#
# Stress axis : x y z
#
# Youngs Moduli (GPa) = 74.85381 40.87851 62.00373
#
# Poissons Ratio (x) = 0.36681 0.27498
# Poissons Ratio (y) = 0.67168 -0.14906
# Poissons Ratio (z) = 0.33197 -0.09828
#
# Static dielectric constant tensor:
#      x y z
#    x 1.808020 0.000000 0.016590 
#    y 0.000000 1.751790 0.000000 
#    z 0.016590 0.000000 1.784330 
# 
# From -- ./inp_files/13354.got.cif
#   From: 2010.05.17/outbox.cif.g08.bks.cpg/sg14_7_cif.got.tgz:13354.got - 2010.06.03 17:49:19.
