data_PCOD9250907
_publ_section_title
;
Structure prediction by ZEFSAII (Michael W. Deem and Ramdas Pophale) SiO2 
 PCOD9250907
Probable space group: P 21/C
;
_chemical_formula_sum "Si O2"
_cell_formula_units_Z 26
_cell_length_a 14.296820
_cell_length_b 11.873113
_cell_length_c 14.908973
_cell_angle_alpha 90.000000
_cell_angle_beta 29.354928
_cell_angle_gamma 90.000000
_cell_volume 1240.627091
_symmetry_space_group_name_H-M "P 21/C"
_symmetry_group_IT_number 14
_symmetry_cell_setting 'monoclinic'
loop_
_space_group_symop_operation_xyz
x,y,z
-x,1/2+y,1/2-z
-x,-y,-z
x,1/2-y,1/2+z
loop_
_atom_site_type_symbol
_atom_site_label
_atom_site_fract_x
_atom_site_fract_y
_atom_site_fract_z
Si Si1 0.643542 0.704794 0.278006
Si Si2 0.261474 0.321339 0.471406
Si Si3 0.654406 0.306989 0.248675
Si Si4 0.989647 0.501309 0.400823
Si Si5 0.500000 0.500000 0.500000
Si Si6 0.380054 0.612569 0.079798
Si Si7 0.960821 0.741021 0.167006
O O1 0.744900 0.724648 0.098662
O O2 0.547118 0.585400 0.375343
O O3 0.493778 0.806736 0.416918
O O4 0.795773 0.718505 0.231473
O O5 0.469971 0.319978 0.340315
O O6 0.117494 0.303786 0.674003
O O7 0.198694 0.436113 0.475369
O O8 0.631558 0.400961 0.344059
O O9 0.645958 0.187247 0.308199
O O10 0.846606 0.313366 0.031248
O O11 0.173875 0.573812 0.218093
O O12 0.006681 0.374511 0.353217
O O13 0.000000 0.500000 0.500000
O O14 0.500000 0.500000 0.000000
#
# Coordination Sequence:
#
# PCOD9250907 Si02
#       7
#     4   4   4   4   2   4   4
#     4  11  24  46  72 103 151 190 248 301 369 444
#     4  12  26  46  70 111 145 191 252 299 367 444
#     4  11  25  45  71 105 148 190 248 300 363 445
#     4  12  23  45  75 108 145 189 245 310 367 439
#     4  10  24  50  70 100 150 206 232 304 384 436
#     4  11  19  42  76 101 143 187 232 308 369 419
#     4  12  25  49  72 110 147 191 249 308 370 440
#
# _framework density 20.957142999999999
#
# number of rings (size 3 to 8) (size 9 to 14) (size 15 to 20)
#    0.000    0.615    7.692    0.000    2.154    3.077 
#    5.538    0.000    0.000    0.000    0.000    0.000 
#    0.000    0.000    0.000    0.000    0.000    0.000 
#
# Total GULP energy -144867.475543 kJ/mol
# GULP energy per Si atom -5571.825982 kJ/mol
# Density = 2.090944 g / cm^3
# Si number density = 20.957143 Si / 1000 Ang^3
#
#
#
# Elastic Constant Matrix: (Units=GPa)
#
#
# Indices 1 2 3 4 5 6 
#
# 1 54.9484 -5.4142 44.2214 0.0000 7.8079 0.0000
# 2 -5.4142 48.4959 13.8339 0.0000 -1.1111 0.0000
# 3 44.2214 13.8339 105.9212 0.0000 33.1518 0.0000
# 4 0.0000 0.0000 0.0000 15.0585 0.0000 2.5961
# 5 7.8079 -1.1111 33.1518 0.0000 29.1958 0.0000
# 6 0.0000 0.0000 0.0000 2.5961 0.0000 20.5808
#
#
#
# Elastic Compliance Matrix: (Units=1/GPa)
#
#
# Indices 1 2 3 4 5 6 
#
# 1 0.032421 0.009294 -0.018843 0.000000 0.013080 0.000000
# 2 0.009294 0.024830 -0.010302 0.000000 0.010158 0.000000
# 3 -0.018843 -0.010302 0.026681 0.000000 -0.025649 0.000000
# 4 0.000000 0.000000 0.000000 0.067884 0.000000 -0.008563
# 5 0.013080 0.010158 -0.025649 0.000000 0.060265 0.000000
# 6 0.000000 0.000000 0.000000 -0.008563 0.000000 0.049669
#
#
# Mechanical properties :
#
#
# Convention : Reuss Voigt Hill
#
# Bulk Modulus (GPa) = 22.60949 34.96084 28.78516
# Shear Modulus (GPa) = 15.81302 23.41530 19.61416
#
# Velocity S-wave (km/s) = 2.74987 3.34622 3.06260
# Velocity P-wave (km/s) = 4.57102 5.62564 5.12553
#
# Compressibility (1/GPa) = 0.04422921
#
# Stress axis : x y z
#
# Youngs Moduli (GPa) = 30.84452 40.27461 37.47942
#
# Poissons Ratio (x) = -0.37433 0.70623
# Poissons Ratio (y) = -0.28668 0.38613
# Poissons Ratio (z) = 0.58121 0.41493
#
# Static dielectric constant tensor:
#      x y z
#    x 2.019720 0.000000 -0.132820 
#    y 0.000000 1.747870 0.000000 
#    z -0.132820 0.000000 1.851300 
# 
# From -- ./inp_files/47102.got.cif
#   From: 2010.05.17/outbox.cif.g08.bks.cpg/sg14_24_cif.got.tgz:47102.got - 2010.06.03 17:49:19.
