data_PCOD9250777
_publ_section_title
;
Structure prediction by ZEFSAII (Michael W. Deem and Ramdas Pophale) SiO2 
 PCOD9250777
Probable space group: P 21/C
;
_chemical_formula_sum "Si O2"
_cell_formula_units_Z 26
_cell_length_a 14.752547
_cell_length_b 7.193196
_cell_length_c 22.187072
_cell_angle_alpha 90.000000
_cell_angle_beta 151.259419
_cell_angle_gamma 90.000000
_cell_volume 1132.123144
_symmetry_space_group_name_H-M "P 21/C"
_symmetry_group_IT_number 14
_symmetry_cell_setting 'monoclinic'
loop_
_space_group_symop_operation_xyz
x,y,z
-x,1/2+y,1/2-z
-x,-y,-z
x,1/2-y,1/2+z
loop_
_atom_site_type_symbol
_atom_site_label
_atom_site_fract_x
_atom_site_fract_y
_atom_site_fract_z
Si Si1 0.137699 0.769804 0.089554
Si Si2 0.194712 0.436243 0.726966
Si Si3 0.154917 0.019875 0.388024
Si Si4 0.860332 0.543840 0.620545
Si Si5 0.681399 0.219814 0.931902
Si Si6 0.740693 0.637367 0.820242
Si Si7 0.500000 0.500000 0.000000
O O1 0.202454 0.830168 0.060542
O O2 0.256003 0.584623 0.174735
O O3 0.170955 0.934522 0.155072
O O4 0.918485 0.706858 0.963392
O O5 0.210162 0.221924 0.716463
O O6 0.022727 0.470554 0.671027
O O7 0.386818 0.491734 0.870762
O O8 0.174184 0.239561 0.408295
O O9 0.220291 0.905208 0.484369
O O10 0.299437 0.963842 0.419528
O O11 0.945010 0.984887 0.237277
O O12 0.689466 0.422715 0.493905
O O13 0.463181 0.224120 0.784469
#
# Coordination Sequence:
#
# PCOD9250777 Si02
#       7
#     4   4   4   4   4   4   2
#     4  11  28  46  70 105 147 192 244 301 365 433
#     4  11  24  48  70 100 147 185 233 304 366 431
#     4  11  24  46  68 105 145 187 239 303 365 431
#     4  11  25  43  73 102 143 191 236 298 370 428
#     4  12  26  44  74 107 141 194 252 297 363 451
#     4  11  26  45  67 104 142 189 243 297 359 430
#     4  10  24  46  72 102 144 182 234 300 356 442
#
# _framework density 22.965698
#
# number of rings (size 3 to 8) (size 9 to 14) (size 15 to 20)
#    0.000    0.923    4.615    0.462    8.615    0.000 
#    0.000    1.538    0.000    0.000    0.000    0.000 
#    0.000    0.000    0.000    0.000    0.000    0.000 
#
# Total GULP energy -144757.620185 kJ/mol
# GULP energy per Si atom -5567.600776 kJ/mol
# Density = 2.291343 g / cm^3
# Si number density = 22.965698 Si / 1000 Ang^3
#
#
#
# Elastic Constant Matrix: (Units=GPa)
#
#
# Indices 1 2 3 4 5 6 
#
# 1 43.0798 -12.5704 26.3291 0.0000 -6.4910 0.0000
# 2 -12.5704 106.8548 23.4325 0.0000 -13.4421 0.0000
# 3 26.3291 23.4325 117.9776 0.0000 4.8200 0.0000
# 4 0.0000 0.0000 0.0000 -35.1435 0.0000 68.4534
# 5 -6.4910 -13.4421 4.8200 0.0000 26.0280 0.0000
# 6 0.0000 0.0000 0.0000 68.4534 0.0000 -75.7483
#
#
#
# Elastic Compliance Matrix: (Units=1/GPa)
#
#
# Indices 1 2 3 4 5 6 
#
# 1 0.033512 0.007835 -0.009615 0.000000 0.014185 0.000000
# 2 0.007835 0.012451 -0.004599 0.000000 0.009236 0.000000
# 3 -0.009615 -0.004599 0.011820 0.000000 -0.006962 0.000000
# 4 0.000000 0.000000 0.000000 0.037429 0.000000 0.033824
# 5 0.014185 0.009236 -0.006962 0.000000 0.048016 0.000000
# 6 0.000000 0.000000 0.000000 0.033824 0.000000 0.017365
#
#
# Mechanical properties :
#
#
# Convention : Reuss Voigt Hill
#
# Bulk Modulus (GPa) = 22.20932 38.03272 30.12102
# Shear Modulus (GPa) = 26.54519 -1.59136 12.47691
#
# Velocity S-wave (km/s) = 3.40349 -0.83333 2.33338
# Velocity P-wave (km/s) = 5.01364 3.95862 4.51704
#
# Compressibility (1/GPa) = 0.04502614
#
# Stress axis : x y z
#
# Youngs Moduli (GPa) = 29.83964 80.31779 84.60435
#
# Poissons Ratio (x) = -0.62931 0.81345
# Poissons Ratio (y) = -0.23380 0.38908
# Poissons Ratio (z) = 0.28690 0.36937
#
# Static dielectric constant tensor:
#      x y z
#    x 1.823030 0.000000 0.010580 
#    y 0.000000 1.883920 0.000000 
#    z 0.010580 0.000000 1.928570 
# 
# From -- ./inp_files/68249.got.cif
#   From: 2010.05.17/outbox.cif.g08.bks.cpg/sg14_35_cif.got.tgz:68249.got - 2010.06.03 17:49:19.
