data_PCOD9250405
_publ_section_title
;
Structure prediction by ZEFSAII (Michael W. Deem and Ramdas Pophale) SiO2 
 PCOD9250405
Probable space group: P 21/C
;
_chemical_formula_sum "Si O2"
_cell_formula_units_Z 18
_cell_length_a 18.933793
_cell_length_b 4.766418
_cell_length_c 11.369238
_cell_angle_alpha 90.000000
_cell_angle_beta 41.893950
_cell_angle_gamma 90.000000
_cell_volume 685.137249
_symmetry_space_group_name_H-M "P 21/C"
_symmetry_group_IT_number 14
_symmetry_cell_setting 'monoclinic'
loop_
_space_group_symop_operation_xyz
x,y,z
-x,1/2+y,1/2-z
-x,-y,-z
x,1/2-y,1/2+z
loop_
_atom_site_type_symbol
_atom_site_label
_atom_site_fract_x
_atom_site_fract_y
_atom_site_fract_z
Si Si1 0.942806 0.417652 0.867102
Si Si2 0.568376 0.509241 0.197428
Si Si3 0.244820 0.298845 0.198873
Si Si4 0.000000 0.500000 0.500000
Si Si5 0.717477 0.295735 0.197383
O O1 0.988432 0.734467 0.812842
O O2 0.820170 0.381644 0.992258
O O3 0.958208 0.259247 0.969281
O O4 0.512976 0.263777 0.191664
O O5 0.610544 0.379010 0.265976
O O6 0.670448 0.623471 0.003286
O O7 0.124704 0.384803 0.322884
O O8 0.276282 0.470988 0.278051
O O9 0.261835 0.974993 0.210526
#
# Coordination Sequence:
#
# PCOD9250405 Si02
#       5
#     4   4   4   2   4
#     4  11  23  40  66  98 137 175 215 268 325 397
#     4  12  27  45  69  97 130 177 226 274 329 389
#     4  11  25  44  69  99 136 172 218 274 327 397
#     4  10  24  42  68 102 134 174 216 264 334 394
#     4  11  25  44  66  99 132 173 223 273 332 385
#
# _framework density 26.272109
#
# number of rings (size 3 to 8) (size 9 to 14) (size 15 to 20)
#    0.000    0.889    0.000    6.667    0.000   16.889 
#    0.000    0.000    0.000    0.000    0.000    0.000 
#    0.000    0.000    0.000    0.000    0.000    0.000 
#
# Total GULP energy -100524.494093 kJ/mol
# GULP energy per Si atom -5584.694116 kJ/mol
# Density = 2.621231 g / cm^3
# Si number density = 26.272109 Si / 1000 Ang^3
#
#
#
# Elastic Constant Matrix: (Units=GPa)
#
#
# Indices 1 2 3 4 5 6 
#
# 1 74.2354 1.4908 25.1047 0.0000 -31.1192 0.0000
# 2 1.4908 101.1119 6.9027 0.0000 -9.6651 0.0000
# 3 25.1047 6.9027 94.7320 0.0000 -6.9254 0.0000
# 4 0.0000 0.0000 0.0000 53.7499 0.0000 -2.8709
# 5 -31.1192 -9.6651 -6.9254 0.0000 30.8253 0.0000
# 6 0.0000 0.0000 0.0000 -2.8709 0.0000 25.7733
#
#
#
# Elastic Compliance Matrix: (Units=1/GPa)
#
#
# Indices 1 2 3 4 5 6 
#
# 1 0.026017 0.002443 -0.005182 0.000000 0.025867 0.000000
# 2 0.002443 0.010450 -0.001005 0.000000 0.005517 0.000000
# 3 -0.005182 -0.001005 0.011791 0.000000 -0.002897 0.000000
# 4 0.000000 0.000000 0.000000 0.018716 0.000000 0.002085
# 5 0.025867 0.005517 -0.002897 0.000000 0.059634 0.000000
# 6 0.000000 0.000000 0.000000 0.002085 0.000000 0.039032
#
#
# Mechanical properties :
#
#
# Convention : Reuss Voigt Hill
#
# Bulk Modulus (GPa) = 24.52839 37.45287 30.99063
# Shear Modulus (GPa) = 26.77826 37.84176 32.31001
#
# Velocity S-wave (km/s) = 3.19606 3.79935 3.51069
# Velocity P-wave (km/s) = 4.79336 5.79081 5.31553
#
# Compressibility (1/GPa) = 0.04076908
#
# Stress axis : x y z
#
# Youngs Moduli (GPa) = 38.43577 95.69389 84.81219
#
# Poissons Ratio (x) = -0.23376 0.43948
# Poissons Ratio (y) = -0.09389 0.08528
# Poissons Ratio (z) = 0.19917 0.09622
#
# Static dielectric constant tensor:
#      x y z
#    x 1.959220 0.000000 0.029660 
#    y 0.000000 2.164490 0.000000 
#    z 0.029660 0.000000 2.030280 
# 
# From -- ./inp_files/49541.got.cif
#   From: 2010.05.17/outbox.cif.g08.bks.cpg/sg14_25_cif.got.tgz:49541.got - 2010.06.03 17:49:19.
