data_PCOD9250620
_publ_section_title
;
Structure prediction by ZEFSAII (Michael W. Deem and Ramdas Pophale) SiO2 
 PCOD9250620
Probable space group: P 21/C
;
_chemical_formula_sum "Si O2"
_cell_formula_units_Z 28
_cell_length_a 8.871844
_cell_length_b 24.905464
_cell_length_c 8.860717
_cell_angle_alpha 90.000000
_cell_angle_beta 136.906450
_cell_angle_gamma 90.000000
_cell_volume 1337.580412
_symmetry_space_group_name_H-M "P 21/C"
_symmetry_group_IT_number 14
_symmetry_cell_setting 'monoclinic'
loop_
_space_group_symop_operation_xyz
x,y,z
-x,1/2+y,1/2-z
-x,-y,-z
x,1/2-y,1/2+z
loop_
_atom_site_type_symbol
_atom_site_label
_atom_site_fract_x
_atom_site_fract_y
_atom_site_fract_z
Si Si1 0.830900 0.459053 0.452921
Si Si2 0.375427 0.010832 0.750275
Si Si3 0.187974 0.650357 0.736023
Si Si4 0.952559 0.424323 0.886452
Si Si5 0.141784 0.264287 0.607480
Si Si6 0.222962 0.818565 0.598795
Si Si7 0.454031 0.225826 0.600535
O O1 0.580642 0.481964 0.286810
O O2 0.833661 0.408239 0.344818
O O3 0.909299 0.441490 0.680075
O O4 0.000000 0.500000 0.500000
O O5 0.206578 0.061486 0.615197
O O6 0.204002 0.961111 0.619543
O O7 0.500000 0.000000 0.000000
O O8 0.360618 0.681246 0.754955
O O9 0.967897 0.685986 0.557766
O O10 0.259914 0.654981 0.962561
O O11 0.872952 0.363781 0.859966
O O12 0.270948 0.224636 0.592824
O O13 0.956885 0.228735 0.553270
O O14 0.324939 0.284448 0.853998
O O15 0.432175 0.784887 0.813052
#
# Coordination Sequence:
#
# PCOD9250620 Si02
#       7
#     4   4   4   4   4   4   4
#     4  11  27  45  67  99 137 175 228 287 337 397
#     4   9  22  45  66  92 128 177 226 275 329 394
#     4  11  26  42  64 102 135 171 224 273 332 403
#     4  10  24  44  70  96 129 181 227 275 337 404
#     4  11  24  43  66  96 138 177 215 269 336 400
#     4  11  25  41  68 101 133 174 226 270 330 408
#     4  11  24  44  66  97 134 178 219 270 330 400
#
# _framework density 20.933319000000001
#
# number of rings (size 3 to 8) (size 9 to 14) (size 15 to 20)
#    0.000    1.429    2.857    0.000   12.000    2.857 
#    0.000    0.000    0.000    0.000    0.000    0.000 
#    0.000    0.000    0.000    0.000    0.000    0.000 
#
# Total GULP energy -156197.762400 kJ/mol
# GULP energy per Si atom -5578.491514 kJ/mol
# Density = 2.088567 g / cm^3
# Si number density = 20.933319 Si / 1000 Ang^3
#
#
#
# Elastic Constant Matrix: (Units=GPa)
#
#
# Indices 1 2 3 4 5 6 
#
# 1 117.3849 48.8422 32.6875 0.0000 13.3959 0.0000
# 2 48.8422 106.3194 18.6140 0.0000 -0.8475 0.0000
# 3 32.6875 18.6140 83.0336 0.0000 10.1518 0.0000
# 4 0.0000 0.0000 0.0000 19.0504 0.0000 -4.6016
# 5 13.3959 -0.8475 10.1518 0.0000 30.4122 0.0000
# 6 0.0000 0.0000 0.0000 -4.6016 0.0000 33.2550
#
#
#
# Elastic Compliance Matrix: (Units=1/GPa)
#
#
# Indices 1 2 3 4 5 6 
#
# 1 0.011943 -0.004988 -0.003048 0.000000 -0.004382 0.000000
# 2 -0.004988 0.011905 -0.001058 0.000000 0.002882 0.000000
# 3 -0.003048 -0.001058 0.013886 0.000000 -0.003322 0.000000
# 4 0.000000 0.000000 0.000000 0.054308 0.000000 0.007515
# 5 -0.004382 0.002882 -0.003322 0.000000 0.036001 0.000000
# 6 0.000000 0.000000 0.000000 0.007515 0.000000 0.031111
#
#
# Mechanical properties :
#
#
# Convention : Reuss Voigt Hill
#
# Bulk Modulus (GPa) = 51.15528 56.33615 53.74571
# Shear Modulus (GPa) = 27.19510 30.31645 28.75577
#
# Velocity S-wave (km/s) = 3.60825 3.80970 3.71035
# Velocity P-wave (km/s) = 6.46913 6.80606 6.63973
#
# Compressibility (1/GPa) = 0.01954832
#
# Stress axis : x y z
#
# Youngs Moduli (GPa) = 83.72974 83.99701 72.01308
#
# Poissons Ratio (x) = 0.41897 0.21947
# Poissons Ratio (y) = 0.41764 0.07616
# Poissons Ratio (z) = 0.25518 0.08883
#
# Static dielectric constant tensor:
#      x y z
#    x 1.730490 0.000000 0.022270 
#    y 0.000000 1.734030 0.000000 
#    z 0.022270 0.000000 1.740870 
# 
# From -- ./inp_files/11109.got.cif
#   From: 2010.05.17/outbox.cif.g08.bks.cpg/sg14_6_cif.got.tgz:11109.got - 2010.06.03 17:49:19.
