data_PCOD9250611
_publ_section_title
;
Structure prediction by ZEFSAII (Michael W. Deem and Ramdas Pophale) SiO2 
 PCOD9250611
Probable space group: P 21/C
;
_chemical_formula_sum "Si O2"
_cell_formula_units_Z 26
_cell_length_a 11.003104
_cell_length_b 13.079232
_cell_length_c 8.528245
_cell_angle_alpha 90.000000
_cell_angle_beta 127.745479
_cell_angle_gamma 90.000000
_cell_volume 970.486890
_symmetry_space_group_name_H-M "P 21/C"
_symmetry_group_IT_number 14
_symmetry_cell_setting 'monoclinic'
loop_
_space_group_symop_operation_xyz
x,y,z
-x,1/2+y,1/2-z
-x,-y,-z
x,1/2-y,1/2+z
loop_
_atom_site_type_symbol
_atom_site_label
_atom_site_fract_x
_atom_site_fract_y
_atom_site_fract_z
Si Si1 0.000000 0.500000 0.500000
Si Si2 0.567588 0.921169 0.775984
Si Si3 0.370220 0.086835 0.515802
Si Si4 0.856231 0.934678 0.217022
Si Si5 0.933443 0.703814 0.261476
Si Si6 0.809273 0.149477 0.274600
Si Si7 0.386705 0.723083 0.653227
O O1 0.960611 0.529388 0.652966
O O2 0.983638 0.622080 0.432957
O O3 0.654276 0.951879 0.682300
O O4 0.513104 0.806355 0.709256
O O5 0.415308 0.990860 0.658978
O O6 0.683312 0.927680 0.009559
O O7 0.225958 0.157356 0.434495
O O8 0.527192 0.151124 0.655806
O O9 0.903569 0.819475 0.296348
O O10 0.851180 0.030814 0.331237
O O11 0.056194 0.700352 0.219664
O O12 0.751863 0.215231 0.375520
O O13 0.667861 0.158325 0.038009
#
# Coordination Sequence:
#
# PCOD9250611 Si02
#       7
#     2   4   4   4   4   4   4
#     4  10  24  44  70 102 150 184 242 308 370 442
#     4  11  23  40  73 102 141 186 252 298 369 442
#     4  11  23  43  71 106 140 194 245 299 374 447
#     4  11  23  44  69 104 137 197 241 313 364 447
#     4  11  25  44  76 100 145 198 247 297 376 446
#     4  11  28  45  70 107 148 190 245 310 376 444
#     4  12  24  47  69 105 147 192 241 312 373 438
#
# _framework density 26.790675
#
# number of rings (size 3 to 8) (size 9 to 14) (size 15 to 20)
#    0.000    0.923    6.154    0.000    4.308    3.077 
#    5.538    1.538    0.000    0.000    0.000    0.000 
#    0.000    0.000    0.000    0.000    0.000    0.000 
#
# Total GULP energy -145161.173969 kJ/mol
# GULP energy per Si atom -5583.122076 kJ/mol
# Density = 2.672970 g / cm^3
# Si number density = 26.790675 Si / 1000 Ang^3
#
#
#
# Elastic Constant Matrix: (Units=GPa)
#
#
# Indices 1 2 3 4 5 6 
#
# 1 51.6060 -8.5819 -11.9149 0.0000 -4.6798 0.0000
# 2 -8.5819 198.4788 26.5027 0.0000 -1.1725 0.0000
# 3 -11.9149 26.5027 74.6362 0.0000 -4.7654 0.0000
# 4 0.0000 0.0000 0.0000 49.5309 0.0000 3.5704
# 5 -4.6798 -1.1725 -4.7654 0.0000 24.2752 0.0000
# 6 0.0000 0.0000 0.0000 3.5704 0.0000 34.2219
#
#
#
# Elastic Compliance Matrix: (Units=1/GPa)
#
#
# Indices 1 2 3 4 5 6 
#
# 1 0.020672 0.000463 0.003435 0.000000 0.004682 0.000000
# 2 0.000463 0.005300 -0.001809 0.000000 -0.000010 0.000000
# 3 0.003435 -0.001809 0.014811 0.000000 0.003482 0.000000
# 4 0.000000 0.000000 0.000000 0.020342 0.000000 -0.002122
# 5 0.004682 -0.000010 0.003482 0.000000 0.042780 0.000000
# 6 0.000000 0.000000 0.000000 -0.002122 0.000000 0.029442
#
#
# Mechanical properties :
#
#
# Convention : Reuss Voigt Hill
#
# Bulk Modulus (GPa) = 22.24155 37.41474 29.82815
# Shear Modulus (GPa) = 34.68436 42.85328 38.76882
#
# Velocity S-wave (km/s) = 3.60202 4.00379 3.80821
# Velocity P-wave (km/s) = 5.06156 5.94724 5.52218
#
# Compressibility (1/GPa) = 0.04496089
#
# Stress axis : x y z
#
# Youngs Moduli (GPa) = 48.37433 188.68694 67.51645
#
# Poissons Ratio (x) = -0.08734 -0.23190
# Poissons Ratio (y) = -0.02239 0.12211
# Poissons Ratio (z) = -0.16615 0.34127
#
# Static dielectric constant tensor:
#      x y z
#    x 2.079170 0.000000 0.066610 
#    y 0.000000 2.064310 0.000000 
#    z 0.066610 0.000000 2.127490 
# 
# From -- ./inp_files/29210.got.cif
#   From: 2010.05.17/outbox.cif.g08.bks.cpg/sg14_15_cif.got.tgz:29210.got - 2010.06.03 17:49:19.
