data_PCOD9250816
_publ_section_title
;
Structure prediction by ZEFSAII (Michael W. Deem and Ramdas Pophale) SiO2 
 PCOD9250816
Probable space group: P 21/C
;
_chemical_formula_sum "Si O2"
_cell_formula_units_Z 20
_cell_length_a 7.079912
_cell_length_b 6.991870
_cell_length_c 15.210411
_cell_angle_alpha 90.000000
_cell_angle_beta 69.263489
_cell_angle_gamma 90.000000
_cell_volume 704.166381
_symmetry_space_group_name_H-M "P 21/C"
_symmetry_group_IT_number 14
_symmetry_cell_setting 'monoclinic'
loop_
_space_group_symop_operation_xyz
x,y,z
-x,1/2+y,1/2-z
-x,-y,-z
x,1/2-y,1/2+z
loop_
_atom_site_type_symbol
_atom_site_label
_atom_site_fract_x
_atom_site_fract_y
_atom_site_fract_z
Si Si1 0.414793 0.173901 0.906696
Si Si2 0.666639 0.876082 0.758573
Si Si3 0.030614 0.253644 0.571314
Si Si4 0.224673 0.841244 0.546022
Si Si5 0.022932 0.423846 0.280676
O O1 0.399912 0.326781 0.829078
O O2 0.559711 0.266539 0.956604
O O3 0.508423 0.982073 0.847831
O O4 0.197107 0.132810 0.984631
O O5 0.760894 0.671942 0.773898
O O6 0.080039 0.724655 0.635699
O O7 0.853710 0.024357 0.736403
O O8 0.841144 0.202285 0.542183
O O9 0.966163 0.383092 0.663762
O O10 0.161540 0.061683 0.566106
#
# Coordination Sequence:
#
# PCOD9250816 Si02
#       5
#     4   4   4   4   4
#     4  11  26  52  77 121 158 208 268 332 396 480
#     4  11  28  48  80 116 167 208 267 327 408 472
#     4  11  24  50  82 112 160 207 272 325 400 471
#     4  10  24  46  79 118 148 208 262 338 389 472
#     4  11  26  49  78 116 157 218 256 328 399 481
#
# _framework density 28.402379
#
# number of rings (size 3 to 8) (size 9 to 14) (size 15 to 20)
#    0.000    1.200    2.000    1.200    5.600    4.800 
#    3.600    0.000    0.000    0.000    0.000    0.000 
#    0.000    0.000    0.000    0.000    0.000    0.000 
#
# Total GULP energy -112137.428560 kJ/mol
# GULP energy per Si atom -5606.871428 kJ/mol
# Density = 2.833773 g / cm^3
# Si number density = 28.402379 Si / 1000 Ang^3
#
#
#
# Elastic Constant Matrix: (Units=GPa)
#
#
# Indices 1 2 3 4 5 6 
#
# 1 185.0043 69.3130 71.6877 0.0000 33.7174 0.0000
# 2 69.3130 195.0334 66.4529 0.0000 -21.5891 0.0000
# 3 71.6877 66.4529 103.3608 0.0000 20.7741 0.0000
# 4 0.0000 0.0000 0.0000 67.7757 0.0000 -7.3892
# 5 33.7174 -21.5891 20.7741 0.0000 41.2772 0.0000
# 6 0.0000 0.0000 0.0000 -7.3892 0.0000 58.6790
#
#
#
# Elastic Compliance Matrix: (Units=1/GPa)
#
#
# Indices 1 2 3 4 5 6 
#
# 1 0.009019 -0.003128 -0.002709 0.000000 -0.007640 0.000000
# 2 -0.003128 0.009460 -0.006031 0.000000 0.010539 0.000000
# 3 -0.002709 -0.006031 0.017378 0.000000 -0.009688 0.000000
# 4 0.000000 0.000000 0.000000 0.014960 0.000000 0.001884
# 5 -0.007640 0.010539 -0.009688 0.000000 0.040855 0.000000
# 6 0.000000 0.000000 0.000000 0.001884 0.000000 0.017279
#
#
# Mechanical properties :
#
#
# Convention : Reuss Voigt Hill
#
# Bulk Modulus (GPa) = 82.49280 99.81175 91.15227
# Shear Modulus (GPa) = 36.56887 51.94271 44.25579
#
# Velocity S-wave (km/s) = 3.59211 4.28110 3.95165
# Velocity P-wave (km/s) = 6.80527 7.72370 7.27898
#
# Compressibility (1/GPa) = 0.01212227
#
# Stress axis : x y z
#
# Youngs Moduli (GPa) = 110.87248 105.70290 57.54409
#
# Poissons Ratio (x) = 0.33066 0.15587
# Poissons Ratio (y) = 0.34683 0.34704
# Poissons Ratio (z) = 0.30033 0.63748
#
# Static dielectric constant tensor:
#      x y z
#    x 2.206370 0.000000 0.022250 
#    y 0.000000 2.267810 0.000000 
#    z 0.022250 0.000000 2.322220 
# 
# From -- ./inp_files/62887.got.cif
#   From: 2010.05.17/outbox.cif.g08.bks.cpg/sg14_32_cif.got.tgz:62887.got - 2010.06.03 17:49:19.
