data_PCOD9250947
_publ_section_title
;
Structure prediction by ZEFSAII (Michael W. Deem and Ramdas Pophale) SiO2 
 PCOD9250947
Probable space group: P 21/C
;
_chemical_formula_sum "Si O2"
_cell_formula_units_Z 28
_cell_length_a 9.555912
_cell_length_b 9.011130
_cell_length_c 21.138784
_cell_angle_alpha 90.000000
_cell_angle_beta 126.905892
_cell_angle_gamma 90.000000
_cell_volume 1455.514803
_symmetry_space_group_name_H-M "P 21/C"
_symmetry_group_IT_number 14
_symmetry_cell_setting 'monoclinic'
loop_
_space_group_symop_operation_xyz
x,y,z
-x,1/2+y,1/2-z
-x,-y,-z
x,1/2-y,1/2+z
loop_
_atom_site_type_symbol
_atom_site_label
_atom_site_fract_x
_atom_site_fract_y
_atom_site_fract_z
Si Si1 0.124077 0.867606 0.014858
Si Si2 0.345496 0.216566 0.306548
Si Si3 0.506988 0.490251 0.426999
Si Si4 0.904951 0.485278 0.199845
Si Si5 0.080030 0.354374 0.131163
Si Si6 0.761593 0.177195 0.210631
Si Si7 0.286078 0.868109 0.652802
O O1 0.026079 0.764828 0.937515
O O2 0.180188 0.759122 0.087210
O O3 0.295658 0.950766 0.036616
O O4 0.000000 0.000000 0.000000
O O5 0.404283 0.355310 0.365076
O O6 0.243073 0.103396 0.323632
O O7 0.214378 0.274841 0.216282
O O8 0.516570 0.142531 0.320601
O O9 0.500000 0.500000 0.500000
O O10 0.416473 0.637703 0.374212
O O11 0.847056 0.335204 0.218753
O O12 0.940974 0.444776 0.136562
O O13 0.089704 0.558499 0.270064
O O14 0.192153 0.471955 0.120533
O O15 0.721355 0.161399 0.274047
#
# Coordination Sequence:
#
# PCOD9250947 Si02
#       7
#     4   4   4   4   4   4   4
#     4  11  27  42  67  99 133 175 219 278 330 394
#     4  11  24  41  68 100 129 176 226 273 329 401
#     4  11  24  44  64  99 135 169 221 280 328 388
#     4  11  22  39  69  94 129 175 224 265 330 394
#     4  11  23  44  65  93 140 170 224 270 334 393
#     4  11  22  40  65  97 131 178 216 277 328 396
#     4  10  25  42  66  96 137 170 223 270 336 389
#
# _framework density 19.237179999999999
#
# number of rings (size 3 to 8) (size 9 to 14) (size 15 to 20)
#    0.000    1.143    4.286    1.286    6.000    2.286 
#    0.000    6.429    0.000    0.000    0.000    0.000 
#    0.000    0.000    0.000    0.000    0.000    0.000 
#
# Total GULP energy -156339.049088 kJ/mol
# GULP energy per Si atom -5583.537467 kJ/mol
# Density = 1.919340 g / cm^3
# Si number density = 19.237180 Si / 1000 Ang^3
#
#
#
# Elastic Constant Matrix: (Units=GPa)
#
#
# Indices 1 2 3 4 5 6 
#
# 1 139.0871 65.7835 57.9588 0.0000 21.4055 0.0000
# 2 65.7835 76.8183 26.6665 0.0000 20.8061 0.0000
# 3 57.9588 26.6665 116.1822 0.0000 8.7291 0.0000
# 4 0.0000 0.0000 0.0000 17.0581 0.0000 -10.0985
# 5 21.4055 20.8061 8.7291 0.0000 22.1385 0.0000
# 6 0.0000 0.0000 0.0000 -10.0985 0.0000 41.3822
#
#
#
# Elastic Compliance Matrix: (Units=1/GPa)
#
#
# Indices 1 2 3 4 5 6 
#
# 1 0.014157 -0.009803 -0.004613 0.000000 -0.002657 0.000000
# 2 -0.009803 0.025224 0.000175 0.000000 -0.014297 0.000000
# 3 -0.004613 0.000175 0.010867 0.000000 0.000011 0.000000
# 4 0.000000 0.000000 0.000000 0.068523 0.000000 0.016722
# 5 -0.002657 -0.014297 0.000011 0.000000 0.061171 0.000000
# 6 0.000000 0.000000 0.000000 0.016722 0.000000 0.028246
#
#
# Mechanical properties :
#
#
# Convention : Reuss Voigt Hill
#
# Bulk Modulus (GPa) = 45.94114 70.32280 58.13197
# Shear Modulus (GPa) = 20.49814 28.22767 24.36291
#
# Velocity S-wave (km/s) = 3.26781 3.83476 3.56258
# Velocity P-wave (km/s) = 6.17830 7.49948 6.87072
#
# Compressibility (1/GPa) = 0.02176698
#
# Stress axis : x y z
#
# Youngs Moduli (GPa) = 70.63554 39.64531 92.01801
#
# Poissons Ratio (x) = 0.38863 0.42447
# Poissons Ratio (y) = 0.69241 -0.01609
# Poissons Ratio (z) = 0.32584 -0.00693
#
# Static dielectric constant tensor:
#      x y z
#    x 1.578880 0.000000 0.027490 
#    y 0.000000 1.666920 0.000000 
#    z 0.027490 0.000000 1.668120 
# 
# From -- ./inp_files/65025.got.cif
#   From: 2010.05.17/outbox.cif.g08.bks.cpg/sg14_33_cif.got.tgz:65025.got - 2010.06.03 17:49:19.
