data_PCOD9250508
_publ_section_title
;
Structure prediction by ZEFSAII (Michael W. Deem and Ramdas Pophale) SiO2 
 PCOD9250508
Probable space group: P 21/C
;
_chemical_formula_sum "Si O2"
_cell_formula_units_Z 32
_cell_length_a 11.523599
_cell_length_b 13.544099
_cell_length_c 18.633285
_cell_angle_alpha 90.000000
_cell_angle_beta 34.190999
_cell_angle_gamma 90.000000
_cell_volume 1634.285836
_symmetry_space_group_name_H-M "P 21/C"
_symmetry_group_IT_number 14
_symmetry_cell_setting 'monoclinic'
loop_
_space_group_symop_operation_xyz
x,y,z
-x,1/2+y,1/2-z
-x,-y,-z
x,1/2-y,1/2+z
loop_
_atom_site_type_symbol
_atom_site_label
_atom_site_fract_x
_atom_site_fract_y
_atom_site_fract_z
Si Si1 0.771161 0.987266 0.147345
Si Si2 0.499163 0.325908 0.279943
Si Si3 0.026442 0.075077 0.693075
Si Si4 0.527984 0.360347 0.674346
Si Si5 0.586277 0.108202 0.978652
Si Si6 0.415772 0.278020 0.972751
Si Si7 0.689274 0.040163 0.353614
Si Si8 0.167615 0.503530 0.853350
O O1 0.688005 0.885231 0.158979
O O2 0.638299 0.071262 0.176301
O O3 0.727075 0.994780 0.255008
O O4 0.000000 0.000000 0.000000
O O5 0.564004 0.248846 0.185445
O O6 0.427080 0.268397 0.387818
O O7 0.672100 0.406110 0.214495
O O8 0.210435 0.154894 0.587605
O O9 0.816631 0.121474 0.830612
O O10 0.954548 0.024122 0.656817
O O11 0.111220 0.990576 0.703090
O O12 0.602496 0.379837 0.555670
O O13 0.294029 0.401256 0.790406
O O14 0.438326 0.190651 0.019114
O O15 0.500000 0.000000 0.000000
O O16 0.617666 0.347770 0.878315
O O17 0.500000 0.000000 0.500000
O O18 0.000000 0.500000 0.000000
#
# Coordination Sequence:
#
# PCOD9250508 Si02
#       8
#     4   4   4   4   4   4   4   4
#     4  11  24  44  69  99 136 178 224 283 346 408
#     4  11  24  44  70  97 138 173 229 289 339 410
#     4  11  24  44  71  98 137 184 224 282 350 416
#     4  11  24  43  69  97 138 176 223 289 337 410
#     4  12  24  46  65 101 142 176 227 281 351 412
#     4  11  24  45  71 101 136 179 232 285 346 415
#     4  10  24  43  69 101 137 179 230 282 340 415
#     4  11  24  44  68  99 134 182 228 278 349 412
#
# _framework density 19.580417000000001
#
# number of rings (size 3 to 8) (size 9 to 14) (size 15 to 20)
#    0.000    1.000    3.750    2.250    8.750    4.000 
#    2.250    0.000    0.000    0.000    0.000    0.000 
#    0.000    0.000    0.000    0.000    0.000    0.000 
#
# Total GULP energy -178613.854830 kJ/mol
# GULP energy per Si atom -5581.682963 kJ/mol
# Density = 1.953585 g / cm^3
# Si number density = 19.580417 Si / 1000 Ang^3
#
#
#
# Elastic Constant Matrix: (Units=GPa)
#
#
# Indices 1 2 3 4 5 6 
#
# 1 156.6930 42.7695 44.9722 0.0000 21.0095 0.0000
# 2 42.7695 82.6180 -1.5302 0.0000 0.7678 0.0000
# 3 44.9722 -1.5302 90.8371 0.0000 14.5458 0.0000
# 4 0.0000 0.0000 0.0000 23.9753 0.0000 4.3057
# 5 21.0095 0.7678 14.5458 0.0000 42.9948 0.0000
# 6 0.0000 0.0000 0.0000 4.3057 0.0000 31.5993
#
#
#
# Elastic Compliance Matrix: (Units=1/GPa)
#
#
# Indices 1 2 3 4 5 6 
#
# 1 0.009332 -0.004881 -0.004215 0.000000 -0.003047 0.000000
# 2 -0.004881 0.014664 0.002457 0.000000 0.001292 0.000000
# 3 -0.004215 0.002457 0.013548 0.000000 -0.002568 0.000000
# 4 0.000000 0.000000 0.000000 0.042756 0.000000 -0.005826
# 5 -0.003047 0.001292 -0.002568 0.000000 0.025593 0.000000
# 6 0.000000 0.000000 0.000000 -0.005826 0.000000 0.032440
#
#
# Mechanical properties :
#
#
# Convention : Reuss Voigt Hill
#
# Bulk Modulus (GPa) = 41.20893 55.84122 48.52508
# Shear Modulus (GPa) = 31.30865 35.97632 33.64249
#
# Velocity S-wave (km/s) = 4.00306 4.29110 4.14958
# Velocity P-wave (km/s) = 6.51595 7.28918 6.91339
#
# Compressibility (1/GPa) = 0.02426659
#
# Stress axis : x y z
#
# Youngs Moduli (GPa) = 107.15419 68.19361 73.81231
#
# Poissons Ratio (x) = 0.33285 0.31109
# Poissons Ratio (y) = 0.52301 -0.18133
# Poissons Ratio (z) = 0.45161 -0.16752
#
# Static dielectric constant tensor:
#      x y z
#    x 1.656730 0.000000 -0.016860 
#    y 0.000000 1.695240 0.000000 
#    z -0.016860 0.000000 1.759380 
# 
# From -- ./inp_files/57914.got.cif
#   From: 2010.05.17/outbox.cif.g08.bks.cpg/sg14_29_cif.got.tgz:57914.got - 2010.06.03 17:49:19.
