data_PCOD9250954
_publ_section_title
;
Structure prediction by ZEFSAII (Michael W. Deem and Ramdas Pophale) SiO2 
 PCOD9250954
Probable space group: P 21/C
;
_chemical_formula_sum "Si O2"
_cell_formula_units_Z 16
_cell_length_a 19.238726
_cell_length_b 5.189448
_cell_length_c 8.899078
_cell_angle_alpha 90.000000
_cell_angle_beta 133.331313
_cell_angle_gamma 90.000000
_cell_volume 646.270740
_symmetry_space_group_name_H-M "P 21/C"
_symmetry_group_IT_number 14
_symmetry_cell_setting 'monoclinic'
loop_
_space_group_symop_operation_xyz
x,y,z
-x,1/2+y,1/2-z
-x,-y,-z
x,1/2-y,1/2+z
loop_
_atom_site_type_symbol
_atom_site_label
_atom_site_fract_x
_atom_site_fract_y
_atom_site_fract_z
Si Si1 0.103290 0.529859 0.223934
Si Si2 0.470190 0.880534 0.793451
Si Si3 0.263699 0.910330 0.464633
Si Si4 0.206143 0.277568 0.620349
O O1 0.157845 0.795517 0.339262
O O2 0.112835 0.376196 0.393309
O O3 0.173929 0.410354 0.204214
O O4 0.000000 0.500000 0.000000
O O5 0.471616 0.133175 0.684576
O O6 0.362029 0.765314 0.635451
O O7 0.500000 0.000000 0.000000
O O8 0.270706 0.143665 0.592884
O O9 0.257219 0.992424 0.282090
#
# Coordination Sequence:
#
# PCOD9250954 Si02
#       4
#     4   4   4   4
#     4  11  26  42  72 101 143 188 244 300 370 442
#     4  12  29  49  81 115 155 200 264 318 390 461
#     4  11  25  46  73 102 148 189 242 304 370 443
#     4  10  25  42  70 102 140 188 239 295 374 431
#
# _framework density 24.757424
#
# number of rings (size 3 to 8) (size 9 to 14) (size 15 to 20)
#    0.000    1.000    0.000    3.750   21.000    2.000 
#    0.000    0.000    0.000    0.000    0.000    0.000 
#    0.000    0.000    0.000    0.000    0.000    0.000 
#
# Total GULP energy -89325.682824 kJ/mol
# GULP energy per Si atom -5582.855177 kJ/mol
# Density = 2.470107 g / cm^3
# Si number density = 24.757424 Si / 1000 Ang^3
#
#
#
# Elastic Constant Matrix: (Units=GPa)
#
#
# Indices 1 2 3 4 5 6 
#
# 1 53.1239 12.6841 23.2028 0.0000 -1.1443 0.0000
# 2 12.6841 79.7752 7.2711 0.0000 -8.0137 0.0000
# 3 23.2028 7.2711 113.3216 0.0000 5.9860 0.0000
# 4 0.0000 0.0000 0.0000 31.9112 0.0000 -1.7877
# 5 -1.1443 -8.0137 5.9860 0.0000 55.5391 0.0000
# 6 0.0000 0.0000 0.0000 -1.7877 0.0000 23.5059
#
#
#
# Elastic Compliance Matrix: (Units=1/GPa)
#
#
# Indices 1 2 3 4 5 6 
#
# 1 0.021383 -0.002969 -0.004212 0.000000 0.000466 0.000000
# 2 -0.002969 0.013228 -0.000340 0.000000 0.001884 0.000000
# 3 -0.004212 -0.000340 0.009772 0.000000 -0.001189 0.000000
# 4 0.000000 0.000000 0.000000 0.031471 0.000000 0.002393
# 5 0.000466 0.001884 -0.001189 0.000000 0.018415 0.000000
# 6 0.000000 0.000000 0.000000 0.002393 0.000000 0.042724
#
#
# Mechanical properties :
#
#
# Convention : Reuss Voigt Hill
#
# Bulk Modulus (GPa) = 34.08489 36.94852 35.51671
# Shear Modulus (GPa) = 30.89948 35.72875 33.31412
#
# Velocity S-wave (km/s) = 3.53666 3.80301 3.67225
# Velocity P-wave (km/s) = 5.52039 5.85153 5.68837
#
# Compressibility (1/GPa) = 0.02933851
#
# Stress axis : x y z
#
# Youngs Moduli (GPa) = 46.76688 75.59966 102.33780
#
# Poissons Ratio (x) = 0.22446 0.43107
# Poissons Ratio (y) = 0.13885 0.03483
# Poissons Ratio (z) = 0.19699 0.02573
#
# Static dielectric constant tensor:
#      x y z
#    x 1.985900 0.000000 0.048800 
#    y 0.000000 2.181000 0.000000 
#    z 0.048800 0.000000 1.935280 
# 
# From -- ./inp_files/14711.got.cif
#   From: 2010.05.17/outbox.cif.g08.bks.cpg/sg14_8_cif.got.tgz:14711.got - 2010.06.03 17:49:19.
