data_PCOD9250123
_publ_section_title
;
Structure prediction by ZEFSAII (Michael W. Deem and Ramdas Pophale) SiO2 
 PCOD9250123
Probable space group: P 21/C
;
_chemical_formula_sum "Si O2"
_cell_formula_units_Z 20
_cell_length_a 11.129291
_cell_length_b 11.165580
_cell_length_c 10.838493
_cell_angle_alpha 90.000000
_cell_angle_beta 146.377110
_cell_angle_gamma 90.000000
_cell_volume 745.780872
_symmetry_space_group_name_H-M "P 21/C"
_symmetry_group_IT_number 14
_symmetry_cell_setting 'monoclinic'
loop_
_space_group_symop_operation_xyz
x,y,z
-x,1/2+y,1/2-z
-x,-y,-z
x,1/2-y,1/2+z
loop_
_atom_site_type_symbol
_atom_site_label
_atom_site_fract_x
_atom_site_fract_y
_atom_site_fract_z
Si Si1 0.508961 0.176358 0.249442
Si Si2 0.696360 0.407526 0.155910
Si Si3 0.944383 0.137194 0.494237
Si Si4 0.914651 0.771487 0.634638
Si Si5 0.149626 0.531286 0.466740
O O1 0.621186 0.180075 0.481429
O O2 0.686185 0.140573 0.299896
O O3 0.345979 0.286358 0.083298
O O4 0.330700 0.069021 0.103880
O O5 0.754280 0.381546 0.346643
O O6 0.918972 0.472378 0.305400
O O7 0.500000 0.500000 0.000000
O O8 0.039299 0.182044 0.708921
O O9 0.038133 0.231720 0.472844
O O10 0.000000 0.000000 0.500000
O O11 0.072990 0.882430 0.795176
#
# Coordination Sequence:
#
# PCOD9250123 Si02
#       5
#     4   4   4   4   4
#     4  11  25  49  83 117 169 217 279 350 421 495
#     4   9  20  40  78 111 155 204 267 339 406 484
#     4  12  31  56  80 123 173 218 284 356 422 509
#     4  12  29  49  82 118 167 216 282 341 430 507
#     4  10  23  46  78 117 157 213 273 340 408 496
#
# _framework density 26.817529
#
# number of rings (size 3 to 8) (size 9 to 14) (size 15 to 20)
#    0.000    1.200    0.000    3.600   11.200    9.600 
#    0.000    0.000    0.000    0.000    0.000    0.000 
#    0.000    0.000    0.000    0.000    0.000    0.000 
#
# Total GULP energy -111577.341519 kJ/mol
# GULP energy per Si atom -5578.867076 kJ/mol
# Density = 2.675649 g / cm^3
# Si number density = 26.817529 Si / 1000 Ang^3
#
#
#
# Elastic Constant Matrix: (Units=GPa)
#
#
# Indices 1 2 3 4 5 6 
#
# 1 180.9478 45.8036 85.8202 0.0000 30.2502 0.0000
# 2 45.8036 99.2509 44.0106 0.0000 4.1800 0.0000
# 3 85.8202 44.0106 191.5035 0.0000 9.4377 0.0000
# 4 0.0000 0.0000 0.0000 48.1711 0.0000 3.6270
# 5 30.2502 4.1800 9.4377 0.0000 74.5932 0.0000
# 6 0.0000 0.0000 0.0000 3.6270 0.0000 59.7364
#
#
#
# Elastic Compliance Matrix: (Units=1/GPa)
#
#
# Indices 1 2 3 4 5 6 
#
# 1 0.007929 -0.002258 -0.002900 0.000000 -0.002722 0.000000
# 2 -0.002258 0.011869 -0.001739 0.000000 0.000471 0.000000
# 3 -0.002900 -0.001739 0.006901 0.000000 0.000400 0.000000
# 4 0.000000 0.000000 0.000000 0.020855 0.000000 -0.001266
# 5 -0.002722 0.000471 0.000400 0.000000 0.014433 0.000000
# 6 0.000000 0.000000 0.000000 -0.001266 0.000000 0.016817
#
#
# Mechanical properties :
#
#
# Convention : Reuss Voigt Hill
#
# Bulk Modulus (GPa) = 77.49251 91.44122 84.46686
# Shear Modulus (GPa) = 51.60006 56.23800 53.91903
#
# Velocity S-wave (km/s) = 4.39123 4.58434 4.48882
# Velocity P-wave (km/s) = 7.39388 7.88626 7.64404
#
# Compressibility (1/GPa) = 0.01290447
#
# Stress axis : x y z
#
# Youngs Moduli (GPa) = 126.12657 84.25365 144.90070
#
# Poissons Ratio (x) = 0.19028 0.42020
# Poissons Ratio (y) = 0.28485 0.25195
# Poissons Ratio (z) = 0.36576 0.14650
#
# Static dielectric constant tensor:
#      x y z
#    x 2.109310 0.000000 -0.004710 
#    y 0.000000 2.365000 0.000000 
#    z -0.004710 0.000000 2.084700 
# 
# From -- ./inp_files/30072.got.cif
#   From: 2010.05.17/outbox.cif.g08.bks.cpg/sg14_16_cif.got.tgz:30072.got - 2010.06.03 17:49:19.
