data_PCOD9250762
_publ_section_title
;
Structure prediction by ZEFSAII (Michael W. Deem and Ramdas Pophale) SiO2 
 PCOD9250762
Probable space group: P 21/C
;
_chemical_formula_sum "Si O2"
_cell_formula_units_Z 20
_cell_length_a 12.374112
_cell_length_b 9.224184
_cell_length_c 19.769950
_cell_angle_alpha 90.000000
_cell_angle_beta 160.226717
_cell_angle_gamma 90.000000
_cell_volume 763.393537
_symmetry_space_group_name_H-M "P 21/C"
_symmetry_group_IT_number 14
_symmetry_cell_setting 'monoclinic'
loop_
_space_group_symop_operation_xyz
x,y,z
-x,1/2+y,1/2-z
-x,-y,-z
x,1/2-y,1/2+z
loop_
_atom_site_type_symbol
_atom_site_label
_atom_site_fract_x
_atom_site_fract_y
_atom_site_fract_z
Si Si1 0.861693 0.329526 0.853352
Si Si2 0.341789 0.567237 0.121257
Si Si3 0.751571 0.161241 0.577589
Si Si4 0.292930 0.985459 0.972255
Si Si5 0.853203 0.991915 0.826107
O O1 0.756970 0.351541 0.869445
O O2 0.621781 0.429828 0.669425
O O3 0.826614 0.165035 0.811052
O O4 0.208350 0.403036 0.048650
O O5 0.711073 0.567698 0.313802
O O6 0.165989 0.637852 0.953210
O O7 0.704427 0.330889 0.562312
O O8 0.026338 0.089015 0.783118
O O9 0.412904 0.078109 0.381134
O O10 0.188559 0.956690 0.989128
#
# Coordination Sequence:
#
# PCOD9250762 Si02
#       5
#     4   4   4   4   4
#     4  11  23  45  73  98 136 182 219 281 340 400
#     4   9  25  44  67 101 141 167 228 280 334 399
#     4  10  26  44  66 102 136 173 226 280 331 402
#     4  12  25  44  74  97 135 184 224 277 339 401
#     4  10  24  46  69  99 137 175 228 276 334 401
#
# _framework density 26.198808
#
# number of rings (size 3 to 8) (size 9 to 14) (size 15 to 20)
#    1.200    0.400    0.000    3.000    8.400    1.600 
#    3.600    0.000    0.000    0.000    0.000    0.000 
#    0.000    0.000    0.000    0.000    0.000    0.000 
#
# Total GULP energy -112026.098916 kJ/mol
# GULP energy per Si atom -5601.304946 kJ/mol
# Density = 2.613918 g / cm^3
# Si number density = 26.198808 Si / 1000 Ang^3
#
#
#
# Elastic Constant Matrix: (Units=GPa)
#
#
# Indices 1 2 3 4 5 6 
#
# 1 111.8748 33.9990 18.4047 0.0000 -2.7784 0.0000
# 2 33.9990 148.1053 32.8105 0.0000 0.1918 0.0000
# 3 18.4047 32.8105 101.6418 0.0000 9.3064 0.0000
# 4 0.0000 0.0000 0.0000 43.4881 0.0000 2.0888
# 5 -2.7784 0.1918 9.3064 0.0000 37.5319 0.0000
# 6 0.0000 0.0000 0.0000 2.0888 0.0000 27.0729
#
#
#
# Elastic Compliance Matrix: (Units=1/GPa)
#
#
# Indices 1 2 3 4 5 6 
#
# 1 0.009765 -0.001971 -0.001227 0.000000 0.001037 0.000000
# 2 -0.001971 0.007681 -0.002155 0.000000 0.000349 0.000000
# 3 -0.001227 -0.002155 0.011013 0.000000 -0.002811 0.000000
# 4 0.000000 0.000000 0.000000 0.023080 0.000000 -0.001781
# 5 0.001037 0.000349 -0.002811 0.000000 0.027416 0.000000
# 6 0.000000 0.000000 0.000000 -0.001781 0.000000 0.037075
#
#
# Mechanical properties :
#
#
# Convention : Reuss Voigt Hill
#
# Bulk Modulus (GPa) = 56.32335 59.11671 57.72003
# Shear Modulus (GPa) = 37.69187 40.04577 38.86882
#
# Velocity S-wave (km/s) = 3.79712 3.91389 3.85594
# Velocity P-wave (km/s) = 6.38508 6.56036 6.47331
#
# Compressibility (1/GPa) = 0.01775462
#
# Stress axis : x y z
#
# Youngs Moduli (GPa) = 102.40421 130.18563 90.79777
#
# Poissons Ratio (x) = 0.25663 0.11140
# Poissons Ratio (y) = 0.20186 0.19563
# Poissons Ratio (z) = 0.12564 0.28050
#
# Static dielectric constant tensor:
#      x y z
#    x 2.129360 0.000000 -0.029360 
#    y 0.000000 1.976160 0.000000 
#    z -0.029360 0.000000 2.076760 
# 
# From -- ./inp_files/73781.got.cif
#   From: 2010.05.17/outbox.cif.g08.bks.cpg/sg14_37_cif.got.tgz:73781.got - 2010.06.03 17:49:19.
