data_PCOD9250984
_publ_section_title
;
Structure prediction by ZEFSAII (Michael W. Deem and Ramdas Pophale) SiO2 
 PCOD9250984
Probable space group: P 21/C
;
_chemical_formula_sum "Si O2"
_cell_formula_units_Z 20
_cell_length_a 5.060337
_cell_length_b 29.674757
_cell_length_c 5.436339
_cell_angle_alpha 90.000000
_cell_angle_beta 72.977634
_cell_angle_gamma 90.000000
_cell_volume 780.580308
_symmetry_space_group_name_H-M "P 21/C"
_symmetry_group_IT_number 14
_symmetry_cell_setting 'monoclinic'
loop_
_space_group_symop_operation_xyz
x,y,z
-x,1/2+y,1/2-z
-x,-y,-z
x,1/2-y,1/2+z
loop_
_atom_site_type_symbol
_atom_site_label
_atom_site_fract_x
_atom_site_fract_y
_atom_site_fract_z
Si Si1 0.628373 0.778308 0.292663
Si Si2 0.446730 0.527495 0.263929
Si Si3 0.922871 0.165940 0.597702
Si Si4 0.373107 0.121833 0.192560
Si Si5 0.055829 0.900477 0.040021
O O1 0.611384 0.745777 0.533808
O O2 0.366662 0.811905 0.380755
O O3 0.921167 0.803981 0.239517
O O4 0.500000 0.500000 0.500000
O O5 0.637342 0.572072 0.185732
O O6 0.151160 0.551573 0.408248
O O7 0.500000 0.500000 0.000000
O O8 0.896658 0.113724 0.692528
O O9 0.170457 0.160389 0.336253
O O10 0.696398 0.131928 0.132453
O O11 0.252078 0.110641 0.955692
#
# Coordination Sequence:
#
# PCOD9250984 Si02
#       5
#     4   4   4   4   4
#     4  12  30  50  78 114 148 190 238 310 386 428
#     4  10  26  46  70 108 156 188 250 314 358 424
#     4  12  26  48  80 100 158 186 256 296 356 472
#     4  10  25  43  74 104 143 200 250 287 377 416
#     4  10  25  43  74 104 143 200 250 287 377 416
#
# _framework density 25.621966
#
# number of rings (size 3 to 8) (size 9 to 14) (size 15 to 20)
#    1.200    0.000    0.000    3.600   14.000    1.600 
#    0.000    0.000    0.000    0.000    0.000    0.000 
#    0.000    0.000    0.000    0.000    0.000    0.000 
#
# Total GULP energy -111428.193474 kJ/mol
# GULP energy per Si atom -5571.409674 kJ/mol
# Density = 2.556365 g / cm^3
# Si number density = 25.621966 Si / 1000 Ang^3
#
#
#
# Elastic Constant Matrix: (Units=GPa)
#
#
# Indices 1 2 3 4 5 6 
#
# 1 158.1566 41.2507 14.8918 0.0000 -1.1886 0.0000
# 2 41.2507 78.0336 59.9098 0.0000 -10.6497 0.0000
# 3 14.8918 59.9098 107.7663 0.0000 2.8388 0.0000
# 4 0.0000 0.0000 0.0000 58.6079 0.0000 -2.3154
# 5 -1.1886 -10.6497 2.8388 0.0000 29.3147 0.0000
# 6 0.0000 0.0000 0.0000 -2.3154 0.0000 49.3581
#
#
#
# Elastic Compliance Matrix: (Units=1/GPa)
#
#
# Indices 1 2 3 4 5 6 
#
# 1 0.007712 -0.006291 0.002490 0.000000 -0.002214 0.000000
# 2 -0.006291 0.030374 -0.016342 0.000000 0.012362 0.000000
# 3 0.002490 -0.016342 0.018220 0.000000 -0.007600 0.000000
# 4 0.000000 0.000000 0.000000 0.017094 0.000000 0.000802
# 5 -0.002214 0.012362 -0.007600 0.000000 0.039250 0.000000
# 6 0.000000 0.000000 0.000000 0.000802 0.000000 0.020298
#
#
# Mechanical properties :
#
#
# Convention : Reuss Voigt Hill
#
# Bulk Modulus (GPa) = 62.41787 64.00678 63.21233
# Shear Modulus (GPa) = 27.99950 42.64975 35.32462
#
# Velocity S-wave (km/s) = 3.30933 4.08435 3.71709
# Velocity P-wave (km/s) = 6.24629 6.87590 6.56864
#
# Compressibility (1/GPa) = 0.01602105
#
# Stress axis : x y z
#
# Youngs Moduli (GPa) = 129.65971 32.92301 54.88354
#
# Poissons Ratio (x) = 0.20710 -0.13664
# Poissons Ratio (y) = 0.81563 0.89690
# Poissons Ratio (z) = -0.32280 0.53803
#
# Static dielectric constant tensor:
#      x y z
#    x 1.996650 0.000000 -0.053380 
#    y 0.000000 2.111630 0.000000 
#    z -0.053380 0.000000 2.277270 
# 
# From -- ./inp_files/569.got.cif
#   From: 2010.05.17/outbox.cif.g08.bks.cpg/sg14_1_cif.got.tgz:569.got - 2010.06.03 17:49:19.
