data_PCOD9250182
_publ_section_title
;
Structure prediction by ZEFSAII (Michael W. Deem and Ramdas Pophale) SiO2 
 PCOD9250182
Probable space group: P 21/C
;
_chemical_formula_sum "Si O2"
_cell_formula_units_Z 20
_cell_length_a 5.313490
_cell_length_b 14.610631
_cell_length_c 9.843077
_cell_angle_alpha 90.000000
_cell_angle_beta 90.746074
_cell_angle_gamma 90.000000
_cell_volume 764.087161
_symmetry_space_group_name_H-M "P 21/C"
_symmetry_group_IT_number 14
_symmetry_cell_setting 'monoclinic'
loop_
_space_group_symop_operation_xyz
x,y,z
-x,1/2+y,1/2-z
-x,-y,-z
x,1/2-y,1/2+z
loop_
_atom_site_type_symbol
_atom_site_label
_atom_site_fract_x
_atom_site_fract_y
_atom_site_fract_z
Si Si1 0.002635 0.702730 0.944034
Si Si2 0.546664 0.019875 0.776283
Si Si3 0.052986 0.952045 0.659636
Si Si4 0.639061 0.338670 0.655623
Si Si5 0.316113 0.291071 0.327518
O O1 0.015677 0.606984 0.024441
O O2 0.821386 0.766673 0.034099
O O3 0.888243 0.691808 0.793446
O O4 0.270490 0.755406 0.937777
O O5 0.492201 0.119632 0.833797
O O6 0.815071 0.008632 0.708936
O O7 0.501923 0.933824 0.877708
O O8 0.322443 0.002035 0.665730
O O9 0.100286 0.876520 0.779021
O O10 0.478574 0.293828 0.774996
#
# Coordination Sequence:
#
# PCOD9250182 Si02
#       5
#     4   4   4   4   4
#     4  12  24  47  73 109 147 197 237 308 358 443
#     4  10  24  48  71 110 145 194 240 308 353 447
#     4  10  23  48  69 106 150 180 249 294 359 425
#     4  10  24  46  72 107 149 189 240 304 358 438
#     4  12  27  45  78 104 150 192 247 297 377 418
#
# _framework density 26.175024000000001
#
# number of rings (size 3 to 8) (size 9 to 14) (size 15 to 20)
#    1.200    0.000    4.000    0.000    8.400    2.400 
#    0.000    2.000    0.000    0.000    0.000    0.000 
#    0.000    0.000    0.000    0.000    0.000    0.000 
#
# Total GULP energy -111926.252649 kJ/mol
# GULP energy per Si atom -5596.312632 kJ/mol
# Density = 2.611545 g / cm^3
# Si number density = 26.175024 Si / 1000 Ang^3
#
#
#
# Elastic Constant Matrix: (Units=GPa)
#
#
# Indices 1 2 3 4 5 6 
#
# 1 124.5146 17.0236 31.6093 0.0000 -16.4227 0.0000
# 2 17.0236 107.6230 23.8020 0.0000 -8.6613 0.0000
# 3 31.6093 23.8020 88.2360 0.0000 -7.5234 0.0000
# 4 0.0000 0.0000 0.0000 45.1116 0.0000 -12.9499
# 5 -16.4227 -8.6613 -7.5234 0.0000 37.6783 0.0000
# 6 0.0000 0.0000 0.0000 -12.9499 0.0000 54.9777
#
#
#
# Elastic Compliance Matrix: (Units=1/GPa)
#
#
# Indices 1 2 3 4 5 6 
#
# 1 0.009282 -0.000560 -0.002889 0.000000 0.003340 0.000000
# 2 -0.000560 0.010032 -0.002370 0.000000 0.001589 0.000000
# 3 -0.002889 -0.002370 0.013076 0.000000 0.000807 0.000000
# 4 0.000000 0.000000 0.000000 0.023775 0.000000 0.005600
# 5 0.003340 0.001589 0.000807 0.000000 0.028523 0.000000
# 6 0.000000 0.000000 0.000000 0.005600 0.000000 0.019508
#
#
# Mechanical properties :
#
#
# Convention : Reuss Voigt Hill
#
# Bulk Modulus (GPa) = 48.18973 51.69373 49.94173
# Shear Modulus (GPa) = 40.73239 44.08276 42.40757
#
# Velocity S-wave (km/s) = 3.94909 4.10830 4.02948
# Velocity P-wave (km/s) = 6.26453 6.50356 6.38516
#
# Compressibility (1/GPa) = 0.02075131
#
# Stress axis : x y z
#
# Youngs Moduli (GPa) = 107.73828 99.67748 76.47385
#
# Poissons Ratio (x) = 0.05586 0.22094
# Poissons Ratio (y) = 0.06038 0.18125
# Poissons Ratio (z) = 0.31127 0.23624
#
# Static dielectric constant tensor:
#      x y z
#    x 2.015490 0.000000 0.103060 
#    y 0.000000 2.106640 0.000000 
#    z 0.103060 0.000000 2.083590 
# 
# From -- ./inp_files/20623.got.cif
#   From: 2010.05.17/outbox.cif.g08.bks.cpg/sg14_11_cif.got.tgz:20623.got - 2010.06.03 17:49:19.
