data_PCOD9250474
_publ_section_title
;
Structure prediction by ZEFSAII (Michael W. Deem and Ramdas Pophale) SiO2 
 PCOD9250474
Probable space group: P 21/C
;
_chemical_formula_sum "Si O2"
_cell_formula_units_Z 24
_cell_length_a 10.497565
_cell_length_b 11.237562
_cell_length_c 13.609005
_cell_angle_alpha 90.000000
_cell_angle_beta 43.411617
_cell_angle_gamma 90.000000
_cell_volume 1103.296393
_symmetry_space_group_name_H-M "P 21/C"
_symmetry_group_IT_number 14
_symmetry_cell_setting 'monoclinic'
loop_
_space_group_symop_operation_xyz
x,y,z
-x,1/2+y,1/2-z
-x,-y,-z
x,1/2-y,1/2+z
loop_
_atom_site_type_symbol
_atom_site_label
_atom_site_fract_x
_atom_site_fract_y
_atom_site_fract_z
Si Si1 0.814940 0.870042 0.032937
Si Si2 0.250151 0.223961 0.255904
Si Si3 0.433813 0.635616 0.038481
Si Si4 0.281579 0.016082 0.117114
Si Si5 0.847715 0.279192 0.405467
Si Si6 0.751821 0.122517 0.161311
O O1 0.739249 0.758026 0.135844
O O2 0.740534 0.983684 0.137143
O O3 0.764541 0.897522 0.949265
O O4 0.037979 0.864767 0.916188
O O5 0.231417 0.084592 0.244366
O O6 0.060489 0.277915 0.317902
O O7 0.418570 0.280523 0.099275
O O8 0.238651 0.661190 0.092933
O O9 0.390872 0.662787 0.176220
O O10 0.500000 0.500000 0.000000
O O11 0.187980 0.889880 0.147409
O O12 0.500000 0.000000 0.000000
O O13 0.737911 0.307120 0.567514
#
# Coordination Sequence:
#
# PCOD9250474 Si02
#       6
#     4   4   4   4   4   4
#     4   9  19  39  65  90 123 178 211 261 330 392
#     4  11  23  40  68  96 126 174 226 264 337 388
#     4  12  23  39  65 103 127 166 231 277 323 395
#     4  11  22  42  64  96 134 174 215 270 334 395
#     4  10  24  43  65  94 134 179 217 273 334 403
#     4   9  19  39  65  89 127 167 218 265 326 384
#
# _framework density 21.752993
#
# number of rings (size 3 to 8) (size 9 to 14) (size 15 to 20)
#    0.000    1.667    3.333    2.000    2.333    1.333 
#    0.000    0.000    0.000    3.000    0.000    0.000 
#    0.000    0.000    0.000    0.000    0.000    0.000 
#
# Total GULP energy -134069.128288 kJ/mol
# GULP energy per Si atom -5586.213679 kJ/mol
# Density = 2.170348 g / cm^3
# Si number density = 21.752993 Si / 1000 Ang^3
#
#
#
# Elastic Constant Matrix: (Units=GPa)
#
#
# Indices 1 2 3 4 5 6 
#
# 1 75.6957 28.6672 -0.8836 0.0000 0.4388 0.0000
# 2 28.6672 49.9896 5.7365 0.0000 11.8676 0.0000
# 3 -0.8836 5.7365 69.9432 0.0000 9.9027 0.0000
# 4 0.0000 0.0000 0.0000 28.9467 0.0000 1.9057
# 5 0.4388 11.8676 9.9027 0.0000 27.6459 0.0000
# 6 0.0000 0.0000 0.0000 1.9057 0.0000 37.7791
#
#
#
# Elastic Compliance Matrix: (Units=1/GPa)
#
#
# Indices 1 2 3 4 5 6 
#
# 1 0.017372 -0.011037 0.000519 0.000000 0.004276 0.000000
# 2 -0.011037 0.029303 -0.000829 0.000000 -0.012107 0.000000
# 3 0.000519 -0.000829 0.015088 0.000000 -0.005057 0.000000
# 4 0.000000 0.000000 0.000000 0.034661 0.000000 -0.001748
# 5 0.004276 -0.012107 -0.005057 0.000000 0.043112 0.000000
# 6 0.000000 0.000000 0.000000 -0.001748 0.000000 0.026558
#
#
# Mechanical properties :
#
#
# Convention : Reuss Voigt Hill
#
# Bulk Modulus (GPa) = 25.59519 29.18543 27.39031
# Shear Modulus (GPa) = 24.77583 29.68157 27.22870
#
# Velocity S-wave (km/s) = 3.37851 3.69790 3.54181
# Velocity P-wave (km/s) = 5.19721 5.62836 5.41708
#
# Compressibility (1/GPa) = 0.03906984
#
# Stress axis : x y z
#
# Youngs Moduli (GPa) = 57.56423 34.12664 66.27868
#
# Poissons Ratio (x) = 0.37665 -0.03441
# Poissons Ratio (y) = 0.63533 0.05492
# Poissons Ratio (z) = -0.02989 0.02828
#
# Static dielectric constant tensor:
#      x y z
#    x 1.790240 0.000000 0.005250 
#    y 0.000000 1.811180 0.000000 
#    z 0.005250 0.000000 1.811510 
# 
# From -- ./inp_files/44285.got.cif
#   From: 2010.05.17/outbox.cif.g08.bks.cpg/sg14_23_cif.got.tgz:44285.got - 2010.06.03 17:49:19.
