data_PCOD9250985
_publ_section_title
;
Structure prediction by ZEFSAII (Michael W. Deem and Ramdas Pophale) SiO2 
 PCOD9250985
Probable space group: P 21/C
;
_chemical_formula_sum "Si O2"
_cell_formula_units_Z 28
_cell_length_a 12.394112
_cell_length_b 14.914442
_cell_length_c 6.995258
_cell_angle_alpha 90.000000
_cell_angle_beta 111.091092
_cell_angle_gamma 90.000000
_cell_volume 1206.458050
_symmetry_space_group_name_H-M "P 21/C"
_symmetry_group_IT_number 14
_symmetry_cell_setting 'monoclinic'
loop_
_space_group_symop_operation_xyz
x,y,z
-x,1/2+y,1/2-z
-x,-y,-z
x,1/2-y,1/2+z
loop_
_atom_site_type_symbol
_atom_site_label
_atom_site_fract_x
_atom_site_fract_y
_atom_site_fract_z
Si Si1 0.597159 0.073495 0.101089
Si Si2 0.197942 0.460409 0.179668
Si Si3 0.729610 0.765384 0.384528
Si Si4 0.154334 0.541663 0.753182
Si Si5 0.551364 0.753081 0.021662
Si Si6 0.927854 0.624209 0.552283
Si Si7 0.410066 0.580121 0.958805
O O1 0.535313 0.164105 0.994493
O O2 0.615636 0.090440 0.335811
O O3 0.717176 0.021514 0.135879
O O4 0.500000 0.000000 0.000000
O O5 0.263901 0.374771 0.124953
O O6 0.107713 0.414767 0.263729
O O7 0.148678 0.518992 0.975491
O O8 0.699627 0.750059 0.614280
O O9 0.852508 0.712851 0.466681
O O10 0.588682 0.730356 0.294613
O O11 0.114205 0.450649 0.624721
O O12 0.286882 0.562046 0.786630
O O13 0.066704 0.621090 0.638503
O O14 0.476348 0.666273 0.934146
O O15 0.500000 0.500000 0.000000
#
# Coordination Sequence:
#
# PCOD9250985 Si02
#       7
#     4   4   4   4   4   4   4
#     4  11  22  39  59  96 132 170 211 269 333 398
#     4  11  23  41  70  95 131 175 225 275 331 396
#     4  12  21  38  65  98 123 169 226 263 321 400
#     4  10  25  44  65  97 128 174 221 269 342 393
#     4  12  23  37  63  97 134 167 219 270 334 397
#     4  11  23  44  67  92 133 170 224 279 324 394
#     4  11  24  40  65  94 133 169 213 276 338 396
#
# _framework density 23.208431000000001
#
# number of rings (size 3 to 8) (size 9 to 14) (size 15 to 20)
#    0.000    0.857    4.286    3.857    2.000    0.000 
#    0.000    4.286    0.000    0.000    0.000    0.000 
#    0.000    0.000    0.000    0.000    0.000    0.000 
#
# Total GULP energy -156094.958499 kJ/mol
# GULP energy per Si atom -5574.819946 kJ/mol
# Density = 2.315561 g / cm^3
# Si number density = 23.208431 Si / 1000 Ang^3
#
#
#
# Elastic Constant Matrix: (Units=GPa)
#
#
# Indices 1 2 3 4 5 6 
#
# 1 101.6065 44.6672 52.7909 0.0000 37.4453 0.0000
# 2 44.6672 127.7977 48.2236 0.0000 37.7701 0.0000
# 3 52.7909 48.2236 157.4321 0.0000 14.5950 0.0000
# 4 0.0000 0.0000 0.0000 37.7733 0.0000 4.4978
# 5 37.4453 37.7701 14.5950 0.0000 59.0286 0.0000
# 6 0.0000 0.0000 0.0000 4.4978 0.0000 32.0609
#
#
#
# Elastic Compliance Matrix: (Units=1/GPa)
#
#
# Indices 1 2 3 4 5 6 
#
# 1 0.015497 -0.001603 -0.003980 0.000000 -0.007821 0.000000
# 2 -0.001603 0.010827 -0.002283 0.000000 -0.005346 0.000000
# 3 -0.003980 -0.002283 0.008205 0.000000 0.001957 0.000000
# 4 0.000000 0.000000 0.000000 0.026923 0.000000 -0.003777
# 5 -0.007821 -0.005346 0.001957 0.000000 0.024839 0.000000
# 6 0.000000 0.000000 0.000000 -0.003777 0.000000 0.031721
#
#
# Mechanical properties :
#
#
# Convention : Reuss Voigt Hill
#
# Bulk Modulus (GPa) = 53.20601 75.35553 64.28077
# Shear Modulus (GPa) = 35.71188 41.84952 38.78070
#
# Velocity S-wave (km/s) = 3.92694 4.25102 4.09219
# Velocity P-wave (km/s) = 6.59820 7.52558 7.07710
#
# Compressibility (1/GPa) = 0.01879487
#
# Stress axis : x y z
#
# Youngs Moduli (GPa) = 64.52923 92.36388 121.88279
#
# Poissons Ratio (x) = 0.14806 0.48515
# Poissons Ratio (y) = 0.10344 0.27828
# Poissons Ratio (z) = 0.25685 0.21089
#
# Static dielectric constant tensor:
#      x y z
#    x 2.065280 0.000000 -0.244250 
#    y 0.000000 1.731310 0.000000 
#    z -0.244250 0.000000 2.259490 
# 
# From -- ./inp_files/13240.got.cif
#   From: 2010.05.17/outbox.cif.g08.bks.cpg/sg14_7_cif.got.tgz:13240.got - 2010.06.03 17:49:19.
