data_PCOD9250289
_publ_section_title
;
Structure prediction by ZEFSAII (Michael W. Deem and Ramdas Pophale) SiO2 
 PCOD9250289
Probable space group: P 21/C
;
_chemical_formula_sum "Si O2"
_cell_formula_units_Z 22
_cell_length_a 11.254504
_cell_length_b 4.693153
_cell_length_c 21.809090
_cell_angle_alpha 90.000000
_cell_angle_beta 136.615624
_cell_angle_gamma 90.000000
_cell_volume 791.253062
_symmetry_space_group_name_H-M "P 21/C"
_symmetry_group_IT_number 14
_symmetry_cell_setting 'monoclinic'
loop_
_space_group_symop_operation_xyz
x,y,z
-x,1/2+y,1/2-z
-x,-y,-z
x,1/2-y,1/2+z
loop_
_atom_site_type_symbol
_atom_site_label
_atom_site_fract_x
_atom_site_fract_y
_atom_site_fract_z
Si Si1 0.769041 0.280389 0.174027
Si Si2 0.549685 0.905220 0.175483
Si Si3 0.726144 0.628031 0.341961
Si Si4 0.852015 0.719993 0.629291
Si Si5 0.217660 0.530879 0.022052
Si Si6 0.000000 0.000000 0.000000
O O1 0.612445 0.137555 0.151249
O O2 0.800215 0.102849 0.123193
O O3 0.945032 0.244645 0.279188
O O4 0.753359 0.602831 0.146223
O O5 0.707109 0.746282 0.267921
O O6 0.403542 0.683772 0.099345
O O7 0.460703 0.067606 0.199827
O O8 0.852396 0.361866 0.395047
O O9 0.814226 0.789877 0.435256
O O10 0.797203 0.848844 0.544705
O O11 0.081110 0.785141 0.974987
#
# Coordination Sequence:
#
# PCOD9250289 Si02
#       6
#     4   4   4   4   4   2
#     4  10  24  45  69  97 132 188 225 296 338 413
#     4  11  24  41  67  97 140 176 229 279 358 406
#     4  11  23  44  63 103 134 182 222 290 347 419
#     4  10  24  46  68  97 136 178 244 277 347 410
#     4  11  24  43  66  99 135 178 225 288 343 424
#     4  10  24  40  68  96 128 178 228 278 346 402
#
# _framework density 27.803998
#
# number of rings (size 3 to 8) (size 9 to 14) (size 15 to 20)
#    0.000    1.455    1.818    1.636    7.636    1.455 
#    9.818    0.000    0.000    0.000    0.000    0.000 
#    0.000    0.000    0.000    0.000    0.000    0.000 
#
# Total GULP energy -123036.727704 kJ/mol
# GULP energy per Si atom -5592.578532 kJ/mol
# Density = 2.774072 g / cm^3
# Si number density = 27.803998 Si / 1000 Ang^3
#
#
#
# Elastic Constant Matrix: (Units=GPa)
#
#
# Indices 1 2 3 4 5 6 
#
# 1 88.1673 30.3442 37.9901 0.0000 -6.0400 0.0000
# 2 30.3442 105.1781 10.6182 0.0000 -5.2171 0.0000
# 3 37.9901 10.6182 98.3521 0.0000 -8.1238 0.0000
# 4 0.0000 0.0000 0.0000 38.2879 0.0000 -2.8229
# 5 -6.0400 -5.2171 -8.1238 0.0000 40.6999 0.0000
# 6 0.0000 0.0000 0.0000 -2.8229 0.0000 53.5798
#
#
#
# Elastic Compliance Matrix: (Units=1/GPa)
#
#
# Indices 1 2 3 4 5 6 
#
# 1 0.014972 -0.003748 -0.005322 0.000000 0.000679 0.000000
# 2 -0.003748 0.010595 0.000377 0.000000 0.000877 0.000000
# 3 -0.005322 0.000377 0.012325 0.000000 0.001718 0.000000
# 4 0.000000 0.000000 0.000000 0.026220 0.000000 0.001381
# 5 0.000679 0.000877 0.001718 0.000000 0.025126 0.000000
# 6 0.000000 0.000000 0.000000 0.001381 0.000000 0.018737
#
#
# Mechanical properties :
#
#
# Convention : Reuss Voigt Hill
#
# Bulk Modulus (GPa) = 48.77417 49.95585 49.36501
# Shear Modulus (GPa) = 37.82239 40.69653 39.25946
#
# Velocity S-wave (km/s) = 3.69226 3.82998 3.76175
# Velocity P-wave (km/s) = 5.97973 6.12898 6.05482
#
# Compressibility (1/GPa) = 0.02050266
#
# Stress axis : x y z
#
# Youngs Moduli (GPa) = 66.79115 94.38757 81.13787
#
# Poissons Ratio (x) = 0.35381 0.43185
# Poissons Ratio (y) = 0.25037 -0.03055
# Poissons Ratio (z) = 0.35549 -0.03554
#
# Static dielectric constant tensor:
#      x y z
#    x 2.456200 0.000000 0.306320 
#    y 0.000000 2.548300 0.000000 
#    z 0.306320 0.000000 2.415370 
# 
# From -- ./inp_files/62471.got.cif
#   From: 2010.05.17/outbox.cif.g08.bks.cpg/sg14_32_cif.got.tgz:62471.got - 2010.06.03 17:49:19.
