data_PCOD9250538
_publ_section_title
;
Structure prediction by ZEFSAII (Michael W. Deem and Ramdas Pophale) SiO2 
 PCOD9250538
Probable space group: P 21/C
;
_chemical_formula_sum "Si O2"
_cell_formula_units_Z 12
_cell_length_a 5.102348
_cell_length_b 7.963652
_cell_length_c 14.382921
_cell_angle_alpha 90.000000
_cell_angle_beta 118.939875
_cell_angle_gamma 90.000000
_cell_volume 511.447443
_symmetry_space_group_name_H-M "P 21/C"
_symmetry_group_IT_number 14
_symmetry_cell_setting 'monoclinic'
loop_
_space_group_symop_operation_xyz
x,y,z
-x,1/2+y,1/2-z
-x,-y,-z
x,1/2-y,1/2+z
loop_
_atom_site_type_symbol
_atom_site_label
_atom_site_fract_x
_atom_site_fract_y
_atom_site_fract_z
Si Si1 0.042408 0.612000 0.596689
Si Si2 0.278568 0.343798 0.281449
Si Si3 0.808343 0.951714 0.600355
O O1 0.386110 0.612450 0.688674
O O2 0.000000 0.500000 0.500000
O O3 0.813467 0.559912 0.638830
O O4 0.968533 0.808334 0.566056
O O5 0.255834 0.154157 0.315550
O O6 0.032839 0.398404 0.164440
O O7 0.500000 0.000000 0.500000
#
# Coordination Sequence:
#
# PCOD9250538 Si02
#       3
#     4   4   4
#     4  10  24  43  72 100 143 188 244 294 361 424
#     4  10  25  44  68 106 143 184 239 299 358 425
#     4  10  26  46  73 106 144 190 242 295 363 431
#
# _framework density 23.462823
#
# number of rings (size 3 to 8) (size 9 to 14) (size 15 to 20)
#    2.000    0.000    0.000    1.000    9.333    1.333 
#    0.000    0.000    0.000    0.000    0.000    0.000 
#    0.000    0.000    0.000    0.000    0.000    0.000 
#
# Total GULP energy -66983.821677 kJ/mol
# GULP energy per Si atom -5581.985140 kJ/mol
# Density = 2.340942 g / cm^3
# Si number density = 23.462823 Si / 1000 Ang^3
#
#
#
# Elastic Constant Matrix: (Units=GPa)
#
#
# Indices 1 2 3 4 5 6 
#
# 1 106.7418 40.5007 36.1973 0.0000 26.1662 0.0000
# 2 40.5007 102.7698 90.8670 0.0000 22.5341 0.0000
# 3 36.1973 90.8670 146.1476 0.0000 51.6467 0.0000
# 4 0.0000 0.0000 0.0000 48.4079 0.0000 -2.5231
# 5 26.1662 22.5341 51.6467 0.0000 56.4332 0.0000
# 6 0.0000 0.0000 0.0000 -2.5231 0.0000 34.9899
#
#
#
# Elastic Compliance Matrix: (Units=1/GPa)
#
#
# Indices 1 2 3 4 5 6 
#
# 1 0.012092 -0.005884 0.002682 0.000000 -0.005711 0.000000
# 2 -0.005884 0.025658 -0.017498 0.000000 0.008497 0.000000
# 3 0.002682 -0.017498 0.022211 0.000000 -0.014584 0.000000
# 4 0.000000 0.000000 0.000000 0.020736 0.000000 0.001495
# 5 -0.005711 0.008497 -0.014584 0.000000 0.030322 0.000000
# 6 0.000000 0.000000 0.000000 0.001495 0.000000 0.028687
#
#
# Mechanical properties :
#
#
# Convention : Reuss Voigt Hill
#
# Bulk Modulus (GPa) = 53.87877 76.75438 65.31657
# Shear Modulus (GPa) = 26.69618 40.50581 33.60099
#
# Velocity S-wave (km/s) = 3.37680 4.15948 3.78841
# Velocity P-wave (km/s) = 6.18199 7.47346 6.85819
#
# Compressibility (1/GPa) = 0.01856019
#
# Stress axis : x y z
#
# Youngs Moduli (GPa) = 82.70184 38.97477 45.02256
#
# Poissons Ratio (x) = 0.22934 -0.12076
# Poissons Ratio (y) = 0.48665 0.78780
# Poissons Ratio (z) = -0.22182 0.68197
#
# Static dielectric constant tensor:
#      x y z
#    x 1.883260 0.000000 -0.067190 
#    y 0.000000 1.950950 0.000000 
#    z -0.067190 0.000000 1.848990 
# 
# From -- ./inp_files/20075.got.cif
#   From: 2010.05.17/outbox.cif.g08.bks.cpg/sg14_11_cif.got.tgz:20075.got - 2010.06.03 17:49:19.
