data_PCOD9250738
_publ_section_title
;
Structure prediction by ZEFSAII (Michael W. Deem and Ramdas Pophale) SiO2 
 PCOD9250738
Probable space group: P 21/C
;
_chemical_formula_sum "Si O2"
_cell_formula_units_Z 20
_cell_length_a 10.123023
_cell_length_b 7.159389
_cell_length_c 14.792604
_cell_angle_alpha 90.000000
_cell_angle_beta 55.791992
_cell_angle_gamma 90.000000
_cell_volume 886.619703
_symmetry_space_group_name_H-M "P 21/C"
_symmetry_group_IT_number 14
_symmetry_cell_setting 'monoclinic'
loop_
_space_group_symop_operation_xyz
x,y,z
-x,1/2+y,1/2-z
-x,-y,-z
x,1/2-y,1/2+z
loop_
_atom_site_type_symbol
_atom_site_label
_atom_site_fract_x
_atom_site_fract_y
_atom_site_fract_z
Si Si1 0.738118 0.092208 0.074864
Si Si2 0.354452 0.269340 0.510291
Si Si3 0.127761 0.568957 0.666312
Si Si4 0.199545 0.918775 0.751854
Si Si5 0.458049 0.890059 0.410243
O O1 0.836905 0.070983 0.127496
O O2 0.611238 0.257437 0.139215
O O3 0.647248 0.905067 0.075942
O O4 0.839467 0.150393 0.947290
O O5 0.224025 0.373483 0.622630
O O6 0.507799 0.246415 0.516830
O O7 0.338155 0.057145 0.482401
O O8 0.191762 0.708561 0.717157
O O9 0.941976 0.523204 0.746147
O O10 0.372473 0.013886 0.675116
#
# Coordination Sequence:
#
# PCOD9250738 Si02
#       5
#     4   4   4   4   4
#     4  10  25  43  69  99 140 176 224 283 341 401
#     4   9  22  43  68  93 142 176 217 284 338 396
#     4  10  24  46  64  97 138 182 222 282 336 399
#     4  12  25  43  71 101 136 183 231 279 337 405
#     4  11  22  40  72 103 129 183 225 274 345 400
#
# _framework density 22.557586000000001
#
# number of rings (size 3 to 8) (size 9 to 14) (size 15 to 20)
#    1.200    0.400    0.000    4.800    5.600    0.000 
#    3.600    2.000    0.000    0.000    0.000    0.000 
#    0.000    0.000    0.000    0.000    0.000    0.000 
#
# Total GULP energy -111492.082740 kJ/mol
# GULP energy per Si atom -5574.604137 kJ/mol
# Density = 2.250624 g / cm^3
# Si number density = 22.557586 Si / 1000 Ang^3
#
#
#
# Elastic Constant Matrix: (Units=GPa)
#
#
# Indices 1 2 3 4 5 6 
#
# 1 74.4543 66.3308 11.8828 0.0000 1.1909 0.0000
# 2 66.3308 143.0247 34.4019 0.0000 -7.6807 0.0000
# 3 11.8828 34.4019 61.6831 0.0000 1.8314 0.0000
# 4 0.0000 0.0000 0.0000 24.3462 0.0000 -13.6029
# 5 1.1909 -7.6807 1.8314 0.0000 39.7108 0.0000
# 6 0.0000 0.0000 0.0000 -13.6029 0.0000 36.4248
#
#
#
# Elastic Compliance Matrix: (Units=1/GPa)
#
#
# Indices 1 2 3 4 5 6 
#
# 1 0.023401 -0.011494 0.001992 0.000000 -0.003017 0.000000
# 2 -0.011494 0.013847 -0.005606 0.000000 0.003281 0.000000
# 3 0.001992 -0.005606 0.019015 0.000000 -0.002021 0.000000
# 4 0.000000 0.000000 0.000000 0.051905 0.000000 0.019384
# 5 -0.003017 0.003281 -0.002021 0.000000 0.026000 0.000000
# 6 0.000000 0.000000 0.000000 0.019384 0.000000 0.034693
#
#
# Mechanical properties :
#
#
# Convention : Reuss Voigt Hill
#
# Bulk Modulus (GPa) = 38.39214 56.04367 47.21791
# Shear Modulus (GPa) = 24.06633 31.19946 27.63289
#
# Velocity S-wave (km/s) = 3.26986 3.72304 3.50379
# Velocity P-wave (km/s) = 5.59576 6.58635 6.11116
#
# Compressibility (1/GPa) = 0.02604700
#
# Stress axis : x y z
#
# Youngs Moduli (GPa) = 42.73264 72.21781 52.59078
#
# Poissons Ratio (x) = 0.83007 -0.10476
# Poissons Ratio (y) = 0.49117 0.29482
# Poissons Ratio (z) = -0.08512 0.40485
#
# Static dielectric constant tensor:
#      x y z
#    x 1.813960 0.000000 -0.017820 
#    y 0.000000 1.857510 0.000000 
#    z -0.017820 0.000000 1.927840 
# 
# From -- ./inp_files/42961.got.cif
#   From: 2010.05.17/outbox.cif.g08.bks.cpg/sg14_22_cif.got.tgz:42961.got - 2010.06.03 17:49:19.
