data_PCOD9250448
_publ_section_title
;
Structure prediction by ZEFSAII (Michael W. Deem and Ramdas Pophale) SiO2 
 PCOD9250448
Probable space group: P 21/C
;
_chemical_formula_sum "Si O2"
_cell_formula_units_Z 20
_cell_length_a 4.919015
_cell_length_b 17.543474
_cell_length_c 9.829127
_cell_angle_alpha 90.000000
_cell_angle_beta 103.220184
_cell_angle_gamma 90.000000
_cell_volume 825.741160
_symmetry_space_group_name_H-M "P 21/C"
_symmetry_group_IT_number 14
_symmetry_cell_setting 'monoclinic'
loop_
_space_group_symop_operation_xyz
x,y,z
-x,1/2+y,1/2-z
-x,-y,-z
x,1/2-y,1/2+z
loop_
_atom_site_type_symbol
_atom_site_label
_atom_site_fract_x
_atom_site_fract_y
_atom_site_fract_z
Si Si1 0.050732 0.447938 0.192645
Si Si2 0.500957 0.388052 0.042192
Si Si3 0.421766 0.597366 0.256504
Si Si4 0.217238 0.357896 0.471703
Si Si5 0.255756 0.723408 0.431171
O O1 0.229120 0.401638 0.100627
O O2 0.207089 0.527978 0.227059
O O3 0.067655 0.403487 0.336838
O O4 0.733070 0.451572 0.106915
O O5 0.660387 0.308888 0.090505
O O6 0.453489 0.387450 0.876315
O O7 0.663931 0.585909 0.397078
O O8 0.267080 0.672858 0.295302
O O9 0.027251 0.294761 0.523095
O O10 0.494119 0.314834 0.451609
#
# Coordination Sequence:
#
# PCOD9250448 Si02
#       5
#     4   4   4   4   4
#     4  12  26  44  70 104 136 181 220 284 335 409
#     4  12  27  43  70  99 143 173 231 274 349 390
#     4  10  27  44  72  98 142 176 230 273 342 398
#     4  10  24  42  72  93 138 171 233 269 338 390
#     4  10  25  42  70  98 134 180 227 278 328 401
#
# _framework density 24.220668
#
# number of rings (size 3 to 8) (size 9 to 14) (size 15 to 20)
#    1.200    0.000    0.000    4.200   11.200    0.800 
#    0.000    0.000    0.000    0.000    0.000    0.000 
#    0.000    0.000    0.000    0.000    0.000    0.000 
#
# Total GULP energy -112003.532307 kJ/mol
# GULP energy per Si atom -5600.176615 kJ/mol
# Density = 2.416554 g / cm^3
# Si number density = 24.220668 Si / 1000 Ang^3
#
#
#
# Elastic Constant Matrix: (Units=GPa)
#
#
# Indices 1 2 3 4 5 6 
#
# 1 96.0356 -10.1803 19.0941 0.0000 -2.1054 0.0000
# 2 -10.1803 100.4644 16.4112 0.0000 -15.0121 0.0000
# 3 19.0941 16.4112 133.3603 0.0000 2.9627 0.0000
# 4 0.0000 0.0000 0.0000 13.8153 0.0000 10.7830
# 5 -2.1054 -15.0121 2.9627 0.0000 28.4077 0.0000
# 6 0.0000 0.0000 0.0000 10.7830 0.0000 -48.2002
#
#
#
# Elastic Compliance Matrix: (Units=1/GPa)
#
#
# Indices 1 2 3 4 5 6 
#
# 1 0.010997 0.001697 -0.001826 0.000000 0.001902 0.000000
# 2 0.001697 0.011360 -0.001781 0.000000 0.006315 0.000000
# 3 -0.001826 -0.001781 0.008022 0.000000 -0.001913 0.000000
# 4 0.000000 0.000000 0.000000 0.061623 0.000000 0.013786
# 5 0.001902 0.006315 -0.001913 0.000000 0.038879 0.000000
# 6 0.000000 0.000000 0.000000 0.013786 0.000000 -0.017663
#
#
# Mechanical properties :
#
#
# Convention : Reuss Voigt Hill
#
# Bulk Modulus (GPa) = 37.65173 42.27892 39.96532
# Shear Modulus (GPa) = 39.71650 19.10692 29.41171
#
# Velocity S-wave (km/s) = 4.05381 2.81173 3.48849
# Velocity P-wave (km/s) = 6.12292 5.29478 5.72385
#
# Compressibility (1/GPa) = 0.02655921
#
# Stress axis : x y z
#
# Youngs Moduli (GPa) = 90.93088 88.02579 124.66389
#
# Poissons Ratio (x) = -0.14937 0.22759
# Poissons Ratio (y) = -0.15430 0.22205
# Poissons Ratio (z) = 0.16601 0.15679
#
# Static dielectric constant tensor:
#      x y z
#    x 1.886710 0.000000 0.039540 
#    y 0.000000 1.955750 0.000000 
#    z 0.039540 0.000000 1.892260 
# 
# From -- ./inp_files/5503.got.cif
#   From: 2010.05.17/outbox.cif.g08.bks.cpg/sg14_3_cif.got.tgz:5503.got - 2010.06.03 17:49:19.
