data_PCOD9250455
_publ_section_title
;
Structure prediction by ZEFSAII (Michael W. Deem and Ramdas Pophale) SiO2 
 PCOD9250455
Probable space group: P 21/C
;
_chemical_formula_sum "Si O2"
_cell_formula_units_Z 28
_cell_length_a 21.035503
_cell_length_b 4.956039
_cell_length_c 10.560130
_cell_angle_alpha 90.000000
_cell_angle_beta 111.982822
_cell_angle_gamma 90.000000
_cell_volume 1020.881482
_symmetry_space_group_name_H-M "P 21/C"
_symmetry_group_IT_number 14
_symmetry_cell_setting 'monoclinic'
loop_
_space_group_symop_operation_xyz
x,y,z
-x,1/2+y,1/2-z
-x,-y,-z
x,1/2-y,1/2+z
loop_
_atom_site_type_symbol
_atom_site_label
_atom_site_fract_x
_atom_site_fract_y
_atom_site_fract_z
Si Si1 0.500000 0.000000 0.000000
Si Si2 0.000000 0.500000 0.000000
Si Si3 0.184061 0.724309 0.982521
Si Si4 0.622855 0.251808 0.228747
Si Si5 0.155060 0.267992 0.616257
Si Si6 0.728430 0.530382 0.636554
Si Si7 0.957356 0.262726 0.265451
Si Si8 0.391275 0.255380 0.107481
O O1 0.457632 0.158380 0.081411
O O2 0.567328 0.195477 0.078285
O O3 0.077191 0.336066 0.071379
O O4 0.036824 0.773925 0.081441
O O5 0.117135 0.759735 0.843733
O O6 0.249241 0.823875 0.955563
O O7 0.169622 0.927094 0.087493
O O8 0.184206 0.417392 0.024590
O O9 0.602516 0.048012 0.326698
O O10 0.694028 0.140617 0.224282
O O11 0.621390 0.551690 0.283113
O O12 0.203946 0.187559 0.768139
O O13 0.672083 0.727869 0.535541
O O14 0.004052 0.989770 0.287480
#
# Coordination Sequence:
#
# PCOD9250455 Si02
#       8
#     2   2   4   4   4   4   4   4
#     4  10  24  42  76 106 140 178 218 266 326 372
#     4  12  24  44  66  94 124 168 216 280 342 394
#     4  12  25  44  63  94 126 167 218 274 329 399
#     4  11  25  45  70 104 138 178 220 269 316 389
#     4  12  27  42  67  94 127 168 224 274 335 398
#     4  11  26  45  68  96 132 182 218 271 328 388
#     4  12  24  43  64  92 125 162 212 276 339 397
#     4  11  25  45  69 102 142 175 223 265 321 384
#
# _framework density 27.427278000000001
#
# number of rings (size 3 to 8) (size 9 to 14) (size 15 to 20)
#    0.000    0.571    4.286    2.571    0.000   11.429 
#    0.000    0.000    0.000    0.000    0.000    0.000 
#    0.000    0.000    0.000    0.000    0.000    0.000 
#
# Total GULP energy -156283.443239 kJ/mol
# GULP energy per Si atom -5581.551544 kJ/mol
# Density = 2.736485 g / cm^3
# Si number density = 27.427278 Si / 1000 Ang^3
#
#
#
# Elastic Constant Matrix: (Units=GPa)
#
#
# Indices 1 2 3 4 5 6 
#
# 1 138.9950 30.6750 18.4864 0.0000 -12.7202 0.0000
# 2 30.6750 75.0618 30.3471 0.0000 -13.3695 0.0000
# 3 18.4864 30.3471 79.2566 0.0000 14.3938 0.0000
# 4 0.0000 0.0000 0.0000 219.3217 0.0000 -102.4162
# 5 -12.7202 -13.3695 14.3938 0.0000 47.3353 0.0000
# 6 0.0000 0.0000 0.0000 -102.4162 0.0000 64.8534
#
#
#
# Elastic Compliance Matrix: (Units=1/GPa)
#
#
# Indices 1 2 3 4 5 6 
#
# 1 0.008077 -0.002447 -0.001286 0.000000 0.001870 0.000000
# 2 -0.002447 0.018769 -0.007895 0.000000 0.007044 0.000000
# 3 -0.001286 -0.007895 0.017367 0.000000 -0.007857 0.000000
# 4 0.000000 0.000000 0.000000 0.017365 0.000000 0.027423
# 5 0.001870 0.007044 -0.007857 0.000000 0.026007 0.000000
# 6 0.000000 0.000000 0.000000 0.027423 0.000000 0.058726
#
#
# Mechanical properties :
#
#
# Convention : Reuss Voigt Hill
#
# Bulk Modulus (GPa) = 47.72095 50.25894 48.98994
# Shear Modulus (GPa) = 28.31985 80.55575 54.43780
#
# Velocity S-wave (km/s) = 3.21681 5.42535 4.45995
# Velocity P-wave (km/s) = 5.58874 7.59013 6.66499
#
# Compressibility (1/GPa) = 0.02095516
#
# Stress axis : x y z
#
# Youngs Moduli (GPa) = 123.80971 53.27887 57.57991
#
# Poissons Ratio (x) = 0.13040 0.07407
# Poissons Ratio (y) = 0.30302 0.45460
# Poissons Ratio (z) = 0.15928 0.42064
#
# Static dielectric constant tensor:
#      x y z
#    x 2.017960 0.000000 0.054430 
#    y 0.000000 1.994780 0.000000 
#    z 0.054430 0.000000 1.968950 
# 
# From -- ./inp_files/34607.got.cif
#   From: 2010.05.17/outbox.cif.g08.bks.cpg/sg14_18_cif.got.tgz:34607.got - 2010.06.03 17:49:19.
