data_PCOD9250935
_publ_section_title
;
Structure prediction by ZEFSAII (Michael W. Deem and Ramdas Pophale) SiO2 
 PCOD9250935
Probable space group: P 21/C
;
_chemical_formula_sum "Si O2"
_cell_formula_units_Z 20
_cell_length_a 13.330749
_cell_length_b 4.950678
_cell_length_c 12.725084
_cell_angle_alpha 90.000000
_cell_angle_beta 108.637768
_cell_angle_gamma 90.000000
_cell_volume 795.766534
_symmetry_space_group_name_H-M "P 21/C"
_symmetry_group_IT_number 14
_symmetry_cell_setting 'monoclinic'
loop_
_space_group_symop_operation_xyz
x,y,z
-x,1/2+y,1/2-z
-x,-y,-z
x,1/2-y,1/2+z
loop_
_atom_site_type_symbol
_atom_site_label
_atom_site_fract_x
_atom_site_fract_y
_atom_site_fract_z
Si Si1 0.923848 0.217441 0.412907
Si Si2 0.663351 0.681600 0.889207
Si Si3 0.863948 0.673580 0.564267
Si Si4 0.590584 0.192721 0.983738
Si Si5 0.268143 0.949829 0.792417
O O1 0.888722 0.435379 0.488412
O O2 0.016229 0.281746 0.358904
O O3 0.820661 0.181800 0.308476
O O4 0.000000 0.000000 0.500000
O O5 0.660996 0.621155 0.765049
O O6 0.784500 0.629189 0.971764
O O7 0.583623 0.478170 0.922528
O O8 0.642243 0.989246 0.914957
O O9 0.794435 0.623865 0.643212
O O10 0.663678 0.242625 0.110304
O O11 0.500000 0.000000 0.000000
#
# Coordination Sequence:
#
# PCOD9250935 Si02
#       5
#     4   4   4   4   4
#     4  11  23  42  61  98 146 184 236 280 333 425
#     4  11  24  46  70 104 136 174 238 288 345 429
#     4  10  25  40  64 102 143 186 238 286 339 425
#     4  11  27  48  71 102 136 176 234 296 355 423
#     4  11  24  41  71  95 135 191 219 292 351 407
#
# _framework density 25.132999000000002
#
# number of rings (size 3 to 8) (size 9 to 14) (size 15 to 20)
#    0.000    1.200    2.000    3.000    2.800    8.000 
#    0.000    0.000    0.000    0.000    0.000    0.000 
#    0.000    0.000    0.000    0.000    0.000    0.000 
#
# Total GULP energy -111466.403160 kJ/mol
# GULP energy per Si atom -5573.320158 kJ/mol
# Density = 2.507579 g / cm^3
# Si number density = 25.132999 Si / 1000 Ang^3
#
#
#
# Elastic Constant Matrix: (Units=GPa)
#
#
# Indices 1 2 3 4 5 6 
#
# 1 58.2583 11.0926 5.2927 0.0000 -24.1311 0.0000
# 2 11.0926 71.7720 13.8237 0.0000 -5.3602 0.0000
# 3 5.2927 13.8237 112.4875 0.0000 -32.8601 0.0000
# 4 0.0000 0.0000 0.0000 12.3667 0.0000 16.8137
# 5 -24.1311 -5.3602 -32.8601 0.0000 31.3448 0.0000
# 6 0.0000 0.0000 0.0000 16.8137 0.0000 12.1654
#
#
#
# Elastic Compliance Matrix: (Units=1/GPa)
#
#
# Indices 1 2 3 4 5 6 
#
# 1 0.029960 -0.003882 0.008088 0.000000 0.030881 0.000000
# 2 -0.003882 0.014790 -0.002550 0.000000 -0.003133 0.000000
# 3 0.008088 -0.002550 0.015156 0.000000 0.021679 0.000000
# 4 0.000000 0.000000 0.000000 -0.091984 0.000000 0.127131
# 5 0.030881 -0.003133 0.021679 0.000000 0.077868 0.000000
# 6 0.000000 0.000000 0.000000 0.127131 0.000000 -0.093506
#
#
# Mechanical properties :
#
#
# Convention : Reuss Voigt Hill
#
# Bulk Modulus (GPa) = 15.81814 33.65953 24.73884
# Shear Modulus (GPa) = -166.91738 25.32928 -70.79405
#
# Velocity S-wave (km/s) = -8.15830 3.17805 -5.31309
# Velocity P-wave (km/s) = 9.07944 5.18539 5.27011
#
# Compressibility (1/GPa) = 0.06321854
#
# Stress axis : x y z
#
# Youngs Moduli (GPa) = 33.37749 67.61237 65.98202
#
# Poissons Ratio (x) = 0.26247 -0.53368
# Poissons Ratio (y) = 0.12957 0.16826
# Poissons Ratio (z) = -0.26997 0.17242
#
# Static dielectric constant tensor:
#      x y z
#    x 2.256520 0.000000 -0.054500 
#    y 0.000000 2.468010 0.000000 
#    z -0.054500 0.000000 1.972470 
# 
# From -- ./inp_files/31140.got.cif
#   From: 2010.05.17/outbox.cif.g08.bks.cpg/sg14_16_cif.got.tgz:31140.got - 2010.06.03 17:49:19.
