data_PCOD9250516
_publ_section_title
;
Structure prediction by ZEFSAII (Michael W. Deem and Ramdas Pophale) SiO2 
 PCOD9250516
Probable space group: P 21/C
;
_chemical_formula_sum "Si O2"
_cell_formula_units_Z 28
_cell_length_a 5.502682
_cell_length_b 16.621091
_cell_length_c 13.843178
_cell_angle_alpha 90.000000
_cell_angle_beta 74.884553
_cell_angle_gamma 90.000000
_cell_volume 1222.300822
_symmetry_space_group_name_H-M "P 21/C"
_symmetry_group_IT_number 14
_symmetry_cell_setting 'monoclinic'
loop_
_space_group_symop_operation_xyz
x,y,z
-x,1/2+y,1/2-z
-x,-y,-z
x,1/2-y,1/2+z
loop_
_atom_site_type_symbol
_atom_site_label
_atom_site_fract_x
_atom_site_fract_y
_atom_site_fract_z
Si Si1 0.324066 0.596688 0.791987
Si Si2 0.963647 0.763852 0.336984
Si Si3 0.165555 0.598755 0.318148
Si Si4 0.937178 0.174460 0.361396
Si Si5 0.615443 0.511071 0.382843
Si Si6 0.753177 0.548176 0.062702
Si Si7 0.489595 0.171000 0.546915
O O1 0.064641 0.645342 0.830999
O O2 0.364293 0.573420 0.677538
O O3 0.342788 0.513360 0.847324
O O4 0.494498 0.654501 0.839621
O O5 0.138576 0.691126 0.356161
O O6 0.955478 0.740055 0.224202
O O7 0.723833 0.762214 0.430970
O O8 0.194523 0.610892 0.199321
O O9 0.402491 0.560332 0.345873
O O10 0.894658 0.552562 0.357233
O O11 0.737105 0.197559 0.463852
O O12 0.158063 0.127905 0.390911
O O13 0.500000 0.500000 0.500000
O O14 0.586833 0.585871 0.994670
O O15 0.000000 0.500000 0.000000
#
# Coordination Sequence:
#
# PCOD9250516 Si02
#       7
#     4   4   4   4   4   4   4
#     4  12  25  43  72 108 149 180 261 310 368 450
#     4  10  26  43  66 105 152 190 245 309 374 458
#     4  10  26  50  74 102 155 198 252 302 383 453
#     4  10  24  43  70 100 145 197 234 307 382 448
#     4  12  27  50  79 107 146 210 255 313 373 453
#     4  12  22  41  68 108 136 180 243 308 370 447
#     4  12  24  40  71 105 142 191 244 309 383 441
#
# _framework density 22.907620000000001
#
# number of rings (size 3 to 8) (size 9 to 14) (size 15 to 20)
#    0.857    0.000    4.286    1.714    6.000    2.286 
#    2.571    0.000    0.000    0.000    0.000    0.000 
#    0.000    0.000    0.000    0.000    0.000    0.000 
#
# Total GULP energy -156044.767735 kJ/mol
# GULP energy per Si atom -5573.027419 kJ/mol
# Density = 2.285548 g / cm^3
# Si number density = 22.907620 Si / 1000 Ang^3
#
#
#
# Elastic Constant Matrix: (Units=GPa)
#
#
# Indices 1 2 3 4 5 6 
#
# 1 69.7864 23.3196 30.8166 0.0000 -3.1646 0.0000
# 2 23.3196 60.6613 33.7697 0.0000 -10.0393 0.0000
# 3 30.8166 33.7697 110.3311 0.0000 1.2289 0.0000
# 4 0.0000 0.0000 0.0000 41.9098 0.0000 -1.1337
# 5 -3.1646 -10.0393 1.2289 0.0000 29.8790 0.0000
# 6 0.0000 0.0000 0.0000 -1.1337 0.0000 21.1808
#
#
#
# Elastic Compliance Matrix: (Units=1/GPa)
#
#
# Indices 1 2 3 4 5 6 
#
# 1 0.017442 -0.004731 -0.003428 0.000000 0.000399 0.000000
# 2 -0.004731 0.022700 -0.005708 0.000000 0.007361 0.000000
# 3 -0.003428 -0.005708 0.011799 0.000000 -0.002766 0.000000
# 4 0.000000 0.000000 0.000000 0.023895 0.000000 0.001279
# 5 0.000399 0.007361 -0.002766 0.000000 0.036097 0.000000
# 6 0.000000 0.000000 0.000000 0.001279 0.000000 0.047281
#
#
# Mechanical properties :
#
#
# Convention : Reuss Voigt Hill
#
# Bulk Modulus (GPa) = 41.31179 46.28785 43.79982
# Shear Modulus (GPa) = 25.63860 28.78545 27.21203
#
# Velocity S-wave (km/s) = 3.34910 3.54868 3.45034
# Velocity P-wave (km/s) = 5.74704 6.08614 5.91902
#
# Compressibility (1/GPa) = 0.02420617
#
# Stress axis : x y z
#
# Youngs Moduli (GPa) = 57.33221 44.05362 84.75135
#
# Poissons Ratio (x) = 0.20840 0.29055
# Poissons Ratio (y) = 0.27122 0.48380
# Poissons Ratio (z) = 0.19655 0.25148
#
# Static dielectric constant tensor:
#      x y z
#    x 2.002450 0.000000 0.041640 
#    y 0.000000 1.878760 0.000000 
#    z 0.041640 0.000000 1.892540 
# 
# From -- ./inp_files/37665.got.cif
#   From: 2010.05.17/outbox.cif.g08.bks.cpg/sg14_19_cif.got.tgz:37665.got - 2010.06.03 17:49:19.
