data_PCOD9250055
_publ_section_title
;
Structure prediction by ZEFSAII (Michael W. Deem and Ramdas Pophale) SiO2 
 PCOD9250055
Probable space group: P 21/C
;
_chemical_formula_sum "Si O2"
_cell_formula_units_Z 28
_cell_length_a 10.657424
_cell_length_b 9.257659
_cell_length_c 14.120455
_cell_angle_alpha 90.000000
_cell_angle_beta 54.817474
_cell_angle_gamma 90.000000
_cell_volume 1138.661383
_symmetry_space_group_name_H-M "P 21/C"
_symmetry_group_IT_number 14
_symmetry_cell_setting 'monoclinic'
loop_
_space_group_symop_operation_xyz
x,y,z
-x,1/2+y,1/2-z
-x,-y,-z
x,1/2-y,1/2+z
loop_
_atom_site_type_symbol
_atom_site_label
_atom_site_fract_x
_atom_site_fract_y
_atom_site_fract_z
Si Si1 0.815417 0.180838 0.823266
Si Si2 0.517992 0.808007 0.359492
Si Si3 0.827108 0.418321 0.961793
Si Si4 0.186162 0.021238 0.010514
Si Si5 0.471918 0.221857 0.943674
Si Si6 0.014579 0.193465 0.553687
Si Si7 0.590033 0.082026 0.218938
O O1 0.846819 0.341197 0.851699
O O2 0.633483 0.150180 0.903861
O O3 0.883825 0.169274 0.689709
O O4 0.878833 0.067701 0.872424
O O5 0.342889 0.867117 0.435838
O O6 0.577229 0.809008 0.440616
O O7 0.520881 0.647125 0.314503
O O8 0.594276 0.919901 0.255642
O O9 0.848284 0.589160 0.967017
O O10 0.955228 0.357415 0.977880
O O11 0.072876 0.144193 0.025786
O O12 0.340268 0.110529 0.973354
O O13 0.245231 0.910393 0.904368
O O14 0.535120 0.323578 0.831998
#
# Coordination Sequence:
#
# PCOD9250055 Si02
#       7
#     4   4   4   4   4   4   4
#     4  11  24  45  71  98 133 179 225 284 339 400
#     4  11  24  43  70  98 139 178 225 282 341 409
#     4  10  23  46  64  95 133 181 222 272 336 404
#     4  12  25  45  69 108 131 182 232 281 342 413
#     4  11  24  45  71 102 139 177 229 286 344 405
#     4  11  25  44  68  94 141 177 227 276 338 406
#     4  12  23  42  67 104 136 177 225 282 345 398
#
# _framework density 24.590278999999999
#
# number of rings (size 3 to 8) (size 9 to 14) (size 15 to 20)
#    0.000    0.857    4.286    3.429    0.000    1.714 
#   10.286    0.000    0.000    0.000    0.000    0.000 
#    0.000    0.000    0.000    0.000    0.000    0.000 
#
# Total GULP energy -156538.920135 kJ/mol
# GULP energy per Si atom -5590.675719 kJ/mol
# Density = 2.453431 g / cm^3
# Si number density = 24.590279 Si / 1000 Ang^3
#
#
#
# Elastic Constant Matrix: (Units=GPa)
#
#
# Indices 1 2 3 4 5 6 
#
# 1 74.9692 2.0870 7.5471 0.0000 9.9650 0.0000
# 2 2.0870 81.5650 13.3771 0.0000 6.6824 0.0000
# 3 7.5471 13.3771 85.6789 0.0000 19.2068 0.0000
# 4 0.0000 0.0000 0.0000 48.3586 0.0000 -0.9607
# 5 9.9650 6.6824 19.2068 0.0000 25.5834 0.0000
# 6 0.0000 0.0000 0.0000 -0.9607 0.0000 35.7498
#
#
#
# Elastic Compliance Matrix: (Units=1/GPa)
#
#
# Indices 1 2 3 4 5 6 
#
# 1 0.014068 0.000093 -0.000024 0.000000 -0.005486 0.000000
# 2 0.000093 0.012685 -0.001488 0.000000 -0.002232 0.000000
# 3 -0.000024 -0.001488 0.014208 0.000000 -0.010268 0.000000
# 4 0.000000 0.000000 0.000000 0.020690 0.000000 0.000556
# 5 -0.005486 -0.002232 -0.010268 0.000000 0.049517 0.000000
# 6 0.000000 0.000000 0.000000 0.000556 0.000000 0.027987
#
#
# Mechanical properties :
#
#
# Convention : Reuss Voigt Hill
#
# Bulk Modulus (GPa) = 26.23102 32.02617 29.12860
# Shear Modulus (GPa) = 32.32073 36.55183 34.43628
#
# Velocity S-wave (km/s) = 3.62936 3.85961 3.74625
# Velocity P-wave (km/s) = 5.31539 5.73710 5.53027
#
# Compressibility (1/GPa) = 0.03812280
#
# Stress axis : x y z
#
# Youngs Moduli (GPa) = 71.08422 78.83490 70.38356
#
# Poissons Ratio (x) = -0.00737 0.00169
# Poissons Ratio (y) = -0.00664 0.10475
# Poissons Ratio (z) = 0.00170 0.11733
#
# Static dielectric constant tensor:
#      x y z
#    x 1.978550 0.000000 0.003490 
#    y 0.000000 2.024280 0.000000 
#    z 0.003490 0.000000 1.952940 
# 
# From -- ./inp_files/43312.got.cif
#   From: 2010.05.17/outbox.cif.g08.bks.cpg/sg14_22_cif.got.tgz:43312.got - 2010.06.03 17:49:19.
