data_PCOD9250996
_publ_section_title
;
Structure prediction by ZEFSAII (Michael W. Deem and Ramdas Pophale) SiO2 
 PCOD9250996
Probable space group: P 21/C
;
_chemical_formula_sum "Si O2"
_cell_formula_units_Z 32
_cell_length_a 5.077921
_cell_length_b 28.712177
_cell_length_c 8.485777
_cell_angle_alpha 90.000000
_cell_angle_beta 92.796867
_cell_angle_gamma 90.000000
_cell_volume 1235.736972
_symmetry_space_group_name_H-M "P 21/C"
_symmetry_group_IT_number 14
_symmetry_cell_setting 'monoclinic'
loop_
_space_group_symop_operation_xyz
x,y,z
-x,1/2+y,1/2-z
-x,-y,-z
x,1/2-y,1/2+z
loop_
_atom_site_type_symbol
_atom_site_label
_atom_site_fract_x
_atom_site_fract_y
_atom_site_fract_z
Si Si1 0.779395 0.317765 0.863227
Si Si2 0.768067 0.079665 0.210142
Si Si3 0.609747 0.593232 0.583409
Si Si4 0.039269 0.056743 0.678165
Si Si5 0.722937 0.967659 0.651046
Si Si6 0.730667 0.767334 0.749677
Si Si7 0.718852 0.148803 0.699416
Si Si8 0.885907 0.686032 0.566901
O O1 0.770601 0.368242 0.780548
O O2 0.564968 0.285732 0.770629
O O3 0.070452 0.296524 0.856885
O O4 0.687530 0.322112 0.041272
O O5 0.060637 0.059448 0.235754
O O6 0.566255 0.049086 0.310289
O O7 0.632269 0.079908 0.034539
O O8 0.796801 0.552938 0.654333
O O9 0.513067 0.617335 0.742019
O O10 0.770693 0.636172 0.511505
O O11 0.202858 0.044489 0.526623
O O12 0.937453 0.109530 0.663949
O O13 0.793012 0.021560 0.677044
O O14 0.742747 0.713343 0.704607
O O15 0.853545 0.779848 0.920881
O O16 0.827371 0.176863 0.853603
#
# Coordination Sequence:
#
# PCOD9250996 Si02
#       8
#     4   4   4   4   4   4   4   4
#     4  12  26  46  75 101 140 184 235 282 350 414
#     4  12  25  46  71 101 141 186 232 288 347 418
#     4  11  26  44  72  98 147 183 231 287 355 416
#     4  10  25  44  69 105 139 184 233 295 344 420
#     4  11  26  45  73 103 139 184 241 286 348 413
#     4  12  28  47  73 104 138 180 233 288 343 414
#     4  11  25  45  72 100 143 185 232 283 356 410
#     4  11  27  46  69 104 138 180 230 287 347 412
#
# _framework density 25.895477
#
# number of rings (size 3 to 8) (size 9 to 14) (size 15 to 20)
#    0.000    0.750    2.500    3.000   12.250    2.000 
#    0.000    0.000    0.000    0.000    0.000    0.000 
#    0.000    0.000    0.000    0.000    0.000    0.000 
#
# Total GULP energy -179456.533435 kJ/mol
# GULP energy per Si atom -5608.016670 kJ/mol
# Density = 2.583654 g / cm^3
# Si number density = 25.895477 Si / 1000 Ang^3
#
#
#
# Elastic Constant Matrix: (Units=GPa)
#
#
# Indices 1 2 3 4 5 6 
#
# 1 69.8107 9.8872 7.5120 0.0000 9.8712 0.0000
# 2 9.8872 84.8523 39.7026 0.0000 19.6012 0.0000
# 3 7.5120 39.7026 102.4422 0.0000 9.2831 0.0000
# 4 0.0000 0.0000 0.0000 25.6301 0.0000 -3.9615
# 5 9.8712 19.6012 9.2831 0.0000 36.1883 0.0000
# 6 0.0000 0.0000 0.0000 -3.9615 0.0000 33.4711
#
#
#
# Elastic Compliance Matrix: (Units=1/GPa)
#
#
# Indices 1 2 3 4 5 6 
#
# 1 0.014983 -0.000678 -0.000511 0.000000 -0.003589 0.000000
# 2 -0.000678 0.016103 -0.005546 0.000000 -0.007114 0.000000
# 3 -0.000511 -0.005546 0.011941 0.000000 0.000080 0.000000
# 4 0.000000 0.000000 0.000000 0.039744 0.000000 0.004704
# 5 -0.003589 -0.007114 0.000080 0.000000 0.032445 0.000000
# 6 0.000000 0.000000 0.000000 0.004704 0.000000 0.030433
#
#
# Mechanical properties :
#
#
# Convention : Reuss Voigt Hill
#
# Bulk Modulus (GPa) = 33.83299 41.25652 37.54476
# Shear Modulus (GPa) = 29.59083 32.39147 30.99115
#
# Velocity S-wave (km/s) = 3.38406 3.54058 3.46320
# Velocity P-wave (km/s) = 5.32566 5.71671 5.52465
#
# Compressibility (1/GPa) = 0.02955695
#
# Stress axis : x y z
#
# Youngs Moduli (GPa) = 66.74291 62.10106 83.74264
#
# Poissons Ratio (x) = 0.04209 0.04277
# Poissons Ratio (y) = 0.04524 0.46447
# Poissons Ratio (z) = 0.03409 0.34444
#
# Static dielectric constant tensor:
#      x y z
#    x 2.051750 0.000000 -0.054710 
#    y 0.000000 2.025940 0.000000 
#    z -0.054710 0.000000 2.042200 
# 
# From -- ./inp_files/6991.got.cif
#   From: 2010.05.17/outbox.cif.g08.bks.cpg/sg14_4_cif.got.tgz:6991.got - 2010.06.03 17:49:19.
