data_PCOD9250106
_publ_section_title
;
Structure prediction by ZEFSAII (Michael W. Deem and Ramdas Pophale) SiO2 
 PCOD9250106
Probable space group: P 21/C
;
_chemical_formula_sum "Si O2"
_cell_formula_units_Z 24
_cell_length_a 5.967139
_cell_length_b 7.904616
_cell_length_c 24.583887
_cell_angle_alpha 90.000000
_cell_angle_beta 95.271388
_cell_angle_gamma 90.000000
_cell_volume 1154.667193
_symmetry_space_group_name_H-M "P 21/C"
_symmetry_group_IT_number 14
_symmetry_cell_setting 'monoclinic'
loop_
_space_group_symop_operation_xyz
x,y,z
-x,1/2+y,1/2-z
-x,-y,-z
x,1/2-y,1/2+z
loop_
_atom_site_type_symbol
_atom_site_label
_atom_site_fract_x
_atom_site_fract_y
_atom_site_fract_z
Si Si1 0.801785 0.306686 0.891183
Si Si2 0.426915 0.336832 0.302454
Si Si3 0.758050 0.486529 0.229650
Si Si4 0.748550 0.411022 0.005419
Si Si5 0.046751 0.484885 0.344364
Si Si6 0.049628 0.846593 0.376898
O O1 0.610756 0.251011 0.844948
O O2 0.000966 0.176682 0.881169
O O3 0.873239 0.500635 0.881870
O O4 0.734915 0.290112 0.952596
O O5 0.528503 0.415068 0.250142
O O6 0.308440 0.482290 0.334938
O O7 0.261522 0.184288 0.283745
O O8 0.828778 0.391136 0.176950
O O9 0.929065 0.464516 0.283234
O O10 0.785676 0.346323 0.067423
O O11 0.500000 0.500000 0.000000
O O12 0.000000 0.500000 0.000000
O O13 0.958186 0.657094 0.368550
#
# Coordination Sequence:
#
# PCOD9250106 Si02
#       6
#     4   4   4   4   4   4
#     4  10  24  44  68  92 136 178 223 290 338 412
#     4  11  23  40  64  96 136 176 225 283 347 415
#     4  11  23  37  64  94 137 175 221 278 346 411
#     4  10  23  46  73 103 133 183 238 284 349 412
#     4  11  24  42  62 101 136 171 229 277 347 417
#     4  11  23  43  70  95 134 179 227 280 345 413
#
# _framework density 20.785209999999999
#
# number of rings (size 3 to 8) (size 9 to 14) (size 15 to 20)
#    0.000    1.333    1.667    3.000    9.333    0.667 
#   12.000    0.833    0.000    0.000    0.000    0.000 
#    0.000    0.000    0.000    0.000    0.000    0.000 
#
# Total GULP energy -133787.861011 kJ/mol
# GULP energy per Si atom -5574.494209 kJ/mol
# Density = 2.073790 g / cm^3
# Si number density = 20.785210 Si / 1000 Ang^3
#
#
#
# Elastic Constant Matrix: (Units=GPa)
#
#
# Indices 1 2 3 4 5 6 
#
# 1 56.6068 12.7445 21.0645 0.0000 -6.3565 0.0000
# 2 12.7445 85.8888 23.8551 0.0000 -4.7002 0.0000
# 3 21.0645 23.8551 148.5530 0.0000 -1.7332 0.0000
# 4 0.0000 0.0000 0.0000 11.6084 0.0000 -6.8082
# 5 -6.3565 -4.7002 -1.7332 0.0000 15.3047 0.0000
# 6 0.0000 0.0000 0.0000 -6.8082 0.0000 22.1923
#
#
#
# Elastic Compliance Matrix: (Units=1/GPa)
#
#
# Indices 1 2 3 4 5 6 
#
# 1 0.019817 -0.001863 -0.002425 0.000000 0.007384 0.000000
# 2 -0.001863 0.012555 -0.001718 0.000000 0.002887 0.000000
# 3 -0.002425 -0.001718 0.007343 0.000000 -0.000703 0.000000
# 4 0.000000 0.000000 0.000000 0.105045 0.000000 0.032226
# 5 0.007384 0.002887 -0.000703 0.000000 0.069213 0.000000
# 6 0.000000 0.000000 0.000000 0.032226 0.000000 0.054947
#
#
# Mechanical properties :
#
#
# Convention : Reuss Voigt Hill
#
# Bulk Modulus (GPa) = 36.09762 45.15300 40.62531
# Shear Modulus (GPa) = 17.23161 25.38005 21.30583
#
# Velocity S-wave (km/s) = 2.88242 3.49816 3.20511
# Velocity P-wave (km/s) = 5.33689 6.17146 5.76929
#
# Compressibility (1/GPa) = 0.02770266
#
# Stress axis : x y z
#
# Youngs Moduli (GPa) = 50.46290 79.65199 136.18176
#
# Poissons Ratio (x) = 0.14839 0.33019
# Poissons Ratio (y) = 0.09401 0.23399
# Poissons Ratio (z) = 0.12235 0.13686
#
# Static dielectric constant tensor:
#      x y z
#    x 1.899660 0.000000 -0.028680 
#    y 0.000000 1.764630 0.000000 
#    z -0.028680 0.000000 1.719720 
# 
# From -- ./inp_files/71032.got.cif
#   From: 2010.05.17/outbox.cif.g08.bks.cpg/sg14_36_cif.got.tgz:71032.got - 2010.06.03 17:49:19.
