data_PCOD9250464
_publ_section_title
;
Structure prediction by ZEFSAII (Michael W. Deem and Ramdas Pophale) SiO2 
 PCOD9250464
Probable space group: P 21/C
;
_chemical_formula_sum "Si O2"
_cell_formula_units_Z 22
_cell_length_a 4.827189
_cell_length_b 22.869512
_cell_length_c 9.179561
_cell_angle_alpha 90.000000
_cell_angle_beta 122.371779
_cell_angle_gamma 90.000000
_cell_volume 855.893927
_symmetry_space_group_name_H-M "P 21/C"
_symmetry_group_IT_number 14
_symmetry_cell_setting 'monoclinic'
loop_
_space_group_symop_operation_xyz
x,y,z
-x,1/2+y,1/2-z
-x,-y,-z
x,1/2-y,1/2+z
loop_
_atom_site_type_symbol
_atom_site_label
_atom_site_fract_x
_atom_site_fract_y
_atom_site_fract_z
Si Si1 0.507909 0.588170 0.168302
Si Si2 0.500000 0.500000 0.000000
Si Si3 0.928178 0.191372 0.922004
Si Si4 0.511738 0.383392 0.512054
Si Si5 0.787013 0.309698 0.050578
Si Si6 0.836000 0.924316 0.348048
O O1 0.424977 0.591492 0.311668
O O2 0.760817 0.541655 0.183636
O O3 0.512648 0.653107 0.103994
O O4 0.206010 0.552574 0.992293
O O5 0.580259 0.547777 0.882221
O O6 0.760207 0.195842 0.716250
O O7 0.801648 0.138236 0.988336
O O8 0.301480 0.175589 0.988378
O O9 0.864850 0.250314 0.991562
O O10 0.284202 0.425358 0.350653
O O11 0.084258 0.355579 0.104655
#
# Coordination Sequence:
#
# PCOD9250464 Si02
#       6
#     4   2   4   4   4   4
#     4  10  24  43  64 100 129 178 219 284 324 403
#     4  12  22  42  76  86 138 174 232 276 352 368
#     4  11  23  43  68 104 135 183 211 275 329 410
#     4  11  25  44  71 100 140 171 228 266 343 395
#     4   9  22  42  65  97 141 167 228 266 335 395
#     4   9  24  44  61 100 131 174 223 284 321 406
#
# _framework density 25.704122000000002
#
# number of rings (size 3 to 8) (size 9 to 14) (size 15 to 20)
#    1.091    0.727    0.000    2.727    2.545    8.000 
#    0.000    1.818    0.000    0.000    0.000    0.000 
#    0.000    0.000    0.000    0.000    0.000    0.000 
#
# Total GULP energy -122621.072160 kJ/mol
# GULP energy per Si atom -5573.685098 kJ/mol
# Density = 2.564562 g / cm^3
# Si number density = 25.704122 Si / 1000 Ang^3
#
#
#
# Elastic Constant Matrix: (Units=GPa)
#
#
# Indices 1 2 3 4 5 6 
#
# 1 97.0949 32.1600 47.7620 0.0000 -21.1073 0.0000
# 2 32.1600 119.6273 70.7671 0.0000 -30.1619 0.0000
# 3 47.7620 70.7671 192.2831 0.0000 -59.7726 0.0000
# 4 0.0000 0.0000 0.0000 40.2549 0.0000 -25.8075
# 5 -21.1073 -30.1619 -59.7726 0.0000 38.8302 0.0000
# 6 0.0000 0.0000 0.0000 -25.8075 0.0000 38.3662
#
#
#
# Elastic Compliance Matrix: (Units=1/GPa)
#
#
# Indices 1 2 3 4 5 6 
#
# 1 0.012242 -0.001635 -0.001468 0.000000 0.003126 0.000000
# 2 -0.001635 0.011294 -0.002492 0.000000 0.004048 0.000000
# 3 -0.001468 -0.002492 0.010801 0.000000 0.013893 0.000000
# 4 0.000000 0.000000 0.000000 0.043677 0.000000 0.029380
# 5 0.003126 0.004048 0.013893 0.000000 0.051982 0.000000
# 6 0.000000 0.000000 0.000000 0.029380 0.000000 0.045827
#
#
# Mechanical properties :
#
#
# Convention : Reuss Voigt Hill
#
# Bulk Modulus (GPa) = 43.20095 78.93147 61.06621
# Shear Modulus (GPa) = 25.67674 40.71134 33.19404
#
# Velocity S-wave (km/s) = 3.16402 3.98407 3.59749
# Velocity P-wave (km/s) = 5.49468 7.20681 6.40819
#
# Compressibility (1/GPa) = 0.02314764
#
# Stress axis : x y z
#
# Youngs Moduli (GPa) = 81.68541 88.54584 92.58275
#
# Poissons Ratio (x) = 0.14476 0.13587
# Poissons Ratio (y) = 0.13355 0.23073
# Poissons Ratio (z) = 0.11988 0.22067
#
# Static dielectric constant tensor:
#      x y z
#    x 2.074110 0.000000 0.148760 
#    y 0.000000 2.031870 0.000000 
#    z 0.148760 0.000000 2.113480 
# 
# From -- ./inp_files/6156.got.cif
#   From: 2010.05.17/outbox.cif.g08.bks.cpg/sg14_4_cif.got.tgz:6156.got - 2010.06.03 17:49:19.
