data_PCOD9250890
_publ_section_title
;
Structure prediction by ZEFSAII (Michael W. Deem and Ramdas Pophale) SiO2 
 PCOD9250890
Probable space group: P 21/C
;
_chemical_formula_sum "Si O2"
_cell_formula_units_Z 30
_cell_length_a 7.774938
_cell_length_b 30.107823
_cell_length_c 5.144260
_cell_angle_alpha 90.000000
_cell_angle_beta 58.827855
_cell_angle_gamma 90.000000
_cell_volume 1030.334159
_symmetry_space_group_name_H-M "P 21/C"
_symmetry_group_IT_number 14
_symmetry_cell_setting 'monoclinic'
loop_
_space_group_symop_operation_xyz
x,y,z
-x,1/2+y,1/2-z
-x,-y,-z
x,1/2-y,1/2+z
loop_
_atom_site_type_symbol
_atom_site_label
_atom_site_fract_x
_atom_site_fract_y
_atom_site_fract_z
Si Si1 0.114605 0.445079 0.101653
Si Si2 0.046550 0.628568 0.086442
Si Si3 0.500000 0.500000 0.500000
Si Si4 0.232796 0.139463 0.790437
Si Si5 0.557586 0.407402 0.293112
Si Si6 0.486919 0.224462 0.696133
Si Si7 0.028450 0.776618 0.593798
Si Si8 0.749495 0.473570 0.760428
O O1 0.234436 0.401277 0.091365
O O2 0.231229 0.492460 0.990151
O O3 0.008112 0.423065 0.937108
O O4 0.948187 0.458204 0.448298
O O5 0.270926 0.628520 0.797665
O O6 0.957038 0.674955 0.045236
O O7 0.996866 0.640328 0.425875
O O8 0.548964 0.447136 0.499066
O O9 0.641998 0.508757 0.653430
O O10 0.346446 0.116137 0.944549
O O11 0.372576 0.182175 0.661151
O O12 0.639748 0.430774 0.963315
O O13 0.435224 0.263839 0.533880
O O14 0.730219 0.220308 0.534570
O O15 0.964460 0.758324 0.924414
#
# Coordination Sequence:
#
# PCOD9250890 Si02
#       8
#     4   4   2   4   4   4   4   4
#     4  11  26  45  67 111 145 193 248 317 364 449
#     4  12  27  47  74 108 149 193 248 311 373 457
#     4  12  24  44  70 100 136 204 246 284 390 426
#     4  12  27  46  73 109 144 192 247 303 376 451
#     4  12  26  47  71 107 141 197 248 300 369 449
#     4  10  24  49  75 113 149 193 249 312 376 460
#     4  10  24  48  80 110 151 200 247 311 389 458
#     4  11  25  46  71  99 154 190 253 311 374 442
#
# _framework density 29.116765999999998
#
# number of rings (size 3 to 8) (size 9 to 14) (size 15 to 20)
#    0.000    0.800    5.333    0.400    5.600    1.600 
#    2.400    0.000    0.000    0.000    0.000    0.000 
#    0.000    0.000    0.000    0.000    0.000    0.000 
#
# Total GULP energy -167206.310263 kJ/mol
# GULP energy per Si atom -5573.543675 kJ/mol
# Density = 2.905050 g / cm^3
# Si number density = 29.116766 Si / 1000 Ang^3
#
#
#
# Elastic Constant Matrix: (Units=GPa)
#
#
# Indices 1 2 3 4 5 6 
#
# 1 81.3381 16.8252 8.7153 0.0000 2.7438 0.0000
# 2 16.8252 150.3203 8.4458 0.0000 6.0699 0.0000
# 3 8.7153 8.4458 95.8567 0.0000 4.4588 0.0000
# 4 0.0000 0.0000 0.0000 44.7790 0.0000 3.1463
# 5 2.7438 6.0699 4.4588 0.0000 45.8703 0.0000
# 6 0.0000 0.0000 0.0000 3.1463 0.0000 56.5373
#
#
#
# Elastic Compliance Matrix: (Units=1/GPa)
#
#
# Indices 1 2 3 4 5 6 
#
# 1 0.012697 -0.001345 -0.001014 0.000000 -0.000483 0.000000
# 2 -0.001345 0.006860 -0.000446 0.000000 -0.000784 0.000000
# 3 -0.001014 -0.000446 0.010606 0.000000 -0.000911 0.000000
# 4 0.000000 0.000000 0.000000 0.022420 0.000000 -0.001248
# 5 -0.000483 -0.000784 -0.000911 0.000000 0.022022 0.000000
# 6 0.000000 0.000000 0.000000 -0.001248 0.000000 0.017757
#
#
# Mechanical properties :
#
#
# Convention : Reuss Voigt Hill
#
# Bulk Modulus (GPa) = 40.72440 43.94307 42.33374
# Shear Modulus (GPa) = 47.10125 49.00592 48.05358
#
# Velocity S-wave (km/s) = 4.02639 4.10699 4.06689
# Velocity P-wave (km/s) = 5.96931 6.13307 6.05175
#
# Compressibility (1/GPa) = 0.02455530
#
# Stress axis : x y z
#
# Youngs Moduli (GPa) = 78.75612 145.77952 94.28588
#
# Poissons Ratio (x) = 0.19604 0.09556
# Poissons Ratio (y) = 0.10591 0.04202
# Poissons Ratio (z) = 0.07982 0.06497
#
# Static dielectric constant tensor:
#      x y z
#    x 2.630050 0.000000 -0.016990 
#    y 0.000000 2.184540 0.000000 
#    z -0.016990 0.000000 2.010910 
# 
# From -- ./inp_files/2207.got.cif
#   From: 2010.05.17/outbox.cif.g08.bks.cpg/sg14_2_cif.got.tgz:2207.got - 2010.06.03 17:49:19.
