data_PCOD9250159
_publ_section_title
;
Structure prediction by ZEFSAII (Michael W. Deem and Ramdas Pophale) SiO2 
 PCOD9250159
Probable space group: P 21/C
;
_chemical_formula_sum "Si O2"
_cell_formula_units_Z 28
_cell_length_a 13.635473
_cell_length_b 5.544455
_cell_length_c 17.803705
_cell_angle_alpha 90.000000
_cell_angle_beta 125.877240
_cell_angle_gamma 90.000000
_cell_volume 1090.615422
_symmetry_space_group_name_H-M "P 21/C"
_symmetry_group_IT_number 14
_symmetry_cell_setting 'monoclinic'
loop_
_space_group_symop_operation_xyz
x,y,z
-x,1/2+y,1/2-z
-x,-y,-z
x,1/2-y,1/2+z
loop_
_atom_site_type_symbol
_atom_site_label
_atom_site_fract_x
_atom_site_fract_y
_atom_site_fract_z
Si Si1 0.206536 0.280209 0.015708
Si Si2 0.944459 0.393417 0.631378
Si Si3 0.868565 0.567568 0.864016
Si Si4 0.615243 0.823491 0.199561
Si Si5 0.828153 0.301120 0.221889
Si Si6 0.655214 0.624724 0.067611
Si Si7 0.515810 0.827711 0.358089
O O1 0.136837 0.427637 0.048750
O O2 0.346127 0.267874 0.106695
O O3 0.231806 0.371309 0.941560
O O4 0.128062 0.041415 0.964893
O O5 0.012068 0.170994 0.621947
O O6 0.056872 0.525434 0.721309
O O7 0.854369 0.358503 0.660351
O O8 0.751357 0.725376 0.788401
O O9 0.835464 0.324501 0.805849
O O10 0.628019 0.835262 0.114351
O O11 0.532583 0.594030 0.186156
O O12 0.560794 0.087287 0.194827
O O13 0.701536 0.422507 0.146100
O O14 0.545749 0.627904 0.960115
#
# Coordination Sequence:
#
# PCOD9250159 Si02
#       7
#     4   4   4   4   4   4   4
#     4  10  27  47  69 112 149 198 246 321 398 459
#     4  12  24  47  73 106 147 196 262 314 387 463
#     4  12  27  45  74 106 151 199 248 324 392 464
#     4  12  23  48  76 111 150 204 265 310 377 462
#     4  12  24  47  75 107 145 199 261 318 384 467
#     4  10  23  47  71 110 144 195 254 314 375 456
#     4  10  27  45  79 110 152 202 260 315 382 456
#
# _framework density 25.673580000000001
#
# number of rings (size 3 to 8) (size 9 to 14) (size 15 to 20)
#    0.857    0.000    2.857    3.857    2.000    1.714 
#    5.143    0.000    0.000    0.000    0.000    0.000 
#    0.000    0.000    0.000    0.000    0.000    0.000 
#
# Total GULP energy -156189.092703 kJ/mol
# GULP energy per Si atom -5578.181882 kJ/mol
# Density = 2.561515 g / cm^3
# Si number density = 25.673580 Si / 1000 Ang^3
#
#
#
# Elastic Constant Matrix: (Units=GPa)
#
#
# Indices 1 2 3 4 5 6 
#
# 1 75.7124 24.2324 8.8685 0.0000 6.9267 0.0000
# 2 24.2324 107.8299 36.3055 0.0000 13.8974 0.0000
# 3 8.8685 36.3055 55.2236 0.0000 -5.3675 0.0000
# 4 0.0000 0.0000 0.0000 34.4680 0.0000 40.5603
# 5 6.9267 13.8974 -5.3675 0.0000 57.9166 0.0000
# 6 0.0000 0.0000 0.0000 40.5603 0.0000 -15.8321
#
#
#
# Elastic Compliance Matrix: (Units=1/GPa)
#
#
# Indices 1 2 3 4 5 6 
#
# 1 0.014293 -0.002914 -0.000482 0.000000 -0.001055 0.000000
# 2 -0.002914 0.013305 -0.008633 0.000000 -0.003644 0.000000
# 3 -0.000482 -0.008633 0.024287 0.000000 0.004380 0.000000
# 4 0.000000 0.000000 0.000000 0.007226 0.000000 0.018514
# 5 -0.001055 -0.003644 0.004380 0.000000 0.018673 0.000000
# 6 0.000000 0.000000 0.000000 0.018514 0.000000 -0.015733
#
#
# Mechanical properties :
#
#
# Convention : Reuss Voigt Hill
#
# Bulk Modulus (GPa) = 35.93671 41.95319 38.94495
# Shear Modulus (GPa) = 52.41796 26.60114 39.50955
#
# Velocity S-wave (km/s) = 4.52343 3.22239 3.92716
# Velocity P-wave (km/s) = 6.42727 5.49741 5.98044
#
# Compressibility (1/GPa) = 0.02782670
#
# Stress axis : x y z
#
# Youngs Moduli (GPa) = 69.96205 75.15880 41.17384
#
# Poissons Ratio (x) = 0.21899 0.01986
# Poissons Ratio (y) = 0.20385 0.35547
# Poissons Ratio (z) = 0.03375 0.64888
#
# Static dielectric constant tensor:
#      x y z
#    x 2.207390 0.000000 -0.031550 
#    y 0.000000 2.112920 0.000000 
#    z -0.031550 0.000000 1.995930 
# 
# From -- ./inp_files/58504.got.cif
#   From: 2010.05.17/outbox.cif.g08.bks.cpg/sg14_30_cif.got.tgz:58504.got - 2010.06.03 17:49:19.
